data_PCOD9129581
_publ_section_title
;
Structure prediction by ZEFSAII (Michael W. Deem and Ramdas Pophale) SiO2 
 PCOD9129581
Probable space group: C 2
;
_chemical_formula_sum "Si O2"
_cell_formula_units_Z 18
_cell_length_a 8.221711
_cell_length_b 21.143409
_cell_length_c 5.568118
_cell_angle_alpha 90.000000
_cell_angle_beta 51.114463
_cell_angle_gamma 90.000000
_cell_volume 753.441243
_symmetry_space_group_name_H-M "C 2"
_symmetry_group_IT_number 5
_symmetry_cell_setting 'monoclinic'
loop_
_space_group_symop_operation_xyz
x,y,z
-x,y,-z
1/2+x,1/2+y,z
1/2-x,1/2+y,-z
loop_
_atom_site_type_symbol
_atom_site_label
_atom_site_fract_x
_atom_site_fract_y
_atom_site_fract_z
Si Si1 0.372789 0.373200 0.867066
Si Si2 0.000000 0.091413 0.000000
Si Si3 0.186042 0.502676 0.175881
Si Si4 0.500000 0.798103 0.000000
Si Si5 0.000000 0.609383 0.000000
Si Si6 0.354340 0.694824 0.443705
O O1 0.500000 0.362559 0.500000
O O2 0.500000 0.356788 0.000000
O O3 0.319658 0.447938 0.933594
O O4 0.145969 0.340119 0.038594
O O5 0.013552 0.140255 0.203761
O O6 0.818936 0.043875 0.239308
O O7 0.000000 0.472941 0.500000
O O8 0.116196 0.559093 0.064705
O O9 0.330090 0.749055 0.270095
O O10 0.150229 0.657551 0.714599
O O11 0.500000 0.728944 0.500000
#
# Coordination Sequence:
#
# PCOD9129581 Si02
#       6
#     4   2   4   2   2   4
#     4  12  32  54  85 120 164 220 278 339 407 482
#     4  11  22  44  65 113 152 195 252 320 410 477
#     4  12  26  44  78 114 162 200 264 332 419 486
#     4  11  31  56  78 110 167 215 286 332 396 479
#     4  12  25  42  79 119 153 206 260 330 422 484
#     4  11  25  45  75 110 156 208 260 332 398 480
#
# _framework density 23.890384000000001
#
# number of rings (size 3 to 8) (size 9 to 14) (size 15 to 20)
#    0.000    0.444    5.556    0.667   12.444    1.778 
#    0.000    0.000    0.000    0.000    0.000    0.000 
#    0.000    0.000    0.000    0.000    0.000    0.000 
#
# Total GULP energy -50125.402877 kJ/mol
# GULP energy per Si atom -5569.489209 kJ/mol
# Density = 2.383601 g / cm^3
# Si number density = 23.890384 Si / 1000 Ang^3
#
#
#
# Elastic Constant Matrix: (Units=GPa)
#
#
# Indices 1 2 3 4 5 6 
#
# 1 102.4995 62.6603 26.2097 0.0000 3.9907 0.0000
# 2 62.6603 137.9687 39.6205 0.0000 -0.0446 0.0000
# 3 26.2097 39.6205 97.4858 0.0000 2.6174 0.0000
# 4 0.0000 0.0000 0.0000 35.5895 0.0000 2.1929
# 5 3.9907 -0.0446 2.6174 0.0000 19.2933 0.0000
# 6 0.0000 0.0000 0.0000 2.1929 0.0000 36.1727
#
#
#
# Elastic Compliance Matrix: (Units=1/GPa)
#
#
# Indices 1 2 3 4 5 6 
#
# 1 0.013789 -0.005909 -0.001233 0.000000 -0.002698 0.000000
# 2 -0.005909 0.010742 -0.002821 0.000000 0.001630 0.000000
# 3 -0.001233 -0.002821 0.011772 0.000000 -0.001349 0.000000
# 4 0.000000 0.000000 0.000000 0.028204 0.000000 -0.001710
# 5 -0.002698 0.001630 -0.001349 0.000000 0.052576 0.000000
# 6 0.000000 0.000000 0.000000 -0.001710 0.000000 0.027749
#
#
# Mechanical properties :
#
#
# Convention : Reuss Voigt Hill
#
# Bulk Modulus (GPa) = 61.06188 66.10389 63.58289
# Shear Modulus (GPa) = 29.37412 32.17534 30.77473
#
# Velocity S-wave (km/s) = 3.51028 3.67385 3.59299
# Velocity P-wave (km/s) = 6.48414 6.76209 6.62458
#
# Compressibility (1/GPa) = 0.01637683
#
# Stress axis : x y z
#
# Youngs Moduli (GPa) = 72.52184 93.08931 84.94603
#
# Poissons Ratio (x) = 0.55008 0.10475
# Poissons Ratio (y) = 0.42854 0.23963
# Poissons Ratio (z) = 0.08943 0.26260
#
# Static dielectric constant tensor:
#      x y z
#    x 2.196700 0.000000 -0.105360 
#    y 0.000000 1.784690 0.000000 
#    z -0.105360 0.000000 2.135880 
# 
# From -- ./inp_files/2781.got.cif
#   From: 2010.05.17/outbox.cif.g08.bks.cpg/sg5_2_cif.got.tgz:2781.got - 2010.06.03 18:56:24.
