data_PCOD9129686
_publ_section_title
;
Structure prediction by ZEFSAII (Michael W. Deem and Ramdas Pophale) SiO2 
 PCOD9129686
Probable space group: C 2
;
_chemical_formula_sum "Si O2"
_cell_formula_units_Z 32
_cell_length_a 14.765075
_cell_length_b 22.544847
_cell_length_c 8.358812
_cell_angle_alpha 90.000000
_cell_angle_beta 149.195469
_cell_angle_gamma 90.000000
_cell_volume 1424.923123
_symmetry_space_group_name_H-M "C 2"
_symmetry_group_IT_number 5
_symmetry_cell_setting 'monoclinic'
loop_
_space_group_symop_operation_xyz
x,y,z
-x,y,-z
1/2+x,1/2+y,z
1/2-x,1/2+y,-z
loop_
_atom_site_type_symbol
_atom_site_label
_atom_site_fract_x
_atom_site_fract_y
_atom_site_fract_z
Si Si1 0.845261 0.956870 0.390602
Si Si2 0.729376 0.804862 0.698420
Si Si3 0.822053 0.184680 0.186857
Si Si4 0.828620 0.520439 0.625088
Si Si5 0.984690 0.423533 0.657056
Si Si6 0.048691 0.644819 0.260629
Si Si7 0.317996 0.735975 0.825353
Si Si8 0.096712 0.832871 0.377723
O O1 0.881074 0.901766 0.561190
O O2 0.000000 0.964280 0.500000
O O3 0.824111 0.012907 0.476189
O O4 0.666645 0.937538 0.025294
O O5 0.677508 0.740459 0.686552
O O6 0.577116 0.854768 0.449793
O O7 0.820809 0.808543 0.663045
O O8 0.887750 0.822129 0.059244
O O9 0.000000 0.149279 0.500000
O O10 0.637662 0.150592 0.930529
O O11 0.837855 0.208124 0.030246
O O12 0.851744 0.582154 0.570488
O O13 0.839781 0.463936 0.526647
O O14 0.000000 0.517413 0.000000
O O15 0.000000 0.445236 0.500000
O O16 0.181351 0.694814 0.521420
O O17 0.000000 0.652862 0.000000
O O18 0.213852 0.797997 0.684324
O O19 0.500000 0.741970 0.000000
#
# Coordination Sequence:
#
# PCOD9129686 Si02
#       8
#     4   4   4   4   4   4   4   4
#     4  11  24  42  68 104 141 189 237 292 360 429
#     4  11  23  41  63  99 144 191 224 291 356 424
#     4  12  26  43  69 106 148 186 244 297 363 432
#     4   9  22  46  71  97 136 188 239 304 352 417
#     4  11  23  40  64  99 139 184 238 281 356 423
#     4  11  23  48  74  99 140 189 244 305 365 420
#     4  12  27  43  67 105 144 196 240 294 362 434
#     4  11  24  39  65  97 146 189 231 281 358 430
#
# _framework density 22.457350999999999
#
# number of rings (size 3 to 8) (size 9 to 14) (size 15 to 20)
#    0.000    1.000    2.500    3.750    7.000    1.000 
#    0.000   11.875    0.000    0.000    0.000    0.000 
#    0.000    0.000    0.000    0.000    0.000    0.000 
#
# Total GULP energy -89392.482638 kJ/mol
# GULP energy per Si atom -5587.030165 kJ/mol
# Density = 2.240624 g / cm^3
# Si number density = 22.457351 Si / 1000 Ang^3
#
#
#
# Elastic Constant Matrix: (Units=GPa)
#
#
# Indices 1 2 3 4 5 6 
#
# 1 105.9095 36.9981 22.6415 0.0000 15.9715 0.0000
# 2 36.9981 87.5939 11.7629 0.0000 23.3293 0.0000
# 3 22.6415 11.7629 95.6627 0.0000 27.1759 0.0000
# 4 0.0000 0.0000 0.0000 15.4952 0.0000 3.3697
# 5 15.9715 23.3293 27.1759 0.0000 31.5473 0.0000
# 6 0.0000 0.0000 0.0000 3.3697 0.0000 17.2047
#
#
#
# Elastic Compliance Matrix: (Units=1/GPa)
#
#
# Indices 1 2 3 4 5 6 
#
# 1 0.011517 -0.004351 -0.001918 0.000000 -0.000961 0.000000
# 2 -0.004351 0.016057 0.002387 0.000000 -0.011728 0.000000
# 3 -0.001918 0.002387 0.014351 0.000000 -0.013157 0.000000
# 4 0.000000 0.000000 0.000000 0.067407 0.000000 -0.013202
# 5 -0.000961 -0.011728 -0.013157 0.000000 0.052192 0.000000
# 6 0.000000 0.000000 0.000000 -0.013202 0.000000 0.060709
#
#
# Mechanical properties :
#
#
# Convention : Reuss Voigt Hill
#
# Bulk Modulus (GPa) = 29.27249 47.99678 38.63464
# Shear Modulus (GPa) = 20.71383 27.36702 24.04043
#
# Velocity S-wave (km/s) = 3.04034 3.49466 3.27539
# Velocity P-wave (km/s) = 5.03864 6.14023 5.61650
#
# Compressibility (1/GPa) = 0.03416177
#
# Stress axis : x y z
#
# Youngs Moduli (GPa) = 86.82875 62.27782 69.67925
#
# Poissons Ratio (x) = 0.27097 0.13363
# Poissons Ratio (y) = 0.37780 -0.16632
# Poissons Ratio (z) = 0.16652 -0.14866
#
# Static dielectric constant tensor:
#      x y z
#    x 1.886290 0.000000 0.061220 
#    y 0.000000 1.885790 0.000000 
#    z 0.061220 0.000000 1.933870 
# 
# From -- ./inp_files/25661.got.cif
#   From: 2010.05.17/outbox.cif.g08.bks.cpg/sg5_13_cif.got.tgz:25661.got - 2010.06.03 18:56:24.
