data_PCOD9129994
_publ_section_title
;
Structure prediction by ZEFSAII (Michael W. Deem and Ramdas Pophale) SiO2 
 PCOD9129994
Probable space group: C 2
;
_chemical_formula_sum "Si O2"
_cell_formula_units_Z 30
_cell_length_a 11.511436
_cell_length_b 11.586969
_cell_length_c 11.188674
_cell_angle_alpha 90.000000
_cell_angle_beta 69.550028
_cell_angle_gamma 90.000000
_cell_volume 1398.321982
_symmetry_space_group_name_H-M "C 2"
_symmetry_group_IT_number 5
_symmetry_cell_setting 'monoclinic'
loop_
_space_group_symop_operation_xyz
x,y,z
-x,y,-z
1/2+x,1/2+y,z
1/2-x,1/2+y,-z
loop_
_atom_site_type_symbol
_atom_site_label
_atom_site_fract_x
_atom_site_fract_y
_atom_site_fract_z
Si Si1 0.736717 0.993830 0.705594
Si Si2 0.361560 0.501864 0.907405
Si Si3 0.110203 0.110892 0.750663
Si Si4 0.110850 0.921518 0.553712
Si Si5 0.662221 0.043855 0.163362
Si Si6 0.513080 0.850329 0.854837
Si Si7 0.500000 0.311702 0.000000
Si Si8 0.581248 0.201688 0.736107
O O1 0.835837 0.986810 0.776164
O O2 0.771139 0.920643 0.576711
O O3 0.614285 0.950525 0.815395
O O4 0.700725 0.121298 0.675725
O O5 0.490589 0.568434 0.867537
O O6 0.244276 0.561849 0.013194
O O7 0.397608 0.385307 0.963727
O O8 0.234908 0.070408 0.773055
O O9 0.078383 0.246030 0.760139
O O10 0.111940 0.040102 0.627540
O O11 0.093908 0.813846 0.648355
O O12 0.000000 0.921607 0.500000
O O13 0.547322 0.129478 0.233125
O O14 0.605133 0.914195 0.164059
O O15 0.500000 0.818685 0.000000
O O16 0.426279 0.240593 0.124406
#
# Coordination Sequence:
#
# PCOD9129994 Si02
#       8
#     4   4   4   4   4   4   2   4
#     4  11  26  46  70 103 139 185 239 298 356 439
#     4  12  21  43  68 105 146 179 228 297 360 432
#     4  12  26  44  69 108 142 195 235 298 366 431
#     4  12  26  50  68  98 139 189 248 283 363 445
#     4  11  24  44  71 109 146 178 243 300 366 434
#     4  11  25  45  72 109 144 187 235 302 371 425
#     4  12  22  40  68 110 138 178 238 276 370 422
#     4  11  26  44  75 103 137 191 234 305 359 433
#
# _framework density 21.454284999999999
#
# number of rings (size 3 to 8) (size 9 to 14) (size 15 to 20)
#    0.000    0.533    5.333    1.600    7.467    3.200 
#    0.000    2.000    0.000    0.000    0.000    0.000 
#    0.000    0.000    0.000    0.000    0.000    0.000 
#
# Total GULP energy -83669.715211 kJ/mol
# GULP energy per Si atom -5577.981014 kJ/mol
# Density = 2.140545 g / cm^3
# Si number density = 21.454285 Si / 1000 Ang^3
#
#
#
# Elastic Constant Matrix: (Units=GPa)
#
#
# Indices 1 2 3 4 5 6 
#
# 1 111.3193 51.2271 29.5763 0.0000 4.1483 0.0000
# 2 51.2271 106.2693 41.6366 0.0000 14.7968 0.0000
# 3 29.5763 41.6366 119.4724 0.0000 -0.5629 0.0000
# 4 0.0000 0.0000 0.0000 -6.3777 0.0000 -20.3509
# 5 4.1483 14.7968 -0.5629 0.0000 22.4620 0.0000
# 6 0.0000 0.0000 0.0000 -20.3509 0.0000 16.1986
#
#
#
# Elastic Compliance Matrix: (Units=1/GPa)
#
#
# Indices 1 2 3 4 5 6 
#
# 1 0.011701 -0.005447 -0.000992 0.000000 0.001403 0.000000
# 2 -0.005447 0.014768 -0.003840 0.000000 -0.008819 0.000000
# 3 -0.000992 -0.003840 0.009968 0.000000 0.002962 0.000000
# 4 0.000000 0.000000 0.000000 -0.031304 0.000000 -0.039328
# 5 0.001403 -0.008819 0.002962 0.000000 0.050144 0.000000
# 6 0.000000 0.000000 0.000000 -0.039328 0.000000 0.012325
#
#
# Mechanical properties :
#
#
# Convention : Reuss Voigt Hill
#
# Bulk Modulus (GPa) = 62.97390 64.66009 63.81700
# Shear Modulus (GPa) = 53.50263 20.76464 37.13364
#
# Velocity S-wave (km/s) = 4.99921 3.11441 4.16483
# Velocity P-wave (km/s) = 7.92080 6.56786 7.27585
#
# Compressibility (1/GPa) = 0.01587959
#
# Stress axis : x y z
#
# Youngs Moduli (GPa) = 85.46197 67.71276 100.32314
#
# Poissons Ratio (x) = 0.36885 0.09949
# Poissons Ratio (y) = 0.46553 0.38522
# Poissons Ratio (z) = 0.08475 0.26001
#
# Static dielectric constant tensor:
#      x y z
#    x 2.014240 0.000000 -0.068020 
#    y 0.000000 1.955840 0.000000 
#    z -0.068020 0.000000 1.790550 
# 
# From -- ./inp_files/39134.got.cif
#   From: 2010.05.17/outbox.cif.g08.bks.cpg/sg5_20_cif.got.tgz:39134.got - 2010.06.03 18:56:24.
