data_PCOD9129033
_publ_section_title
;
Structure prediction by ZEFSAII (Michael W. Deem and Ramdas Pophale) SiO2 
 PCOD9129033
Probable space group: C 2
;
_chemical_formula_sum "Si O2"
_cell_formula_units_Z 26
_cell_length_a 22.339386
_cell_length_b 7.307763
_cell_length_c 9.999929
_cell_angle_alpha 90.000000
_cell_angle_beta 40.309194
_cell_angle_gamma 90.000000
_cell_volume 1056.082663
_symmetry_space_group_name_H-M "C 2"
_symmetry_group_IT_number 5
_symmetry_cell_setting 'monoclinic'
loop_
_space_group_symop_operation_xyz
x,y,z
-x,y,-z
1/2+x,1/2+y,z
1/2-x,1/2+y,-z
loop_
_atom_site_type_symbol
_atom_site_label
_atom_site_fract_x
_atom_site_fract_y
_atom_site_fract_z
Si Si1 0.303062 0.261930 0.556070
Si Si2 0.651004 0.099666 0.259137
Si Si3 0.140577 0.174273 0.466575
Si Si4 0.688955 0.366480 0.978253
Si Si5 0.396765 0.793306 0.173786
Si Si6 0.097921 0.715000 0.886395
Si Si7 0.500000 0.804037 0.500000
O O1 0.360350 0.140922 0.564419
O O2 0.326453 0.470524 0.553853
O O3 0.193759 0.213685 0.746004
O O4 0.331236 0.238774 0.355275
O O5 0.759520 0.047808 0.062406
O O6 0.582872 0.944387 0.320277
O O7 0.641029 0.278196 0.187763
O O8 0.222629 0.257989 0.236400
O O9 0.129114 0.286943 0.624391
O O10 0.045725 0.189309 0.542468
O O11 0.618989 0.338456 0.977171
O O12 0.405629 0.994683 0.090782
O O13 0.500000 0.710683 0.000000
O O14 0.000000 0.773298 0.000000
#
# Coordination Sequence:
#
# PCOD9129033 Si02
#       7
#     4   4   4   4   4   4   2
#     4  12  24  47  70 105 141 187 237 297 359 419
#     4  11  27  44  73  97 144 188 237 293 358 417
#     4  11  24  43  70 100 140 180 239 295 350 422
#     4  11  23  45  68  98 136 186 236 287 351 418
#     4  11  24  42  74 100 141 184 237 290 358 416
#     4  11  25  43  71 101 140 185 235 288 355 419
#     4  10  26  46  68 100 140 186 242 294 360 414
#
# _framework density 24.619285000000001
#
# number of rings (size 3 to 8) (size 9 to 14) (size 15 to 20)
#    0.000    0.923    3.077    2.769    8.615    2.462 
#    5.538    0.000    0.000    0.000    0.000    0.000 
#    0.000    0.000    0.000    0.000    0.000    0.000 
#
# Total GULP energy -72642.230597 kJ/mol
# GULP energy per Si atom -5587.863892 kJ/mol
# Density = 2.456325 g / cm^3
# Si number density = 24.619285 Si / 1000 Ang^3
#
#
#
# Elastic Constant Matrix: (Units=GPa)
#
#
# Indices 1 2 3 4 5 6 
#
# 1 183.6073 4.0164 24.0265 0.0000 -14.4788 0.0000
# 2 4.0164 40.6480 -11.7376 0.0000 4.3917 0.0000
# 3 24.0265 -11.7376 53.8226 0.0000 3.0146 0.0000
# 4 0.0000 0.0000 0.0000 24.8913 0.0000 -7.8758
# 5 -14.4788 4.3917 3.0146 0.0000 41.5330 0.0000
# 6 0.0000 0.0000 0.0000 -7.8758 0.0000 8.8284
#
#
#
# Elastic Compliance Matrix: (Units=1/GPa)
#
#
# Indices 1 2 3 4 5 6 
#
# 1 0.006117 -0.001826 -0.003272 0.000000 0.002563 0.000000
# 2 -0.001826 0.027232 0.006979 0.000000 -0.004023 0.000000
# 3 -0.003272 0.006979 0.021756 0.000000 -0.003458 0.000000
# 4 0.000000 0.000000 0.000000 0.055974 0.000000 0.049934
# 5 0.002563 -0.004023 -0.003458 0.000000 0.025647 0.000000
# 6 0.000000 0.000000 0.000000 0.049934 0.000000 0.157817
#
#
# Mechanical properties :
#
#
# Convention : Reuss Voigt Hill
#
# Bulk Modulus (GPa) = 16.98772 34.52093 25.75433
# Shear Modulus (GPa) = 16.10808 32.50205 24.30506
#
# Velocity S-wave (km/s) = 2.56068 3.63738 3.14544
# Velocity P-wave (km/s) = 3.95701 5.62966 4.86575
#
# Compressibility (1/GPa) = 0.05886604
#
# Stress axis : x y z
#
# Youngs Moduli (GPa) = 163.48771 36.72168 45.96433
#
# Poissons Ratio (x) = 0.06706 0.15041
# Poissons Ratio (y) = 0.29856 -0.32080
# Poissons Ratio (z) = 0.53498 -0.25629
#
# Static dielectric constant tensor:
#      x y z
#    x 1.998920 0.000000 -0.036760 
#    y 0.000000 1.999560 0.000000 
#    z -0.036760 0.000000 2.030070 
# 
# From -- ./inp_files/28902.got.cif
#   From: 2010.05.17/outbox.cif.g08.bks.cpg/sg5_15_cif.got.tgz:28902.got - 2010.06.03 18:56:24.
