data_PCOD9129002
_publ_section_title
;
Structure prediction by ZEFSAII (Michael W. Deem and Ramdas Pophale) SiO2 
 PCOD9129002
Probable space group: C 2
;
_chemical_formula_sum "Si O2"
_cell_formula_units_Z 20
_cell_length_a 25.268785
_cell_length_b 4.696656
_cell_length_c 8.238558
_cell_angle_alpha 90.000000
_cell_angle_beta 47.094388
_cell_angle_gamma 90.000000
_cell_volume 716.172838
_symmetry_space_group_name_H-M "C 2"
_symmetry_group_IT_number 5
_symmetry_cell_setting 'monoclinic'
loop_
_space_group_symop_operation_xyz
x,y,z
-x,y,-z
1/2+x,1/2+y,z
1/2-x,1/2+y,-z
loop_
_atom_site_type_symbol
_atom_site_label
_atom_site_fract_x
_atom_site_fract_y
_atom_site_fract_z
Si Si1 0.339914 0.558170 0.671133
Si Si2 0.041928 0.194349 0.078153
Si Si3 0.679676 0.913089 0.969081
Si Si4 0.246492 0.348030 0.391661
Si Si5 0.021863 0.694723 0.635124
O O1 0.265070 0.373480 0.837716
O O2 0.326761 0.753847 0.541591
O O3 0.400405 0.329168 0.508369
O O4 0.352235 0.764730 0.800665
O O5 0.031704 0.860749 0.131725
O O6 0.992153 0.364800 0.309943
O O7 0.123184 0.294017 0.951227
O O8 0.000000 0.261423 0.000000
O O9 0.694404 0.238042 0.865815
O O10 0.243192 0.663101 0.466743
O O11 0.000000 0.766979 0.500000
#
# Coordination Sequence:
#
# PCOD9129002 Si02
#       5
#     4   4   4   4   4
#     4  10  26  44  78 104 149 188 250 291 364 425
#     4  12  29  48  74 107 152 190 239 300 367 427
#     4  10  26  46  76 107 147 190 250 287 368 426
#     4  10  26  43  72 106 146 181 239 298 361 414
#     4  12  27  48  72 107 146 192 241 294 364 433
#
# _framework density 27.926219
#
# number of rings (size 3 to 8) (size 9 to 14) (size 15 to 20)
#    1.200    0.000    2.000    1.200   11.200    1.600 
#    0.000    0.000    0.000    0.000    0.000    0.000 
#    0.000    0.000    0.000    0.000    0.000    0.000 
#
# Total GULP energy -55819.367251 kJ/mol
# GULP energy per Si atom -5581.936725 kJ/mol
# Density = 2.786266 g / cm^3
# Si number density = 27.926219 Si / 1000 Ang^3
#
#
#
# Elastic Constant Matrix: (Units=GPa)
#
#
# Indices 1 2 3 4 5 6 
#
# 1 182.7588 16.3390 41.5609 0.0000 13.3936 0.0000
# 2 16.3390 94.4685 18.6899 -0.0001 -1.3733 -0.0001
# 3 41.5609 18.6899 72.9145 0.0000 -6.3530 0.0000
# 4 0.0000 -0.0001 0.0000 57.8855 0.0000 -2.9005
# 5 13.3936 -1.3733 -6.3530 0.0000 62.9686 0.0000
# 6 0.0000 -0.0001 0.0000 -2.9005 0.0000 29.2806
#
#
#
# Elastic Compliance Matrix: (Units=1/GPa)
#
#
# Indices 1 2 3 4 5 6 
#
# 1 0.006490 -0.000406 -0.003749 0.000000 -0.001768 0.000000
# 2 -0.000406 0.011177 -0.002628 0.000000 0.000065 0.000000
# 3 -0.003749 -0.002628 0.016737 0.000000 0.002429 0.000000
# 4 0.000000 0.000000 0.000000 0.017362 0.000000 0.001720
# 5 -0.001768 0.000065 0.002429 0.000000 0.016503 0.000000
# 6 0.000000 0.000000 0.000000 0.001720 0.000000 0.034323
#
#
# Mechanical properties :
#
#
# Convention : Reuss Voigt Hill
#
# Bulk Modulus (GPa) = 47.99084 55.92459 51.95771
# Shear Modulus (GPa) = 40.61628 48.26375 44.44001
#
# Velocity S-wave (km/s) = 3.81782 4.16174 3.99348
# Velocity P-wave (km/s) = 6.05446 6.56984 6.31741
#
# Compressibility (1/GPa) = 0.02083731
#
# Stress axis : x y z
#
# Youngs Moduli (GPa) = 154.07924 89.47251 59.74846
#
# Poissons Ratio (x) = 0.03637 0.22401
# Poissons Ratio (y) = 0.06263 0.15699
# Poissons Ratio (z) = 0.57767 0.23509
#
# Static dielectric constant tensor:
#      x y z
#    x 2.145680 0.000000 -0.074710 
#    y 0.000000 2.198650 0.000000 
#    z -0.074710 0.000000 2.336770 
# 
# From -- ./inp_files/31338.got.cif
#   From: 2010.05.17/outbox.cif.g08.bks.cpg/sg5_16_cif.got.tgz:31338.got - 2010.06.03 18:56:24.
