data_PCOD9129729
_publ_section_title
;
Structure prediction by ZEFSAII (Michael W. Deem and Ramdas Pophale) SiO2 
 PCOD9129729
Probable space group: C 2
;
_chemical_formula_sum "Si O2"
_cell_formula_units_Z 18
_cell_length_a 10.301294
_cell_length_b 15.039832
_cell_length_c 4.751479
_cell_angle_alpha 90.000000
_cell_angle_beta 110.292813
_cell_angle_gamma 90.000000
_cell_volume 690.454622
_symmetry_space_group_name_H-M "C 2"
_symmetry_group_IT_number 5
_symmetry_cell_setting 'monoclinic'
loop_
_space_group_symop_operation_xyz
x,y,z
-x,y,-z
1/2+x,1/2+y,z
1/2-x,1/2+y,-z
loop_
_atom_site_type_symbol
_atom_site_label
_atom_site_fract_x
_atom_site_fract_y
_atom_site_fract_z
Si Si1 0.358313 0.155430 0.750802
Si Si2 0.000000 0.826882 0.000000
Si Si3 0.903831 0.229347 0.160899
Si Si4 0.840351 0.494842 0.355301
Si Si5 0.234546 0.896750 0.790913
O O1 0.404471 0.258493 0.744046
O O2 0.218724 0.168030 0.818867
O O3 0.330578 0.094751 0.462518
O O4 0.500000 0.119803 0.000000
O O5 0.909754 0.878109 0.161476
O O6 0.832748 0.313570 0.950038
O O7 0.000000 0.254155 0.500000
O O8 0.000000 0.184040 0.000000
O O9 0.796090 0.480846 0.004869
O O10 0.000000 0.467517 0.500000
O O11 0.749355 0.428406 0.481937
#
# Coordination Sequence:
#
# PCOD9129729 Si02
#       5
#     4   2   4   4   4
#     4   9  22  46  69  98 137 192 228 277 346 427
#     4   8  22  48  70  98 140 192 232 276 352 428
#     4  11  23  42  67 100 135 178 230 290 345 410
#     4  12  24  42  70 101 137 177 233 290 345 410
#     4  11  23  44  69 100 135 181 229 292 343 414
#
# _framework density 26.069777999999999
#
# number of rings (size 3 to 8) (size 9 to 14) (size 15 to 20)
#    0.667    0.889    0.000    5.333    0.000    4.444 
#   14.000    0.000    0.000    0.000    0.000    0.000 
#    0.000    0.000    0.000    0.000    0.000    0.000 
#
# Total GULP energy -50417.974074 kJ/mol
# GULP energy per Si atom -5601.997119 kJ/mol
# Density = 2.601044 g / cm^3
# Si number density = 26.069778 Si / 1000 Ang^3
#
#
#
# Elastic Constant Matrix: (Units=GPa)
#
#
# Indices 1 2 3 4 5 6 
#
# 1 172.7614 30.7416 24.9774 0.0000 -42.2114 0.0000
# 2 30.7416 88.8134 3.6360 0.0000 -2.9619 0.0000
# 3 24.9774 3.6360 100.3801 0.0000 -4.4023 0.0000
# 4 0.0000 0.0000 0.0000 38.9397 0.0000 -5.0890
# 5 -42.2114 -2.9619 -4.4023 0.0000 47.0578 0.0000
# 6 0.0000 0.0000 0.0000 -5.0890 0.0000 24.4836
#
#
#
# Elastic Compliance Matrix: (Units=1/GPa)
#
#
# Indices 1 2 3 4 5 6 
#
# 1 0.008196 -0.002535 -0.001639 0.000000 0.007039 0.000000
# 2 -0.002535 0.012082 0.000127 0.000000 -0.001502 0.000000
# 3 -0.001639 0.000127 0.010344 0.000000 -0.000494 0.000000
# 4 0.000000 0.000000 0.000000 0.026398 0.000000 0.005487
# 5 0.007039 -0.001502 -0.000494 0.000000 0.027424 0.000000
# 6 0.000000 0.000000 0.000000 0.005487 0.000000 0.041984
#
#
# Mechanical properties :
#
#
# Convention : Reuss Voigt Hill
#
# Bulk Modulus (GPa) = 44.38882 53.40722 48.89802
# Shear Modulus (GPa) = 35.20367 42.26956 38.73661
#
# Velocity S-wave (km/s) = 3.67872 4.03103 3.85890
# Velocity P-wave (km/s) = 5.92519 6.49587 6.21708
#
# Compressibility (1/GPa) = 0.02252820
#
# Stress axis : x y z
#
# Youngs Moduli (GPa) = 122.00562 82.76913 96.67765
#
# Poissons Ratio (x) = 0.20984 0.15845
# Poissons Ratio (y) = 0.30931 -0.01231
# Poissons Ratio (z) = 0.19996 -0.01054
#
# Static dielectric constant tensor:
#      x y z
#    x 2.024140 0.000000 0.041520 
#    y 0.000000 2.053950 0.000000 
#    z 0.041520 0.000000 2.019230 
# 
# From -- ./inp_files/2133.got.cif
#   From: 2010.05.17/outbox.cif.g08.bks.cpg/sg5_2_cif.got.tgz:2133.got - 2010.06.03 18:56:24.
