data_PCOD9129174
_publ_section_title
;
Structure prediction by ZEFSAII (Michael W. Deem and Ramdas Pophale) SiO2 
 PCOD9129174
Probable space group: C 2
;
_chemical_formula_sum "Si O2"
_cell_formula_units_Z 32
_cell_length_a 9.234402
_cell_length_b 20.165014
_cell_length_c 11.521626
_cell_angle_alpha 90.000000
_cell_angle_beta 48.500050
_cell_angle_gamma 90.000000
_cell_volume 1606.858209
_symmetry_space_group_name_H-M "C 2"
_symmetry_group_IT_number 5
_symmetry_cell_setting 'monoclinic'
loop_
_space_group_symop_operation_xyz
x,y,z
-x,y,-z
1/2+x,1/2+y,z
1/2-x,1/2+y,-z
loop_
_atom_site_type_symbol
_atom_site_label
_atom_site_fract_x
_atom_site_fract_y
_atom_site_fract_z
Si Si1 0.081413 0.183230 0.586879
Si Si2 0.307479 0.960441 0.151706
Si Si3 0.076111 0.032388 0.593918
Si Si4 0.746689 0.311304 0.175675
Si Si5 0.308614 0.380838 0.170785
Si Si6 0.906637 0.435707 0.368296
Si Si7 0.176220 0.813180 0.582708
Si Si8 0.619338 0.766340 0.118808
O O1 0.129137 0.107870 0.594603
O O2 0.243857 0.239830 0.484299
O O3 0.000000 0.179801 0.500000
O O4 0.929255 0.209078 0.764086
O O5 0.285662 0.886423 0.110644
O O6 0.358790 0.947898 0.259004
O O7 0.500000 0.994059 0.000000
O O8 0.108797 0.000592 0.242265
O O9 0.000000 0.030179 0.500000
O O10 0.265932 0.987558 0.506644
O O11 0.541906 0.315825 0.345648
O O12 0.916475 0.288934 0.170050
O O13 0.748173 0.260001 0.066810
O O14 0.340488 0.342593 0.276406
O O15 0.217973 0.324402 0.137721
O O16 0.135028 0.434530 0.273392
O O17 0.500000 0.404452 0.000000
O O18 0.824415 0.363882 0.446104
#
# Coordination Sequence:
#
# PCOD9129174 Si02
#       8
#     4   4   4   4   4   4   4   4
#     4  11  21  40  61  92 130 167 209 260 312 378
#     4  11  19  36  61  95 126 154 206 260 312 369
#     4   9  22  38  62  90 128 166 211 259 310 374
#     4  11  21  35  63  97 119 158 207 264 313 365
#     4  12  22  36  58  97 125 160 201 264 325 368
#     4  11  21  37  60  90 122 160 208 258 311 367
#     4  12  22  34  65  93 122 160 207 261 316 369
#     4  11  21  38  59  92 130 156 200 262 311 375
#
# _framework density 19.914639000000001
#
# number of rings (size 3 to 8) (size 9 to 14) (size 15 to 20)
#    0.000    1.000    7.500    0.375    0.000    1.500 
#    0.000    4.375    5.500    0.000    3.250    0.000 
#    0.000    0.000    0.000    0.000    0.000    0.000 
#
# Total GULP energy -89217.205936 kJ/mol
# GULP energy per Si atom -5576.075371 kJ/mol
# Density = 1.986931 g / cm^3
# Si number density = 19.914639 Si / 1000 Ang^3
#
#
#
# Elastic Constant Matrix: (Units=GPa)
#
#
# Indices 1 2 3 4 5 6 
#
# 1 55.8225 19.2432 38.8053 0.0000 -12.7937 0.0000
# 2 19.2432 107.1177 39.0637 0.0000 -23.2348 0.0000
# 3 38.8053 39.0637 135.5349 0.0000 -22.5293 0.0000
# 4 0.0000 0.0000 0.0000 15.1384 0.0000 -5.2007
# 5 -12.7937 -23.2348 -22.5293 0.0000 50.0960 0.0000
# 6 0.0000 0.0000 0.0000 -5.2007 0.0000 16.0805
#
#
#
# Elastic Compliance Matrix: (Units=1/GPa)
#
#
# Indices 1 2 3 4 5 6 
#
# 1 0.023002 -0.001477 -0.005726 0.000000 0.002614 0.000000
# 2 -0.001477 0.011229 -0.002173 0.000000 0.003854 0.000000
# 3 -0.005726 -0.002173 0.009979 0.000000 0.002018 0.000000
# 4 0.000000 0.000000 0.000000 0.074314 0.000000 0.024034
# 5 0.002614 0.003854 0.002018 0.000000 0.023324 0.000000
# 6 0.000000 0.000000 0.000000 0.024034 0.000000 0.069960
#
#
# Mechanical properties :
#
#
# Convention : Reuss Voigt Hill
#
# Bulk Modulus (GPa) = 39.27813 54.74438 47.01125
# Shear Modulus (GPa) = 20.91638 29.68718 25.30178
#
# Velocity S-wave (km/s) = 3.24435 3.86518 3.56829
# Velocity P-wave (km/s) = 5.81382 6.88975 6.37452
#
# Compressibility (1/GPa) = 0.02545946
#
# Stress axis : x y z
#
# Youngs Moduli (GPa) = 43.47361 89.05337 100.20887
#
# Poissons Ratio (x) = 0.13155 0.57375
# Poissons Ratio (y) = 0.06422 0.21775
# Poissons Ratio (z) = 0.24891 0.19351
#
# Static dielectric constant tensor:
#      x y z
#    x 1.729090 0.000000 0.018510 
#    y 0.000000 1.678610 0.000000 
#    z 0.018510 0.000000 1.798800 
# 
# From -- ./inp_files/37347.got.cif
#   From: 2010.05.17/outbox.cif.g08.bks.cpg/sg5_19_cif.got.tgz:37347.got - 2010.06.03 18:56:24.
