data_PCOD9129736
_publ_section_title
;
Structure prediction by ZEFSAII (Michael W. Deem and Ramdas Pophale) SiO2 
 PCOD9129736
Probable space group: C 2
;
_chemical_formula_sum "Si O2"
_cell_formula_units_Z 30
_cell_length_a 27.401640
_cell_length_b 9.117992
_cell_length_c 11.643923
_cell_angle_alpha 90.000000
_cell_angle_beta 150.871496
_cell_angle_gamma 90.000000
_cell_volume 1416.116240
_symmetry_space_group_name_H-M "C 2"
_symmetry_group_IT_number 5
_symmetry_cell_setting 'monoclinic'
loop_
_space_group_symop_operation_xyz
x,y,z
-x,y,-z
1/2+x,1/2+y,z
1/2-x,1/2+y,-z
loop_
_atom_site_type_symbol
_atom_site_label
_atom_site_fract_x
_atom_site_fract_y
_atom_site_fract_z
Si Si1 0.600987 0.759240 0.030876
Si Si2 0.756261 0.300271 0.227137
Si Si3 0.227067 0.521270 0.319451
Si Si4 0.912879 0.831085 0.656466
Si Si5 0.954179 0.184573 0.526370
Si Si6 0.000000 0.070722 0.000000
Si Si7 0.713572 0.069658 0.555785
Si Si8 0.968784 0.848463 0.315027
O O1 0.627363 0.928504 0.096276
O O2 0.698377 0.662003 0.200261
O O3 0.514465 0.740317 0.761095
O O4 0.576263 0.686213 0.102330
O O5 0.838572 0.229437 0.310409
O O6 0.805145 0.434342 0.398519
O O7 0.727969 0.179885 0.265660
O O8 0.650994 0.347721 0.951507
O O9 0.312990 0.427763 0.431315
O O10 0.246057 0.517447 0.495461
O O11 0.875261 0.687213 0.645937
O O12 0.974689 0.775703 0.675270
O O13 0.977234 0.954969 0.853065
O O14 0.000000 0.241681 0.500000
O O15 0.980699 0.011036 0.580609
O O16 0.000000 0.779097 0.500000
#
# Coordination Sequence:
#
# PCOD9129736 Si02
#       8
#     4   4   4   4   4   2   4   4
#     4  11  23  42  68 100 142 182 233 284 356 423
#     4  12  24  48  72 102 140 184 238 294 356 426
#     4  11  24  40  67 107 142 185 230 285 356 432
#     4  11  23  42  68 100 142 182 233 284 356 423
#     4  11  25  48  72 101 137 189 237 295 357 418
#     4  12  20  40  64  92 144 190 218 294 348 406
#     4  11  24  40  67 107 142 185 230 285 356 432
#     4  11  25  48  72 101 137 189 237 295 357 418
#
# _framework density 21.184702000000001
#
# number of rings (size 3 to 8) (size 9 to 14) (size 15 to 20)
#    0.000    0.800    5.333    1.600    3.733    3.200 
#    0.000    1.333    0.000    0.000    0.000    0.000 
#    0.000    0.000    0.000    0.000    0.000    0.000 
#
# Total GULP energy -83620.696535 kJ/mol
# GULP energy per Si atom -5574.713102 kJ/mol
# Density = 2.113648 g / cm^3
# Si number density = 21.184702 Si / 1000 Ang^3
#
#
#
# Elastic Constant Matrix: (Units=GPa)
#
#
# Indices 1 2 3 4 5 6 
#
# 1 109.4560 16.5234 31.4444 0.0000 9.1880 0.0000
# 2 16.5234 83.2264 -0.7957 0.0000 12.4516 0.0000
# 3 31.4444 -0.7957 44.7248 0.0000 3.8816 0.0000
# 4 0.0000 0.0000 0.0000 11.9081 0.0000 4.3934
# 5 9.1880 12.4516 3.8816 0.0000 23.6277 0.0000
# 6 0.0000 0.0000 0.0000 4.3934 0.0000 14.5247
#
#
#
# Elastic Compliance Matrix: (Units=1/GPa)
#
#
# Indices 1 2 3 4 5 6 
#
# 1 0.012029 -0.002141 -0.008305 0.000000 -0.002185 0.000000
# 2 -0.002141 0.013456 0.002321 0.000000 -0.006640 0.000000
# 3 -0.008305 0.002321 0.028471 0.000000 -0.002671 0.000000
# 4 0.000000 0.000000 0.000000 0.094526 0.000000 -0.028592
# 5 -0.002185 -0.006640 -0.002671 0.000000 0.047111 0.000000
# 6 0.000000 0.000000 0.000000 -0.028592 0.000000 0.077497
#
#
# Mechanical properties :
#
#
# Convention : Reuss Voigt Hill
#
# Bulk Modulus (GPa) = 26.52144 36.86124 31.69134
# Shear Modulus (GPa) = 16.56132 22.69442 19.62787
#
# Velocity S-wave (km/s) = 2.79903 3.27657 3.04717
# Velocity P-wave (km/s) = 4.79504 5.63491 5.23186
#
# Compressibility (1/GPa) = 0.03770534
#
# Stress axis : x y z
#
# Youngs Moduli (GPa) = 83.13523 74.31612 35.12320
#
# Poissons Ratio (x) = 0.15908 0.29171
# Poissons Ratio (y) = 0.17796 -0.08151
# Poissons Ratio (z) = 0.69046 -0.17246
#
# Static dielectric constant tensor:
#      x y z
#    x 1.812050 0.000000 0.037220 
#    y 0.000000 1.769670 0.000000 
#    z 0.037220 0.000000 1.831020 
# 
# From -- ./inp_files/48362.got.cif
#   From: 2010.05.17/outbox.cif.g08.bks.cpg/sg5_25_cif.got.tgz:48362.got - 2010.06.03 18:56:24.
