data_PCOD9129280
_publ_section_title
;
Structure prediction by ZEFSAII (Michael W. Deem and Ramdas Pophale) SiO2 
 PCOD9129280
Probable space group: C 2
;
_chemical_formula_sum "Si O2"
_cell_formula_units_Z 18
_cell_length_a 8.400428
_cell_length_b 10.977191
_cell_length_c 10.437536
_cell_angle_alpha 90.000000
_cell_angle_beta 129.586983
_cell_angle_gamma 90.000000
_cell_volume 741.741083
_symmetry_space_group_name_H-M "C 2"
_symmetry_group_IT_number 5
_symmetry_cell_setting 'monoclinic'
loop_
_space_group_symop_operation_xyz
x,y,z
-x,y,-z
1/2+x,1/2+y,z
1/2-x,1/2+y,-z
loop_
_atom_site_type_symbol
_atom_site_label
_atom_site_fract_x
_atom_site_fract_y
_atom_site_fract_z
Si Si1 0.569302 0.115840 0.389156
Si Si2 0.417301 0.869729 0.181626
Si Si3 0.859220 0.853007 0.297799
Si Si4 0.500872 0.610923 0.725700
Si Si5 0.500000 0.504359 0.000000
O O1 0.500000 0.105905 0.500000
O O2 0.455440 0.235319 0.273509
O O3 0.812546 0.133221 0.531146
O O4 0.520258 0.985019 0.306160
O O5 0.613637 0.838732 0.190946
O O6 0.374866 0.736337 0.217949
O O7 0.190558 0.924374 0.045569
O O8 0.000000 0.851920 0.500000
O O9 0.889789 0.987441 0.259907
O O10 0.435935 0.581236 0.840718
#
# Coordination Sequence:
#
# PCOD9129280 Si02
#       5
#     4   4   4   4   2
#     4  11  20  45  76 103 133 174 230 294 343 389
#     4  12  25  45  70 104 136 185 228 283 342 402
#     4  11  23  42  74 110 131 170 230 297 339 390
#     4  12  25  46  72 103 138 181 232 282 344 407
#     4  12  30  44  64 100 150 194 214 274 346 426
#
# _framework density 24.267226999999998
#
# number of rings (size 3 to 8) (size 9 to 14) (size 15 to 20)
#    0.000    0.444    8.889    0.000    0.000    8.889 
#    0.000    0.000    0.000    1.333    0.000    0.000 
#    0.000    0.000    0.000    0.000    0.000    0.000 
#
# Total GULP energy -50163.304999 kJ/mol
# GULP energy per Si atom -5573.700555 kJ/mol
# Density = 2.421199 g / cm^3
# Si number density = 24.267227 Si / 1000 Ang^3
#
#
#
# Elastic Constant Matrix: (Units=GPa)
#
#
# Indices 1 2 3 4 5 6 
#
# 1 79.7868 48.4927 35.7900 0.0000 31.8095 0.0000
# 2 48.4927 261.6356 57.0963 0.0000 4.5422 0.0000
# 3 35.7900 57.0963 98.5089 0.0000 22.6513 0.0000
# 4 0.0000 0.0000 0.0000 20.8621 0.0000 1.3283
# 5 31.8095 4.5422 22.6513 0.0000 32.5985 0.0000
# 6 0.0000 0.0000 0.0000 1.3283 0.0000 11.0089
#
#
#
# Elastic Compliance Matrix: (Units=1/GPa)
#
#
# Indices 1 2 3 4 5 6 
#
# 1 0.024381 -0.003793 -0.001559 0.000000 -0.022178 0.000000
# 2 -0.003793 0.005018 -0.002643 0.000000 0.004839 0.000000
# 3 -0.001559 -0.002643 0.014062 0.000000 -0.007881 0.000000
# 4 0.000000 0.000000 0.000000 0.048305 0.000000 -0.005828
# 5 -0.022178 0.004839 -0.007881 0.000000 0.057120 0.000000
# 6 0.000000 0.000000 0.000000 -0.005828 0.000000 0.091539
#
#
# Mechanical properties :
#
#
# Convention : Reuss Voigt Hill
#
# Bulk Modulus (GPa) = 36.40474 80.29881 58.35178
# Shear Modulus (GPa) = 18.82728 32.79738 25.81233
#
# Velocity S-wave (km/s) = 2.78840 3.68028 3.26493
# Velocity P-wave (km/s) = 5.03995 7.15685 6.18957
#
# Compressibility (1/GPa) = 0.02746895
#
# Stress axis : x y z
#
# Youngs Moduli (GPa) = 41.01621 199.28478 71.11392
#
# Poissons Ratio (x) = 0.75598 0.11090
# Poissons Ratio (y) = 0.15559 0.18794
# Poissons Ratio (z) = 0.06396 0.52668
#
# Static dielectric constant tensor:
#      x y z
#    x 2.063170 0.000000 -0.059120 
#    y 0.000000 1.914580 0.000000 
#    z -0.059120 0.000000 2.046100 
# 
# From -- ./inp_files/14044.got.cif
#   From: 2010.05.17/outbox.cif.g08.bks.cpg/sg5_8_cif.got.tgz:14044.got - 2010.06.03 18:56:24.
