data_PCOD9129533
_publ_section_title
;
Structure prediction by ZEFSAII (Michael W. Deem and Ramdas Pophale) SiO2 
 PCOD9129533
Probable space group: C 2
;
_chemical_formula_sum "Si O2"
_cell_formula_units_Z 24
_cell_length_a 26.886355
_cell_length_b 6.595538
_cell_length_c 12.402899
_cell_angle_alpha 90.000000
_cell_angle_beta 152.518148
_cell_angle_gamma 90.000000
_cell_volume 1014.954588
_symmetry_space_group_name_H-M "C 2"
_symmetry_group_IT_number 5
_symmetry_cell_setting 'monoclinic'
loop_
_space_group_symop_operation_xyz
x,y,z
-x,y,-z
1/2+x,1/2+y,z
1/2-x,1/2+y,-z
loop_
_atom_site_type_symbol
_atom_site_label
_atom_site_fract_x
_atom_site_fract_y
_atom_site_fract_z
Si Si1 0.059006 0.450300 0.963590
Si Si2 0.500000 0.484832 0.500000
Si Si3 0.818100 0.559895 0.460075
Si Si4 0.370273 0.104624 0.328811
Si Si5 0.000000 0.092100 0.000000
Si Si6 0.093440 0.365091 0.795886
Si Si7 0.311793 0.273050 0.652606
O O1 0.121552 0.407417 0.973183
O O2 0.947367 0.570847 0.724532
O O3 0.019064 0.239485 0.936212
O O4 0.125970 0.581836 0.177245
O O5 0.416029 0.329838 0.395421
O O6 0.567592 0.635679 0.708499
O O7 0.796416 0.590202 0.292138
O O8 0.772562 0.350054 0.420733
O O9 0.769382 0.716956 0.452533
O O10 0.475624 0.970743 0.559980
O O11 0.332970 0.990403 0.147691
O O12 0.897897 0.947751 0.796662
#
# Coordination Sequence:
#
# PCOD9129533 Si02
#       7
#     4   2   4   4   2   4   4
#     4  11  22  42  64  97 130 171 223 273 332 398
#     4   8  14  30  54  96 120 158 210 264 342 374
#     4  11  22  42  64  93 133 171 219 274 325 399
#     4   8  17  33  57  91 124 161 217 267 325 391
#     4  12  22  40  62  94 130 172 226 266 336 392
#     4   8  17  32  59  92 122 162 215 269 322 395
#     4  12  25  42  64  96 134 178 220 276 334 391
#
# _framework density 23.646377999999999
#
# number of rings (size 3 to 8) (size 9 to 14) (size 15 to 20)
#    0.000    2.333    3.333    1.000    2.333    1.333 
#    3.000    0.000    3.667    0.000    0.000    0.000 
#    0.000    0.000    0.000    0.000    0.000    0.000 
#
# Total GULP energy -67012.559524 kJ/mol
# GULP energy per Si atom -5584.379960 kJ/mol
# Density = 2.359256 g / cm^3
# Si number density = 23.646378 Si / 1000 Ang^3
#
#
#
# Elastic Constant Matrix: (Units=GPa)
#
#
# Indices 1 2 3 4 5 6 
#
# 1 236.6853 71.1051 33.7917 0.0000 -30.8982 0.0000
# 2 71.1051 148.5430 17.3119 0.0000 -4.2474 0.0000
# 3 33.7917 17.3119 41.4194 0.0000 8.9544 0.0000
# 4 0.0000 0.0000 0.0000 23.4875 0.0000 17.4673
# 5 -30.8982 -4.2474 8.9544 0.0000 35.3542 0.0000
# 6 0.0000 0.0000 0.0000 17.4673 0.0000 22.6963
#
#
#
# Elastic Compliance Matrix: (Units=1/GPa)
#
#
# Indices 1 2 3 4 5 6 
#
# 1 0.006711 -0.002303 -0.006051 0.000000 0.007121 0.000000
# 2 -0.002303 0.007964 -0.001292 0.000000 -0.000729 0.000000
# 3 -0.006051 -0.001292 0.032581 0.000000 -0.013696 0.000000
# 4 0.000000 0.000000 0.000000 0.099557 0.000000 -0.076620
# 5 0.007121 -0.000729 -0.013696 0.000000 0.037890 0.000000
# 6 0.000000 0.000000 0.000000 -0.076620 0.000000 0.103027
#
#
# Mechanical properties :
#
#
# Convention : Reuss Voigt Hill
#
# Bulk Modulus (GPa) = 35.76227 74.56280 55.16253
# Shear Modulus (GPa) = 15.80557 36.60354 26.20456
#
# Velocity S-wave (km/s) = 2.58818 3.93867 3.33255
# Velocity P-wave (km/s) = 4.90797 7.23084 6.17953
#
# Compressibility (1/GPa) = 0.02796243
#
# Stress axis : x y z
#
# Youngs Moduli (GPa) = 149.01948 125.55907 30.69252
#
# Poissons Ratio (x) = 0.28921 0.18573
# Poissons Ratio (y) = 0.34324 0.03966
# Poissons Ratio (z) = 0.90178 0.16223
#
# Static dielectric constant tensor:
#      x y z
#    x 1.973290 0.000000 0.012590 
#    y 0.000000 1.889720 0.000000 
#    z 0.012590 0.000000 1.935220 
# 
# From -- ./inp_files/58270.got.cif
#   From: 2010.05.17/outbox.cif.g08.bks.cpg/sg5_30_cif.got.tgz:58270.got - 2010.06.03 18:56:24.
