data_PCOD9129209
_publ_section_title
;
Structure prediction by ZEFSAII (Michael W. Deem and Ramdas Pophale) SiO2 
 PCOD9129209
Probable space group: C 2
;
_chemical_formula_sum "Si O2"
_cell_formula_units_Z 24
_cell_length_a 11.399263
_cell_length_b 11.574186
_cell_length_c 16.247178
_cell_angle_alpha 90.000000
_cell_angle_beta 36.127430
_cell_angle_gamma 90.000000
_cell_volume 1263.834490
_symmetry_space_group_name_H-M "C 2"
_symmetry_group_IT_number 5
_symmetry_cell_setting 'monoclinic'
loop_
_space_group_symop_operation_xyz
x,y,z
-x,y,-z
1/2+x,1/2+y,z
1/2-x,1/2+y,-z
loop_
_atom_site_type_symbol
_atom_site_label
_atom_site_fract_x
_atom_site_fract_y
_atom_site_fract_z
Si Si1 0.222673 0.296310 0.838826
Si Si2 0.216212 0.972310 0.340100
Si Si3 0.080055 0.365715 0.222879
Si Si4 0.404667 0.370509 0.901129
Si Si5 0.655120 0.539953 0.835598
Si Si6 0.338797 0.177123 0.154739
O O1 0.286935 0.388657 0.736294
O O2 0.361348 0.311916 0.839429
O O3 0.223568 0.171131 0.795791
O O4 0.000000 0.314831 0.000000
O O5 0.359986 0.907072 0.323951
O O6 0.000000 0.990065 0.500000
O O7 0.292028 0.091986 0.256315
O O8 0.165318 0.456258 0.241263
O O9 0.148384 0.238075 0.217109
O O10 0.202658 0.384151 0.067988
O O11 0.527909 0.490251 0.831490
O O12 0.538508 0.285116 0.879297
O O13 0.500000 0.532133 0.000000
O O14 0.500000 0.121120 0.000000
#
# Coordination Sequence:
#
# PCOD9129209 Si02
#       6
#     4   4   4   4   4   4
#     4  11  20  34  57  86 115 153 192 240 296 341
#     4  12  25  39  53  85 128 161 192 235 291 357
#     4   9  18  38  60  87 117 145 194 245 293 350
#     4   9  17  35  64  92 110 136 199 256 294 341
#     4   8  17  32  59  89 111 140 186 254 300 331
#     4   9  20  39  67  89 109 152 198 250 299 341
#
# _framework density 18.989829
#
# number of rings (size 3 to 8) (size 9 to 14) (size 15 to 20)
#    0.000    2.333    1.667    3.500    0.000    1.333 
#    6.000    0.000    0.000    0.000    0.000    0.000 
#    0.000    0.000    0.000    0.000    0.000    0.000 
#
# Total GULP energy -66846.123281 kJ/mol
# GULP energy per Si atom -5570.510273 kJ/mol
# Density = 1.894661 g / cm^3
# Si number density = 18.989829 Si / 1000 Ang^3
#
#
#
# Elastic Constant Matrix: (Units=GPa)
#
#
# Indices 1 2 3 4 5 6 
#
# 1 61.5492 5.1256 15.9966 -0.0001 -17.9412 0.0000
# 2 5.1256 70.3298 22.2776 -0.0002 0.2401 0.0000
# 3 15.9966 22.2776 70.7306 -0.0005 -11.8530 0.0001
# 4 -0.0001 -0.0002 -0.0005 -11.7296 0.0001 -18.4148
# 5 -17.9412 0.2401 -11.8530 0.0001 17.8451 0.0000
# 6 0.0000 0.0000 0.0001 -18.4148 0.0000 7.3204
#
#
#
# Elastic Compliance Matrix: (Units=1/GPa)
#
#
# Indices 1 2 3 4 5 6 
#
# 1 0.023255 -0.001459 -0.000988 0.000000 0.022744 0.000000
# 2 -0.001459 0.016138 -0.005666 0.000000 -0.005448 0.000000
# 3 -0.000988 -0.005666 0.017996 0.000000 0.011035 0.000000
# 4 0.000000 0.000000 0.000000 -0.017226 0.000000 -0.043332
# 5 0.022744 -0.005448 0.011035 0.000000 0.086307 0.000000
# 6 0.000000 0.000000 0.000000 -0.043332 0.000000 0.027601
#
#
# Mechanical properties :
#
#
# Convention : Reuss Voigt Hill
#
# Bulk Modulus (GPa) = 24.29442 32.15658 28.22550
# Shear Modulus (GPa) = 27.17102 13.30117 20.23609
#
# Velocity S-wave (km/s) = 3.78672 2.64945 3.26794
# Velocity P-wave (km/s) = 5.65156 5.13125 5.39768
#
# Compressibility (1/GPa) = 0.04116171
#
# Stress axis : x y z
#
# Youngs Moduli (GPa) = 43.00117 61.96392 55.56919
#
# Poissons Ratio (x) = 0.09043 0.05493
# Poissons Ratio (y) = 0.06276 0.31485
# Poissons Ratio (z) = 0.04250 0.35108
#
# Static dielectric constant tensor:
#      x y z
#    x 1.699410 0.000000 -0.027990 
#    y 0.000000 1.699690 0.000000 
#    z -0.027990 0.000000 1.647340 
# 
# From -- ./inp_files/19335.got.cif
#   From: 2010.05.17/outbox.cif.g08.bks.cpg/sg5_10_cif.got.tgz:19335.got - 2010.06.03 18:56:24.
