data_PCOD9129214
_publ_section_title
;
Structure prediction by ZEFSAII (Michael W. Deem and Ramdas Pophale) SiO2 
 PCOD9129214
Probable space group: C 2
;
_chemical_formula_sum "Si O2"
_cell_formula_units_Z 24
_cell_length_a 8.558649
_cell_length_b 26.905294
_cell_length_c 5.157344
_cell_angle_alpha 90.000000
_cell_angle_beta 101.930790
_cell_angle_gamma 90.000000
_cell_volume 1161.942478
_symmetry_space_group_name_H-M "C 2"
_symmetry_group_IT_number 5
_symmetry_cell_setting 'monoclinic'
loop_
_space_group_symop_operation_xyz
x,y,z
-x,y,-z
1/2+x,1/2+y,z
1/2-x,1/2+y,-z
loop_
_atom_site_type_symbol
_atom_site_label
_atom_site_fract_x
_atom_site_fract_y
_atom_site_fract_z
Si Si1 0.897959 0.183670 0.706904
Si Si2 0.500000 0.389181 0.000000
Si Si3 0.500000 0.952172 0.500000
Si Si4 0.000000 0.954350 0.500000
Si Si5 0.716976 0.026673 0.327165
Si Si6 0.000000 0.277395 0.500000
Si Si7 0.647468 0.866706 0.855853
Si Si8 0.692906 0.585918 0.126664
O O1 0.774984 0.142191 0.761933
O O2 0.000000 0.160179 0.500000
O O3 0.125775 0.239207 0.409212
O O4 0.000000 0.192350 0.000000
O O5 0.540082 0.420656 0.268767
O O6 0.669624 0.363107 0.989134
O O7 0.629135 0.913816 0.656844
O O8 0.568682 0.989782 0.309711
O O9 0.864209 0.989730 0.337660
O O10 0.754672 0.051662 0.617253
O O11 0.718295 0.067140 0.100242
O O12 0.098578 0.314383 0.713445
O O13 0.500000 0.876466 0.000000
O O14 0.500000 0.583234 0.000000
#
# Coordination Sequence:
#
# PCOD9129214 Si02
#       8
#     4   2   2   2   4   2   4   4
#     4   9  18  35  61  95 131 160 212 286 345 400
#     4  12  26  42  68  94 142 180 230 272 342 400
#     4  11  26  40  58  91 145 192 218 275 334 398
#     4  12  22  41  58  93 125 182 221 274 314 400
#     4  12  23  36  59  90 132 174 223 270 324 397
#     4   9  22  39  66 106 132 170 227 287 358 404
#     4  11  24  44  67 102 140 183 228 286 335 416
#     4  11  20  35  59  95 122 161 223 281 325 394
#
# _framework density 20.655069000000001
#
# number of rings (size 3 to 8) (size 9 to 14) (size 15 to 20)
#    0.500    0.667    3.333    4.500    4.667    0.000 
#    0.000    0.000    0.000    0.000   13.000    0.000 
#    0.000    0.000    0.000    0.000    0.000    0.000 
#
# Total GULP energy -66813.005271 kJ/mol
# GULP energy per Si atom -5567.750439 kJ/mol
# Density = 2.060806 g / cm^3
# Si number density = 20.655069 Si / 1000 Ang^3
#
#
#
# Elastic Constant Matrix: (Units=GPa)
#
#
# Indices 1 2 3 4 5 6 
#
# 1 94.0639 43.5524 25.3262 0.0000 6.3489 0.0000
# 2 43.5524 132.9790 37.6212 0.0000 -3.5996 0.0000
# 3 25.3262 37.6212 99.0924 0.0000 -20.1265 0.0000
# 4 0.0000 0.0000 0.0000 6.5963 0.0000 9.6708
# 5 6.3489 -3.5996 -20.1265 0.0000 28.4359 0.0000
# 6 0.0000 0.0000 0.0000 9.6708 0.0000 -26.5686
#
#
#
# Elastic Compliance Matrix: (Units=1/GPa)
#
#
# Indices 1 2 3 4 5 6 
#
# 1 0.013610 -0.003694 -0.003257 0.000000 -0.005811 0.000000
# 2 -0.003694 0.009475 -0.002619 0.000000 0.000171 0.000000
# 3 -0.003257 -0.002619 0.014013 0.000000 0.010314 0.000000
# 4 0.000000 0.000000 0.000000 0.098850 0.000000 0.035981
# 5 -0.005811 0.000171 0.010314 0.000000 0.043786 0.000000
# 6 0.000000 0.000000 0.000000 0.035981 0.000000 -0.024542
#
#
# Mechanical properties :
#
#
# Convention : Reuss Voigt Hill
#
# Bulk Modulus (GPa) = 55.67685 59.90390 57.79037
# Shear Modulus (GPa) = 27.72900 16.33508 22.03204
#
# Velocity S-wave (km/s) = 3.66796 2.81526 3.26953
# Velocity P-wave (km/s) = 6.70467 6.29544 6.50328
#
# Compressibility (1/GPa) = 0.01796079
#
# Stress axis : x y z
#
# Youngs Moduli (GPa) = 73.47395 105.53947 71.36276
#
# Poissons Ratio (x) = 0.38981 0.23240
# Poissons Ratio (y) = 0.27138 0.18687
# Poissons Ratio (z) = 0.23927 0.27637
#
# Static dielectric constant tensor:
#      x y z
#    x 1.910080 0.000000 0.008950 
#    y 0.000000 1.759290 0.000000 
#    z 0.008950 0.000000 1.828950 
# 
# From -- ./inp_files/3692.got.cif
#   From: 2010.05.17/outbox.cif.g08.bks.cpg/sg5_2_cif.got.tgz:3692.got - 2010.06.03 18:56:24.
