data_PCOD9129322
_publ_section_title
;
Structure prediction by ZEFSAII (Michael W. Deem and Ramdas Pophale) SiO2 
 PCOD9129322
Probable space group: C 2
;
_chemical_formula_sum "Si O2"
_cell_formula_units_Z 18
_cell_length_a 17.463613
_cell_length_b 9.098060
_cell_length_c 7.944710
_cell_angle_alpha 90.000000
_cell_angle_beta 139.442109
_cell_angle_gamma 90.000000
_cell_volume 820.764589
_symmetry_space_group_name_H-M "C 2"
_symmetry_group_IT_number 5
_symmetry_cell_setting 'monoclinic'
loop_
_space_group_symop_operation_xyz
x,y,z
-x,y,-z
1/2+x,1/2+y,z
1/2-x,1/2+y,-z
loop_
_atom_site_type_symbol
_atom_site_label
_atom_site_fract_x
_atom_site_fract_y
_atom_site_fract_z
Si Si1 0.128699 0.138380 0.793902
Si Si2 0.000000 0.884796 0.000000
Si Si3 0.630925 0.818128 0.146009
Si Si4 0.795627 0.857898 0.886750
Si Si5 0.773654 0.043317 0.537141
O O1 0.000000 0.134399 0.500000
O O2 0.169264 0.973925 0.909349
O O3 0.126052 0.235135 0.960809
O O4 0.216269 0.226986 0.818739
O O5 0.908610 0.987336 0.744914
O O6 0.084195 0.806507 0.007032
O O7 0.692350 0.976357 0.258270
O O8 0.714352 0.713817 0.402489
O O9 0.500000 0.826586 0.000000
O O10 0.733077 0.963617 0.643466
#
# Coordination Sequence:
#
# PCOD9129322 Si02
#       5
#     4   2   4   4   4
#     4  11  23  40  66  96 131 168 212 270 324 381
#     4   8  18  42  64  84 130 174 202 260 314 392
#     4  11  21  39  63  93 123 167 209 260 315 378
#     4   9  21  41  65  90 130 168 214 261 323 377
#     4   9  19  39  63  85 125 164 213 254 306 383
#
# _framework density 21.930772000000001
#
# number of rings (size 3 to 8) (size 9 to 14) (size 15 to 20)
#    1.333    0.889    1.111    1.333    0.000    5.333 
#    2.000    5.556    0.000    0.000    0.000    0.000 
#    0.000    0.000    0.000    0.000    0.000    0.000 
#
# Total GULP energy -50215.980338 kJ/mol
# GULP energy per Si atom -5579.553371 kJ/mol
# Density = 2.188086 g / cm^3
# Si number density = 21.930772 Si / 1000 Ang^3
#
#
#
# Elastic Constant Matrix: (Units=GPa)
#
#
# Indices 1 2 3 4 5 6 
#
# 1 108.6701 54.2406 14.5566 0.0000 21.6769 0.0000
# 2 54.2406 127.5762 62.2022 0.0000 10.8190 0.0000
# 3 14.5566 62.2022 68.7597 0.0000 -4.4387 0.0000
# 4 0.0000 0.0000 0.0000 25.5130 0.0000 -22.2175
# 5 21.6769 10.8190 -4.4387 0.0000 23.3630 0.0000
# 6 0.0000 0.0000 0.0000 -22.2175 0.0000 8.5147
#
#
#
# Elastic Compliance Matrix: (Units=1/GPa)
#
#
# Indices 1 2 3 4 5 6 
#
# 1 0.013884 -0.005964 0.001825 0.000000 -0.009774 0.000000
# 2 -0.005964 0.018751 -0.016101 0.000000 -0.006209 0.000000
# 3 0.001825 -0.016101 0.029456 0.000000 0.011359 0.000000
# 4 0.000000 0.000000 0.000000 -0.030808 0.000000 -0.080387
# 5 -0.009774 -0.006209 0.011359 0.000000 0.056904 0.000000
# 6 0.000000 0.000000 0.000000 -0.080387 0.000000 -0.092311
#
#
# Mechanical properties :
#
#
# Convention : Reuss Voigt Hill
#
# Bulk Modulus (GPa) = 46.27284 63.00054 54.63669
# Shear Modulus (GPa) = 114.78471 23.07857 68.93164
#
# Velocity S-wave (km/s) = 7.24246 3.24749 5.61246
# Velocity P-wave (km/s) = 9.54374 6.54607 8.18333
#
# Compressibility (1/GPa) = 0.02161095
#
# Stress axis : x y z
#
# Youngs Moduli (GPa) = 72.02505 53.33068 33.94931
#
# Poissons Ratio (x) = 0.31806 -0.06196
# Poissons Ratio (y) = 0.42955 0.54661
# Poissons Ratio (z) = -0.13144 0.85867
#
# Static dielectric constant tensor:
#      x y z
#    x 1.842910 0.000000 -0.061660 
#    y 0.000000 1.780520 0.000000 
#    z -0.061660 0.000000 1.820090 
# 
# From -- ./inp_files/26370.got.cif
#   From: 2010.05.17/outbox.cif.g08.bks.cpg/sg5_14_cif.got.tgz:26370.got - 2010.06.03 18:56:24.
