data_PCOD9129095
_publ_section_title
;
Structure prediction by ZEFSAII (Michael W. Deem and Ramdas Pophale) SiO2 
 PCOD9129095
Probable space group: C 2
;
_chemical_formula_sum "Si O2"
_cell_formula_units_Z 22
_cell_length_a 27.327787
_cell_length_b 5.029522
_cell_length_c 8.278610
_cell_angle_alpha 90.000000
_cell_angle_beta 60.360364
_cell_angle_gamma 90.000000
_cell_volume 988.973933
_symmetry_space_group_name_H-M "C 2"
_symmetry_group_IT_number 5
_symmetry_cell_setting 'monoclinic'
loop_
_space_group_symop_operation_xyz
x,y,z
-x,y,-z
1/2+x,1/2+y,z
1/2-x,1/2+y,-z
loop_
_atom_site_type_symbol
_atom_site_label
_atom_site_fract_x
_atom_site_fract_y
_atom_site_fract_z
Si Si1 0.094187 0.586810 0.073645
Si Si2 0.409726 0.604114 0.355396
Si Si3 0.735852 0.224282 0.129128
Si Si4 0.606065 0.110866 0.413019
Si Si5 0.159825 0.085619 0.846950
Si Si6 0.500000 0.912901 0.000000
O O1 0.140444 0.799001 0.941404
O O2 0.077518 0.635306 0.285094
O O3 0.042079 0.588847 0.037426
O O4 0.122366 0.298036 0.007631
O O5 0.418031 0.313199 0.415286
O O6 0.358860 0.605707 0.308472
O O7 0.463125 0.723395 0.175005
O O8 0.396836 0.811491 0.518612
O O9 0.671081 0.190622 0.280216
O O10 0.776401 0.153181 0.212674
O O11 0.748310 0.514479 0.037558
#
# Coordination Sequence:
#
# PCOD9129095 Si02
#       6
#     4   4   4   4   4   2
#     4  11  23  43  72  95 134 178 232 276 327 407
#     4  11  26  43  67  98 139 173 229 285 331 394
#     4  12  22  40  71 102 137 183 216 267 345 410
#     4  12  24  42  69 106 133 170 230 288 320 399
#     4  11  22  43  67  99 137 185 217 266 340 412
#     4  10  26  50  68  94 134 194 224 274 360 392
#
# _framework density 22.245280000000001
#
# number of rings (size 3 to 8) (size 9 to 14) (size 15 to 20)
#    0.000    0.727    3.636    4.364    0.000    8.727 
#    0.000    3.636    0.000    0.000    0.000    0.000 
#    0.000    0.000    0.000    0.000    0.000    0.000 
#
# Total GULP energy -61626.116839 kJ/mol
# GULP energy per Si atom -5602.374258 kJ/mol
# Density = 2.219465 g / cm^3
# Si number density = 22.245280 Si / 1000 Ang^3
#
#
#
# Elastic Constant Matrix: (Units=GPa)
#
#
# Indices 1 2 3 4 5 6 
#
# 1 88.6759 2.2171 22.1022 0.0000 18.0015 0.0000
# 2 2.2171 64.2753 -5.2179 0.0000 9.3050 0.0000
# 3 22.1022 -5.2179 61.6660 0.0000 9.8200 0.0000
# 4 0.0000 0.0000 0.0000 38.4562 0.0000 4.5117
# 5 18.0015 9.3050 9.8200 0.0000 37.0549 0.0000
# 6 0.0000 0.0000 0.0000 4.5117 0.0000 27.8292
#
#
#
# Elastic Compliance Matrix: (Units=1/GPa)
#
#
# Indices 1 2 3 4 5 6 
#
# 1 0.013361 0.000011 -0.003919 0.000000 -0.005455 0.000000
# 2 0.000011 0.016410 0.002132 0.000000 -0.004691 0.000000
# 3 -0.003919 0.002132 0.018358 0.000000 -0.003496 0.000000
# 4 0.000000 0.000000 0.000000 0.026508 0.000000 -0.004297
# 5 -0.005455 -0.004691 -0.003496 0.000000 0.031742 0.000000
# 6 0.000000 0.000000 0.000000 -0.004297 0.000000 0.036630
#
#
# Mechanical properties :
#
#
# Convention : Reuss Voigt Hill
#
# Bulk Modulus (GPa) = 22.43397 28.09114 25.26255
# Shear Modulus (GPa) = 30.97493 33.70244 32.33869
#
# Velocity S-wave (km/s) = 3.73557 3.89657 3.81692
# Velocity P-wave (km/s) = 5.35842 5.73582 5.55033
#
# Compressibility (1/GPa) = 0.04457527
#
# Stress axis : x y z
#
# Youngs Moduli (GPa) = 74.84482 60.93902 54.47133
#
# Poissons Ratio (x) = -0.00065 0.21349
# Poissons Ratio (y) = -0.00080 -0.11612
# Poissons Ratio (z) = 0.29334 -0.12990
#
# Static dielectric constant tensor:
#      x y z
#    x 1.818930 0.000000 0.020820 
#    y 0.000000 1.765430 0.000000 
#    z 0.020820 0.000000 1.790000 
# 
# From -- ./inp_files/30248.got.cif
#   From: 2010.05.17/outbox.cif.g08.bks.cpg/sg5_16_cif.got.tgz:30248.got - 2010.06.03 18:56:24.
