data_PCOD9129469
_publ_section_title
;
Structure prediction by ZEFSAII (Michael W. Deem and Ramdas Pophale) SiO2 
 PCOD9129469
Probable space group: C 2
;
_chemical_formula_sum "Si O2"
_cell_formula_units_Z 32
_cell_length_a 14.191090
_cell_length_b 22.386089
_cell_length_c 8.726339
_cell_angle_alpha 90.000000
_cell_angle_beta 29.736974
_cell_angle_gamma 90.000000
_cell_volume 1375.068928
_symmetry_space_group_name_H-M "C 2"
_symmetry_group_IT_number 5
_symmetry_cell_setting 'monoclinic'
loop_
_space_group_symop_operation_xyz
x,y,z
-x,y,-z
1/2+x,1/2+y,z
1/2-x,1/2+y,-z
loop_
_atom_site_type_symbol
_atom_site_label
_atom_site_fract_x
_atom_site_fract_y
_atom_site_fract_z
Si Si1 0.150900 0.519730 0.159007
Si Si2 0.418832 0.152712 0.864929
Si Si3 0.204042 0.457916 0.761017
Si Si4 0.458556 0.793936 0.239861
Si Si5 0.796193 0.165488 0.513179
Si Si6 0.039677 0.043561 0.770037
Si Si7 0.918319 0.866265 0.270415
Si Si8 0.152291 0.782775 0.151389
O O1 0.096250 0.588343 0.193445
O O2 0.000000 0.498697 0.500000
O O3 0.171244 0.479573 0.979230
O O4 0.361830 0.521068 0.926806
O O5 0.636462 0.165153 0.606220
O O6 0.341807 0.211228 0.886109
O O7 0.302878 0.149553 0.186881
O O8 0.266985 0.515062 0.569516
O O9 0.363608 0.410335 0.486787
O O10 0.000000 0.433520 0.000000
O O11 0.388253 0.729631 0.394784
O O12 0.279784 0.837311 0.503049
O O13 0.500000 0.788785 0.000000
O O14 0.646924 0.807915 0.071668
O O15 0.946385 0.114475 0.265965
O O16 0.000000 0.028809 0.000000
O O17 0.064442 0.816598 0.128268
O O18 0.000000 0.895113 0.000000
O O19 0.000000 0.792103 0.500000
#
# Coordination Sequence:
#
# PCOD9129469 Si02
#       8
#     4   4   4   4   4   4   4   4
#     4  12  26  46  76 112 153 197 259 318 391 467
#     4  11  22  41  69 114 156 201 245 316 391 473
#     4  12  27  51  78 106 150 202 257 325 386 452
#     4  12  24  46  74 113 154 204 261 322 390 459
#     4  11  22  39  72 108 158 202 243 315 394 463
#     4  12  25  45  73 111 150 201 253 314 389 458
#     4  12  28  52  79 112 153 208 264 327 386 461
#     4  12  25  44  77 112 156 203 257 318 394 469
#
# _framework density 23.271560000000001
#
# number of rings (size 3 to 8) (size 9 to 14) (size 15 to 20)
#    0.000    0.250    3.750    5.625    0.000    4.000 
#    0.000    0.000    2.750    0.000    0.000    0.000 
#    0.000    0.000    0.000    0.000    0.000    0.000 
#
# Total GULP energy -89617.868774 kJ/mol
# GULP energy per Si atom -5601.116798 kJ/mol
# Density = 2.321859 g / cm^3
# Si number density = 23.271560 Si / 1000 Ang^3
#
#
#
# Elastic Constant Matrix: (Units=GPa)
#
#
# Indices 1 2 3 4 5 6 
#
# 1 120.1273 24.1139 53.9033 0.0002 -9.7333 0.0000
# 2 24.1139 101.9965 40.6616 0.0000 8.2780 0.0000
# 3 53.9033 40.6616 128.3553 0.0010 13.6568 0.0001
# 4 0.0002 0.0000 0.0010 31.6315 -0.0003 1.6574
# 5 -9.7333 8.2780 13.6568 -0.0003 50.6745 0.0000
# 6 0.0000 0.0000 0.0001 1.6574 0.0000 5.6430
#
#
#
# Elastic Compliance Matrix: (Units=1/GPa)
#
#
# Indices 1 2 3 4 5 6 
#
# 1 0.010886 -0.001015 -0.004623 0.000000 0.003503 0.000000
# 2 -0.001015 0.011356 -0.003040 0.000000 -0.001231 0.000000
# 3 -0.004623 -0.003040 0.011054 0.000000 -0.003370 0.000000
# 4 0.000000 0.000000 0.000000 0.032108 0.000000 -0.009430
# 5 0.003503 -0.001231 -0.003370 0.000000 0.021516 0.000000
# 6 0.000000 0.000000 0.000000 -0.009430 0.000000 0.179979
#
#
# Mechanical properties :
#
#
# Convention : Reuss Voigt Hill
#
# Bulk Modulus (GPa) = 62.73502 65.31520 64.02511
# Shear Modulus (GPa) = 17.26701 33.04318 25.15509
#
# Velocity S-wave (km/s) = 2.72688 3.77224 3.29133
# Velocity P-wave (km/s) = 6.07708 6.86298 6.48195
#
# Compressibility (1/GPa) = 0.01594006
#
# Stress axis : x y z
#
# Youngs Moduli (GPa) = 91.85729 88.05799 90.46494
#
# Poissons Ratio (x) = 0.08939 0.41821
# Poissons Ratio (y) = 0.09324 0.27504
# Poissons Ratio (z) = 0.42465 0.26772
#
# Static dielectric constant tensor:
#      x y z
#    x 1.843790 0.000000 -0.012180 
#    y 0.000000 1.889060 0.000000 
#    z -0.012180 0.000000 1.836240 
# 
# From -- ./inp_files/25570.got.cif
#   From: 2010.05.17/outbox.cif.g08.bks.cpg/sg5_13_cif.got.tgz:25570.got - 2010.06.03 18:56:24.
