data_PCOD9129524
_publ_section_title
;
Structure prediction by ZEFSAII (Michael W. Deem and Ramdas Pophale) SiO2 
 PCOD9129524
Probable space group: C 2
;
_chemical_formula_sum "Si O2"
_cell_formula_units_Z 24
_cell_length_a 8.664541
_cell_length_b 18.533369
_cell_length_c 8.377679
_cell_angle_alpha 90.000000
_cell_angle_beta 122.411959
_cell_angle_gamma 90.000000
_cell_volume 1135.735663
_symmetry_space_group_name_H-M "C 2"
_symmetry_group_IT_number 5
_symmetry_cell_setting 'monoclinic'
loop_
_space_group_symop_operation_xyz
x,y,z
-x,y,-z
1/2+x,1/2+y,z
1/2-x,1/2+y,-z
loop_
_atom_site_type_symbol
_atom_site_label
_atom_site_fract_x
_atom_site_fract_y
_atom_site_fract_z
Si Si1 0.707263 0.966600 0.652515
Si Si2 0.802265 0.465873 0.968100
Si Si3 0.993234 0.080803 0.190332
Si Si4 0.653251 0.324298 0.455054
Si Si5 0.004903 0.246103 0.808482
Si Si6 0.628125 0.323731 0.933981
O O1 0.500000 0.981865 0.500000
O O2 0.704929 0.962236 0.843477
O O3 0.771248 0.894086 0.597562
O O4 0.835027 0.031996 0.667908
O O5 0.682294 0.534724 0.854646
O O6 0.712294 0.388937 0.877758
O O7 0.000000 0.469223 0.000000
O O8 0.994863 0.163080 0.245575
O O9 0.000000 0.083209 0.000000
O O10 0.500000 0.343646 0.500000
O O11 0.519320 0.280723 0.256292
O O12 0.829933 0.285021 0.630704
O O13 0.202446 0.282782 0.890889
O O14 0.000000 0.248683 0.000000
O O15 0.500000 0.355947 0.000000
#
# Coordination Sequence:
#
# PCOD9129524 Si02
#       6
#     4   4   4   4   4   4
#     4  11  23  40  67 101 132 173 222 279 331 397
#     4  11  22  41  71  97 129 177 225 274 337 394
#     4   9  21  44  65  93 136 172 217 279 338 391
#     4  12  25  41  71 104 133 178 228 272 335 404
#     4  11  24  43  68 101 137 178 223 277 337 401
#     4  12  23  42  69  98 137 175 225 284 330 392
#
# _framework density 21.131675999999999
#
# number of rings (size 3 to 8) (size 9 to 14) (size 15 to 20)
#    0.000    1.000    5.000    2.000    2.333    1.333 
#    3.000    0.000    7.333    0.000    0.000    0.000 
#    0.000    0.000    0.000    0.000    0.000    0.000 
#
# Total GULP energy -66938.942730 kJ/mol
# GULP energy per Si atom -5578.245228 kJ/mol
# Density = 2.108358 g / cm^3
# Si number density = 21.131676 Si / 1000 Ang^3
#
#
#
# Elastic Constant Matrix: (Units=GPa)
#
#
# Indices 1 2 3 4 5 6 
#
# 1 177.7333 79.1718 52.3394 0.0000 43.9836 0.0000
# 2 79.1718 166.9803 73.2893 0.0000 36.5830 0.0000
# 3 52.3394 73.2893 146.0693 0.0000 51.9565 0.0000
# 4 0.0000 0.0000 0.0000 28.1111 0.0000 4.7990
# 5 43.9836 36.5830 51.9565 0.0000 41.0685 0.0000
# 6 0.0000 0.0000 0.0000 4.7990 0.0000 20.9847
#
#
#
# Elastic Compliance Matrix: (Units=1/GPa)
#
#
# Indices 1 2 3 4 5 6 
#
# 1 0.008546 -0.002803 0.001294 0.000000 -0.008293 0.000000
# 2 -0.002803 0.008899 -0.003107 0.000000 -0.000994 0.000000
# 3 0.001294 -0.003107 0.013545 0.000000 -0.015754 0.000000
# 4 0.000000 0.000000 0.000000 0.037018 0.000000 -0.008466
# 5 -0.008293 -0.000994 -0.015754 0.000000 0.054048 0.000000
# 6 0.000000 0.000000 0.000000 -0.008466 0.000000 0.049590
#
#
# Mechanical properties :
#
#
# Convention : Reuss Voigt Hill
#
# Bulk Modulus (GPa) = 45.95966 100.04265 73.00115
# Shear Modulus (GPa) = 26.57703 37.09835 31.83769
#
# Velocity S-wave (km/s) = 3.55024 4.19451 3.88575
# Velocity P-wave (km/s) = 6.21305 8.42044 7.39952
#
# Compressibility (1/GPa) = 0.02175821
#
# Stress axis : x y z
#
# Youngs Moduli (GPa) = 117.00992 112.36678 73.82735
#
# Poissons Ratio (x) = 0.31499 -0.09553
# Poissons Ratio (y) = 0.32800 0.22939
# Poissons Ratio (z) = -0.15140 0.34913
#
# Static dielectric constant tensor:
#      x y z
#    x 1.757780 0.000000 -0.039680 
#    y 0.000000 1.738340 0.000000 
#    z -0.039680 0.000000 1.898280 
# 
# From -- ./inp_files/16706.got.cif
#   From: 2010.05.17/outbox.cif.g08.bks.cpg/sg5_9_cif.got.tgz:16706.got - 2010.06.03 18:56:24.
