data_PCOD9129401
_publ_section_title
;
Structure prediction by ZEFSAII (Michael W. Deem and Ramdas Pophale) SiO2 
 PCOD9129401
Probable space group: C 2
;
_chemical_formula_sum "Si O2"
_cell_formula_units_Z 24
_cell_length_a 14.191400
_cell_length_b 5.807486
_cell_length_c 13.706109
_cell_angle_alpha 90.000000
_cell_angle_beta 124.154253
_cell_angle_gamma 90.000000
_cell_volume 934.783134
_symmetry_space_group_name_H-M "C 2"
_symmetry_group_IT_number 5
_symmetry_cell_setting 'monoclinic'
loop_
_space_group_symop_operation_xyz
x,y,z
-x,y,-z
1/2+x,1/2+y,z
1/2-x,1/2+y,-z
loop_
_atom_site_type_symbol
_atom_site_label
_atom_site_fract_x
_atom_site_fract_y
_atom_site_fract_z
Si Si1 0.000000 0.399161 0.500000
Si Si2 0.444328 0.069659 0.260612
Si Si3 0.108725 0.903477 0.373153
Si Si4 0.268313 0.383523 0.956797
Si Si5 0.606211 0.793408 0.222447
Si Si6 0.291810 0.576487 0.378287
Si Si7 0.500000 0.466500 0.000000
O O1 0.010101 0.520686 0.401034
O O2 0.890103 0.249888 0.410131
O O3 0.476592 0.340186 0.274527
O O4 0.319379 0.965105 0.179275
O O5 0.506904 0.958691 0.203421
O O6 0.134200 0.142392 0.334385
O O7 0.143961 0.922396 0.505015
O O8 0.191525 0.718752 0.371993
O O9 0.395141 0.337065 0.989642
O O10 0.230813 0.133040 0.981772
O O11 0.722027 0.925222 0.260967
O O12 0.560291 0.628013 0.114033
#
# Coordination Sequence:
#
# PCOD9129401 Si02
#       7
#     2   4   4   4   4   4   2
#     4  12  26  44  66 118 146 196 244 320 404 472
#     4  11  26  46  73 106 158 195 256 326 396 473
#     4  11  21  44  71  99 143 198 243 319 388 464
#     4  12  29  56  84 118 164 216 274 341 396 484
#     4  11  24  49  71 107 145 203 260 320 391 476
#     4  11  23  40  72 103 145 188 253 312 391 469
#     4  12  28  50  84 114 158 220 274 328 414 472
#
# _framework density 25.674402000000001
#
# number of rings (size 3 to 8) (size 9 to 14) (size 15 to 20)
#    0.000    0.667    5.000    2.000    2.333    4.000 
#    3.000    0.000    0.000    0.000    0.000    0.000 
#    0.000    0.000    0.000    0.000    0.000    0.000 
#
# Total GULP energy -67012.500540 kJ/mol
# GULP energy per Si atom -5584.375045 kJ/mol
# Density = 2.561597 g / cm^3
# Si number density = 25.674402 Si / 1000 Ang^3
#
#
#
# Elastic Constant Matrix: (Units=GPa)
#
#
# Indices 1 2 3 4 5 6 
#
# 1 111.0864 27.8598 17.4201 0.0000 21.1183 0.0000
# 2 27.8598 72.8619 22.1240 0.0000 6.9435 0.0000
# 3 17.4201 22.1240 107.8771 0.0000 19.1694 0.0000
# 4 0.0000 0.0000 0.0000 41.2104 0.0000 18.6661
# 5 21.1183 6.9435 19.1694 0.0000 29.8072 0.0000
# 6 0.0000 0.0000 0.0000 18.6661 0.0000 20.3930
#
#
#
# Elastic Compliance Matrix: (Units=1/GPa)
#
#
# Indices 1 2 3 4 5 6 
#
# 1 0.011274 -0.003687 0.000228 0.000000 -0.007276 0.000000
# 2 -0.003687 0.015916 -0.002793 0.000000 0.000701 0.000000
# 3 0.000228 -0.002793 0.010973 0.000000 -0.006568 0.000000
# 4 0.000000 0.000000 0.000000 0.041451 0.000000 -0.037941
# 5 -0.007276 0.000701 -0.006568 0.000000 0.042764 0.000000
# 6 0.000000 0.000000 0.000000 -0.037941 0.000000 0.083765
#
#
# Mechanical properties :
#
#
# Convention : Reuss Voigt Hill
#
# Bulk Modulus (GPa) = 38.97232 47.40368 43.18800
# Shear Modulus (GPa) = 22.00716 33.24355 27.62535
#
# Velocity S-wave (km/s) = 2.93091 3.60225 3.28378
# Velocity P-wave (km/s) = 5.16392 5.98374 5.58888
#
# Compressibility (1/GPa) = 0.02565924
#
# Stress axis : x y z
#
# Youngs Moduli (GPa) = 88.70004 62.83125 91.13369
#
# Poissons Ratio (x) = 0.23165 -0.02082
# Poissons Ratio (y) = 0.32702 0.25456
# Poissons Ratio (z) = -0.02026 0.17551
#
# Static dielectric constant tensor:
#      x y z
#    x 2.140510 0.000000 -0.009080 
#    y 0.000000 2.084580 0.000000 
#    z -0.009080 0.000000 1.965370 
# 
# From -- ./inp_files/53760.got.cif
#   From: 2010.05.17/outbox.cif.g08.bks.cpg/sg5_27_cif.got.tgz:53760.got - 2010.06.03 18:56:24.
