data_PCOD9129703
_publ_section_title
;
Structure prediction by ZEFSAII (Michael W. Deem and Ramdas Pophale) SiO2 
 PCOD9129703
Probable space group: C 2
;
_chemical_formula_sum "Si O2"
_cell_formula_units_Z 20
_cell_length_a 9.620687
_cell_length_b 23.154535
_cell_length_c 8.211177
_cell_angle_alpha 90.000000
_cell_angle_beta 31.251229
_cell_angle_gamma 90.000000
_cell_volume 948.943806
_symmetry_space_group_name_H-M "C 2"
_symmetry_group_IT_number 5
_symmetry_cell_setting 'monoclinic'
loop_
_space_group_symop_operation_xyz
x,y,z
-x,y,-z
1/2+x,1/2+y,z
1/2-x,1/2+y,-z
loop_
_atom_site_type_symbol
_atom_site_label
_atom_site_fract_x
_atom_site_fract_y
_atom_site_fract_z
Si Si1 0.753781 0.630130 0.862714
Si Si2 0.878915 0.941241 0.440479
Si Si3 0.107387 0.242014 0.209543
Si Si4 0.881579 0.501949 0.799142
Si Si5 0.103218 0.806710 0.581848
O O1 0.833118 0.570165 0.868828
O O2 0.000000 0.648204 0.500000
O O3 0.500000 0.618977 0.000000
O O4 0.685260 0.680289 0.057164
O O5 0.000000 0.945554 0.500000
O O6 0.836956 0.873807 0.444736
O O7 0.603245 0.975510 0.696545
O O8 0.103322 0.968977 0.100232
O O9 0.000000 0.237710 0.500000
O O10 0.869188 0.269705 0.342079
O O11 0.366907 0.282631 0.932398
O O12 0.000000 0.494283 0.500000
O O13 0.000000 0.801691 0.500000
#
# Coordination Sequence:
#
# PCOD9129703 Si02
#       5
#     4   4   4   4   4
#     4  11  23  43  67  92 126 171 213 253 312 387
#     4  11  24  42  65  95 130 168 209 257 314 374
#     4  12  25  41  66  99 127 160 211 270 318 359
#     4  11  23  41  66  94 126 167 213 259 311 371
#     4  11  24  43  66  92 129 174 210 247 313 391
#
# _framework density 21.076063999999999
#
# number of rings (size 3 to 8) (size 9 to 14) (size 15 to 20)
#    0.000    0.800    0.000    9.000    0.000    8.800 
#    0.000    6.000    0.000    0.000    0.000    0.000 
#    0.000    0.000    0.000    0.000    0.000    0.000 
#
# Total GULP energy -56025.652025 kJ/mol
# GULP energy per Si atom -5602.565202 kJ/mol
# Density = 2.102809 g / cm^3
# Si number density = 21.076064 Si / 1000 Ang^3
#
#
#
# Elastic Constant Matrix: (Units=GPa)
#
#
# Indices 1 2 3 4 5 6 
#
# 1 68.1651 68.6584 33.0563 0.0000 -7.5797 0.0000
# 2 68.6584 162.9764 61.9883 0.0000 11.5041 0.0000
# 3 33.0563 61.9883 133.2263 0.0000 -3.2838 0.0000
# 4 0.0000 0.0000 0.0000 59.3656 0.0000 -2.2749
# 5 -7.5797 11.5041 -3.2838 0.0000 42.1753 0.0000
# 6 0.0000 0.0000 0.0000 -2.2749 0.0000 24.1495
#
#
#
# Elastic Compliance Matrix: (Units=1/GPa)
#
#
# Indices 1 2 3 4 5 6 
#
# 1 0.028322 -0.012054 -0.001214 0.000000 0.008283 0.000000
# 2 -0.012054 0.012817 -0.003118 0.000000 -0.005905 0.000000
# 3 -0.001214 -0.003118 0.009292 0.000000 0.001356 0.000000
# 4 0.000000 0.000000 0.000000 0.016906 0.000000 0.001593
# 5 0.008283 -0.005905 0.001356 0.000000 0.026915 0.000000
# 6 0.000000 0.000000 0.000000 0.001593 0.000000 0.041559
#
#
# Mechanical properties :
#
#
# Convention : Reuss Voigt Hill
#
# Bulk Modulus (GPa) = 56.63584 76.86377 66.74981
# Shear Modulus (GPa) = 28.65844 38.51574 33.58709
#
# Velocity S-wave (km/s) = 3.69150 4.27952 3.99634
# Velocity P-wave (km/s) = 6.71565 7.80820 7.28244
#
# Compressibility (1/GPa) = 0.01765666
#
# Stress axis : x y z
#
# Youngs Moduli (GPa) = 35.30881 78.02277 107.62409
#
# Poissons Ratio (x) = 0.94049 0.13070
# Poissons Ratio (y) = 0.42561 0.33559
# Poissons Ratio (z) = 0.04288 0.24329
#
# Static dielectric constant tensor:
#      x y z
#    x 1.753610 0.000000 -0.004670 
#    y 0.000000 1.729610 0.000000 
#    z -0.004670 0.000000 1.731740 
# 
# From -- ./inp_files/2806.got.cif
#   From: 2010.05.17/outbox.cif.g08.bks.cpg/sg5_2_cif.got.tgz:2806.got - 2010.06.03 18:56:24.
