data_PCOD9129405
_publ_section_title
;
Structure prediction by ZEFSAII (Michael W. Deem and Ramdas Pophale) SiO2 
 PCOD9129405
Probable space group: C 2
;
_chemical_formula_sum "Si O2"
_cell_formula_units_Z 20
_cell_length_a 13.802156
_cell_length_b 6.695672
_cell_length_c 18.176019
_cell_angle_alpha 90.000000
_cell_angle_beta 148.944525
_cell_angle_gamma 90.000000
_cell_volume 866.519336
_symmetry_space_group_name_H-M "C 2"
_symmetry_group_IT_number 5
_symmetry_cell_setting 'monoclinic'
loop_
_space_group_symop_operation_xyz
x,y,z
-x,y,-z
1/2+x,1/2+y,z
1/2-x,1/2+y,-z
loop_
_atom_site_type_symbol
_atom_site_label
_atom_site_fract_x
_atom_site_fract_y
_atom_site_fract_z
Si Si1 0.962820 0.074180 0.609162
Si Si2 0.872945 0.048379 0.767097
Si Si3 0.000000 0.169654 0.000000
Si Si4 0.638036 0.299627 0.836506
Si Si5 0.500000 0.816447 0.500000
Si Si6 0.580224 0.911847 0.297157
O O1 0.757488 0.031382 0.443800
O O2 0.066823 0.170464 0.608227
O O3 0.966608 0.245694 0.672687
O O4 0.037691 0.876477 0.696463
O O5 0.049827 0.936472 0.843586
O O6 0.683559 0.953871 0.608445
O O7 0.872403 0.279883 0.742762
O O8 0.418946 0.073606 0.182073
O O9 0.145458 0.298005 0.045912
O O10 0.111411 0.041467 0.134340
#
# Coordination Sequence:
#
# PCOD9129405 Si02
#       6
#     4   4   2   4   2   4
#     4  11  22  40  73 110 141 180 242 309 374 432
#     4  11  28  48  74 109 152 191 257 307 368 448
#     4  12  30  48  76 106 150 212 242 298 370 460
#     4  11  26  49  72 108 151 199 245 306 374 448
#     4  12  24  46  74 118 140 192 250 316 378 438
#     4  11  21  44  73 103 145 187 239 314 368 428
#
# _framework density 23.080846000000001
#
# number of rings (size 3 to 8) (size 9 to 14) (size 15 to 20)
#    0.000    0.800    4.000    2.400    8.400    0.000 
#    0.000    5.000    0.000    0.000    0.000    0.000 
#    0.000    0.000    0.000    0.000    0.000    0.000 
#
# Total GULP energy -55870.594124 kJ/mol
# GULP energy per Si atom -5587.059412 kJ/mol
# Density = 2.302831 g / cm^3
# Si number density = 23.080846 Si / 1000 Ang^3
#
#
#
# Elastic Constant Matrix: (Units=GPa)
#
#
# Indices 1 2 3 4 5 6 
#
# 1 68.3188 30.5486 19.7889 -0.0001 -13.9993 0.0001
# 2 30.5486 110.3865 20.9466 0.0001 3.1898 -0.0001
# 3 19.7889 20.9466 78.4401 0.0003 3.3809 -0.0002
# 4 -0.0001 0.0001 0.0003 7.8905 0.0000 2.6151
# 5 -13.9993 3.1898 3.3809 0.0000 47.3695 0.0000
# 6 0.0001 -0.0001 -0.0002 2.6151 0.0000 36.0537
#
#
#
# Elastic Compliance Matrix: (Units=1/GPa)
#
#
# Indices 1 2 3 4 5 6 
#
# 1 0.019155 -0.004754 -0.003832 0.000001 0.006255 0.000000
# 2 -0.004754 0.010733 -0.001580 0.000000 -0.002015 0.000000
# 3 -0.003832 -0.001580 0.014225 -0.000001 -0.002042 0.000000
# 4 0.000001 0.000000 -0.000001 0.129856 0.000000 -0.009419
# 5 0.006255 -0.002015 -0.002042 0.000000 0.023240 0.000000
# 6 0.000000 0.000000 0.000000 -0.009419 0.000000 0.028420
#
#
# Mechanical properties :
#
#
# Convention : Reuss Voigt Hill
#
# Bulk Modulus (GPa) = 42.05254 44.41263 43.23259
# Shear Modulus (GPa) = 19.69364 30.65350 25.17357
#
# Velocity S-wave (km/s) = 2.92421 3.64825 3.30611
# Velocity P-wave (km/s) = 5.44615 6.08525 5.77455
#
# Compressibility (1/GPa) = 0.02377978
#
# Stress axis : x y z
#
# Youngs Moduli (GPa) = 52.20594 93.17190 70.29751
#
# Poissons Ratio (x) = 0.44299 0.26940
# Poissons Ratio (y) = 0.24821 0.11105
# Poissons Ratio (z) = 0.20007 0.14719
#
# Static dielectric constant tensor:
#      x y z
#    x 1.919940 0.000000 0.008150 
#    y 0.000000 1.903460 0.000000 
#    z 0.008150 0.000000 1.904210 
# 
# From -- ./inp_files/53985.got.cif
#   From: 2010.05.17/outbox.cif.g08.bks.cpg/sg5_27_cif.got.tgz:53985.got - 2010.06.03 18:56:24.
