data_PCOD9129982
_publ_section_title
;
Structure prediction by ZEFSAII (Michael W. Deem and Ramdas Pophale) SiO2 
 PCOD9129982
Probable space group: C 2
;
_chemical_formula_sum "Si O2"
_cell_formula_units_Z 18
_cell_length_a 6.826929
_cell_length_b 7.762936
_cell_length_c 18.236704
_cell_angle_alpha 90.000000
_cell_angle_beta 54.048071
_cell_angle_gamma 90.000000
_cell_volume 782.383862
_symmetry_space_group_name_H-M "C 2"
_symmetry_group_IT_number 5
_symmetry_cell_setting 'monoclinic'
loop_
_space_group_symop_operation_xyz
x,y,z
-x,y,-z
1/2+x,1/2+y,z
1/2-x,1/2+y,-z
loop_
_atom_site_type_symbol
_atom_site_label
_atom_site_fract_x
_atom_site_fract_y
_atom_site_fract_z
Si Si1 0.379510 0.451760 0.752582
Si Si2 0.444833 0.203328 0.873537
Si Si3 0.151510 0.830071 0.402265
Si Si4 0.500000 0.450695 0.000000
Si Si5 0.056694 0.453066 0.405216
O O1 0.366275 0.301056 0.816121
O O2 0.303724 0.408706 0.686372
O O3 0.667142 0.472763 0.680030
O O4 0.205152 0.608237 0.812916
O O5 0.458267 0.336870 0.937111
O O6 0.237471 0.065183 0.935633
O O7 0.994799 0.657611 0.421471
O O8 0.413728 0.828636 0.382438
O O9 0.000000 0.926733 0.500000
O O10 0.000000 0.393260 0.500000
#
# Coordination Sequence:
#
# PCOD9129982 Si02
#       5
#     4   4   4   2   4
#     4  12  26  45  75 116 138 204 245 303 344 458
#     4  12  28  48  83 104 152 178 257 302 384 446
#     4  11  24  44  68 104 155 204 244 294 352 417
#     4  12  28  56  74 112 138 194 226 330 396 438
#     4  11  24  44  68 104 155 204 244 294 352 417
#
# _framework density 23.006609000000001
#
# number of rings (size 3 to 8) (size 9 to 14) (size 15 to 20)
#    0.000    0.444    2.222    5.333    9.333    0.000 
#    0.000    0.000    0.000    0.000    0.000    0.000 
#    0.000    0.000    0.000    0.000    0.000    0.000 
#
# Total GULP energy -50286.784946 kJ/mol
# GULP energy per Si atom -5587.420550 kJ/mol
# Density = 2.295425 g / cm^3
# Si number density = 23.006609 Si / 1000 Ang^3
#
#
#
# Elastic Constant Matrix: (Units=GPa)
#
#
# Indices 1 2 3 4 5 6 
#
# 1 115.5944 51.4770 71.4210 0.0000 -2.5106 0.0000
# 2 51.4770 105.0469 80.0663 0.0000 4.0129 0.0000
# 3 71.4210 80.0663 185.0307 0.0000 4.7959 0.0000
# 4 0.0000 0.0000 0.0000 48.3119 0.0000 -4.1420
# 5 -2.5106 4.0129 4.7959 0.0000 54.6816 0.0000
# 6 0.0000 0.0000 0.0000 -4.1420 0.0000 54.5142
#
#
#
# Elastic Compliance Matrix: (Units=1/GPa)
#
#
# Indices 1 2 3 4 5 6 
#
# 1 0.012260 -0.003613 -0.003197 0.000000 0.001108 0.000000
# 2 -0.003613 0.015283 -0.005197 0.000000 -0.000832 0.000000
# 3 -0.003197 -0.005197 0.008902 0.000000 -0.000546 0.000000
# 4 0.000000 0.000000 0.000000 0.020835 0.000000 0.001583
# 5 0.001108 -0.000832 -0.000546 0.000000 0.018448 0.000000
# 6 0.000000 0.000000 0.000000 0.001583 0.000000 0.018464
#
#
# Mechanical properties :
#
#
# Convention : Reuss Voigt Hill
#
# Bulk Modulus (GPa) = 80.45501 90.17786 85.31643
# Shear Modulus (GPa) = 40.86684 45.01539 42.94111
#
# Velocity S-wave (km/s) = 4.21920 4.42818 4.32495
# Velocity P-wave (km/s) = 7.66693 8.08867 7.88062
#
# Compressibility (1/GPa) = 0.01242931
#
# Stress axis : x y z
#
# Youngs Moduli (GPa) = 81.56931 65.43213 112.33702
#
# Poissons Ratio (x) = 0.23640 0.35920
# Poissons Ratio (y) = 0.29470 0.58383
# Poissons Ratio (z) = 0.26082 0.34006
#
# Static dielectric constant tensor:
#      x y z
#    x 1.865110 0.000000 -0.039670 
#    y 0.000000 1.934030 0.000000 
#    z -0.039670 0.000000 1.864600 
# 
# From -- ./inp_files/58452.got.cif
#   From: 2010.05.17/outbox.cif.g08.bks.cpg/sg5_30_cif.got.tgz:58452.got - 2010.06.03 18:56:24.
