data_PCOD9129165
_publ_section_title
;
Structure prediction by ZEFSAII (Michael W. Deem and Ramdas Pophale) SiO2 
 PCOD9129165
Probable space group: C 2
;
_chemical_formula_sum "Si O2"
_cell_formula_units_Z 28
_cell_length_a 20.953983
_cell_length_b 7.981756
_cell_length_c 10.288203
_cell_angle_alpha 90.000000
_cell_angle_beta 127.980004
_cell_angle_gamma 90.000000
_cell_volume 1356.297865
_symmetry_space_group_name_H-M "C 2"
_symmetry_group_IT_number 5
_symmetry_cell_setting 'monoclinic'
loop_
_space_group_symop_operation_xyz
x,y,z
-x,y,-z
1/2+x,1/2+y,z
1/2-x,1/2+y,-z
loop_
_atom_site_type_symbol
_atom_site_label
_atom_site_fract_x
_atom_site_fract_y
_atom_site_fract_z
Si Si1 0.615872 0.414870 0.005577
Si Si2 0.597691 0.070458 0.121067
Si Si3 0.830576 0.340212 0.579326
Si Si4 0.141677 0.372052 0.925617
Si Si5 0.811073 0.719909 0.135377
Si Si6 0.493446 0.674786 0.836195
Si Si7 0.745695 0.114181 0.678904
O O1 0.619603 0.256415 0.104768
O O2 0.671799 0.558131 0.141467
O O3 0.644576 0.354788 0.899456
O O4 0.525652 0.485993 0.877828
O O5 0.631129 0.998604 0.296028
O O6 0.500000 0.063688 0.000000
O O7 0.641530 0.950056 0.070698
O O8 0.767074 0.233996 0.585154
O O9 0.792688 0.435032 0.409382
O O10 0.906115 0.212804 0.668398
O O11 0.152976 0.538750 0.855042
O O12 0.057007 0.275537 0.825501
O O13 0.216510 0.253256 0.982511
O O14 0.809155 0.718501 0.288880
O O15 0.500000 0.721636 0.000000
#
# Coordination Sequence:
#
# PCOD9129165 Si02
#       7
#     4   4   4   4   4   4   4
#     4  11  23  37  70  98 124 173 235 278 331 392
#     4  11  20  36  64  99 123 170 224 281 324 395
#     4  12  24  41  65  96 144 172 216 277 348 404
#     4  11  18  35  64  92 125 166 223 273 320 375
#     4  11  21  38  64  97 128 165 231 278 319 407
#     4  12  19  41  66  98 129 171 228 277 325 399
#     4  12  24  43  63 100 135 178 211 278 349 399
#
# _framework density 20.644431999999998
#
# number of rings (size 3 to 8) (size 9 to 14) (size 15 to 20)
#    0.000    0.571    8.571    1.286    0.000    0.000 
#    0.000    0.714    0.000    0.000    3.714    0.000 
#    0.000    0.000    0.000    0.000    0.000    0.000 
#
# Total GULP energy -78001.353878 kJ/mol
# GULP energy per Si atom -5571.525277 kJ/mol
# Density = 2.059744 g / cm^3
# Si number density = 20.644432 Si / 1000 Ang^3
#
#
#
# Elastic Constant Matrix: (Units=GPa)
#
#
# Indices 1 2 3 4 5 6 
#
# 1 107.4377 20.8625 15.7636 0.0000 4.7949 0.0000
# 2 20.8625 83.3017 6.0943 0.0000 1.4219 0.0000
# 3 15.7636 6.0943 48.7691 0.0000 6.8462 0.0000
# 4 0.0000 0.0000 0.0000 26.9437 0.0000 -1.8838
# 5 4.7949 1.4219 6.8462 0.0000 13.9719 0.0000
# 6 0.0000 0.0000 0.0000 -1.8838 0.0000 49.2162
#
#
#
# Elastic Compliance Matrix: (Units=1/GPa)
#
#
# Indices 1 2 3 4 5 6 
#
# 1 0.010251 -0.002333 -0.002750 0.000000 -0.001933 0.000000
# 2 -0.002333 0.012650 -0.000814 0.000000 -0.000088 0.000000
# 3 -0.002750 -0.000814 0.022929 0.000000 -0.010208 0.000000
# 4 0.000000 0.000000 0.000000 0.037214 0.000000 0.001424
# 5 -0.001933 -0.000088 -0.010208 0.000000 0.077247 0.000000
# 6 0.000000 0.000000 0.000000 0.001424 0.000000 0.020373
#
#
# Mechanical properties :
#
#
# Convention : Reuss Voigt Hill
#
# Bulk Modulus (GPa) = 29.38282 36.10548 32.74415
# Shear Modulus (GPa) = 24.53352 31.14555 27.83953
#
# Velocity S-wave (km/s) = 3.45103 3.88837 3.67621
# Velocity P-wave (km/s) = 5.49028 6.13892 5.82364
#
# Compressibility (1/GPa) = 0.03403350
#
# Stress axis : x y z
#
# Youngs Moduli (GPa) = 97.55566 79.05184 43.61366
#
# Poissons Ratio (x) = 0.18443 0.11996
# Poissons Ratio (y) = 0.22760 0.03552
# Poissons Ratio (z) = 0.26832 0.06438
#
# Static dielectric constant tensor:
#      x y z
#    x 1.780110 0.000000 -0.003000 
#    y 0.000000 1.779440 0.000000 
#    z -0.003000 0.000000 1.795800 
# 
# From -- ./inp_files/46048.got.cif
#   From: 2010.05.17/outbox.cif.g08.bks.cpg/sg5_24_cif.got.tgz:46048.got - 2010.06.03 18:56:24.
