data_PCOD9129568
_publ_section_title
;
Structure prediction by ZEFSAII (Michael W. Deem and Ramdas Pophale) SiO2 
 PCOD9129568
Probable space group: C 2
;
_chemical_formula_sum "Si O2"
_cell_formula_units_Z 28
_cell_length_a 8.718930
_cell_length_b 14.090038
_cell_length_c 21.082870
_cell_angle_alpha 90.000000
_cell_angle_beta 150.234817
_cell_angle_gamma 90.000000
_cell_volume 1285.812330
_symmetry_space_group_name_H-M "C 2"
_symmetry_group_IT_number 5
_symmetry_cell_setting 'monoclinic'
loop_
_space_group_symop_operation_xyz
x,y,z
-x,y,-z
1/2+x,1/2+y,z
1/2-x,1/2+y,-z
loop_
_atom_site_type_symbol
_atom_site_label
_atom_site_fract_x
_atom_site_fract_y
_atom_site_fract_z
Si Si1 0.631811 0.072260 0.239876
Si Si2 0.289179 0.721760 0.730813
Si Si3 0.268606 0.909956 0.309230
Si Si4 0.735042 0.567587 0.854758
Si Si5 0.761669 0.756964 0.144453
Si Si6 0.696033 0.899512 0.350419
Si Si7 0.146493 0.582962 0.485653
O O1 0.640977 0.040936 0.169860
O O2 0.403415 0.159404 0.168346
O O3 0.990109 0.096177 0.382640
O O4 0.562751 0.986980 0.262764
O O5 0.564537 0.668612 0.792881
O O6 0.373671 0.739597 0.834057
O O7 0.215710 0.817187 0.666769
O O8 0.003302 0.648344 0.622318
O O9 0.433381 0.870230 0.306012
O O10 0.056049 0.826778 0.260907
O O11 0.538490 0.972571 0.440332
O O12 0.016553 0.992871 0.210826
O O13 0.000000 0.571606 0.000000
O O14 0.500000 0.791281 0.000000
O O15 0.000000 0.926554 0.500000
O O16 0.000000 0.615758 0.500000
#
# Coordination Sequence:
#
# PCOD9129568 Si02
#       7
#     4   4   4   4   4   4   4
#     4  12  24  43  71  98 139 179 221 286 339 401
#     4  11  25  42  68  99 136 177 224 280 342 399
#     4  11  24  43  69  97 138 177 222 279 340 397
#     4  11  23  45  72  99 135 178 227 277 332 406
#     4  12  28  48  67  99 137 186 236 272 331 408
#     4  12  26  42  66 101 138 171 222 277 348 409
#     4  11  22  43  69 106 138 170 223 280 355 404
#
# _framework density 21.776118
#
# number of rings (size 3 to 8) (size 9 to 14) (size 15 to 20)
#    0.000    0.571    4.286    5.143    2.000    0.000 
#    0.000    2.143    0.000    0.000    0.000    0.000 
#    0.000    0.000    0.000    0.000    0.000    0.000 
#
# Total GULP energy -78222.317548 kJ/mol
# GULP energy per Si atom -5587.308396 kJ/mol
# Density = 2.172655 g / cm^3
# Si number density = 21.776118 Si / 1000 Ang^3
#
#
#
# Elastic Constant Matrix: (Units=GPa)
#
#
# Indices 1 2 3 4 5 6 
#
# 1 61.0935 4.3997 19.6800 0.0018 -9.2482 -0.0005
# 2 4.3997 58.7870 6.9641 -0.0004 -0.4217 0.0025
# 3 19.6800 6.9641 48.7098 0.0012 -25.2810 0.0008
# 4 0.0018 -0.0004 0.0012 20.7657 0.0007 -4.0084
# 5 -9.2482 -0.4217 -25.2810 0.0007 33.4510 -0.0035
# 6 -0.0005 0.0025 0.0008 -4.0084 -0.0035 19.1000
#
#
#
# Elastic Compliance Matrix: (Units=1/GPa)
#
#
# Indices 1 2 3 4 5 6 
#
# 1 0.018846 -0.000472 -0.007973 -0.000001 -0.000821 0.000001
# 2 -0.000472 0.017467 -0.003719 0.000000 -0.002721 -0.000003
# 3 -0.007973 -0.003719 0.038033 -0.000002 0.026492 0.000003
# 4 -0.000001 0.000000 -0.000002 0.050190 -0.000002 0.010533
# 5 -0.000821 -0.002721 0.026492 -0.000002 0.049655 0.000008
# 6 0.000001 -0.000003 0.000003 0.010533 0.000008 0.054567
#
#
# Mechanical properties :
#
#
# Convention : Reuss Voigt Hill
#
# Bulk Modulus (GPa) = 19.99266 25.63086 22.81176
# Shear Modulus (GPa) = 18.53517 23.83311 21.18414
#
# Velocity S-wave (km/s) = 2.92065 3.31185 3.12238
# Velocity P-wave (km/s) = 4.53591 5.14006 4.84741
#
# Compressibility (1/GPa) = 0.05001835
#
# Stress axis : x y z
#
# Youngs Moduli (GPa) = 53.06043 57.25114 26.29321
#
# Poissons Ratio (x) = 0.02701 0.20964
# Poissons Ratio (y) = 0.02504 0.09778
# Poissons Ratio (z) = 0.42307 0.21290
#
# Static dielectric constant tensor:
#      x y z
#    x 1.820840 0.000000 -0.014970 
#    y 0.000000 1.812430 0.000000 
#    z -0.014970 0.000000 1.786570 
# 
# From -- ./inp_files/64713.got.cif
#   From: 2010.05.17/outbox.cif.g08.bks.cpg/sg5_33_cif.got.tgz:64713.got - 2010.06.03 18:56:24.
