data_PCOD9129817
_publ_section_title
;
Structure prediction by ZEFSAII (Michael W. Deem and Ramdas Pophale) SiO2 
 PCOD9129817
Probable space group: C 2
;
_chemical_formula_sum "Si O2"
_cell_formula_units_Z 28
_cell_length_a 14.305164
_cell_length_b 4.915513
_cell_length_c 15.633286
_cell_angle_alpha 90.000000
_cell_angle_beta 108.851826
_cell_angle_gamma 90.000000
_cell_volume 1040.320444
_symmetry_space_group_name_H-M "C 2"
_symmetry_group_IT_number 5
_symmetry_cell_setting 'monoclinic'
loop_
_space_group_symop_operation_xyz
x,y,z
-x,y,-z
1/2+x,1/2+y,z
1/2-x,1/2+y,-z
loop_
_atom_site_type_symbol
_atom_site_label
_atom_site_fract_x
_atom_site_fract_y
_atom_site_fract_z
Si Si1 0.952058 0.186130 0.182736
Si Si2 0.352334 0.411157 0.298268
Si Si3 0.800947 0.486769 0.024026
Si Si4 0.098572 0.428392 0.578791
Si Si5 0.634808 0.985123 0.279470
Si Si6 0.774550 0.736167 0.530204
Si Si7 0.073423 0.443971 0.088882
O O1 0.867729 0.395808 0.123693
O O2 0.039716 0.297893 0.271218
O O3 0.017184 0.187205 0.115159
O O4 0.894853 0.950760 0.215446
O O5 0.363214 0.709471 0.342387
O O6 0.236804 0.334665 0.280819
O O7 0.416216 0.198437 0.369856
O O8 0.797182 0.803635 0.001032
O O9 0.838161 0.358950 0.944623
O O10 0.185712 0.492777 0.533684
O O11 0.000000 0.358666 0.500000
O O12 0.660383 0.172441 0.366629
O O13 0.602662 0.118918 0.180250
O O14 0.813922 0.001840 0.490633
O O15 0.000000 0.579000 0.000000
#
# Coordination Sequence:
#
# PCOD9129817 Si02
#       7
#     4   4   4   4   4   4   4
#     4   9  22  44  74 109 146 203 244 311 389 445
#     4  11  23  46  69 105 145 193 246 309 385 450
#     4  11  23  44  74 109 149 196 252 314 377 458
#     4  11  26  47  69 103 143 188 245 316 377 459
#     4   9  21  43  73 108 150 192 255 320 377 464
#     4  11  24  46  75 108 147 201 255 316 389 458
#     4   8  18  42  71 104 146 186 249 298 373 454
#
# _framework density 26.914781000000001
#
# number of rings (size 3 to 8) (size 9 to 14) (size 15 to 20)
#    0.857    1.143    0.000    3.000    2.000    2.286 
#    2.571   13.571    0.000    0.000    0.000    0.000 
#    0.000    0.000    0.000    0.000    0.000    0.000 
#
# Total GULP energy -78017.092639 kJ/mol
# GULP energy per Si atom -5572.649474 kJ/mol
# Density = 2.685352 g / cm^3
# Si number density = 26.914781 Si / 1000 Ang^3
#
#
#
# Elastic Constant Matrix: (Units=GPa)
#
#
# Indices 1 2 3 4 5 6 
#
# 1 109.1135 8.3769 17.2581 0.0000 -1.1739 0.0000
# 2 8.3769 138.7715 35.3037 0.0000 -10.8254 0.0000
# 3 17.2581 35.3037 178.8305 0.0000 -2.9994 0.0000
# 4 0.0000 0.0000 0.0000 23.6098 0.0000 -0.5757
# 5 -1.1739 -10.8254 -2.9994 0.0000 48.2812 0.0000
# 6 0.0000 0.0000 0.0000 -0.5757 0.0000 9.6630
#
#
#
# Elastic Compliance Matrix: (Units=1/GPa)
#
#
# Indices 1 2 3 4 5 6 
#
# 1 0.009324 -0.000344 -0.000830 0.000000 0.000098 0.000000
# 2 -0.000344 0.007727 -0.001465 0.000000 0.001633 0.000000
# 3 -0.000830 -0.001465 0.005962 0.000000 0.000022 0.000000
# 4 0.000000 0.000000 0.000000 0.042417 0.000000 0.002527
# 5 0.000098 0.001633 0.000022 0.000000 0.021082 0.000000
# 6 0.000000 0.000000 0.000000 0.002527 0.000000 0.103638
#
#
# Mechanical properties :
#
#
# Convention : Reuss Voigt Hill
#
# Bulk Modulus (GPa) = 56.38883 60.95474 58.67178
# Shear Modulus (GPa) = 24.83381 40.69591 32.76486
#
# Velocity S-wave (km/s) = 3.04087 3.89270 3.49285
# Velocity P-wave (km/s) = 5.77283 6.54986 6.17358
#
# Compressibility (1/GPa) = 0.01773401
#
# Stress axis : x y z
#
# Youngs Moduli (GPa) = 107.25533 129.41791 167.74170
#
# Poissons Ratio (x) = 0.04451 0.13926
# Poissons Ratio (y) = 0.03689 0.24571
# Poissons Ratio (z) = 0.08905 0.18957
#
# Static dielectric constant tensor:
#      x y z
#    x 2.331930 0.000000 -0.001950 
#    y 0.000000 2.183350 0.000000 
#    z -0.001950 0.000000 2.126250 
# 
# From -- ./inp_files/61256.got.cif
#   From: 2010.05.17/outbox.cif.g08.bks.cpg/sg5_31_cif.got.tgz:61256.got - 2010.06.03 18:56:24.
