data_PCOD9129470
_publ_section_title
;
Structure prediction by ZEFSAII (Michael W. Deem and Ramdas Pophale) SiO2 
 PCOD9129470
Probable space group: C 2
;
_chemical_formula_sum "Si O2"
_cell_formula_units_Z 24
_cell_length_a 8.738656
_cell_length_b 13.773400
_cell_length_c 9.978510
_cell_angle_alpha 90.000000
_cell_angle_beta 79.269164
_cell_angle_gamma 90.000000
_cell_volume 1180.020866
_symmetry_space_group_name_H-M "C 2"
_symmetry_group_IT_number 5
_symmetry_cell_setting 'monoclinic'
loop_
_space_group_symop_operation_xyz
x,y,z
-x,y,-z
1/2+x,1/2+y,z
1/2-x,1/2+y,-z
loop_
_atom_site_type_symbol
_atom_site_label
_atom_site_fract_x
_atom_site_fract_y
_atom_site_fract_z
Si Si1 0.732347 0.524750 0.926463
Si Si2 0.544058 0.320103 0.647423
Si Si3 0.123285 0.715653 0.090646
Si Si4 0.610851 0.728465 0.355548
Si Si5 0.885939 0.330249 0.907355
Si Si6 0.960630 0.031791 0.773745
O O1 0.872740 0.600066 0.900940
O O2 0.776982 0.417059 0.877240
O O3 0.607974 0.565195 0.839730
O O4 0.664704 0.513793 0.087525
O O5 0.500000 0.307013 0.500000
O O6 0.424322 0.263141 0.763043
O O7 0.716098 0.273292 0.647430
O O8 0.516107 0.433493 0.690879
O O9 0.287251 0.749389 0.002711
O O10 0.000000 0.749200 0.000000
O O11 0.500000 0.743428 0.500000
O O12 0.543028 0.782718 0.235610
O O13 0.604944 0.614724 0.314008
O O14 0.000000 0.372247 0.000000
#
# Coordination Sequence:
#
# PCOD9129470 Si02
#       6
#     4   4   4   4   4   4
#     4  11  22  39  73 108 134 177 243 297 354 421
#     4  12  27  47  72 103 144 191 233 296 360 422
#     4  12  22  44  70 100 138 181 241 297 352 421
#     4  12  27  46  71 105 145 189 238 290 361 431
#     4  12  24  42  70 105 139 183 237 298 351 419
#     4  11  22  45  73 101 139 183 236 295 358 418
#
# _framework density 20.338623999999999
#
# number of rings (size 3 to 8) (size 9 to 14) (size 15 to 20)
#    0.000    0.333    6.667    2.000    4.667    0.000 
#    0.000    2.500    0.000    0.000    0.000    0.000 
#    0.000    0.000    0.000    0.000    0.000    0.000 
#
# Total GULP energy -67008.754801 kJ/mol
# GULP energy per Si atom -5584.062900 kJ/mol
# Density = 2.029233 g / cm^3
# Si number density = 20.338624 Si / 1000 Ang^3
#
#
#
# Elastic Constant Matrix: (Units=GPa)
#
#
# Indices 1 2 3 4 5 6 
#
# 1 50.5547 30.0900 40.0253 0.0000 9.0130 0.0000
# 2 30.0900 129.1318 56.9059 0.0000 -3.4315 0.0000
# 3 40.0253 56.9059 175.6713 0.0000 -4.1532 0.0000
# 4 0.0000 0.0000 0.0000 30.1795 0.0000 3.3489
# 5 9.0130 -3.4315 -4.1532 0.0000 34.3598 0.0000
# 6 0.0000 0.0000 0.0000 3.3489 0.0000 36.1860
#
#
#
# Elastic Compliance Matrix: (Units=1/GPa)
#
#
# Indices 1 2 3 4 5 6 
#
# 1 0.028014 -0.004492 -0.005126 0.000000 -0.008417 0.000000
# 2 -0.004492 0.009764 -0.002095 0.000000 0.001900 0.000000
# 3 -0.005126 -0.002095 0.007588 0.000000 0.002053 0.000000
# 4 0.000000 0.000000 0.000000 0.033479 0.000000 -0.003098
# 5 -0.008417 0.001900 0.002053 0.000000 0.031750 0.000000
# 6 0.000000 0.000000 0.000000 -0.003098 0.000000 0.027922
#
#
# Mechanical properties :
#
#
# Convention : Reuss Voigt Hill
#
# Bulk Modulus (GPa) = 45.58099 67.71112 56.64605
# Shear Modulus (GPa) = 29.54124 35.36750 32.45437
#
# Velocity S-wave (km/s) = 3.81526 4.17457 3.99896
# Velocity P-wave (km/s) = 6.47055 7.52331 7.01670
#
# Compressibility (1/GPa) = 0.02193897
#
# Stress axis : x y z
#
# Youngs Moduli (GPa) = 35.69697 102.41375 131.79564
#
# Poissons Ratio (x) = 0.46006 0.67565
# Poissons Ratio (y) = 0.16036 0.27605
# Poissons Ratio (z) = 0.18300 0.21451
#
# Static dielectric constant tensor:
#      x y z
#    x 1.762890 0.000000 0.001750 
#    y 0.000000 1.713730 0.000000 
#    z 0.001750 0.000000 1.667620 
# 
# From -- ./inp_files/14925.got.cif
#   From: 2010.05.17/outbox.cif.g08.bks.cpg/sg5_8_cif.got.tgz:14925.got - 2010.06.03 18:56:24.
