data_PCOD9129366
_publ_section_title
;
Structure prediction by ZEFSAII (Michael W. Deem and Ramdas Pophale) SiO2 
 PCOD9129366
Probable space group: C 2
;
_chemical_formula_sum "Si O2"
_cell_formula_units_Z 26
_cell_length_a 17.448818
_cell_length_b 9.455579
_cell_length_c 22.180451
_cell_angle_alpha 90.000000
_cell_angle_beta 160.113070
_cell_angle_gamma 90.000000
_cell_volume 1244.841908
_symmetry_space_group_name_H-M "C 2"
_symmetry_group_IT_number 5
_symmetry_cell_setting 'monoclinic'
loop_
_space_group_symop_operation_xyz
x,y,z
-x,y,-z
1/2+x,1/2+y,z
1/2-x,1/2+y,-z
loop_
_atom_site_type_symbol
_atom_site_label
_atom_site_fract_x
_atom_site_fract_y
_atom_site_fract_z
Si Si1 0.000000 0.856091 0.000000
Si Si2 0.587417 0.218847 0.937012
Si Si3 0.343172 0.529519 0.045666
Si Si4 0.218634 0.681392 0.621305
Si Si5 0.126393 0.127688 0.540017
Si Si6 0.505742 0.918775 0.612899
Si Si7 0.870835 0.435394 0.645896
O O1 0.773825 0.942393 0.817995
O O2 0.067374 0.762474 0.991633
O O3 0.603058 0.364033 0.910356
O O4 0.363227 0.149106 0.747472
O O5 0.782724 0.110725 0.062706
O O6 0.561392 0.613382 0.182386
O O7 0.109212 0.517265 0.834981
O O8 0.122472 0.551849 0.509902
O O9 0.315534 0.809401 0.652065
O O10 0.000000 0.719818 0.500000
O O11 0.018702 0.278837 0.445808
O O12 0.000000 0.048038 0.500000
O O13 0.170099 0.044251 0.511118
O O14 0.395039 0.885952 0.595698
#
# Coordination Sequence:
#
# PCOD9129366 Si02
#       7
#     2   4   4   4   4   4   4
#     4  12  22  40  62  98 118 166 208 270 294 378
#     4  11  22  39  67  88 125 162 211 249 318 366
#     4  11  21  42  63  91 123 172 200 253 311 386
#     4  12  24  41  65  95 124 164 209 260 311 368
#     4  11  22  41  64  93 121 164 208 256 308 375
#     4  12  23  39  66  90 126 161 215 255 310 367
#     4  11  25  41  64  91 131 163 205 258 318 369
#
# _framework density 20.886187
#
# number of rings (size 3 to 8) (size 9 to 14) (size 15 to 20)
#    0.000    0.615    6.154    2.769    0.000    0.000 
#    0.000    0.000    0.000    1.846    0.000    0.000 
#    0.000    0.000    0.000    0.000    0.000    0.000 
#
# Total GULP energy -72456.437981 kJ/mol
# GULP energy per Si atom -5573.572152 kJ/mol
# Density = 2.083865 g / cm^3
# Si number density = 20.886187 Si / 1000 Ang^3
#
#
#
# Elastic Constant Matrix: (Units=GPa)
#
#
# Indices 1 2 3 4 5 6 
#
# 1 143.7374 47.9711 27.0822 -0.0005 22.5514 0.0016
# 2 47.9711 88.7965 20.6309 0.0021 11.1317 0.0068
# 3 27.0822 20.6309 79.4483 0.0163 20.6098 0.0115
# 4 -0.0005 0.0021 0.0163 35.2936 -0.0002 27.1283
# 5 22.5514 11.1317 20.6098 -0.0002 27.5804 -0.0024
# 6 0.0016 0.0068 0.0115 27.1283 -0.0024 52.4035
#
#
#
# Elastic Compliance Matrix: (Units=1/GPa)
#
#
# Indices 1 2 3 4 5 6 
#
# 1 0.009342 -0.004207 -0.000683 0.000001 -0.005430 0.000000
# 2 -0.004207 0.014099 -0.002038 0.000002 -0.000727 -0.000002
# 3 -0.000683 -0.002038 0.016114 -0.000007 -0.010660 0.000000
# 4 0.000001 0.000002 -0.000007 0.047059 0.000002 -0.024362
# 5 -0.005430 -0.000727 -0.010660 0.000002 0.048957 0.000004
# 6 0.000000 -0.000002 0.000000 -0.024362 0.000004 0.031694
#
#
# Mechanical properties :
#
#
# Convention : Reuss Voigt Hill
#
# Bulk Modulus (GPa) = 38.91436 55.92786 47.42111
# Shear Modulus (GPa) = 26.35874 37.47537 31.91706
#
# Velocity S-wave (km/s) = 3.55634 4.24047 3.91339
# Velocity P-wave (km/s) = 5.96117 7.12819 6.57064
#
# Compressibility (1/GPa) = 0.02569746
#
# Stress axis : x y z
#
# Youngs Moduli (GPa) = 107.04378 70.92459 62.05594
#
# Poissons Ratio (x) = 0.29841 0.04241
# Poissons Ratio (y) = 0.45038 0.12650
# Poissons Ratio (z) = 0.07315 0.14458
#
# Static dielectric constant tensor:
#      x y z
#    x 1.785310 0.000000 0.044860 
#    y 0.000000 1.741310 0.000000 
#    z 0.044860 0.000000 1.745000 
# 
# From -- ./inp_files/69189.got.cif
#   From: 2010.05.17/outbox.cif.g08.bks.cpg/sg5_35_cif.got.tgz:69189.got - 2010.06.03 18:56:24.
