data_PCOD9129503
_publ_section_title
;
Structure prediction by ZEFSAII (Michael W. Deem and Ramdas Pophale) SiO2 
 PCOD9129503
Probable space group: C 2
;
_chemical_formula_sum "Si O2"
_cell_formula_units_Z 16
_cell_length_a 4.939803
_cell_length_b 30.528066
_cell_length_c 5.411635
_cell_angle_alpha 90.000000
_cell_angle_beta 128.059975
_cell_angle_gamma 90.000000
_cell_volume 642.560470
_symmetry_space_group_name_H-M "C 2"
_symmetry_group_IT_number 5
_symmetry_cell_setting 'monoclinic'
loop_
_space_group_symop_operation_xyz
x,y,z
-x,y,-z
1/2+x,1/2+y,z
1/2-x,1/2+y,-z
loop_
_atom_site_type_symbol
_atom_site_label
_atom_site_fract_x
_atom_site_fract_y
_atom_site_fract_z
Si Si1 0.000000 0.245500 0.000000
Si Si2 0.000000 0.934098 0.000000
Si Si3 0.500000 0.051876 0.000000
Si Si4 0.500000 0.175924 0.500000
Si Si5 0.500000 0.614042 0.500000
Si Si6 0.500000 0.996048 0.500000
Si Si7 0.500000 0.871537 0.500000
Si Si8 0.500000 0.309225 0.000000
O O1 0.788057 0.210783 0.726786
O O2 0.781113 0.277648 0.044823
O O3 0.656028 0.902813 0.807234
O O4 0.851307 0.966656 0.707916
O O5 0.500472 0.023681 0.750711
O O6 0.161964 0.082443 0.797490
O O7 0.684365 0.143846 0.410843
O O8 0.825243 0.838693 0.684634
#
# Coordination Sequence:
#
# PCOD9129503 Si02
#       8
#     2   2   2   2   2   2   2   2
#     4  12  24  42  68  98 137 184 237 294 356 426
#     4   9  20  42  69 101 144 186 236 293 359 428
#     4  12  26  45  73 105 144 192 244 303 363 433
#     4  12  25  44  67 100 139 186 239 298 363 430
#     4  12  26  45  70 103 143 190 241 301 364 431
#     4  11  23  44  70 105 144 192 244 299 362 434
#     4   9  20  41  67 100 140 184 234 290 357 425
#     4  11  22  41  66 100 137 184 237 294 354 429
#
# _framework density 24.900379000000001
#
# number of rings (size 3 to 8) (size 9 to 14) (size 15 to 20)
#    0.000    1.000    0.000    6.750    0.000    2.000 
#    0.000   18.750    0.000    0.000    0.000    0.000 
#    0.000    0.000    0.000    0.000    0.000    0.000 
#
# Total GULP energy -44571.508946 kJ/mol
# GULP energy per Si atom -5571.438618 kJ/mol
# Density = 2.484370 g / cm^3
# Si number density = 24.900379 Si / 1000 Ang^3
#
#
#
# Elastic Constant Matrix: (Units=GPa)
#
#
# Indices 1 2 3 4 5 6 
#
# 1 115.5121 63.2795 43.6249 0.0000 -11.1788 0.0000
# 2 63.2795 166.4256 106.4400 0.0000 -0.2861 0.0000
# 3 43.6249 106.4400 178.3962 0.0000 14.1452 0.0000
# 4 0.0000 0.0000 0.0000 -198.1361 0.0000 23.7667
# 5 -11.1788 -0.2861 14.1452 0.0000 31.8071 0.0000
# 6 0.0000 0.0000 0.0000 23.7667 0.0000 -18.9935
#
#
#
# Elastic Compliance Matrix: (Units=1/GPa)
#
#
# Indices 1 2 3 4 5 6 
#
# 1 0.011499 -0.003788 -0.000901 0.000000 0.004408 0.000000
# 2 -0.003788 0.011205 -0.005868 0.000000 0.001379 0.000000
# 3 -0.000901 -0.005868 0.009698 0.000000 -0.004683 0.000000
# 4 0.000000 0.000000 0.000000 -0.005938 0.000000 -0.007431
# 5 0.004408 0.001379 -0.004683 0.000000 0.035084 0.000000
# 6 0.000000 0.000000 0.000000 -0.007431 0.000000 -0.061947
#
#
# Mechanical properties :
#
#
# Convention : Reuss Voigt Hill
#
# Bulk Modulus (GPa) = 88.59882 98.55808 93.57845
# Shear Modulus (GPa) = 204.26406 -20.59854 91.83276
#
# Velocity S-wave (km/s) = 9.06701 -2.87929 6.07948
# Velocity P-wave (km/s) = 12.05291 5.34912 9.32432
#
# Compressibility (1/GPa) = 0.01128683
#
# Stress axis : x y z
#
# Youngs Moduli (GPa) = 86.96068 89.24930 103.10993
#
# Poissons Ratio (x) = 0.33811 0.09293
# Poissons Ratio (y) = 0.32944 0.60506
# Poissons Ratio (z) = 0.07837 0.52373
#
# Static dielectric constant tensor:
#      x y z
#    x 1.934410 0.000000 0.015310 
#    y 0.000000 2.035720 0.000000 
#    z 0.015310 0.000000 1.976210 
# 
# From -- ./inp_files/1027.got.cif
#   From: 2010.05.17/outbox.cif.g08.bks.cpg/sg5_1_cif.got.tgz:1027.got - 2010.06.03 18:56:24.
