data_PCOD9129105
_publ_section_title
;
Structure prediction by ZEFSAII (Michael W. Deem and Ramdas Pophale) SiO2 
 PCOD9129105
Probable space group: C 2
;
_chemical_formula_sum "Si O2"
_cell_formula_units_Z 12
_cell_length_a 8.198903
_cell_length_b 4.959514
_cell_length_c 11.637700
_cell_angle_alpha 90.000000
_cell_angle_beta 118.798609
_cell_angle_gamma 90.000000
_cell_volume 414.690365
_symmetry_space_group_name_H-M "C 2"
_symmetry_group_IT_number 5
_symmetry_cell_setting 'monoclinic'
loop_
_space_group_symop_operation_xyz
x,y,z
-x,y,-z
1/2+x,1/2+y,z
1/2-x,1/2+y,-z
loop_
_atom_site_type_symbol
_atom_site_label
_atom_site_fract_x
_atom_site_fract_y
_atom_site_fract_z
Si Si1 0.756072 0.129430 0.348404
Si Si2 0.660747 0.257957 0.821525
Si Si3 0.500000 0.140245 0.500000
Si Si4 0.000000 0.917101 0.000000
O O1 0.535800 0.157972 0.298779
O O2 0.642915 0.908202 0.597125
O O3 0.795409 0.034040 0.230413
O O4 0.837274 0.879628 0.448210
O O5 0.851925 0.095325 0.879519
O O6 0.613198 0.264520 0.940307
#
# Coordination Sequence:
#
# PCOD9129105 Si02
#       4
#     4   4   2   2
#     4  11  26  49  80 116 156 203 256 317 384 458
#     4  12  26  48  78 114 154 202 254 316 382 456
#     4  10  26  50  80 114 156 202 258 316 384 456
#     4  12  26  48  76 112 152 200 254 314 380 454
#
# _framework density 28.937253999999999
#
# number of rings (size 3 to 8) (size 9 to 14) (size 15 to 20)
#    0.000    0.667    0.000    6.000    0.000   13.333 
#    0.000    0.000    0.000    0.000    0.000    0.000 
#    0.000    0.000    0.000    0.000    0.000    0.000 
#
# Total GULP energy -33557.020304 kJ/mol
# GULP energy per Si atom -5592.836717 kJ/mol
# Density = 2.887139 g / cm^3
# Si number density = 28.937254 Si / 1000 Ang^3
#
#
#
# Elastic Constant Matrix: (Units=GPa)
#
#
# Indices 1 2 3 4 5 6 
#
# 1 180.8588 75.9362 34.4208 0.0000 20.7244 0.0000
# 2 75.9362 186.1403 83.5497 0.0000 28.2648 0.0000
# 3 34.4208 83.5497 130.1121 0.0000 49.7936 0.0000
# 4 0.0000 0.0000 0.0000 553.7613 0.0000 447.5338
# 5 20.7244 28.2648 49.7936 0.0000 84.9925 0.0000
# 6 0.0000 0.0000 0.0000 447.5338 0.0000 403.2048
#
#
#
# Elastic Compliance Matrix: (Units=1/GPa)
#
#
# Indices 1 2 3 4 5 6 
#
# 1 0.006728 -0.002760 0.000346 0.000000 -0.000926 0.000000
# 2 -0.002760 0.008692 -0.005159 0.000000 0.000805 0.000000
# 3 0.000346 -0.005159 0.013254 0.000000 -0.006134 0.000000
# 4 0.000000 0.000000 0.000000 0.017536 0.000000 -0.019464
# 5 -0.000926 0.000805 -0.006134 0.000000 0.015317 0.000000
# 6 0.000000 0.000000 0.000000 -0.019464 0.000000 0.024084
#
#
# Mechanical properties :
#
#
# Convention : Reuss Voigt Hill
#
# Bulk Modulus (GPa) = 73.91396 98.32495 86.11945
# Shear Modulus (GPa) = 47.49863 228.60535 138.05199
#
# Velocity S-wave (km/s) = 4.05586 8.89786 6.91454
# Velocity P-wave (km/s) = 6.89432 11.81588 9.67333
#
# Compressibility (1/GPa) = 0.01352924
#
# Stress axis : x y z
#
# Youngs Moduli (GPa) = 148.63275 115.05401 75.44684
#
# Poissons Ratio (x) = 0.31751 -0.02614
# Poissons Ratio (y) = 0.41017 0.38924
# Poissons Ratio (z) = -0.05150 0.59359
#
# Static dielectric constant tensor:
#      x y z
#    x -1.013290 0.000000 4.825710 
#    y 0.000000 2.065440 0.000000 
#    z 4.825710 0.000000 -5.411930 
# 
# From -- ./inp_files/32705.got.cif
#   From: 2010.05.17/outbox.cif.g08.bks.cpg/sg5_17_cif.got.tgz:32705.got - 2010.06.03 18:56:24.
