data_PCOD9129517
_publ_section_title
;
Structure prediction by ZEFSAII (Michael W. Deem and Ramdas Pophale) SiO2 
 PCOD9129517
Probable space group: C 2
;
_chemical_formula_sum "Si O2"
_cell_formula_units_Z 26
_cell_length_a 18.850131
_cell_length_b 7.305864
_cell_length_c 21.785214
_cell_angle_alpha 90.000000
_cell_angle_beta 18.983676
_cell_angle_gamma 90.000000
_cell_volume 975.955889
_symmetry_space_group_name_H-M "C 2"
_symmetry_group_IT_number 5
_symmetry_cell_setting 'monoclinic'
loop_
_space_group_symop_operation_xyz
x,y,z
-x,y,-z
1/2+x,1/2+y,z
1/2-x,1/2+y,-z
loop_
_atom_site_type_symbol
_atom_site_label
_atom_site_fract_x
_atom_site_fract_y
_atom_site_fract_z
Si Si1 0.945122 0.602260 0.979607
Si Si2 0.135572 0.479234 0.171641
Si Si3 0.500000 0.101064 0.500000
Si Si4 0.833056 0.494284 0.316234
Si Si5 0.029427 0.129880 0.668674
Si Si6 0.885026 0.054495 0.266125
Si Si7 0.725768 0.711204 0.833611
O O1 0.140066 0.586203 0.772378
O O2 0.727309 0.683121 0.128705
O O3 0.854958 0.398723 0.070076
O O4 0.000000 0.688677 0.000000
O O5 0.126553 0.608466 0.238321
O O6 0.043404 0.563376 0.182985
O O7 0.925912 0.341399 0.352834
O O8 0.396973 0.483973 0.944879
O O9 0.671121 0.991355 0.403214
O O10 0.362016 0.223686 0.660085
O O11 0.626835 0.553735 0.526129
O O12 0.863259 0.276998 0.280001
O O13 0.074880 0.022089 0.694111
O O14 0.500000 0.612244 0.000000
#
# Coordination Sequence:
#
# PCOD9129517 Si02
#       7
#     4   4   2   4   4   4   4
#     4  11  23  42  71 101 143 197 243 305 368 443
#     4  11  23  46  71 105 148 193 246 312 378 430
#     4  12  22  40  72 108 140 188 256 302 354 438
#     4  11  23  45  71 104 147 193 246 304 371 444
#     4  11  26  44  70 107 146 193 245 310 371 441
#     4  11  22  45  73 108 144 200 243 312 366 448
#     4  11  22  41  69 103 144 192 249 304 360 443
#
# _framework density 26.640550999999999
#
# number of rings (size 3 to 8) (size 9 to 14) (size 15 to 20)
#    0.000    0.923    4.615    2.769    0.000    2.462 
#    8.308    0.000    0.000    0.000    0.000    0.000 
#    0.000    0.000    0.000    0.000    0.000    0.000 
#
# Total GULP energy -72554.594400 kJ/mol
# GULP energy per Si atom -5581.122646 kJ/mol
# Density = 2.657992 g / cm^3
# Si number density = 26.640551 Si / 1000 Ang^3
#
#
#
# Elastic Constant Matrix: (Units=GPa)
#
#
# Indices 1 2 3 4 5 6 
#
# 1 239.6888 80.1701 49.8842 0.0057 22.9031 0.0041
# 2 80.1701 138.2866 27.6275 0.0054 26.5107 0.0097
# 3 49.8842 27.6275 184.9177 -0.0012 42.0440 0.0091
# 4 0.0057 0.0054 -0.0012 36.4072 0.0014 1.4070
# 5 22.9031 26.5107 42.0440 0.0014 69.5440 -0.0004
# 6 0.0041 0.0097 0.0091 1.4070 -0.0004 46.3027
#
#
#
# Elastic Compliance Matrix: (Units=1/GPa)
#
#
# Indices 1 2 3 4 5 6 
#
# 1 0.005353 -0.002893 -0.000999 0.000000 -0.000056 0.000000
# 2 -0.002893 0.009417 -0.000031 -0.000001 -0.002618 -0.000002
# 3 -0.000999 -0.000031 0.006498 0.000001 -0.003587 -0.000001
# 4 0.000000 -0.000001 0.000001 0.027499 0.000000 -0.000836
# 5 -0.000056 -0.002618 -0.003587 0.000000 0.017565 0.000001
# 6 0.000000 -0.000002 -0.000001 -0.000836 0.000001 0.021622
#
#
# Mechanical properties :
#
#
# Convention : Reuss Voigt Hill
#
# Bulk Modulus (GPa) = 74.51139 97.58407 86.04773
# Shear Modulus (GPa) = 49.86343 57.46487 53.66415
#
# Velocity S-wave (km/s) = 4.33102 4.64944 4.49305
# Velocity P-wave (km/s) = 7.28287 8.09521 7.69976
#
# Compressibility (1/GPa) = 0.01342077
#
# Stress axis : x y z
#
# Youngs Moduli (GPa) = 186.81126 106.19460 153.90248
#
# Poissons Ratio (x) = 0.30722 0.15376
# Poissons Ratio (y) = 0.54044 0.00480
# Poissons Ratio (z) = 0.18664 0.00331
#
# Static dielectric constant tensor:
#      x y z
#    x 2.107560 -0.000040 0.030310 
#    y -0.000040 1.510090 0.000040 
#    z 0.030310 0.000040 2.062480 
# 
# From -- ./inp_files/66744.got.cif
#   From: 2010.05.17/outbox.cif.g08.bks.cpg/sg5_34_cif.got.tgz:66744.got - 2010.06.03 18:56:24.
