data_PCOD9129761
_publ_section_title
;
Structure prediction by ZEFSAII (Michael W. Deem and Ramdas Pophale) SiO2 
 PCOD9129761
Probable space group: C 2
;
_chemical_formula_sum "Si O2"
_cell_formula_units_Z 20
_cell_length_a 13.382510
_cell_length_b 4.871336
_cell_length_c 22.436751
_cell_angle_alpha 90.000000
_cell_angle_beta 33.237626
_cell_angle_gamma 90.000000
_cell_volume 801.706531
_symmetry_space_group_name_H-M "C 2"
_symmetry_group_IT_number 5
_symmetry_cell_setting 'monoclinic'
loop_
_space_group_symop_operation_xyz
x,y,z
-x,y,-z
1/2+x,1/2+y,z
1/2-x,1/2+y,-z
loop_
_atom_site_type_symbol
_atom_site_label
_atom_site_fract_x
_atom_site_fract_y
_atom_site_fract_z
Si Si1 0.372902 0.580700 0.432884
Si Si2 0.252677 0.683176 0.700583
Si Si3 0.318687 0.684632 0.187586
Si Si4 0.707075 0.466463 0.983251
Si Si5 0.522018 0.937590 0.253007
O O1 0.299854 0.273148 0.466391
O O2 0.531998 0.620123 0.402368
O O3 0.450494 0.702457 0.332499
O O4 0.220471 0.998055 0.734337
O O5 0.145526 0.586746 0.696058
O O6 0.174317 0.495359 0.794010
O O7 0.506525 0.572454 0.067004
O O8 0.152006 0.635350 0.226752
O O9 0.803978 0.739328 0.959859
O O10 0.836320 0.338575 0.868441
#
# Coordination Sequence:
#
# PCOD9129761 Si02
#       5
#     4   4   4   4   4
#     4  11  26  49  71 102 137 181 243 297 343 409
#     4  11  24  45  72 101 139 178 235 286 342 421
#     4  11  23  43  67 107 144 181 227 276 335 432
#     4  12  23  42  69 106 146 184 225 274 342 427
#     4  11  25  45  75  99 143 188 225 284 358 394
#
# _framework density 24.946784999999998
#
# number of rings (size 3 to 8) (size 9 to 14) (size 15 to 20)
#    0.000    0.800    4.000    3.000    0.000   10.400 
#    0.000   12.000    0.000    0.000    0.000    0.000 
#    0.000    0.000    0.000    0.000    0.000    0.000 
#
# Total GULP energy -56046.577373 kJ/mol
# GULP energy per Si atom -5604.657737 kJ/mol
# Density = 2.489000 g / cm^3
# Si number density = 24.946785 Si / 1000 Ang^3
#
#
#
# Elastic Constant Matrix: (Units=GPa)
#
#
# Indices 1 2 3 4 5 6 
#
# 1 152.4852 6.8655 40.1151 0.0099 -30.3172 -0.0039
# 2 6.8655 70.3546 5.4648 0.0613 -0.0891 0.0143
# 3 40.1151 5.4648 123.9822 0.0421 -22.6702 -0.0178
# 4 0.0099 0.0613 0.0421 42.4662 -0.0131 -10.2247
# 5 -30.3172 -0.0891 -22.6702 -0.0131 51.5035 0.0165
# 6 -0.0039 0.0143 -0.0178 -10.2247 0.0165 27.1875
#
#
#
# Elastic Compliance Matrix: (Units=1/GPa)
#
#
# Indices 1 2 3 4 5 6 
#
# 1 0.007818 -0.000618 -0.001806 0.000002 0.003806 -0.000001
# 2 -0.000618 0.014315 -0.000536 -0.000024 -0.000575 -0.000017
# 3 -0.001806 -0.000536 0.009221 -0.000007 0.002995 0.000002
# 4 0.000002 -0.000024 -0.000007 0.025893 0.000002 0.009738
# 5 0.003806 -0.000575 0.002995 0.000002 0.022974 -0.000011
# 6 -0.000001 -0.000017 0.000002 0.009738 -0.000011 0.040444
#
#
# Mechanical properties :
#
#
# Convention : Reuss Voigt Hill
#
# Bulk Modulus (GPa) = 39.31845 50.19031 44.75438
# Shear Modulus (GPa) = 37.01990 43.85653 40.43821
#
# Velocity S-wave (km/s) = 3.85639 4.19740 4.03051
# Velocity P-wave (km/s) = 5.96860 6.60708 6.29594
#
# Compressibility (1/GPa) = 0.02543335
#
# Stress axis : x y z
#
# Youngs Moduli (GPa) = 127.91513 69.85713 108.44398
#
# Poissons Ratio (x) = 0.04315 0.19589
# Poissons Ratio (y) = 0.07902 0.05815
# Poissons Ratio (z) = 0.23106 0.03746
#
# Static dielectric constant tensor:
#      x y z
#    x 1.967870 -0.000010 0.012230 
#    y -0.000010 1.875980 -0.000010 
#    z 0.012230 -0.000010 2.038420 
# 
# From -- ./inp_files/57366.got.cif
#   From: 2010.05.17/outbox.cif.g08.bks.cpg/sg5_29_cif.got.tgz:57366.got - 2010.06.03 18:56:24.
