data_PCOD9129669
_publ_section_title
;
Structure prediction by ZEFSAII (Michael W. Deem and Ramdas Pophale) SiO2 
 PCOD9129669
Probable space group: C 2
;
_chemical_formula_sum "Si O2"
_cell_formula_units_Z 28
_cell_length_a 16.622429
_cell_length_b 12.454698
_cell_length_c 18.955673
_cell_angle_alpha 90.000000
_cell_angle_beta 20.644125
_cell_angle_gamma 90.000000
_cell_volume 1383.575697
_symmetry_space_group_name_H-M "C 2"
_symmetry_group_IT_number 5
_symmetry_cell_setting 'monoclinic'
loop_
_space_group_symop_operation_xyz
x,y,z
-x,y,-z
1/2+x,1/2+y,z
1/2-x,1/2+y,-z
loop_
_atom_site_type_symbol
_atom_site_label
_atom_site_fract_x
_atom_site_fract_y
_atom_site_fract_z
Si Si1 0.777855 0.220230 0.227814
Si Si2 0.740849 0.982081 0.268886
Si Si3 0.853349 0.156197 0.892753
Si Si4 0.943387 0.846503 0.896821
Si Si5 0.806545 0.788552 0.559180
Si Si6 0.866007 0.525231 0.805562
Si Si7 0.120747 0.962743 0.616573
O O1 0.545802 0.223260 0.372143
O O2 0.759459 0.306919 0.304923
O O3 0.795524 0.102949 0.250701
O O4 0.000000 0.236829 0.000000
O O5 0.500000 0.953709 0.500000
O O6 0.726469 0.004517 0.197532
O O7 0.907858 0.890796 0.160292
O O8 0.087701 0.224894 0.708262
O O9 0.652593 0.227250 0.023514
O O10 0.925881 0.051863 0.788260
O O11 0.749211 0.119855 0.054363
O O12 0.085237 0.879342 0.710681
O O13 0.717148 0.920336 0.083473
O O14 0.869231 0.891993 0.461961
O O15 0.137403 0.523777 0.577600
#
# Coordination Sequence:
#
# PCOD9129669 Si02
#       7
#     4   4   4   4   4   4   4
#     4  11  23  38  67  99 134 176 221 295 348 407
#     4  12  21  39  63 100 140 172 220 286 351 406
#     4  11  25  40  67 104 137 185 223 286 354 414
#     4  11  24  40  64 101 137 180 228 278 354 412
#     4  11  23  41  64 101 135 173 232 285 350 410
#     4  11  23  41  67  96 141 178 226 283 345 422
#     4  11  24  41  65  99 136 182 228 286 341 427
#
# _framework density 20.237418999999999
#
# number of rings (size 3 to 8) (size 9 to 14) (size 15 to 20)
#    0.000    0.857    4.286    4.714    6.000    0.000 
#    0.000    0.000    0.000    8.571    0.000    0.000 
#    0.000    0.000    0.000    0.000    0.000    0.000 
#
# Total GULP energy -78095.235056 kJ/mol
# GULP energy per Si atom -5578.231075 kJ/mol
# Density = 2.019136 g / cm^3
# Si number density = 20.237419 Si / 1000 Ang^3
#
#
#
# Elastic Constant Matrix: (Units=GPa)
#
#
# Indices 1 2 3 4 5 6 
#
# 1 99.3025 68.2205 54.5752 -0.0054 2.1401 -0.0005
# 2 68.2205 103.1733 58.3997 -0.0412 -1.6150 0.0106
# 3 54.5752 58.3997 161.7068 -0.0257 13.4167 0.0024
# 4 -0.0054 -0.0412 -0.0257 38.0341 0.0028 -0.0808
# 5 2.1401 -1.6150 13.4167 0.0028 27.1038 0.0002
# 6 -0.0005 0.0106 0.0024 -0.0808 0.0002 33.8777
#
#
#
# Elastic Compliance Matrix: (Units=1/GPa)
#
#
# Indices 1 2 3 4 5 6 
#
# 1 0.019182 -0.011421 -0.002260 -0.000011 -0.001077 0.000004
# 2 -0.011421 0.019226 -0.003398 0.000017 0.003730 -0.000006
# 3 -0.002260 -0.003398 0.008526 0.000002 -0.004245 0.000000
# 4 -0.000011 0.000017 0.000002 0.026292 -0.000002 0.000063
# 5 -0.001077 0.003730 -0.004245 -0.000002 0.039304 -0.000001
# 6 0.000004 -0.000006 0.000000 0.000063 -0.000001 0.029518
#
#
# Mechanical properties :
#
#
# Convention : Reuss Voigt Hill
#
# Bulk Modulus (GPa) = 78.27351 80.73038 79.50195
# Shear Modulus (GPa) = 27.70621 32.00227 29.85424
#
# Velocity S-wave (km/s) = 3.70409 3.98092 3.84500
# Velocity P-wave (km/s) = 7.55350 7.81720 7.68648
#
# Compressibility (1/GPa) = 0.01277571
#
# Stress axis : x y z
#
# Youngs Moduli (GPa) = 52.13334 52.01201 117.28616
#
# Poissons Ratio (x) = 0.59403 0.26503
# Poissons Ratio (y) = 0.59542 0.39858
# Poissons Ratio (z) = 0.11780 0.17676
#
# Static dielectric constant tensor:
#      x y z
#    x 1.760530 0.000000 -0.011420 
#    y 0.000000 1.749630 0.000020 
#    z -0.011420 0.000020 1.762090 
# 
# From -- ./inp_files/66697.got.cif
#   From: 2010.05.17/outbox.cif.g08.bks.cpg/sg5_34_cif.got.tgz:66697.got - 2010.06.03 18:56:24.
