data_PCOD9129376
_publ_section_title
;
Structure prediction by ZEFSAII (Michael W. Deem and Ramdas Pophale) SiO2 
 PCOD9129376
Probable space group: C 2
;
_chemical_formula_sum "Si O2"
_cell_formula_units_Z 26
_cell_length_a 14.762155
_cell_length_b 12.463139
_cell_length_c 12.561529
_cell_angle_alpha 90.000000
_cell_angle_beta 30.012022
_cell_angle_gamma 90.000000
_cell_volume 1155.972505
_symmetry_space_group_name_H-M "C 2"
_symmetry_group_IT_number 5
_symmetry_cell_setting 'monoclinic'
loop_
_space_group_symop_operation_xyz
x,y,z
-x,y,-z
1/2+x,1/2+y,z
1/2-x,1/2+y,-z
loop_
_atom_site_type_symbol
_atom_site_label
_atom_site_fract_x
_atom_site_fract_y
_atom_site_fract_z
Si Si1 0.466663 0.146750 0.651496
Si Si2 0.000000 0.292939 0.500000
Si Si3 0.975285 0.900519 0.148925
Si Si4 0.319412 0.608080 0.397824
Si Si5 0.668025 0.170888 0.765482
Si Si6 0.877702 0.423627 0.825905
Si Si7 0.096460 0.265322 0.017226
O O1 0.500000 0.100219 0.500000
O O2 0.663135 0.175516 0.496316
O O3 0.407881 0.050178 0.787899
O O4 0.309348 0.233872 0.797563
O O5 0.823035 0.218625 0.683387
O O6 0.988827 0.364435 0.617852
O O7 0.909739 0.778475 0.211918
O O8 0.839740 0.987372 0.335312
O O9 0.000000 0.932918 0.000000
O O10 0.166783 0.905364 0.012935
O O11 0.267749 0.604547 0.573526
O O12 0.501864 0.670244 0.181724
O O13 0.500000 0.121248 0.000000
O O14 0.925100 0.371644 0.890325
O O15 0.000000 0.269280 0.000000
#
# Coordination Sequence:
#
# PCOD9129376 Si02
#       7
#     4   2   4   4   4   4   4
#     4  12  24  42  72 103 131 185 249 289 341 421
#     4  12  20  38  68  98 126 176 222 290 350 390
#     4  11  21  42  70 104 136 175 239 294 339 417
#     4  12  24  40  70  99 138 182 227 293 351 412
#     4  11  24  41  67  97 135 171 228 286 352 412
#     4  12  23  41  73 103 141 179 239 297 351 417
#     4  12  26  46  69 107 147 185 235 294 359 425
#
# _framework density 22.491883999999999
#
# number of rings (size 3 to 8) (size 9 to 14) (size 15 to 20)
#    0.000    0.308    8.462    3.231    0.000    0.000 
#    0.000    0.769    0.000    0.000    0.000    0.000 
#    0.000    0.000    0.000    0.000    0.000    0.000 
#
# Total GULP energy -72710.503683 kJ/mol
# GULP energy per Si atom -5593.115668 kJ/mol
# Density = 2.244069 g / cm^3
# Si number density = 22.491884 Si / 1000 Ang^3
#
#
#
# Elastic Constant Matrix: (Units=GPa)
#
#
# Indices 1 2 3 4 5 6 
#
# 1 46.3257 7.6049 26.7873 0.0001 10.4349 0.0000
# 2 7.6049 42.9205 18.4259 0.0004 26.5910 -0.0002
# 3 26.7873 18.4259 98.0062 0.0004 10.7219 -0.0002
# 4 0.0001 0.0004 0.0004 25.3994 -0.0001 17.6237
# 5 10.4349 26.5910 10.7219 -0.0001 51.6542 0.0000
# 6 0.0000 -0.0002 -0.0002 17.6237 0.0000 7.0781
#
#
#
# Elastic Compliance Matrix: (Units=1/GPa)
#
#
# Indices 1 2 3 4 5 6 
#
# 1 0.026423 0.001042 -0.006933 0.000000 -0.004435 0.000000
# 2 0.001042 0.036415 -0.005175 0.000002 -0.017882 -0.000003
# 3 -0.006933 -0.005175 0.012920 0.000000 0.001383 0.000000
# 4 0.000000 0.000002 0.000000 -0.054108 -0.000001 0.134723
# 5 -0.004435 -0.017882 0.001383 -0.000001 0.029174 0.000002
# 6 0.000000 -0.000003 0.000000 0.134723 0.000002 -0.194164
#
#
# Mechanical properties :
#
#
# Convention : Reuss Voigt Hill
#
# Bulk Modulus (GPa) = 18.64725 32.54318 25.59521
# Shear Modulus (GPa) = -48.38679 25.78862 -11.29909
#
# Velocity S-wave (km/s) = -4.64324 3.38978 -2.24378
# Velocity P-wave (km/s) = 4.52080 5.46087 2.16604
#
# Compressibility (1/GPa) = 0.05362722
#
# Stress axis : x y z
#
# Youngs Moduli (GPa) = 37.84574 27.46157 77.39965
#
# Poissons Ratio (x) = -0.02863 0.53659
# Poissons Ratio (y) = -0.03945 0.40053
# Poissons Ratio (z) = 0.26238 0.14211
#
# Static dielectric constant tensor:
#      x y z
#    x 1.867390 0.000000 -0.013820 
#    y 0.000000 1.805110 0.000000 
#    z -0.013820 0.000000 1.883120 
# 
# From -- ./inp_files/43044.got.cif
#   From: 2010.05.17/outbox.cif.g08.bks.cpg/sg5_22_cif.got.tgz:43044.got - 2010.06.03 18:56:24.
