data_PCOD9129135
_publ_section_title
;
Structure prediction by ZEFSAII (Michael W. Deem and Ramdas Pophale) SiO2 
 PCOD9129135
Probable space group: C 2
;
_chemical_formula_sum "Si O2"
_cell_formula_units_Z 24
_cell_length_a 16.330521
_cell_length_b 6.314604
_cell_length_c 9.498016
_cell_angle_alpha 90.000000
_cell_angle_beta 85.363219
_cell_angle_gamma 90.000000
_cell_volume 976.237223
_symmetry_space_group_name_H-M "C 2"
_symmetry_group_IT_number 5
_symmetry_cell_setting 'monoclinic'
loop_
_space_group_symop_operation_xyz
x,y,z
-x,y,-z
1/2+x,1/2+y,z
1/2-x,1/2+y,-z
loop_
_atom_site_type_symbol
_atom_site_label
_atom_site_fract_x
_atom_site_fract_y
_atom_site_fract_z
Si Si1 0.080749 0.487390 0.769337
Si Si2 0.500000 0.655202 0.000000
Si Si3 0.344562 0.621841 0.625202
Si Si4 0.000000 0.376759 0.500000
Si Si5 0.372595 0.295101 0.998860
Si Si6 0.257330 0.756653 0.359967
Si Si7 0.707875 0.931892 0.142751
O O1 0.039080 0.306423 0.874175
O O2 0.030209 0.507442 0.631449
O O3 0.093576 0.699513 0.858084
O O4 0.170965 0.405518 0.711189
O O5 0.569381 0.490836 0.045671
O O6 0.427927 0.721052 0.559425
O O7 0.279173 0.691555 0.514443
O O8 0.330318 0.372638 0.635601
O O9 0.325402 0.726398 0.776282
O O10 0.277987 0.371413 0.022357
O O11 0.363628 0.083326 0.905917
O O12 0.254011 0.557602 0.259404
#
# Coordination Sequence:
#
# PCOD9129135 Si02
#       7
#     4   2   4   2   4   4   4
#     4  11  25  50  72 107 153 194 249 306 370 451
#     4  12  28  46  74 108 160 194 236 322 370 444
#     4  11  24  45  73 105 143 193 245 320 363 444
#     4  10  28  46  76 106 148 192 246 308 382 434
#     4  12  28  46  76 110 150 198 251 307 374 442
#     4  11  22  46  74 103 145 191 255 303 370 440
#     4  12  26  44  76 109 140 200 253 305 369 453
#
# _framework density 24.584188999999999
#
# number of rings (size 3 to 8) (size 9 to 14) (size 15 to 20)
#    0.000    0.667    5.000    1.500    7.000    0.000 
#    0.000    1.667    0.000    0.000    0.000    0.000 
#    0.000    0.000    0.000    0.000    0.000    0.000 
#
# Total GULP energy -67226.436446 kJ/mol
# GULP energy per Si atom -5602.203037 kJ/mol
# Density = 2.452823 g / cm^3
# Si number density = 24.584189 Si / 1000 Ang^3
#
#
#
# Elastic Constant Matrix: (Units=GPa)
#
#
# Indices 1 2 3 4 5 6 
#
# 1 81.9282 22.7127 39.3215 0.0000 7.8659 0.0000
# 2 22.7127 69.2446 33.3139 0.0000 8.6181 0.0000
# 3 39.3215 33.3139 102.8150 0.0000 15.0573 0.0000
# 4 0.0000 0.0000 0.0000 37.5971 0.0000 3.1806
# 5 7.8659 8.6181 15.0573 0.0000 42.7150 0.0000
# 6 0.0000 0.0000 0.0000 3.1806 0.0000 47.1024
#
#
#
# Elastic Compliance Matrix: (Units=1/GPa)
#
#
# Indices 1 2 3 4 5 6 
#
# 1 0.015353 -0.002583 -0.004953 0.000000 -0.000560 0.000000
# 2 -0.002583 0.017645 -0.004510 0.000000 -0.001494 0.000000
# 3 -0.004953 -0.004510 0.013512 0.000000 -0.002941 0.000000
# 4 0.000000 0.000000 0.000000 0.026751 0.000000 -0.001806
# 5 -0.000560 -0.001494 -0.002941 0.000000 0.024852 0.000000
# 6 0.000000 0.000000 0.000000 -0.001806 0.000000 0.021352
#
#
# Mechanical properties :
#
#
# Convention : Reuss Voigt Hill
#
# Bulk Modulus (GPa) = 44.60809 49.40932 47.00870
# Shear Modulus (GPa) = 33.10588 36.05890 34.58239
#
# Velocity S-wave (km/s) = 3.67363 3.83397 3.75466
# Velocity P-wave (km/s) = 6.01486 6.30403 6.16114
#
# Compressibility (1/GPa) = 0.02241746
#
# Stress axis : x y z
#
# Youngs Moduli (GPa) = 65.13490 56.67370 74.00562
#
# Poissons Ratio (x) = 0.14641 0.36652
# Poissons Ratio (y) = 0.16827 0.33379
# Poissons Ratio (z) = 0.32258 0.25562
#
# Static dielectric constant tensor:
#      x y z
#    x 1.955000 0.000000 0.017950 
#    y 0.000000 1.902720 0.000000 
#    z 0.017950 0.000000 1.945810 
# 
# From -- ./inp_files/43773.got.cif
#   From: 2010.05.17/outbox.cif.g08.bks.cpg/sg5_22_cif.got.tgz:43773.got - 2010.06.03 18:56:24.
