data_PCOD9129330
_publ_section_title
;
Structure prediction by ZEFSAII (Michael W. Deem and Ramdas Pophale) SiO2 
 PCOD9129330
Probable space group: C 2
;
_chemical_formula_sum "Si O2"
_cell_formula_units_Z 28
_cell_length_a 7.147057
_cell_length_b 17.594864
_cell_length_c 10.808974
_cell_angle_alpha 90.000000
_cell_angle_beta 77.773091
_cell_angle_gamma 90.000000
_cell_volume 1328.412275
_symmetry_space_group_name_H-M "C 2"
_symmetry_group_IT_number 5
_symmetry_cell_setting 'monoclinic'
loop_
_space_group_symop_operation_xyz
x,y,z
-x,y,-z
1/2+x,1/2+y,z
1/2-x,1/2+y,-z
loop_
_atom_site_type_symbol
_atom_site_label
_atom_site_fract_x
_atom_site_fract_y
_atom_site_fract_z
Si Si1 0.272797 0.524500 0.230122
Si Si2 0.610984 0.440992 0.272084
Si Si3 0.805613 0.767275 0.684630
Si Si4 0.120500 0.524475 0.593719
Si Si5 0.480103 0.666726 0.767797
Si Si6 0.727281 0.054712 0.955196
Si Si7 0.204519 0.698336 0.583794
O O1 0.992404 0.725085 0.324251
O O2 0.046661 0.526483 0.280649
O O3 0.378863 0.595747 0.279235
O O4 0.304283 0.534795 0.080294
O O5 0.665440 0.354177 0.283888
O O6 0.693745 0.482963 0.381819
O O7 0.386957 0.453786 0.273053
O O8 0.716322 0.485853 0.145148
O O9 0.629264 0.731617 0.785068
O O10 0.767852 0.749586 0.542898
O O11 0.175021 0.610276 0.551823
O O12 0.000000 0.487307 0.500000
O O13 0.369586 0.696079 0.662538
O O14 0.327856 0.630022 0.883831
O O15 0.500000 0.064862 0.000000
#
# Coordination Sequence:
#
# PCOD9129330 Si02
#       7
#     4   4   4   4   4   4   4
#     4  11  22  43  75  99 129 182 242 283 339 406
#     4  11  25  43  67 103 137 182 231 282 352 407
#     4  11  25  40  64 100 148 178 220 281 352 415
#     4  12  22  39  70  99 133 182 236 280 334 414
#     4  11  21  39  71  99 127 178 232 274 346 405
#     4  11  22  45  79  98 133 180 245 298 333 406
#     4  11  21  42  64  98 140 184 217 284 338 409
#
# _framework density 21.077794000000001
#
# number of rings (size 3 to 8) (size 9 to 14) (size 15 to 20)
#    0.000    0.857    7.143    2.143    0.000    5.143 
#    0.000    1.429    6.286    0.000    0.000    0.000 
#    0.000    0.000    0.000    0.000    0.000    0.000 
#
# Total GULP energy -78149.240917 kJ/mol
# GULP energy per Si atom -5582.088637 kJ/mol
# Density = 2.102982 g / cm^3
# Si number density = 21.077794 Si / 1000 Ang^3
#
#
#
# Elastic Constant Matrix: (Units=GPa)
#
#
# Indices 1 2 3 4 5 6 
#
# 1 121.3166 40.0191 43.5463 0.0000 8.0809 0.0000
# 2 40.0191 129.9272 38.2132 0.0000 10.4421 0.0000
# 3 43.5463 38.2132 98.4303 0.0000 4.5174 0.0000
# 4 0.0000 0.0000 0.0000 18.0167 0.0000 1.5807
# 5 8.0809 10.4421 4.5174 0.0000 39.5154 0.0000
# 6 0.0000 0.0000 0.0000 1.5807 0.0000 1.2509
#
#
#
# Elastic Compliance Matrix: (Units=1/GPa)
#
#
# Indices 1 2 3 4 5 6 
#
# 1 0.010317 -0.001985 -0.003741 0.000000 -0.001158 0.000000
# 2 -0.001985 0.009218 -0.002621 0.000000 -0.001730 0.000000
# 3 -0.003741 -0.002621 0.012833 0.000000 -0.000009 0.000000
# 4 0.000000 0.000000 0.000000 0.062425 0.000000 -0.078884
# 5 -0.001158 -0.001730 -0.000009 0.000000 0.026002 0.000000
# 6 0.000000 0.000000 0.000000 -0.078884 0.000000 0.899136
#
#
# Mechanical properties :
#
#
# Convention : Reuss Voigt Hill
#
# Bulk Modulus (GPa) = 63.79810 65.91459 64.85634
# Shear Modulus (GPa) = 4.79916 26.94965 15.87441
#
# Velocity S-wave (km/s) = 1.51057 3.57960 2.74731
# Velocity P-wave (km/s) = 5.77720 6.95878 6.39534
#
# Compressibility (1/GPa) = 0.01567445
#
# Stress axis : x y z
#
# Youngs Moduli (GPa) = 96.92296 108.48466 77.92690
#
# Poissons Ratio (x) = 0.21530 0.29152
# Poissons Ratio (y) = 0.19235 0.20426
# Poissons Ratio (z) = 0.36258 0.28436
#
# Static dielectric constant tensor:
#      x y z
#    x 1.816380 0.000000 -0.027250 
#    y 0.000000 1.736710 0.000000 
#    z -0.027250 0.000000 1.832160 
# 
# From -- ./inp_files/35882.got.cif
#   From: 2010.05.17/outbox.cif.g08.bks.cpg/sg5_18_cif.got.tgz:35882.got - 2010.06.03 18:56:24.
