data_PCOD9129226
_publ_section_title
;
Structure prediction by ZEFSAII (Michael W. Deem and Ramdas Pophale) SiO2 
 PCOD9129226
Probable space group: C 2
;
_chemical_formula_sum "Si O2"
_cell_formula_units_Z 16
_cell_length_a 8.078646
_cell_length_b 12.021162
_cell_length_c 7.351277
_cell_angle_alpha 90.000000
_cell_angle_beta 104.709278
_cell_angle_gamma 90.000000
_cell_volume 690.519693
_symmetry_space_group_name_H-M "C 2"
_symmetry_group_IT_number 5
_symmetry_cell_setting 'monoclinic'
loop_
_space_group_symop_operation_xyz
x,y,z
-x,y,-z
1/2+x,1/2+y,z
1/2-x,1/2+y,-z
loop_
_atom_site_type_symbol
_atom_site_label
_atom_site_fract_x
_atom_site_fract_y
_atom_site_fract_z
Si Si1 0.384250 0.228480 0.638275
Si Si2 0.082861 0.955096 0.709102
Si Si3 0.857180 0.277892 0.731591
Si Si4 0.695536 0.667999 0.918313
O O1 0.500000 0.186554 0.500000
O O2 0.460472 0.349492 0.712264
O O3 0.203927 0.240539 0.483184
O O4 0.348431 0.167387 0.815914
O O5 0.268596 0.898004 0.731048
O O6 0.000000 0.002188 0.500000
O O7 0.102227 0.051045 0.859945
O O8 0.057658 0.263288 0.821272
O O9 0.770453 0.199364 0.864233
#
# Coordination Sequence:
#
# PCOD9129226 Si02
#       4
#     4   4   4   4
#     4   9  20  38  57  82 114 147 188 232 275 334
#     4   9  20  39  59  83 114 151 189 228 283 336
#     4   9  21  36  56  87 112 143 191 233 275 333
#     4  11  20  37  61  81 114 151 184 232 284 331
#
# _framework density 23.170954999999999
#
# number of rings (size 3 to 8) (size 9 to 14) (size 15 to 20)
#    0.000    3.000    0.000    2.250    0.000    8.000 
#    0.000   22.500    0.000    0.000    0.000    0.000 
#    0.000    0.000    0.000    0.000    0.000    0.000 
#
# Total GULP energy -44568.186426 kJ/mol
# GULP energy per Si atom -5571.023303 kJ/mol
# Density = 2.311822 g / cm^3
# Si number density = 23.170955 Si / 1000 Ang^3
#
#
#
# Elastic Constant Matrix: (Units=GPa)
#
#
# Indices 1 2 3 4 5 6 
#
# 1 75.4129 23.8858 31.0171 0.0000 -14.8029 0.0000
# 2 23.8858 67.6419 42.2515 0.0000 1.2728 0.0000
# 3 31.0171 42.2515 138.7228 0.0000 -16.5089 0.0000
# 4 0.0000 0.0000 0.0000 -0.7750 0.0000 -3.0907
# 5 -14.8029 1.2728 -16.5089 0.0000 57.0321 0.0000
# 6 0.0000 0.0000 0.0000 -3.0907 0.0000 24.7958
#
#
#
# Elastic Compliance Matrix: (Units=1/GPa)
#
#
# Indices 1 2 3 4 5 6 
#
# 1 0.016215 -0.004713 -0.001737 0.000000 0.003811 0.000000
# 2 -0.004713 0.019870 -0.005382 0.000000 -0.003225 0.000000
# 3 -0.001737 -0.005382 0.009525 0.000000 0.002427 0.000000
# 4 0.000000 0.000000 0.000000 -0.861893 0.000000 -0.107432
# 5 0.003811 -0.003225 0.002427 0.000000 0.019298 0.000000
# 6 0.000000 0.000000 0.000000 -0.107432 0.000000 0.026938
#
#
# Mechanical properties :
#
#
# Convention : Reuss Voigt Hill
#
# Bulk Modulus (GPa) = 45.56307 52.89850 49.23078
# Shear Modulus (GPa) = -6.76528 28.51881 10.87676
#
# Velocity S-wave (km/s) = -1.71057 3.51208 2.16895
# Velocity P-wave (km/s) = 3.97557 6.27101 5.25027
#
# Compressibility (1/GPa) = 0.02194760
#
# Stress axis : x y z
#
# Youngs Moduli (GPa) = 61.66955 50.32596 104.98788
#
# Poissons Ratio (x) = 0.23719 0.18232
# Poissons Ratio (y) = 0.29065 0.56505
# Poissons Ratio (z) = 0.10710 0.27086
#
# Static dielectric constant tensor:
#      x y z
#    x 2.025390 0.000000 -0.012670 
#    y 0.000000 1.818190 0.000000 
#    z -0.012670 0.000000 1.835420 
# 
# From -- ./inp_files/13661.got.cif
#   From: 2010.05.17/outbox.cif.g08.bks.cpg/sg5_7_cif.got.tgz:13661.got - 2010.06.03 18:56:24.
