data_PCOD9129641
_publ_section_title
;
Structure prediction by ZEFSAII (Michael W. Deem and Ramdas Pophale) SiO2 
 PCOD9129641
Probable space group: C 2
;
_chemical_formula_sum "Si O2"
_cell_formula_units_Z 32
_cell_length_a 9.725206
_cell_length_b 10.866816
_cell_length_c 15.120657
_cell_angle_alpha 90.000000
_cell_angle_beta 112.957657
_cell_angle_gamma 90.000000
_cell_volume 1471.410885
_symmetry_space_group_name_H-M "C 2"
_symmetry_group_IT_number 5
_symmetry_cell_setting 'monoclinic'
loop_
_space_group_symop_operation_xyz
x,y,z
-x,y,-z
1/2+x,1/2+y,z
1/2-x,1/2+y,-z
loop_
_atom_site_type_symbol
_atom_site_label
_atom_site_fract_x
_atom_site_fract_y
_atom_site_fract_z
Si Si1 0.335267 0.190040 0.456969
Si Si2 0.954046 0.979572 0.842034
Si Si3 0.563685 0.733973 0.924049
Si Si4 0.844220 0.219410 0.416307
Si Si5 0.162640 0.466620 0.674462
Si Si6 0.175829 0.044170 0.747192
Si Si7 0.364203 0.230156 0.916095
Si Si8 0.393306 0.851048 0.714932
O O1 0.500000 0.251221 0.500000
O O2 0.269753 0.170364 0.538577
O O3 0.209854 0.267637 0.373593
O O4 0.357693 0.065376 0.407276
O O5 0.784798 0.016330 0.774061
O O6 0.934677 0.848758 0.885042
O O7 0.036223 0.086676 0.917200
O O8 0.049005 0.982261 0.775222
O O9 0.736398 0.767787 0.954022
O O10 0.481200 0.777979 0.813744
O O11 0.500000 0.784773 0.000000
O O12 0.776954 0.339955 0.352982
O O13 0.884399 0.120672 0.351368
O O14 0.000000 0.257445 0.500000
O O15 0.013094 0.426345 0.687181
O O16 0.275352 0.140743 0.828119
O O17 0.284447 0.942240 0.737511
O O18 0.500000 0.164769 0.000000
#
# Coordination Sequence:
#
# PCOD9129641 Si02
#       8
#     4   4   4   4   4   4   4   4
#     4  12  28  44  71 108 143 191 245 294 355 427
#     4  11  22  46  76 102 138 190 235 292 360 423
#     4  11  25  47  73 108 141 183 239 295 358 428
#     4  12  24  45  72 103 143 189 242 297 354 422
#     4  12  23  47  75  97 145 191 235 296 358 421
#     4  11  27  43  69 106 146 185 238 294 358 424
#     4  11  25  48  74 104 144 187 237 294 360 428
#     4  12  26  47  69 104 145 191 234 295 362 424
#
# _framework density 21.747836
#
# number of rings (size 3 to 8) (size 9 to 14) (size 15 to 20)
#    0.000    0.500    5.000    3.000    5.250    3.000 
#    2.250    0.000    0.000    0.000    0.000    0.000 
#    0.000    0.000    0.000    0.000    0.000    0.000 
#
# Total GULP energy -89488.734558 kJ/mol
# GULP energy per Si atom -5593.045910 kJ/mol
# Density = 2.169834 g / cm^3
# Si number density = 21.747836 Si / 1000 Ang^3
#
#
#
# Elastic Constant Matrix: (Units=GPa)
#
#
# Indices 1 2 3 4 5 6 
#
# 1 167.9756 55.6273 62.9886 0.0000 -24.9850 0.0000
# 2 55.6273 67.4128 -0.5593 0.0000 -12.9091 0.0000
# 3 62.9886 -0.5593 69.7013 0.0000 -10.0994 0.0000
# 4 0.0000 0.0000 0.0000 2.2732 0.0000 -8.1901
# 5 -24.9850 -12.9091 -10.0994 0.0000 47.8663 0.0000
# 6 0.0000 0.0000 0.0000 -8.1901 0.0000 45.6818
#
#
#
# Elastic Compliance Matrix: (Units=1/GPa)
#
#
# Indices 1 2 3 4 5 6 
#
# 1 0.015691 -0.012719 -0.014021 0.000000 0.001802 0.000000
# 2 -0.012719 0.025991 0.012127 0.000000 0.002929 0.000000
# 3 -0.014021 0.012127 0.027365 0.000000 0.001726 0.000000
# 4 0.000000 0.000000 0.000000 1.242548 0.000000 0.222771
# 5 0.001802 0.002929 0.001726 0.000000 0.022986 0.000000
# 6 0.000000 0.000000 0.000000 0.222771 0.000000 0.061830
#
#
# Mechanical properties :
#
#
# Convention : Reuss Voigt Hill
#
# Bulk Modulus (GPa) = 25.11217 60.13364 42.62290
# Shear Modulus (GPa) = 3.47485 31.63312 17.55399
#
# Velocity S-wave (km/s) = 1.26541 3.81798 2.84414
# Velocity P-wave (km/s) = 3.70230 6.86632 5.51604
#
# Compressibility (1/GPa) = 0.03982134
#
# Stress axis : x y z
#
# Youngs Moduli (GPa) = 63.73094 38.47485 36.54321
#
# Poissons Ratio (x) = 0.48937 0.51237
# Poissons Ratio (y) = 0.81060 -0.44317
# Poissons Ratio (z) = 0.89356 -0.46659
#
# Static dielectric constant tensor:
#      x y z
#    x 1.780880 0.000000 0.002800 
#    y 0.000000 1.802530 0.000000 
#    z 0.002800 0.000000 1.798330 
# 
# From -- ./inp_files/50525.got.cif
#   From: 2010.05.17/outbox.cif.g08.bks.cpg/sg5_26_cif.got.tgz:50525.got - 2010.06.03 18:56:24.
