data_PCOD9129466
_publ_section_title
;
Structure prediction by ZEFSAII (Michael W. Deem and Ramdas Pophale) SiO2 
 PCOD9129466
Probable space group: C 2
;
_chemical_formula_sum "Si O2"
_cell_formula_units_Z 30
_cell_length_a 14.346847
_cell_length_b 12.368590
_cell_length_c 9.231871
_cell_angle_alpha 90.000000
_cell_angle_beta 111.718393
_cell_angle_gamma 90.000000
_cell_volume 1521.908582
_symmetry_space_group_name_H-M "C 2"
_symmetry_group_IT_number 5
_symmetry_cell_setting 'monoclinic'
loop_
_space_group_symop_operation_xyz
x,y,z
-x,y,-z
1/2+x,1/2+y,z
1/2-x,1/2+y,-z
loop_
_atom_site_type_symbol
_atom_site_label
_atom_site_fract_x
_atom_site_fract_y
_atom_site_fract_z
Si Si1 0.818954 0.379740 0.125911
Si Si2 0.372513 0.326174 0.792537
Si Si3 0.748244 0.972707 0.223410
Si Si4 0.500000 0.503529 0.000000
Si Si5 0.369131 0.107875 0.240661
Si Si6 0.440407 0.095965 0.834116
Si Si7 0.331899 0.641256 0.067106
Si Si8 0.618031 0.295454 0.538729
O O1 0.719798 0.363986 0.164316
O O2 0.872849 0.477579 0.240352
O O3 0.865399 0.261910 0.127805
O O4 0.792046 0.421567 0.949978
O O5 0.455381 0.419676 0.856732
O O6 0.400131 0.209286 0.872319
O O7 0.354737 0.304439 0.613870
O O8 0.815037 0.884441 0.340846
O O9 0.653460 0.020391 0.257709
O O10 0.812347 0.074147 0.202396
O O11 0.586538 0.577573 0.981468
O O12 0.478214 0.132670 0.236409
O O13 0.359192 0.177185 0.380319
O O14 0.273818 0.141080 0.084241
O O15 0.500000 0.039812 0.000000
O O16 0.500000 0.316899 0.500000
#
# Coordination Sequence:
#
# PCOD9129466 Si02
#       8
#     4   4   4   2   4   4   4   4
#     4  11  22  43  67  95 136 173 219 289 333 404
#     4  12  24  40  70  96 135 179 228 275 340 406
#     4  11  23  40  67 102 134 169 223 282 343 402
#     4  12  24  40  68 106 132 186 230 276 342 416
#     4  11  23  42  66 100 134 175 229 281 336 403
#     4  12  21  38  70 103 127 172 224 282 335 399
#     4  11  22  39  67  99 138 169 222 286 332 403
#     4  12  26  43  66  98 136 179 230 285 334 406
#
# _framework density 19.71209
#
# number of rings (size 3 to 8) (size 9 to 14) (size 15 to 20)
#    0.000    0.533   10.000    0.800    0.000    2.133 
#    0.000    0.000    0.000    2.400    0.000    0.000 
#    0.000    0.000    0.000    0.000    0.000    0.000 
#
# Total GULP energy -83691.668835 kJ/mol
# GULP energy per Si atom -5579.444589 kJ/mol
# Density = 1.966722 g / cm^3
# Si number density = 19.712090 Si / 1000 Ang^3
#
#
#
# Elastic Constant Matrix: (Units=GPa)
#
#
# Indices 1 2 3 4 5 6 
#
# 1 94.8676 27.9997 26.9266 0.0000 -3.3173 0.0000
# 2 27.9997 145.3859 39.1804 0.0000 6.5907 0.0000
# 3 26.9266 39.1804 85.7766 0.0000 -7.1930 0.0000
# 4 0.0000 0.0000 0.0000 25.1057 0.0000 6.3432
# 5 -3.3173 6.5907 -7.1930 0.0000 21.2800 0.0000
# 6 0.0000 0.0000 0.0000 6.3432 0.0000 31.1338
#
#
#
# Elastic Compliance Matrix: (Units=1/GPa)
#
#
# Indices 1 2 3 4 5 6 
#
# 1 0.011873 -0.001567 -0.002898 0.000000 0.001357 0.000000
# 2 -0.001567 0.008352 -0.003664 0.000000 -0.004070 0.000000
# 3 -0.002898 -0.003664 0.014716 0.000000 0.005657 0.000000
# 4 0.000000 0.000000 0.000000 0.041993 0.000000 -0.008556
# 5 0.001357 -0.004070 0.005657 0.000000 0.050377 0.000000
# 6 0.000000 0.000000 0.000000 -0.008556 0.000000 0.033862
#
#
# Mechanical properties :
#
#
# Convention : Reuss Voigt Hill
#
# Bulk Modulus (GPa) = 53.52412 57.13816 55.33114
# Shear Modulus (GPa) = 27.22424 30.96548 29.09486
#
# Velocity S-wave (km/s) = 3.72034 3.96774 3.84603
# Velocity P-wave (km/s) = 6.75769 7.07389 6.91760
#
# Compressibility (1/GPa) = 0.01868317
#
# Stress axis : x y z
#
# Youngs Moduli (GPa) = 84.22133 119.73070 67.95356
#
# Poissons Ratio (x) = 0.18766 0.19690
# Poissons Ratio (y) = 0.13200 0.24900
# Poissons Ratio (z) = 0.24404 0.43872
#
# Static dielectric constant tensor:
#      x y z
#    x 1.728440 0.000000 0.017010 
#    y 0.000000 1.719240 0.000000 
#    z 0.017010 0.000000 1.698300 
# 
# From -- ./inp_files/23911.got.cif
#   From: 2010.05.17/outbox.cif.g08.bks.cpg/sg5_12_cif.got.tgz:23911.got - 2010.06.03 18:56:24.
