data_PCOD9129273
_publ_section_title
;
Structure prediction by ZEFSAII (Michael W. Deem and Ramdas Pophale) SiO2 
 PCOD9129273
Probable space group: C 2
;
_chemical_formula_sum "Si O2"
_cell_formula_units_Z 20
_cell_length_a 26.864727
_cell_length_b 7.636146
_cell_length_c 21.614226
_cell_angle_alpha 90.000000
_cell_angle_beta 12.244183
_cell_angle_gamma 90.000000
_cell_volume 940.357295
_symmetry_space_group_name_H-M "C 2"
_symmetry_group_IT_number 5
_symmetry_cell_setting 'monoclinic'
loop_
_space_group_symop_operation_xyz
x,y,z
-x,y,-z
1/2+x,1/2+y,z
1/2-x,1/2+y,-z
loop_
_atom_site_type_symbol
_atom_site_label
_atom_site_fract_x
_atom_site_fract_y
_atom_site_fract_z
Si Si1 0.297193 0.750000 0.515655
Si Si2 0.854496 0.576050 0.113081
Si Si3 0.181932 0.178077 0.836857
Si Si4 0.476610 0.866585 0.431267
Si Si5 0.972766 0.991850 0.848873
O O1 0.385858 0.834870 0.471785
O O2 0.491663 0.625938 0.250113
O O3 0.216252 0.891429 0.563831
O O4 0.054934 0.645055 0.823588
O O5 0.764326 0.379557 0.212406
O O6 0.654130 0.719501 0.368974
O O7 0.000000 0.567079 0.000000
O O8 0.395000 0.056326 0.555344
O O9 0.077187 0.087040 0.025120
O O10 0.000000 0.172423 0.000000
O O11 0.755553 0.865783 0.097395
#
# Coordination Sequence:
#
# PCOD9129273 Si02
#       5
#     4   4   4   4   4
#     4  11  24  46  67 102 149 181 228 298 358 409
#     4   9  20  41  72  98 132 188 232 279 351 417
#     4  11  20  43  75 101 137 186 238 286 345 424
#     4  11  23  47  70 100 142 188 236 288 343 428
#     4  12  25  43  71 104 143 187 232 292 361 408
#
# _framework density 21.268512000000001
#
# number of rings (size 3 to 8) (size 9 to 14) (size 15 to 20)
#    0.000    1.200    4.000    2.400    0.000    1.600 
#   21.600    0.000    0.000    0.000    0.000    0.000 
#    0.000    0.000    0.000    0.000    0.000    0.000 
#
# Total GULP energy -55880.591634 kJ/mol
# GULP energy per Si atom -5588.059163 kJ/mol
# Density = 2.122010 g / cm^3
# Si number density = 21.268512 Si / 1000 Ang^3
#
#
#
# Elastic Constant Matrix: (Units=GPa)
#
#
# Indices 1 2 3 4 5 6 
#
# 1 67.5852 29.1150 36.8297 -0.0074 -5.3637 0.0023
# 2 29.1150 90.1486 23.3980 0.0135 -9.6230 -0.0024
# 3 36.8297 23.3980 81.5361 0.0059 -9.0821 0.0015
# 4 -0.0074 0.0135 0.0059 22.9373 -0.0001 12.1454
# 5 -5.3637 -9.6230 -9.0821 -0.0001 33.5740 -0.0010
# 6 0.0023 -0.0024 0.0015 12.1454 -0.0010 12.3615
#
#
#
# Elastic Compliance Matrix: (Units=1/GPa)
#
#
# Indices 1 2 3 4 5 6 
#
# 1 0.021357 -0.004764 -0.008302 0.000029 -0.000199 -0.000032
# 2 -0.004764 0.013269 -0.001358 -0.000023 0.002675 0.000026
# 3 -0.008302 -0.001358 0.016717 -0.000012 0.002807 0.000011
# 4 0.000029 -0.000023 -0.000012 0.090875 -0.000008 -0.089286
# 5 -0.000199 0.002675 0.002807 -0.000008 0.031279 0.000010
# 6 -0.000032 0.000026 0.000011 -0.089286 0.000010 0.168622
#
#
# Mechanical properties :
#
#
# Convention : Reuss Voigt Hill
#
# Bulk Modulus (GPa) = 44.45425 46.43948 45.44686
# Shear Modulus (GPa) = 13.21128 23.76971 18.49050
#
# Velocity S-wave (km/s) = 2.49502 3.34668 2.95173
# Velocity P-wave (km/s) = 5.40805 6.06761 5.74730
#
# Compressibility (1/GPa) = 0.02249504
#
# Stress axis : x y z
#
# Youngs Moduli (GPa) = 46.82396 75.36129 59.82028
#
# Poissons Ratio (x) = 0.35902 0.49662
# Poissons Ratio (y) = 0.22307 0.08124
# Poissons Ratio (z) = 0.38872 0.10234
#
# Static dielectric constant tensor:
#      x y z
#    x 1.735740 0.000000 -0.008930 
#    y 0.000000 1.791730 0.000000 
#    z -0.008930 0.000000 1.746550 
# 
# From -- ./inp_files/26621.got.cif
#   From: 2010.05.17/outbox.cif.g08.bks.cpg/sg5_14_cif.got.tgz:26621.got - 2010.06.03 18:56:24.
