data_PCOD9129619
_publ_section_title
;
Structure prediction by ZEFSAII (Michael W. Deem and Ramdas Pophale) SiO2 
 PCOD9129619
Probable space group: C 2
;
_chemical_formula_sum "Si O2"
_cell_formula_units_Z 18
_cell_length_a 11.351077
_cell_length_b 9.458955
_cell_length_c 9.176257
_cell_angle_alpha 90.000000
_cell_angle_beta 37.544630
_cell_angle_gamma 90.000000
_cell_volume 600.389983
_symmetry_space_group_name_H-M "C 2"
_symmetry_group_IT_number 5
_symmetry_cell_setting 'monoclinic'
loop_
_space_group_symop_operation_xyz
x,y,z
-x,y,-z
1/2+x,1/2+y,z
1/2-x,1/2+y,-z
loop_
_atom_site_type_symbol
_atom_site_label
_atom_site_fract_x
_atom_site_fract_y
_atom_site_fract_z
Si Si1 0.000000 0.843570 0.000000
Si Si2 0.589586 0.528381 0.571605
Si Si3 0.787565 0.481375 0.859368
Si Si4 0.903568 0.341459 0.255528
Si Si5 0.093865 0.681774 0.633627
O O1 0.804725 0.933889 0.203608
O O2 0.014657 0.746059 0.121547
O O3 0.500000 0.569519 0.500000
O O4 0.645713 0.343746 0.499334
O O5 0.840807 0.519113 0.332596
O O6 0.398233 0.508282 0.860061
O O7 0.917109 0.363725 0.806540
O O8 0.922911 0.614049 0.708345
O O9 0.838661 0.181822 0.396350
O O10 0.000000 0.319646 0.000000
#
# Coordination Sequence:
#
# PCOD9129619 Si02
#       5
#     2   4   4   4   4
#     4  12  26  52  82 110 156 204 252 328 384 454
#     4  11  22  45  74 106 147 201 259 313 374 467
#     4  11  26  49  74 118 151 198 270 310 378 475
#     4  11  24  47  74 110 152 201 250 315 387 457
#     4  11  27  46  77 114 151 204 254 318 396 445
#
# _framework density 29.980512000000001
#
# number of rings (size 3 to 8) (size 9 to 14) (size 15 to 20)
#    0.000    0.889    4.444    1.333    9.333    0.000 
#    2.000    2.222    0.000    0.000    0.000    0.000 
#    0.000    0.000    0.000    0.000    0.000    0.000 
#
# Total GULP energy -50282.911774 kJ/mol
# GULP energy per Si atom -5586.990197 kJ/mol
# Density = 2.991228 g / cm^3
# Si number density = 29.980512 Si / 1000 Ang^3
#
#
#
# Elastic Constant Matrix: (Units=GPa)
#
#
# Indices 1 2 3 4 5 6 
#
# 1 150.9733 84.1518 77.6960 -0.0001 -16.4053 0.0001
# 2 84.1518 227.5026 109.4735 0.0000 -37.1773 0.0000
# 3 77.6960 109.4735 221.4747 -0.0004 -22.0843 0.0002
# 4 -0.0001 0.0000 -0.0004 80.4178 0.0003 -11.9479
# 5 -16.4053 -37.1773 -22.0843 0.0003 71.0909 -0.0001
# 6 0.0001 0.0000 0.0002 -11.9479 -0.0001 28.9167
#
#
#
# Elastic Compliance Matrix: (Units=1/GPa)
#
#
# Indices 1 2 3 4 5 6 
#
# 1 0.008961 -0.002328 -0.001969 0.000000 0.000239 0.000000
# 2 -0.002328 0.006726 -0.002281 0.000000 0.002271 0.000000
# 3 -0.001969 -0.002281 0.006366 0.000000 0.000330 0.000000
# 4 0.000000 0.000000 0.000000 0.013248 0.000000 0.005474
# 5 0.000239 0.002271 0.000330 0.000000 0.015412 0.000000
# 6 0.000000 0.000000 0.000000 0.005474 0.000000 0.036844
#
#
# Mechanical properties :
#
#
# Convention : Reuss Voigt Hill
#
# Bulk Modulus (GPa) = 112.40752 126.95480 119.68116
# Shear Modulus (GPa) = 48.22601 57.99369 53.10985
#
# Velocity S-wave (km/s) = 4.01506 4.40293 4.21346
# Velocity P-wave (km/s) = 7.68565 8.26350 7.97981
#
# Compressibility (1/GPa) = 0.00889620
#
# Stress axis : x y z
#
# Youngs Moduli (GPa) = 111.60070 148.68700 157.07310
#
# Poissons Ratio (x) = 0.34614 0.30927
# Poissons Ratio (y) = 0.25980 0.35832
# Poissons Ratio (z) = 0.21974 0.33919
#
# Static dielectric constant tensor:
#      x y z
#    x 2.297840 0.000000 -0.042100 
#    y 0.000000 2.817160 0.000000 
#    z -0.042100 0.000000 2.088930 
# 
# From -- ./inp_files/39025.got.cif
#   From: 2010.05.17/outbox.cif.g08.bks.cpg/sg5_20_cif.got.tgz:39025.got - 2010.06.03 18:56:24.
