data_PCOD9129798
_publ_section_title
;
Structure prediction by ZEFSAII (Michael W. Deem and Ramdas Pophale) SiO2 
 PCOD9129798
Probable space group: C 2
;
_chemical_formula_sum "Si O2"
_cell_formula_units_Z 26
_cell_length_a 20.312771
_cell_length_b 7.560346
_cell_length_c 8.056224
_cell_angle_alpha 90.000000
_cell_angle_beta 126.045062
_cell_angle_gamma 90.000000
_cell_volume 1000.349261
_symmetry_space_group_name_H-M "C 2"
_symmetry_group_IT_number 5
_symmetry_cell_setting 'monoclinic'
loop_
_space_group_symop_operation_xyz
x,y,z
-x,y,-z
1/2+x,1/2+y,z
1/2-x,1/2+y,-z
loop_
_atom_site_type_symbol
_atom_site_label
_atom_site_fract_x
_atom_site_fract_y
_atom_site_fract_z
Si Si1 0.000000 0.955341 0.000000
Si Si2 0.665416 0.374354 0.366851
Si Si3 0.318060 0.041804 0.436810
Si Si4 0.052338 0.016447 0.733339
Si Si5 0.504798 0.915594 0.313000
Si Si6 0.151058 0.601392 0.044827
Si Si7 0.771331 0.918306 0.030653
O O1 0.910716 0.001651 0.787813
O O2 0.036674 0.898745 0.873361
O O3 0.746498 0.482345 0.454957
O O4 0.664012 0.252739 0.528723
O O5 0.658974 0.214417 0.222760
O O6 0.403192 0.948395 0.604311
O O7 0.283017 0.967726 0.211298
O O8 0.147506 0.038039 0.832493
O O9 0.000000 0.951852 0.500000
O O10 0.019823 0.210778 0.732128
O O11 0.500000 0.968384 0.500000
O O12 0.438434 0.024231 0.112989
O O13 0.185573 0.734720 0.954656
O O14 0.212370 0.437848 0.100073
#
# Coordination Sequence:
#
# PCOD9129798 Si02
#       7
#     2   4   4   4   4   4   4
#     4  12  24  52  72 106 154 184 254 298 354 450
#     4  11  27  45  68 104 143 190 245 296 368 433
#     4  11  25  45  70  99 142 185 236 303 361 430
#     4  11  27  44  77 107 143 194 244 299 368 425
#     4  11  24  44  70 104 141 184 241 295 363 434
#     4  11  23  44  70 101 143 182 239 301 355 431
#     4  11  24  45  70 103 142 183 243 296 361 432
#
# _framework density 25.990919999999999
#
# number of rings (size 3 to 8) (size 9 to 14) (size 15 to 20)
#    0.000    0.923    4.615    1.846    8.615    5.538 
#    0.000    0.000    0.000    0.000    0.000    0.000 
#    0.000    0.000    0.000    0.000    0.000    0.000 
#
# Total GULP energy -72569.242972 kJ/mol
# GULP energy per Si atom -5582.249459 kJ/mol
# Density = 2.593176 g / cm^3
# Si number density = 25.990920 Si / 1000 Ang^3
#
#
#
# Elastic Constant Matrix: (Units=GPa)
#
#
# Indices 1 2 3 4 5 6 
#
# 1 103.7841 2.8320 63.8586 0.0000 59.4119 0.0000
# 2 2.8320 56.9860 43.3744 0.0000 10.7820 0.0000
# 3 63.8586 43.3744 144.8900 0.0000 36.4369 0.0000
# 4 0.0000 0.0000 0.0000 40.9052 0.0000 -0.0541
# 5 59.4119 10.7820 36.4369 0.0000 71.6561 0.0000
# 6 0.0000 0.0000 0.0000 -0.0541 0.0000 40.0378
#
#
#
# Elastic Compliance Matrix: (Units=1/GPa)
#
#
# Indices 1 2 3 4 5 6 
#
# 1 0.025251 0.009295 -0.009511 0.000000 -0.017499 0.000000
# 2 0.009295 0.026148 -0.010316 0.000000 -0.006396 0.000000
# 3 -0.009511 -0.010316 0.013540 0.000000 0.002553 0.000000
# 4 0.000000 0.000000 0.000000 0.024447 0.000000 0.000033
# 5 -0.017499 -0.006396 0.002553 0.000000 0.028128 0.000000
# 6 0.000000 0.000000 0.000000 0.000033 0.000000 0.024976
#
#
# Mechanical properties :
#
#
# Convention : Reuss Voigt Hill
#
# Bulk Modulus (GPa) = 22.79179 58.42111 40.60645
# Shear Modulus (GPa) = 28.06137 43.55947 35.81042
#
# Velocity S-wave (km/s) = 3.28938 4.09828 3.71591
# Velocity P-wave (km/s) = 4.81818 6.70230 5.83677
#
# Compressibility (1/GPa) = 0.04387545
#
# Stress axis : x y z
#
# Youngs Moduli (GPa) = 39.60177 38.24317 73.85535
#
# Poissons Ratio (x) = -0.35549 0.70247
# Poissons Ratio (y) = -0.36812 0.76191
# Poissons Ratio (z) = 0.37667 0.39453
#
# Static dielectric constant tensor:
#      x y z
#    x 2.061870 0.000000 -0.035540 
#    y 0.000000 2.174930 0.000000 
#    z -0.035540 0.000000 2.090790 
# 
# From -- ./inp_files/29013.got.cif
#   From: 2010.05.17/outbox.cif.g08.bks.cpg/sg5_15_cif.got.tgz:29013.got - 2010.06.03 18:56:24.
