data_PCOD9129084
_publ_section_title
;
Structure prediction by ZEFSAII (Michael W. Deem and Ramdas Pophale) SiO2 
 PCOD9129084
Probable space group: C 2
;
_chemical_formula_sum "Si O2"
_cell_formula_units_Z 18
_cell_length_a 10.556972
_cell_length_b 9.717657
_cell_length_c 7.800082
_cell_angle_alpha 90.000000
_cell_angle_beta 61.621527
_cell_angle_gamma 90.000000
_cell_volume 704.040258
_symmetry_space_group_name_H-M "C 2"
_symmetry_group_IT_number 5
_symmetry_cell_setting 'monoclinic'
loop_
_space_group_symop_operation_xyz
x,y,z
-x,y,-z
1/2+x,1/2+y,z
1/2-x,1/2+y,-z
loop_
_atom_site_type_symbol
_atom_site_label
_atom_site_fract_x
_atom_site_fract_y
_atom_site_fract_z
Si Si1 0.489670 0.966010 0.195270
Si Si2 0.570882 0.445418 0.134312
Si Si3 0.500000 0.781823 0.500000
Si Si4 0.273740 0.176229 0.875569
Si Si5 0.299966 0.570153 0.459128
O O1 0.549492 0.871915 0.308070
O O2 0.583623 0.103118 0.142001
O O3 0.329246 0.000301 0.357840
O O4 0.500000 0.902776 0.000000
O O5 0.689043 0.336230 0.121353
O O6 0.433569 0.467011 0.343762
O O7 0.500000 0.401383 0.000000
O O8 0.644382 0.595282 0.055019
O O9 0.366394 0.692653 0.525400
O O10 0.251158 0.132520 0.691108
#
# Coordination Sequence:
#
# PCOD9129084 Si02
#       5
#     4   4   2   4   4
#     4  12  29  52  83 118 166 217 273 337 406 489
#     4  10  26  48  81 124 167 216 275 338 411 490
#     4  12  30  52  80 118 164 218 272 336 406 484
#     4  11  25  51  83 122 166 220 273 342 412 486
#     4  11  28  51  78 116 169 216 277 339 403 489
#
# _framework density 25.56672
#
# number of rings (size 3 to 8) (size 9 to 14) (size 15 to 20)
#    0.000    0.889    2.222    0.667   12.444    0.889 
#    0.000    0.000    0.000    0.000    0.000    0.000 
#    0.000    0.000    0.000    0.000    0.000    0.000 
#
# Total GULP energy -50510.731720 kJ/mol
# GULP energy per Si atom -5612.303524 kJ/mol
# Density = 2.550853 g / cm^3
# Si number density = 25.566720 Si / 1000 Ang^3
#
#
#
# Elastic Constant Matrix: (Units=GPa)
#
#
# Indices 1 2 3 4 5 6 
#
# 1 129.1736 40.5915 52.2795 0.0000 -3.6282 0.0000
# 2 40.5915 91.6115 10.0563 0.0000 11.3513 0.0000
# 3 52.2795 10.0563 126.4391 0.0000 -1.3011 0.0000
# 4 0.0000 0.0000 0.0000 41.8521 0.0000 8.6461
# 5 -3.6282 11.3513 -1.3011 0.0000 62.2836 0.0000
# 6 0.0000 0.0000 0.0000 8.6461 0.0000 55.5444
#
#
#
# Elastic Compliance Matrix: (Units=1/GPa)
#
#
# Indices 1 2 3 4 5 6 
#
# 1 0.010873 -0.004536 -0.004121 0.000000 0.001374 0.000000
# 2 -0.004536 0.013165 0.000801 0.000000 -0.002647 0.000000
# 3 -0.004121 0.000801 0.009547 0.000000 -0.000187 0.000000
# 4 0.000000 0.000000 0.000000 0.024688 0.000000 -0.003843
# 5 0.001374 -0.002647 -0.000187 0.000000 0.016614 0.000000
# 6 0.000000 0.000000 0.000000 -0.003843 0.000000 0.018602
#
#
# Mechanical properties :
#
#
# Convention : Reuss Voigt Hill
#
# Bulk Modulus (GPa) = 55.94487 61.45321 58.69904
# Shear Modulus (GPa) = 43.41836 48.22246 45.82041
#
# Velocity S-wave (km/s) = 4.12544 4.34768 4.23802
# Velocity P-wave (km/s) = 6.67995 7.02081 6.85250
#
# Compressibility (1/GPa) = 0.01787474
#
# Stress axis : x y z
#
# Youngs Moduli (GPa) = 91.96900 75.95688 104.74249
#
# Poissons Ratio (x) = 0.34451 0.43164
# Poissons Ratio (y) = 0.41714 -0.08390
# Poissons Ratio (z) = 0.37900 -0.06084
#
# Static dielectric constant tensor:
#      x y z
#    x 1.932830 0.000000 0.037790 
#    y 0.000000 2.041290 0.000000 
#    z 0.037790 0.000000 1.954690 
# 
# From -- ./inp_files/18230.got.cif
#   From: 2010.05.17/outbox.cif.g08.bks.cpg/sg5_10_cif.got.tgz:18230.got - 2010.06.03 18:56:24.
