data_PCOD9129549
_publ_section_title
;
Structure prediction by ZEFSAII (Michael W. Deem and Ramdas Pophale) SiO2 
 PCOD9129549
Probable space group: C 2
;
_chemical_formula_sum "Si O2"
_cell_formula_units_Z 30
_cell_length_a 11.993909
_cell_length_b 15.020659
_cell_length_c 9.343161
_cell_angle_alpha 90.000000
_cell_angle_beta 59.300929
_cell_angle_gamma 90.000000
_cell_volume 1447.343426
_symmetry_space_group_name_H-M "C 2"
_symmetry_group_IT_number 5
_symmetry_cell_setting 'monoclinic'
loop_
_space_group_symop_operation_xyz
x,y,z
-x,y,-z
1/2+x,1/2+y,z
1/2-x,1/2+y,-z
loop_
_atom_site_type_symbol
_atom_site_label
_atom_site_fract_x
_atom_site_fract_y
_atom_site_fract_z
Si Si1 0.920334 0.968890 0.287579
Si Si2 0.548986 0.958299 0.318128
Si Si3 0.657275 0.772926 0.898402
Si Si4 0.710985 0.781738 0.197393
Si Si5 0.364617 0.584658 0.745646
Si Si6 0.720981 0.578953 0.869407
Si Si7 0.000000 0.842250 0.000000
Si Si8 0.720687 0.935371 0.660481
O O1 0.815010 0.924482 0.461429
O O2 0.012705 0.901420 0.137790
O O3 0.850898 0.019567 0.201992
O O4 0.995332 0.037718 0.341524
O O5 0.500000 0.995314 0.500000
O O6 0.629263 0.867841 0.300398
O O7 0.425943 0.943324 0.299356
O O8 0.643371 0.031664 0.192449
O O9 0.715010 0.678356 0.813470
O O10 0.717592 0.850327 0.764409
O O11 0.500000 0.770547 0.000000
O O12 0.694083 0.786060 0.038203
O O13 0.653536 0.687408 0.288253
O O14 0.865776 0.790575 0.117873
O O15 0.268484 0.520519 0.720784
O O16 0.340069 0.584286 0.933423
#
# Coordination Sequence:
#
# PCOD9129549 Si02
#       8
#     4   4   4   4   4   4   2   4
#     4  12  22  44  69  96 137 180 225 275 341 404
#     4  12  23  44  64  99 139 177 221 280 349 394
#     4  11  23  42  69  98 129 176 229 273 332 403
#     4  11  24  42  68  99 134 179 227 275 336 406
#     4  11  25  43  67 100 133 179 224 285 330 400
#     4  11  22  42  71  95 131 186 226 268 338 415
#     4  12  22  44  70  94 132 182 226 274 340 404
#     4  12  26  42  71 103 135 174 232 287 333 394
#
# _framework density 20.727630999999999
#
# number of rings (size 3 to 8) (size 9 to 14) (size 15 to 20)
#    0.000    0.533    5.333    3.600    0.000    3.200 
#    2.400    4.000    0.000    0.000    0.000    0.000 
#    0.000    0.000    0.000    0.000    0.000    0.000 
#
# Total GULP energy -83762.251216 kJ/mol
# GULP energy per Si atom -5584.150081 kJ/mol
# Density = 2.068045 g / cm^3
# Si number density = 20.727631 Si / 1000 Ang^3
#
#
#
# Elastic Constant Matrix: (Units=GPa)
#
#
# Indices 1 2 3 4 5 6 
#
# 1 93.5622 22.6586 5.7178 0.0000 -10.3449 0.0000
# 2 22.6586 107.7191 34.0127 0.0000 -16.5329 0.0000
# 3 5.7178 34.0127 54.7853 0.0000 -5.6933 0.0000
# 4 0.0000 0.0000 0.0000 -89.2887 0.0000 39.2880
# 5 -10.3449 -16.5329 -5.6933 0.0000 39.1336 0.0000
# 6 0.0000 0.0000 0.0000 39.2880 0.0000 8.6005
#
#
#
# Elastic Compliance Matrix: (Units=1/GPa)
#
#
# Indices 1 2 3 4 5 6 
#
# 1 0.011435 -0.002200 0.000396 0.000000 0.002151 0.000000
# 2 -0.002200 0.012586 -0.007201 0.000000 0.003688 0.000000
# 3 0.000396 -0.007201 0.022721 0.000000 0.000368 0.000000
# 4 0.000000 0.000000 0.000000 -0.003721 0.000000 0.016997
# 5 0.002151 0.003688 0.000368 0.000000 0.027734 0.000000
# 6 0.000000 0.000000 0.000000 0.016997 0.000000 0.038628
#
#
# Mechanical properties :
#
#
# Convention : Reuss Voigt Hill
#
# Bulk Modulus (GPa) = 34.80567 42.31610 38.56089
# Shear Modulus (GPa) = 36.50445 4.60090 20.55268
#
# Velocity S-wave (km/s) = 4.20116 1.49148 3.15232
# Velocity P-wave (km/s) = 6.35306 4.84000 5.64743
#
# Compressibility (1/GPa) = 0.02873095
#
# Stress axis : x y z
#
# Youngs Moduli (GPa) = 87.45447 79.45344 44.01291
#
# Poissons Ratio (x) = 0.17481 -0.01743
# Poissons Ratio (y) = 0.19242 0.31694
# Poissons Ratio (z) = -0.03464 0.57214
#
# Static dielectric constant tensor:
#      x y z
#    x 1.793950 0.000000 -0.039490 
#    y 0.000000 1.812860 0.000000 
#    z -0.039490 0.000000 1.740780 
# 
# From -- ./inp_files/20569.got.cif
#   From: 2010.05.17/outbox.cif.g08.bks.cpg/sg5_11_cif.got.tgz:20569.got - 2010.06.03 18:56:24.
