data_PCOD9129543
_publ_section_title
;
Structure prediction by ZEFSAII (Michael W. Deem and Ramdas Pophale) SiO2 
 PCOD9129543
Probable space group: C 2
;
_chemical_formula_sum "Si O2"
_cell_formula_units_Z 20
_cell_length_a 12.592856
_cell_length_b 7.317273
_cell_length_c 17.099491
_cell_angle_alpha 90.000000
_cell_angle_beta 29.739604
_cell_angle_gamma 90.000000
_cell_volume 781.609775
_symmetry_space_group_name_H-M "C 2"
_symmetry_group_IT_number 5
_symmetry_cell_setting 'monoclinic'
loop_
_space_group_symop_operation_xyz
x,y,z
-x,y,-z
1/2+x,1/2+y,z
1/2-x,1/2+y,-z
loop_
_atom_site_type_symbol
_atom_site_label
_atom_site_fract_x
_atom_site_fract_y
_atom_site_fract_z
Si Si1 0.828302 0.875000 0.676558
Si Si2 0.481065 0.079486 0.696882
Si Si3 0.008018 0.139966 0.188396
Si Si4 0.566245 0.699662 0.582501
Si Si5 0.890195 0.847836 0.988451
O O1 0.603308 0.800635 0.790384
O O2 0.000000 0.825369 0.500000
O O3 0.895020 0.759068 0.709796
O O4 0.873791 0.085246 0.667974
O O5 0.705744 0.128031 0.594390
O O6 0.293772 0.993349 0.868027
O O7 0.531532 0.915493 0.603044
O O8 0.259471 0.179837 0.037717
O O9 0.923792 0.152265 0.330868
O O10 0.971868 0.953724 0.164232
O O11 0.000000 0.801076 0.000000
#
# Coordination Sequence:
#
# PCOD9129543 Si02
#       5
#     4   4   4   4   4
#     4  12  23  45  72 103 137 178 231 284 340 402
#     4  11  22  42  70 100 138 173 227 283 331 403
#     4  11  26  44  68 100 136 182 226 279 340 404
#     4  11  24  44  72 104 136 176 231 282 337 408
#     4  11  25  43  66  99 137 177 227 277 334 410
#
# _framework density 25.588215000000002
#
# number of rings (size 3 to 8) (size 9 to 14) (size 15 to 20)
#    0.000    0.800    6.000    1.200    2.800    4.000 
#    0.000    0.000    0.000    0.000    0.000    0.000 
#    0.000    0.000    0.000    0.000    0.000    0.000 
#
# Total GULP energy -56001.587423 kJ/mol
# GULP energy per Si atom -5600.158742 kJ/mol
# Density = 2.552998 g / cm^3
# Si number density = 25.588215 Si / 1000 Ang^3
#
#
#
# Elastic Constant Matrix: (Units=GPa)
#
#
# Indices 1 2 3 4 5 6 
#
# 1 139.9393 27.8377 11.8354 -0.0001 -36.3596 0.0000
# 2 27.8377 87.1204 4.0483 -0.0008 -11.7980 0.0000
# 3 11.8354 4.0483 42.6802 -0.0027 -14.2025 0.0000
# 4 -0.0001 -0.0008 -0.0027 47.4889 0.0003 0.2353
# 5 -36.3596 -11.7980 -14.2025 0.0003 29.6999 0.0001
# 6 0.0000 0.0000 0.0000 0.2353 0.0001 39.6683
#
#
#
# Elastic Compliance Matrix: (Units=1/GPa)
#
#
# Indices 1 2 3 4 5 6 
#
# 1 0.010814 -0.001726 0.001596 0.000000 0.013317 0.000000
# 2 -0.001726 0.012417 0.000284 0.000000 0.002955 0.000000
# 3 0.001596 0.000284 0.028124 0.000002 0.015516 0.000000
# 4 0.000000 0.000000 0.000002 0.021058 0.000001 -0.000125
# 5 0.013317 0.002955 0.015516 0.000001 0.058567 0.000000
# 6 0.000000 0.000000 0.000000 -0.000125 0.000000 0.025210
#
#
# Mechanical properties :
#
#
# Convention : Reuss Voigt Hill
#
# Bulk Modulus (GPa) = 19.35600 39.68695 29.52148
# Shear Modulus (GPa) = 28.88464 38.43932 33.66198
#
# Velocity S-wave (km/s) = 3.36345 3.88006 3.63095
# Velocity P-wave (km/s) = 4.76073 5.96797 5.39821
#
# Compressibility (1/GPa) = 0.05166355
#
# Stress axis : x y z
#
# Youngs Moduli (GPa) = 92.46912 80.53508 35.55730
#
# Poissons Ratio (x) = 0.13903 -0.05676
# Poissons Ratio (y) = 0.15963 -0.01011
# Poissons Ratio (z) = -0.14761 -0.02290
#
# Static dielectric constant tensor:
#      x y z
#    x 1.982430 0.000000 0.009520 
#    y 0.000000 1.976190 0.000000 
#    z 0.009520 0.000000 2.093880 
# 
# From -- ./inp_files/18249.got.cif
#   From: 2010.05.17/outbox.cif.g08.bks.cpg/sg5_10_cif.got.tgz:18249.got - 2010.06.03 18:56:24.
