data_PCOD9129085
_publ_section_title
;
Structure prediction by ZEFSAII (Michael W. Deem and Ramdas Pophale) SiO2 
 PCOD9129085
Probable space group: C 2
;
_chemical_formula_sum "Si O2"
_cell_formula_units_Z 22
_cell_length_a 22.375296
_cell_length_b 6.373885
_cell_length_c 23.093446
_cell_angle_alpha 90.000000
_cell_angle_beta 18.110595
_cell_angle_gamma 90.000000
_cell_volume 1023.801330
_symmetry_space_group_name_H-M "C 2"
_symmetry_group_IT_number 5
_symmetry_cell_setting 'monoclinic'
loop_
_space_group_symop_operation_xyz
x,y,z
-x,y,-z
1/2+x,1/2+y,z
1/2-x,1/2+y,-z
loop_
_atom_site_type_symbol
_atom_site_label
_atom_site_fract_x
_atom_site_fract_y
_atom_site_fract_z
Si Si1 0.944848 0.734880 0.811083
Si Si2 0.718188 0.014221 0.475536
Si Si3 0.762086 0.316594 0.328131
Si Si4 0.000000 0.511808 0.500000
Si Si5 0.994643 0.189315 0.602820
Si Si6 0.180165 0.458584 0.967816
O O1 0.872197 0.641970 0.938085
O O2 0.066058 0.946487 0.708814
O O3 0.096494 0.574213 0.643516
O O4 0.783649 0.782294 0.911859
O O5 0.612964 0.819161 0.541849
O O6 0.721972 0.206649 0.427260
O O7 0.672500 0.156895 0.364358
O O8 0.642272 0.530497 0.436613
O O9 0.986749 0.367895 0.117871
O O10 0.071015 0.362676 0.382818
O O11 0.826331 0.054510 0.786716
#
# Coordination Sequence:
#
# PCOD9129085 Si02
#       6
#     4   4   4   2   4   4
#     4  12  22  40  68 110 144 192 216 272 336 422
#     4  11  22  41  70  98 148 191 224 263 342 408
#     4  11  23  48  70 102 134 183 231 294 337 412
#     4  10  26  48  82  86 136 182 238 290 366 384
#     4  11  23  48  70 102 134 183 231 294 337 412
#     4  12  24  40  73 106 146 173 236 272 342 412
#
# _framework density 21.488544999999998
#
# number of rings (size 3 to 8) (size 9 to 14) (size 15 to 20)
#    0.000    0.727    3.636    4.909    0.000    0.000 
#    0.000    5.455    0.000    0.000    0.000    0.000 
#    0.000    0.000    0.000    0.000    0.000    0.000 
#
# Total GULP energy -61591.853562 kJ/mol
# GULP energy per Si atom -5599.259415 kJ/mol
# Density = 2.143964 g / cm^3
# Si number density = 21.488545 Si / 1000 Ang^3
#
#
#
# Elastic Constant Matrix: (Units=GPa)
#
#
# Indices 1 2 3 4 5 6 
#
# 1 101.9664 36.0034 37.1045 -0.0057 -24.4301 0.0005
# 2 36.0034 78.4589 14.6876 -0.0262 -19.2837 0.0127
# 3 37.1045 14.6876 83.4531 -0.0330 -28.7283 0.0109
# 4 -0.0057 -0.0262 -0.0330 45.6602 0.0115 -1.6146
# 5 -24.4301 -19.2837 -28.7283 0.0115 23.1292 -0.0020
# 6 0.0005 0.0127 0.0109 -1.6146 -0.0020 49.8938
#
#
#
# Elastic Compliance Matrix: (Units=1/GPa)
#
#
# Indices 1 2 3 4 5 6 
#
# 1 0.014191 -0.003969 -0.002778 -0.000005 0.008229 0.000002
# 2 -0.003969 0.017616 0.003978 0.000008 0.015436 -0.000004
# 3 -0.002778 0.003978 0.022098 0.000011 0.027830 -0.000004
# 4 -0.000005 0.000008 0.000011 0.021926 0.000005 0.000710
# 5 0.008229 0.015436 0.027830 0.000005 0.099364 -0.000006
# 6 0.000002 -0.000004 -0.000004 0.000710 -0.000006 0.020066
#
#
# Mechanical properties :
#
#
# Convention : Reuss Voigt Hill
#
# Bulk Modulus (GPa) = 20.67537 48.82993 34.75265
# Shear Modulus (GPa) = 23.04970 35.47548 29.26259
#
# Velocity S-wave (km/s) = 3.27869 4.06754 3.69423
# Velocity P-wave (km/s) = 4.89648 6.69573 5.86551
#
# Compressibility (1/GPa) = 0.04836673
#
# Stress axis : x y z
#
# Youngs Moduli (GPa) = 70.46548 56.76618 45.25253
#
# Poissons Ratio (x) = 0.22533 0.12572
# Poissons Ratio (y) = 0.27971 -0.18002
# Poissons Ratio (z) = 0.19576 -0.22582
#
# Static dielectric constant tensor:
#      x y z
#    x 1.781850 0.000000 -0.019930 
#    y 0.000000 1.787020 0.000010 
#    z -0.019930 0.000010 1.742950 
# 
# From -- ./inp_files/69533.got.cif
#   From: 2010.05.17/outbox.cif.g08.bks.cpg/sg5_35_cif.got.tgz:69533.got - 2010.06.03 18:56:24.
