data_PCOD9129268
_publ_section_title
;
Structure prediction by ZEFSAII (Michael W. Deem and Ramdas Pophale) SiO2 
 PCOD9129268
Probable space group: C 2
;
_chemical_formula_sum "Si O2"
_cell_formula_units_Z 32
_cell_length_a 12.590026
_cell_length_b 25.909113
_cell_length_c 9.082982
_cell_angle_alpha 90.000000
_cell_angle_beta 150.242150
_cell_angle_gamma 90.000000
_cell_volume 1470.560581
_symmetry_space_group_name_H-M "C 2"
_symmetry_group_IT_number 5
_symmetry_cell_setting 'monoclinic'
loop_
_space_group_symop_operation_xyz
x,y,z
-x,y,-z
1/2+x,1/2+y,z
1/2-x,1/2+y,-z
loop_
_atom_site_type_symbol
_atom_site_label
_atom_site_fract_x
_atom_site_fract_y
_atom_site_fract_z
Si Si1 0.039864 0.167290 0.725408
Si Si2 0.823697 0.737095 0.684468
Si Si3 0.613947 0.464854 0.793116
Si Si4 0.134821 0.757687 0.811107
Si Si5 0.023735 0.326909 0.369430
Si Si6 0.572262 0.996406 0.419495
Si Si7 0.360557 0.399858 0.701700
Si Si8 0.070308 0.061607 0.253184
O O1 0.000000 0.169126 0.500000
O O2 0.843001 0.195586 0.571056
O O3 0.015517 0.109602 0.755349
O O4 0.245174 0.202569 0.013262
O O5 0.677343 0.778289 0.592355
O O6 0.956864 0.765287 0.721101
O O7 0.000000 0.711670 0.000000
O O8 0.500000 0.468634 0.500000
O O9 0.519025 0.414750 0.761108
O O10 0.539734 0.512782 0.803124
O O11 0.868835 0.470877 0.093988
O O12 0.000000 0.757143 0.500000
O O13 0.314740 0.801984 0.045179
O O14 0.160081 0.363391 0.427268
O O15 0.000000 0.354249 0.500000
O O16 0.500000 0.008669 0.500000
O O17 0.678480 0.044990 0.461846
O O18 0.755333 0.952340 0.640818
O O19 0.500000 0.375333 0.000000
O O20 0.000000 0.068565 0.000000
#
# Coordination Sequence:
#
# PCOD9129268 Si02
#       8
#     4   4   4   4   4   4   4   4
#     4  11  24  43  65  99 136 180 232 279 335 406
#     4  11  20  43  68  94 128 178 226 270 330 401
#     4  11  24  45  68  99 140 175 218 280 341 397
#     4  11  25  44  68  98 139 182 223 287 342 394
#     4  11  23  40  71 100 130 177 231 276 332 405
#     4  11  20  44  69  93 133 178 218 273 333 400
#     4  11  23  39  72 103 127 176 231 273 330 412
#     4  11  24  41  66 103 134 173 230 277 332 410
#
# _framework density 21.76041
#
# number of rings (size 3 to 8) (size 9 to 14) (size 15 to 20)
#    0.000    1.000    5.000    2.625    1.750    4.500 
#    2.250    3.750    0.000    0.000    0.000    0.000 
#    0.000    0.000    0.000    0.000    0.000    0.000 
#
# Total GULP energy -89315.443018 kJ/mol
# GULP energy per Si atom -5582.215189 kJ/mol
# Density = 2.171088 g / cm^3
# Si number density = 21.760410 Si / 1000 Ang^3
#
#
#
# Elastic Constant Matrix: (Units=GPa)
#
#
# Indices 1 2 3 4 5 6 
#
# 1 74.5227 25.7636 65.6778 0.0000 8.1389 0.0000
# 2 25.7636 82.9167 26.3613 0.0000 6.6439 0.0000
# 3 65.6778 26.3613 147.7868 0.0000 -2.1096 0.0000
# 4 0.0000 0.0000 0.0000 18.9751 0.0000 8.4220
# 5 8.1389 6.6439 -2.1096 0.0000 38.4942 0.0000
# 6 0.0000 0.0000 0.0000 8.4220 0.0000 32.9742
#
#
#
# Elastic Compliance Matrix: (Units=1/GPa)
#
#
# Indices 1 2 3 4 5 6 
#
# 1 0.024274 -0.003910 -0.010162 0.000000 -0.005014 0.000000
# 2 -0.003910 0.013628 -0.000716 0.000000 -0.001565 0.000000
# 3 -0.010162 -0.000716 0.011451 0.000000 0.002900 0.000000
# 4 0.000000 0.000000 0.000000 0.059439 0.000000 -0.015181
# 5 -0.005014 -0.001565 0.002900 0.000000 0.027467 0.000000
# 6 0.000000 0.000000 0.000000 -0.015181 0.000000 0.034204
#
#
# Mechanical properties :
#
#
# Convention : Reuss Voigt Hill
#
# Bulk Modulus (GPa) = 50.55876 60.09239 55.32558
# Shear Modulus (GPa) = 24.19784 30.58362 27.39073
#
# Velocity S-wave (km/s) = 3.33830 3.75303 3.55172
# Velocity P-wave (km/s) = 6.17606 6.81584 6.50382
#
# Compressibility (1/GPa) = 0.01977897
#
# Stress axis : x y z
#
# Youngs Moduli (GPa) = 41.19710 73.37813 87.32528
#
# Poissons Ratio (x) = 0.28689 0.88736
# Poissons Ratio (y) = 0.16107 0.06250
# Poissons Ratio (z) = 0.41863 0.05251
#
# Static dielectric constant tensor:
#      x y z
#    x 1.836740 0.000000 0.003670 
#    y 0.000000 1.840600 0.000000 
#    z 0.003670 0.000000 1.829550 
# 
# From -- ./inp_files/22225.got.cif
#   From: 2010.05.17/outbox.cif.g08.bks.cpg/sg5_12_cif.got.tgz:22225.got - 2010.06.03 18:56:24.
