data_PCOD9129239
_publ_section_title
;
Structure prediction by ZEFSAII (Michael W. Deem and Ramdas Pophale) SiO2 
 PCOD9129239
Probable space group: C 2
;
_chemical_formula_sum "Si O2"
_cell_formula_units_Z 26
_cell_length_a 12.245873
_cell_length_b 19.174418
_cell_length_c 8.690961
_cell_angle_alpha 90.000000
_cell_angle_beta 38.804223
_cell_angle_gamma 90.000000
_cell_volume 1278.829318
_symmetry_space_group_name_H-M "C 2"
_symmetry_group_IT_number 5
_symmetry_cell_setting 'monoclinic'
loop_
_space_group_symop_operation_xyz
x,y,z
-x,y,-z
1/2+x,1/2+y,z
1/2-x,1/2+y,-z
loop_
_atom_site_type_symbol
_atom_site_label
_atom_site_fract_x
_atom_site_fract_y
_atom_site_fract_z
Si Si1 0.296400 0.576560 0.963204
Si Si2 0.000000 0.616801 0.500000
Si Si3 0.953172 0.227409 0.872510
Si Si4 0.024788 0.952978 0.659882
Si Si5 0.683707 0.047025 0.746250
Si Si6 0.087022 0.799340 0.231333
Si Si7 0.828839 0.691089 0.420320
O O1 0.390035 0.649027 0.900839
O O2 0.406737 0.508351 0.879958
O O3 0.277089 0.569887 0.801483
O O4 0.112020 0.575747 0.252123
O O5 0.857597 0.662755 0.564049
O O6 0.148022 0.230845 0.585950
O O7 0.792529 0.279748 0.011975
O O8 0.000000 0.235044 0.000000
O O9 0.000000 0.952754 0.500000
O O10 0.969409 0.875424 0.765735
O O11 0.214658 0.988397 0.461199
O O12 0.662267 0.120071 0.683619
O O13 0.500000 0.017106 0.000000
O O14 0.000000 0.795457 0.500000
O O15 0.993283 0.741875 0.227578
#
# Coordination Sequence:
#
# PCOD9129239 Si02
#       7
#     4   2   4   4   4   4   4
#     4  11  21  38  60  92 124 158 206 259 304 365
#     4  12  20  36  64  96 120 154 212 270 294 360
#     4  12  20  34  65  90 117 162 208 251 309 355
#     4   9  22  38  56  86 131 163 196 263 311 355
#     4  11  21  38  63  93 125 165 207 250 318 372
#     4  11  20  39  57  92 131 156 207 267 299 359
#     4  12  21  36  63  94 120 159 209 254 307 363
#
# _framework density 20.331095000000001
#
# number of rings (size 3 to 8) (size 9 to 14) (size 15 to 20)
#    0.000    0.923    8.462    0.000    0.000    0.000 
#    8.308    0.000    0.000   12.000    0.000    0.000 
#    0.000    0.000    0.000    0.000    0.000    0.000 
#
# Total GULP energy -72401.712927 kJ/mol
# GULP energy per Si atom -5569.362533 kJ/mol
# Density = 2.028482 g / cm^3
# Si number density = 20.331095 Si / 1000 Ang^3
#
#
#
# Elastic Constant Matrix: (Units=GPa)
#
#
# Indices 1 2 3 4 5 6 
#
# 1 63.1987 43.8491 37.8392 0.0000 -26.7784 0.0000
# 2 43.8491 135.2411 40.9248 0.0000 -20.7386 0.0000
# 3 37.8392 40.9248 83.2430 0.0000 -41.2648 0.0000
# 4 0.0000 0.0000 0.0000 16.0116 0.0000 1.2990
# 5 -26.7784 -20.7386 -41.2648 0.0000 36.9855 0.0000
# 6 0.0000 0.0000 0.0000 1.2990 0.0000 15.7903
#
#
#
# Elastic Compliance Matrix: (Units=1/GPa)
#
#
# Indices 1 2 3 4 5 6 
#
# 1 0.027274 -0.005930 -0.003002 0.000000 0.013072 0.000000
# 2 -0.005930 0.009977 -0.003501 0.000000 -0.002605 0.000000
# 3 -0.003002 -0.003501 0.029195 0.000000 0.028436 0.000000
# 4 0.000000 0.000000 0.000000 0.062874 0.000000 -0.005172
# 5 0.013072 -0.002605 0.028436 0.000000 0.066768 0.000000
# 6 0.000000 0.000000 0.000000 -0.005172 0.000000 0.063756
#
#
# Mechanical properties :
#
#
# Convention : Reuss Voigt Hill
#
# Bulk Modulus (GPa) = 24.04986 58.54544 41.29765
# Shear Modulus (GPa) = 16.74652 24.36214 20.55433
#
# Velocity S-wave (km/s) = 2.87311 3.46536 3.18304
# Velocity P-wave (km/s) = 4.78133 6.69852 5.81942
#
# Compressibility (1/GPa) = 0.04158028
#
# Stress axis : x y z
#
# Youngs Moduli (GPa) = 36.66490 100.23339 34.25242
#
# Poissons Ratio (x) = 0.59438 0.10283
# Poissons Ratio (y) = 0.21742 0.11990
# Poissons Ratio (z) = 0.11008 0.35088
#
# Static dielectric constant tensor:
#      x y z
#    x 1.800810 0.000000 -0.018370 
#    y 0.000000 1.727820 0.000000 
#    z -0.018370 0.000000 1.773590 
# 
# From -- ./inp_files/21872.got.cif
#   From: 2010.05.17/outbox.cif.g08.bks.cpg/sg5_11_cif.got.tgz:21872.got - 2010.06.03 18:56:24.
