data_PCOD9129783
_publ_section_title
;
Structure prediction by ZEFSAII (Michael W. Deem and Ramdas Pophale) SiO2 
 PCOD9129783
Probable space group: C 2
;
_chemical_formula_sum "Si O2"
_cell_formula_units_Z 26
_cell_length_a 12.720155
_cell_length_b 11.850704
_cell_length_c 14.493242
_cell_angle_alpha 90.000000
_cell_angle_beta 29.737383
_cell_angle_gamma 90.000000
_cell_volume 1083.692163
_symmetry_space_group_name_H-M "C 2"
_symmetry_group_IT_number 5
_symmetry_cell_setting 'monoclinic'
loop_
_space_group_symop_operation_xyz
x,y,z
-x,y,-z
1/2+x,1/2+y,z
1/2-x,1/2+y,-z
loop_
_atom_site_type_symbol
_atom_site_label
_atom_site_fract_x
_atom_site_fract_y
_atom_site_fract_z
Si Si1 0.983163 0.868100 0.307903
Si Si2 0.580232 0.061738 0.239442
Si Si3 0.629905 0.745189 0.019673
Si Si4 0.500000 0.415436 0.500000
Si Si5 0.008154 0.332162 0.602482
Si Si6 0.956996 0.495639 0.133424
Si Si7 0.586683 0.625080 0.649804
O O1 0.746317 0.846066 0.458710
O O2 0.142474 0.797942 0.123244
O O3 0.014550 0.846044 0.393473
O O4 0.013757 0.001486 0.276467
O O5 0.771472 0.146382 0.119708
O O6 0.342591 0.107286 0.446123
O O7 0.610742 0.937556 0.259737
O O8 0.571380 0.047712 0.135066
O O9 0.519369 0.862749 0.077926
O O10 0.474124 0.686381 0.209279
O O11 0.709002 0.491504 0.346895
O O12 0.969659 0.204651 0.664224
O O13 0.000000 0.344072 0.500000
O O14 0.000000 0.546493 0.000000
#
# Coordination Sequence:
#
# PCOD9129783 Si02
#       7
#     4   4   4   2   4   4   4
#     4  11  24  45  71 109 142 188 245 307 362 434
#     4  11  25  49  70 106 150 189 240 303 372 445
#     4  12  24  45  72 106 146 188 242 306 363 443
#     4  12  22  44  76 102 152 182 250 314 362 422
#     4  11  24  48  71 104 146 195 241 285 367 446
#     4  12  25  44  76 110 144 187 250 318 358 432
#     4  11  23  43  78  95 144 193 235 303 370 424
#
# _framework density 23.992054
#
# number of rings (size 3 to 8) (size 9 to 14) (size 15 to 20)
#    0.000    0.615    7.692    0.923    1.077    0.000 
#    6.923    0.769    0.000    0.000    0.000    0.000 
#    0.000    0.000    0.000    0.000    0.000    0.000 
#
# Total GULP energy -72612.523326 kJ/mol
# GULP energy per Si atom -5585.578717 kJ/mol
# Density = 2.393745 g / cm^3
# Si number density = 23.992054 Si / 1000 Ang^3
#
#
#
# Elastic Constant Matrix: (Units=GPa)
#
#
# Indices 1 2 3 4 5 6 
#
# 1 68.6231 12.3713 7.3423 -0.0001 14.1319 -0.0001
# 2 12.3713 151.6279 26.4741 -0.0014 6.9521 -0.0028
# 3 7.3423 26.4741 119.7230 -0.0021 -1.3104 -0.0013
# 4 -0.0001 -0.0014 -0.0021 42.6912 0.0010 0.8236
# 5 14.1319 6.9521 -1.3104 0.0010 36.9109 0.0019
# 6 -0.0001 -0.0028 -0.0013 0.8236 0.0019 -17.2200
#
#
#
# Elastic Compliance Matrix: (Units=1/GPa)
#
#
# Indices 1 2 3 4 5 6 
#
# 1 0.016062 -0.000885 -0.000855 0.000000 -0.006013 -0.000001
# 2 -0.000885 0.006976 -0.001500 0.000000 -0.001028 -0.000001
# 3 -0.000855 -0.001500 0.008747 0.000000 0.000920 0.000000
# 4 0.000000 0.000000 0.000000 0.023402 -0.000001 0.001119
# 5 -0.006013 -0.001028 0.000920 -0.000001 0.029621 0.000003
# 6 -0.000001 -0.000001 0.000000 0.001119 0.000003 -0.058018
#
#
# Mechanical properties :
#
#
# Convention : Reuss Voigt Hill
#
# Bulk Modulus (GPa) = 39.51857 48.03880 43.77869
# Shear Modulus (GPa) = 119.89042 32.06217 75.97630
#
# Velocity S-wave (km/s) = 7.07668 3.65960 5.63347
# Velocity P-wave (km/s) = 9.12578 6.15818 7.78469
#
# Compressibility (1/GPa) = 0.02530456
#
# Stress axis : x y z
#
# Youngs Moduli (GPa) = 62.25960 143.34221 114.32846
#
# Poissons Ratio (x) = 0.12693 0.09776
# Poissons Ratio (y) = 0.05513 0.17145
# Poissons Ratio (z) = 0.05323 0.21496
#
# Static dielectric constant tensor:
#      x y z
#    x 1.978280 0.000000 0.025770 
#    y 0.000000 1.992530 0.000000 
#    z 0.025770 0.000000 1.974920 
# 
# From -- ./inp_files/54545.got.cif
#   From: 2010.05.17/outbox.cif.g08.bks.cpg/sg5_28_cif.got.tgz:54545.got - 2010.06.03 18:56:24.
