data_PCOD9129598
_publ_section_title
;
Structure prediction by ZEFSAII (Michael W. Deem and Ramdas Pophale) SiO2 
 PCOD9129598
Probable space group: C 2
;
_chemical_formula_sum "Si O2"
_cell_formula_units_Z 28
_cell_length_a 12.819522
_cell_length_b 13.239711
_cell_length_c 9.315133
_cell_angle_alpha 90.000000
_cell_angle_beta 58.081216
_cell_angle_gamma 90.000000
_cell_volume 1341.973526
_symmetry_space_group_name_H-M "C 2"
_symmetry_group_IT_number 5
_symmetry_cell_setting 'monoclinic'
loop_
_space_group_symop_operation_xyz
x,y,z
-x,y,-z
1/2+x,1/2+y,z
1/2-x,1/2+y,-z
loop_
_atom_site_type_symbol
_atom_site_label
_atom_site_fract_x
_atom_site_fract_y
_atom_site_fract_z
Si Si1 0.681083 0.115230 0.664821
Si Si2 0.145843 0.191287 0.206629
Si Si3 0.115366 0.190813 0.691612
Si Si4 0.690105 0.562358 0.891202
Si Si5 0.371982 0.911876 0.173083
Si Si6 0.791472 0.863313 0.967528
Si Si7 0.938263 0.683954 0.702525
O O1 0.756438 0.150589 0.750092
O O2 0.761169 0.165249 0.482004
O O3 0.542997 0.150928 0.738169
O O4 0.668401 0.994082 0.680526
O O5 0.999258 0.189091 0.334018
O O6 0.159492 0.126706 0.053189
O O7 0.188151 0.302364 0.130251
O O8 0.112626 0.104485 0.814759
O O9 0.120706 0.299141 0.767132
O O10 0.833262 0.596916 0.760247
O O11 0.663106 0.447507 0.954353
O O12 0.272667 0.917745 0.119214
O O13 0.500000 0.936124 0.000000
O O14 0.878083 0.781733 0.824293
O O15 0.000000 0.703412 0.500000
#
# Coordination Sequence:
#
# PCOD9129598 Si02
#       7
#     4   4   4   4   4   4   4
#     4  12  27  44  70 109 139 176 233 299 342 401
#     4  11  24  45  68  99 141 181 237 283 334 418
#     4  12  24  48  70 101 144 185 228 290 346 413
#     4  11  22  44  72 102 135 182 235 279 340 421
#     4  12  22  45  77  98 135 197 232 265 352 429
#     4  11  23  42  73 103 133 186 236 279 347 413
#     4  11  23  47  72 100 146 179 226 292 353 412
#
# _framework density 20.864792999999999
#
# number of rings (size 3 to 8) (size 9 to 14) (size 15 to 20)
#    0.000    0.571    7.143    1.714    2.000    1.143 
#   10.286    0.000    0.000    0.000    0.000    0.000 
#    0.000    0.000    0.000    0.000    0.000    0.000 
#
# Total GULP energy -78100.554983 kJ/mol
# GULP energy per Si atom -5578.611070 kJ/mol
# Density = 2.081730 g / cm^3
# Si number density = 20.864793 Si / 1000 Ang^3
#
#
#
# Elastic Constant Matrix: (Units=GPa)
#
#
# Indices 1 2 3 4 5 6 
#
# 1 134.1393 25.6671 20.5614 0.0000 8.1796 0.0000
# 2 25.6671 88.0383 11.0860 0.0000 -6.4310 0.0000
# 3 20.5614 11.0860 49.3172 0.0000 -4.8081 0.0000
# 4 0.0000 0.0000 0.0000 -66.9945 0.0000 8.9040
# 5 8.1796 -6.4310 -4.8081 0.0000 32.3871 0.0000
# 6 0.0000 0.0000 0.0000 8.9040 0.0000 2.8269
#
#
#
# Elastic Compliance Matrix: (Units=1/GPa)
#
#
# Indices 1 2 3 4 5 6 
#
# 1 0.008606 -0.002313 -0.003373 0.000000 -0.003134 0.000000
# 2 -0.002313 0.012435 -0.001556 0.000000 0.002822 0.000000
# 3 -0.003373 -0.001556 0.022410 0.000000 0.003870 0.000000
# 4 0.000000 0.000000 0.000000 -0.010522 0.000000 0.033141
# 5 -0.003134 0.002822 0.003870 0.000000 0.032803 0.000000
# 6 0.000000 0.000000 0.000000 0.033141 0.000000 0.249357
#
#
# Mechanical properties :
#
#
# Convention : Reuss Voigt Hill
#
# Bulk Modulus (GPa) = 34.52241 42.90265 38.71253
# Shear Modulus (GPa) = 14.73927 7.92258 11.33092
#
# Velocity S-wave (km/s) = 2.66074 1.95073 2.33290
# Velocity P-wave (km/s) = 5.10108 5.06761 5.08437
#
# Compressibility (1/GPa) = 0.02896669
#
# Stress axis : x y z
#
# Youngs Moduli (GPa) = 116.20195 80.41735 44.62213
#
# Poissons Ratio (x) = 0.18601 0.15053
# Poissons Ratio (y) = 0.26878 0.06942
# Poissons Ratio (z) = 0.39200 0.12511
#
# Static dielectric constant tensor:
#      x y z
#    x 1.950000 0.000000 -0.180520 
#    y 0.000000 1.785800 0.000000 
#    z -0.180520 0.000000 1.923800 
# 
# From -- ./inp_files/20539.got.cif
#   From: 2010.05.17/outbox.cif.g08.bks.cpg/sg5_11_cif.got.tgz:20539.got - 2010.06.03 18:56:24.
