data_PCOD9129305
_publ_section_title
;
Structure prediction by ZEFSAII (Michael W. Deem and Ramdas Pophale) SiO2 
 PCOD9129305
Probable space group: C 2
;
_chemical_formula_sum "Si O2"
_cell_formula_units_Z 30
_cell_length_a 14.263140
_cell_length_b 8.648633
_cell_length_c 12.029776
_cell_angle_alpha 90.000000
_cell_angle_beta 65.737954
_cell_angle_gamma 90.000000
_cell_volume 1352.883875
_symmetry_space_group_name_H-M "C 2"
_symmetry_group_IT_number 5
_symmetry_cell_setting 'monoclinic'
loop_
_space_group_symop_operation_xyz
x,y,z
-x,y,-z
1/2+x,1/2+y,z
1/2-x,1/2+y,-z
loop_
_atom_site_type_symbol
_atom_site_label
_atom_site_fract_x
_atom_site_fract_y
_atom_site_fract_z
Si Si1 0.749715 0.033660 0.204556
Si Si2 0.482390 0.775703 0.218631
Si Si3 0.178469 0.207759 0.226812
Si Si4 0.267936 0.725527 0.414559
Si Si5 0.626316 0.508083 0.451610
Si Si6 0.919766 0.997522 0.956015
Si Si7 0.827330 0.678225 0.967366
Si Si8 0.500000 0.996208 0.000000
O O1 0.737914 0.112025 0.328224
O O2 0.751992 0.849954 0.223500
O O3 0.667563 0.087584 0.151415
O O4 0.850177 0.082969 0.084216
O O5 0.566857 0.788547 0.274255
O O6 0.369692 0.808203 0.318113
O O7 0.513391 0.602723 0.159944
O O8 0.494801 0.886878 0.108971
O O9 0.170149 0.061468 0.310149
O O10 0.217273 0.169504 0.083586
O O11 0.318107 0.632307 0.493187
O O12 0.173829 0.845464 0.471130
O O13 0.500000 0.509674 0.500000
O O14 0.855344 0.857145 0.934368
O O15 0.000000 0.915480 0.000000
O O16 0.901362 0.599799 0.021458
#
# Coordination Sequence:
#
# PCOD9129305 Si02
#       8
#     4   4   4   4   4   4   4   2
#     4  11  23  41  67 101 139 179 229 288 346 427
#     4  12  22  39  69  95 138 183 224 281 356 427
#     4  11  24  43  67 100 137 185 229 289 356 418
#     4  12  27  49  74 102 133 183 248 300 363 437
#     4  12  28  53  76 101 138 191 245 309 371 421
#     4  11  21  37  61  97 139 181 211 266 347 423
#     4  11  24  37  63 103 146 180 233 281 343 438
#     4  12  22  38  58 106 144 184 226 282 358 426
#
# _framework density 22.174852999999999
#
# number of rings (size 3 to 8) (size 9 to 14) (size 15 to 20)
#    0.000    0.533    6.667    1.600    1.867    0.000 
#    2.400    0.000    0.000    0.000    0.000    0.000 
#    0.000    0.000    0.000    0.000    0.000    0.000 
#
# Total GULP energy -83561.748776 kJ/mol
# GULP energy per Si atom -5570.783252 kJ/mol
# Density = 2.212438 g / cm^3
# Si number density = 22.174853 Si / 1000 Ang^3
#
#
#
# Elastic Constant Matrix: (Units=GPa)
#
#
# Indices 1 2 3 4 5 6 
#
# 1 101.8593 17.0594 23.0982 0.0000 7.6374 0.0000
# 2 17.0594 76.7011 24.4413 0.0000 4.4626 0.0000
# 3 23.0982 24.4413 55.5672 0.0000 7.1163 0.0000
# 4 0.0000 0.0000 0.0000 19.9972 0.0000 4.2655
# 5 7.6374 4.4626 7.1163 0.0000 26.9229 0.0000
# 6 0.0000 0.0000 0.0000 4.2655 0.0000 35.8376
#
#
#
# Elastic Compliance Matrix: (Units=1/GPa)
#
#
# Indices 1 2 3 4 5 6 
#
# 1 0.011020 -0.001114 -0.003844 0.000000 -0.001925 0.000000
# 2 -0.001114 0.015291 -0.006188 0.000000 -0.000583 0.000000
# 3 -0.003844 -0.006188 0.022817 0.000000 -0.003915 0.000000
# 4 0.000000 0.000000 0.000000 0.051310 0.000000 -0.006107
# 5 -0.001925 -0.000583 -0.003915 0.000000 0.038821 0.000000
# 6 0.000000 0.000000 0.000000 -0.006107 0.000000 0.028631
#
#
# Mechanical properties :
#
#
# Convention : Reuss Voigt Hill
#
# Bulk Modulus (GPa) = 37.26343 40.36948 38.81645
# Shear Modulus (GPa) = 25.10950 27.85346 26.48148
#
# Velocity S-wave (km/s) = 3.36868 3.54797 3.45949
# Velocity P-wave (km/s) = 5.65433 5.91851 5.78793
#
# Compressibility (1/GPa) = 0.02683596
#
# Stress axis : x y z
#
# Youngs Moduli (GPa) = 90.74284 65.39711 43.82611
#
# Poissons Ratio (x) = 0.07285 0.16848
# Poissons Ratio (y) = 0.10109 0.27120
# Poissons Ratio (z) = 0.34884 0.40469
#
# Static dielectric constant tensor:
#      x y z
#    x 1.967950 0.000000 0.021330 
#    y 0.000000 1.834730 0.000000 
#    z 0.021330 0.000000 1.799150 
# 
# From -- ./inp_files/41943.got.cif
#   From: 2010.05.17/outbox.cif.g08.bks.cpg/sg5_21_cif.got.tgz:41943.got - 2010.06.03 18:56:24.
