data_PCOD9129419
_publ_section_title
;
Structure prediction by ZEFSAII (Michael W. Deem and Ramdas Pophale) SiO2 
 PCOD9129419
Probable space group: C 2
;
_chemical_formula_sum "Si O2"
_cell_formula_units_Z 20
_cell_length_a 11.175409
_cell_length_b 8.863007
_cell_length_c 12.541628
_cell_angle_alpha 90.000000
_cell_angle_beta 142.575783
_cell_angle_gamma 90.000000
_cell_volume 754.911306
_symmetry_space_group_name_H-M "C 2"
_symmetry_group_IT_number 5
_symmetry_cell_setting 'monoclinic'
loop_
_space_group_symop_operation_xyz
x,y,z
-x,y,-z
1/2+x,1/2+y,z
1/2-x,1/2+y,-z
loop_
_atom_site_type_symbol
_atom_site_label
_atom_site_fract_x
_atom_site_fract_y
_atom_site_fract_z
Si Si1 0.002996 0.214970 0.381075
Si Si2 0.787781 0.710589 0.405312
Si Si3 0.245779 0.734918 0.997843
Si Si4 0.999365 0.966135 0.875584
Si Si5 0.293785 0.941045 0.825745
O O1 0.219640 0.220702 0.480243
O O2 0.000000 0.274432 0.500000
O O3 0.865739 0.286644 0.190013
O O4 0.896737 0.049205 0.313492
O O5 0.692430 0.852846 0.276007
O O6 0.000000 0.706795 0.500000
O O7 0.817129 0.054884 0.700433
O O8 0.282571 0.810826 0.908422
O O9 0.188862 0.062672 0.967979
O O10 0.027781 0.793141 0.866806
O O11 0.000000 0.984393 0.000000
O O12 0.500000 0.022066 0.000000
#
# Coordination Sequence:
#
# PCOD9129419 Si02
#       5
#     4   4   4   4   4
#     4  11  26  50  75 121 157 198 259 320 395 458
#     4  11  23  45  77 109 155 206 251 312 389 456
#     4  11  21  45  80 106 149 196 261 318 370 459
#     4  11  22  45  72 111 142 194 264 317 373 454
#     4  12  21  46  86 108 147 208 261 318 382 457
#
# _framework density 26.493179000000001
#
# number of rings (size 3 to 8) (size 9 to 14) (size 15 to 20)
#    0.000    0.800   10.000    0.600    0.000    0.800 
#   10.800    1.000    0.000    0.000    0.000    5.600 
#    0.000    0.000    0.000    0.000    0.000    0.000 
#
# Total GULP energy -55806.540886 kJ/mol
# GULP energy per Si atom -5580.654089 kJ/mol
# Density = 2.643288 g / cm^3
# Si number density = 26.493179 Si / 1000 Ang^3
#
#
#
# Elastic Constant Matrix: (Units=GPa)
#
#
# Indices 1 2 3 4 5 6 
#
# 1 206.9548 49.6332 76.1696 0.0000 -27.2526 0.0000
# 2 49.6332 84.9471 39.4401 0.0000 9.5154 0.0000
# 3 76.1696 39.4401 118.6721 0.0001 -11.9312 0.0000
# 4 0.0000 0.0000 0.0001 26.3063 0.0001 5.8459
# 5 -27.2526 9.5154 -11.9312 0.0001 55.4849 0.0000
# 6 0.0000 0.0000 0.0000 5.8459 0.0000 46.6296
#
#
#
# Elastic Compliance Matrix: (Units=1/GPa)
#
#
# Indices 1 2 3 4 5 6 
#
# 1 0.007217 -0.003075 -0.003272 0.000000 0.003369 0.000000
# 2 -0.003075 0.015911 -0.003823 0.000000 -0.005061 0.000000
# 3 -0.003272 -0.003823 0.011960 0.000000 0.001620 0.000000
# 4 0.000000 0.000000 0.000000 0.039103 0.000000 -0.004902
# 5 0.003369 -0.005061 0.001620 0.000000 0.020894 0.000000
# 6 0.000000 0.000000 0.000000 -0.004902 0.000000 0.022060
#
#
# Mechanical properties :
#
#
# Convention : Reuss Voigt Hill
#
# Bulk Modulus (GPa) = 67.80414 82.33996 75.07205
# Shear Modulus (GPa) = 35.11216 42.03956 38.57586
#
# Velocity S-wave (km/s) = 3.64446 3.98780 3.81999
# Velocity P-wave (km/s) = 6.58468 7.23537 6.91768
#
# Compressibility (1/GPa) = 0.01474836
#
# Stress axis : x y z
#
# Youngs Moduli (GPa) = 138.55710 62.85082 83.61281
#
# Poissons Ratio (x) = 0.19328 0.27355
# Poissons Ratio (y) = 0.42610 0.31964
# Poissons Ratio (z) = 0.45331 0.24027
#
# Static dielectric constant tensor:
#      x y z
#    x 2.203240 0.000000 0.073960 
#    y 0.000000 2.036770 0.000000 
#    z 0.073960 0.000000 2.103510 
# 
# From -- ./inp_files/35515.got.cif
#   From: 2010.05.17/outbox.cif.g08.bks.cpg/sg5_18_cif.got.tgz:35515.got - 2010.06.03 18:56:24.
