data_PCOD9129445
_publ_section_title
;
Structure prediction by ZEFSAII (Michael W. Deem and Ramdas Pophale) SiO2 
 PCOD9129445
Probable space group: C 2
;
_chemical_formula_sum "Si O2"
_cell_formula_units_Z 22
_cell_length_a 17.525046
_cell_length_b 13.304481
_cell_length_c 4.958214
_cell_angle_alpha 90.000000
_cell_angle_beta 53.577431
_cell_angle_gamma 90.000000
_cell_volume 930.239500
_symmetry_space_group_name_H-M "C 2"
_symmetry_group_IT_number 5
_symmetry_cell_setting 'monoclinic'
loop_
_space_group_symop_operation_xyz
x,y,z
-x,y,-z
1/2+x,1/2+y,z
1/2-x,1/2+y,-z
loop_
_atom_site_type_symbol
_atom_site_label
_atom_site_fract_x
_atom_site_fract_y
_atom_site_fract_z
Si Si1 0.736235 0.596220 0.214076
Si Si2 0.000000 0.321132 0.000000
Si Si3 0.640065 0.910736 0.106059
Si Si4 0.581957 0.656569 0.134821
Si Si5 0.237107 0.314664 0.401616
Si Si6 0.596859 0.453788 0.866813
O O1 0.824475 0.525225 0.955619
O O2 0.680994 0.641444 0.073502
O O3 0.761591 0.697375 0.322083
O O4 0.660973 0.522756 0.526420
O O5 0.079964 0.230889 0.884017
O O6 0.958226 0.394155 0.852455
O O7 0.713800 0.853946 0.750831
O O8 0.656179 0.857510 0.362181
O O9 0.500000 0.700267 0.500000
O O10 0.553022 0.544217 0.132120
O O11 0.330062 0.381729 0.135232
O O12 0.500000 0.395461 0.000000
#
# Coordination Sequence:
#
# PCOD9129445 Si02
#       6
#     4   2   4   4   4   4
#     4  11  23  41  62  90 134 170 211 265 340 382
#     4  12  24  38  60 100 128 166 228 274 324 376
#     4  11  25  40  65  93 131 171 217 268 325 394
#     4  12  19  33  65  92 119 160 212 276 317 373
#     4  11  24  42  63  95 130 172 212 269 334 384
#     4  11  22  38  62  98 124 163 221 271 315 390
#
# _framework density 23.649823999999999
#
# number of rings (size 3 to 8) (size 9 to 14) (size 15 to 20)
#    0.000    0.727    6.364    2.182    0.000    0.000 
#    1.636    0.000    0.000    0.000    0.000    0.000 
#    0.000    0.000    0.000    0.000    0.000    0.000 
#
# Total GULP energy -61238.748755 kJ/mol
# GULP energy per Si atom -5567.158978 kJ/mol
# Density = 2.359600 g / cm^3
# Si number density = 23.649824 Si / 1000 Ang^3
#
#
#
# Elastic Constant Matrix: (Units=GPa)
#
#
# Indices 1 2 3 4 5 6 
#
# 1 162.2345 71.5532 22.2841 0.0000 5.6349 0.0000
# 2 71.5532 151.4282 33.1761 0.0000 1.8017 0.0000
# 3 22.2841 33.1761 88.2807 0.0000 26.1946 0.0000
# 4 0.0000 0.0000 0.0000 8.4888 0.0000 25.9479
# 5 5.6349 1.8017 26.1946 0.0000 33.7310 0.0000
# 6 0.0000 0.0000 0.0000 25.9479 0.0000 12.3252
#
#
#
# Elastic Compliance Matrix: (Units=1/GPa)
#
#
# Indices 1 2 3 4 5 6 
#
# 1 0.007837 -0.003611 -0.000377 0.000000 -0.000824 0.000000
# 2 -0.003611 0.008991 -0.003254 0.000000 0.002650 0.000000
# 3 -0.000377 -0.003254 0.016340 0.000000 -0.012453 0.000000
# 4 0.000000 0.000000 0.000000 -0.021674 0.000000 0.045629
# 5 -0.000824 0.002650 -0.012453 0.000000 0.039313 0.000000
# 6 0.000000 0.000000 0.000000 0.045629 0.000000 -0.014928
#
#
# Mechanical properties :
#
#
# Convention : Reuss Voigt Hill
#
# Bulk Modulus (GPa) = 53.51662 72.88559 63.20110
# Shear Modulus (GPa) = 88.35307 29.23766 58.79537
#
# Velocity S-wave (km/s) = 6.11882 3.51988 4.99147
# Velocity P-wave (km/s) = 8.52044 6.88513 7.74606
#
# Compressibility (1/GPa) = 0.01868579
#
# Stress axis : x y z
#
# Youngs Moduli (GPa) = 127.60347 111.21925 61.19806
#
# Poissons Ratio (x) = 0.40158 0.02307
# Poissons Ratio (y) = 0.46074 0.19912
# Poissons Ratio (z) = 0.04809 0.36188
#
# Static dielectric constant tensor:
#      x y z
#    x 2.110820 0.000000 -0.011750 
#    y 0.000000 1.894370 0.000000 
#    z -0.011750 0.000000 2.280170 
# 
# From -- ./inp_files/6729.got.cif
#   From: 2010.05.17/outbox.cif.g08.bks.cpg/sg5_4_cif.got.tgz:6729.got - 2010.06.03 18:56:24.
