data_PCOD9129361
_publ_section_title
;
Structure prediction by ZEFSAII (Michael W. Deem and Ramdas Pophale) SiO2 
 PCOD9129361
Probable space group: C 2
;
_chemical_formula_sum "Si O2"
_cell_formula_units_Z 30
_cell_length_a 11.960107
_cell_length_b 16.741303
_cell_length_c 11.177403
_cell_angle_alpha 90.000000
_cell_angle_beta 38.897765
_cell_angle_gamma 90.000000
_cell_volume 1405.330044
_symmetry_space_group_name_H-M "C 2"
_symmetry_group_IT_number 5
_symmetry_cell_setting 'monoclinic'
loop_
_space_group_symop_operation_xyz
x,y,z
-x,y,-z
1/2+x,1/2+y,z
1/2-x,1/2+y,-z
loop_
_atom_site_type_symbol
_atom_site_label
_atom_site_fract_x
_atom_site_fract_y
_atom_site_fract_z
Si Si1 0.223598 0.192500 0.976260
Si Si2 0.452052 0.418165 0.760233
Si Si3 0.000000 0.322482 0.500000
Si Si4 0.256277 0.787071 0.493536
Si Si5 0.057633 0.638812 0.577327
Si Si6 0.685969 0.326158 0.915038
Si Si7 0.572995 0.567090 0.802830
Si Si8 0.691734 0.839887 0.817539
O O1 0.373079 0.128070 0.805441
O O2 0.215198 0.262151 0.882776
O O3 0.272466 0.239934 0.057639
O O4 0.034209 0.148633 0.135507
O O5 0.617630 0.357913 0.636155
O O6 0.510965 0.504296 0.754376
O O7 0.350260 0.400018 0.721431
O O8 0.317421 0.387219 0.973311
O O9 0.908577 0.279434 0.464463
O O10 0.831905 0.361678 0.703082
O O11 0.153753 0.704434 0.576685
O O12 0.315218 0.809763 0.311754
O O13 0.213283 0.578635 0.399575
O O14 0.000000 0.678428 0.500000
O O15 0.500000 0.321239 0.000000
O O16 0.500000 0.545839 0.000000
O O17 0.500000 0.878336 0.000000
#
# Coordination Sequence:
#
# PCOD9129361 Si02
#       8
#     4   4   2   4   4   4   4   4
#     4  11  22  40  72  99 131 172 227 287 336 406
#     4  11  24  43  65  97 140 181 219 287 352 407
#     4  12  24  36  64 108 128 178 232 272 350 404
#     4  12  21  41  72  96 134 173 231 292 328 405
#     4  12  20  41  70 103 127 177 234 281 337 395
#     4  11  21  42  64  96 136 176 228 280 338 402
#     4  12  25  41  63  99 144 176 222 285 347 408
#     4  11  21  41  73 104 127 174 238 289 339 409
#
# _framework density 21.347297999999999
#
# number of rings (size 3 to 8) (size 9 to 14) (size 15 to 20)
#    0.000    0.533    6.667    4.400    0.000    0.000 
#    6.000    0.667   14.667    0.000    0.000    0.000 
#    0.000    0.000    0.000    0.000    0.000    0.000 
#
# Total GULP energy -83577.304060 kJ/mol
# GULP energy per Si atom -5571.820271 kJ/mol
# Density = 2.129871 g / cm^3
# Si number density = 21.347298 Si / 1000 Ang^3
#
#
#
# Elastic Constant Matrix: (Units=GPa)
#
#
# Indices 1 2 3 4 5 6 
#
# 1 130.5595 8.3492 11.4233 0.0002 -2.2654 -0.0001
# 2 8.3492 39.4546 3.5468 0.0008 2.9223 -0.0004
# 3 11.4233 3.5468 130.5006 0.0015 -6.5522 -0.0005
# 4 0.0002 0.0008 0.0015 12.3860 -0.0014 -0.3379
# 5 -2.2654 2.9223 -6.5522 -0.0014 30.7824 0.0003
# 6 -0.0001 -0.0004 -0.0005 -0.3379 0.0003 16.2446
#
#
#
# Elastic Compliance Matrix: (Units=1/GPa)
#
#
# Indices 1 2 3 4 5 6 
#
# 1 0.007828 -0.001646 -0.000610 0.000000 0.000603 0.000000
# 2 -0.001646 0.025959 -0.000699 -0.000002 -0.002734 0.000001
# 3 -0.000610 -0.000699 0.007820 -0.000001 0.001686 0.000000
# 4 0.000000 -0.000002 -0.000001 0.080782 0.000004 0.001681
# 5 0.000603 -0.002734 0.001686 0.000004 0.033149 -0.000001
# 6 0.000000 0.000001 0.000000 0.001681 -0.000001 0.061594
#
#
# Mechanical properties :
#
#
# Convention : Reuss Voigt Hill
#
# Bulk Modulus (GPa) = 28.01360 38.57259 33.29310
# Shear Modulus (GPa) = 21.28182 30.36229 25.82206
#
# Velocity S-wave (km/s) = 3.16085 3.77543 3.48173
# Velocity P-wave (km/s) = 5.14515 6.09208 5.63853
#
# Compressibility (1/GPa) = 0.03569695
#
# Stress axis : x y z
#
# Youngs Moduli (GPa) = 127.73873 38.52175 127.87954
#
# Poissons Ratio (x) = 0.06342 0.07804
# Poissons Ratio (y) = 0.21031 0.08935
# Poissons Ratio (z) = 0.07795 0.02692
#
# Static dielectric constant tensor:
#      x y z
#    x 1.815780 0.000000 -0.023410 
#    y 0.000000 1.763370 0.000000 
#    z -0.023410 0.000000 1.929340 
# 
# From -- ./inp_files/40460.got.cif
#   From: 2010.05.17/outbox.cif.g08.bks.cpg/sg5_21_cif.got.tgz:40460.got - 2010.06.03 18:56:24.
