data_PCOD9129478
_publ_section_title
;
Structure prediction by ZEFSAII (Michael W. Deem and Ramdas Pophale) SiO2 
 PCOD9129478
Probable space group: C 2
;
_chemical_formula_sum "Si O2"
_cell_formula_units_Z 30
_cell_length_a 9.498173
_cell_length_b 15.308414
_cell_length_c 10.570546
_cell_angle_alpha 90.000000
_cell_angle_beta 113.384259
_cell_angle_gamma 90.000000
_cell_volume 1410.736456
_symmetry_space_group_name_H-M "C 2"
_symmetry_group_IT_number 5
_symmetry_cell_setting 'monoclinic'
loop_
_space_group_symop_operation_xyz
x,y,z
-x,y,-z
1/2+x,1/2+y,z
1/2-x,1/2+y,-z
loop_
_atom_site_type_symbol
_atom_site_label
_atom_site_fract_x
_atom_site_fract_y
_atom_site_fract_z
Si Si1 0.166268 0.049150 0.027639
Si Si2 0.263022 0.697951 0.739533
Si Si3 0.093915 0.053904 0.720343
Si Si4 0.551086 0.732590 0.653049
Si Si5 0.138501 0.401941 0.790476
Si Si6 0.000000 0.599712 0.500000
Si Si7 0.777175 0.388458 0.696016
Si Si8 0.757083 0.971796 0.564263
O O1 0.195754 0.130784 0.132897
O O2 0.281399 0.967855 0.083351
O O3 0.145358 0.081926 0.878379
O O4 0.000000 0.010353 0.000000
O O5 0.402926 0.707367 0.687096
O O6 0.237059 0.800424 0.756980
O O7 0.109624 0.658218 0.624992
O O8 0.123877 0.139133 0.647111
O O9 0.918584 0.020384 0.642632
O O10 0.194435 0.971403 0.722630
O O11 0.500000 0.773366 0.500000
O O12 0.658504 0.797878 0.771414
O O13 0.193461 0.441920 0.676676
O O14 0.958860 0.401860 0.757130
O O15 0.123114 0.538140 0.471301
O O16 0.726377 0.393135 0.529753
#
# Coordination Sequence:
#
# PCOD9129478 Si02
#       8
#     4   4   4   4   4   2   4   4
#     4  12  22  47  69  88 130 183 235 251 324 412
#     4  11  24  41  69  97 129 183 215 276 326 408
#     4  12  26  41  66  96 135 181 216 279 329 387
#     4  11  22  40  66 101 130 166 219 277 338 382
#     4  11  22  41  70  94 126 182 217 270 330 406
#     4  12  20  38  66 100 124 180 224 256 326 404
#     4  11  25  42  65 105 137 161 225 290 337 376
#     4  12  20  42  66  98 136 178 214 270 339 399
#
# _framework density 21.265488999999999
#
# number of rings (size 3 to 8) (size 9 to 14) (size 15 to 20)
#    0.000    0.533    6.667    2.800    1.867    1.600 
#    0.000    0.000    2.933    0.000    0.000    0.000 
#    0.000    0.000    0.000    0.000    0.000    0.000 
#
# Total GULP energy -83651.206615 kJ/mol
# GULP energy per Si atom -5576.747108 kJ/mol
# Density = 2.121709 g / cm^3
# Si number density = 21.265489 Si / 1000 Ang^3
#
#
#
# Elastic Constant Matrix: (Units=GPa)
#
#
# Indices 1 2 3 4 5 6 
#
# 1 54.7921 41.3065 17.0467 0.0000 7.7372 0.0000
# 2 41.3065 145.1732 19.8171 0.0000 24.8952 0.0000
# 3 17.0467 19.8171 89.3041 0.0000 15.8374 0.0000
# 4 0.0000 0.0000 0.0000 14.6189 0.0000 -2.2271
# 5 7.7372 24.8952 15.8374 0.0000 22.9749 0.0000
# 6 0.0000 0.0000 0.0000 -2.2271 0.0000 35.3821
#
#
#
# Elastic Compliance Matrix: (Units=1/GPa)
#
#
# Indices 1 2 3 4 5 6 
#
# 1 0.024109 -0.006639 -0.003378 0.000000 0.001403 0.000000
# 2 -0.006639 0.010295 0.000643 0.000000 -0.009363 0.000000
# 3 -0.003378 0.000643 0.013240 0.000000 -0.008686 0.000000
# 4 0.000000 0.000000 0.000000 0.069067 0.000000 0.004347
# 5 0.001403 -0.009363 -0.008686 0.000000 0.059187 0.000000
# 6 0.000000 0.000000 0.000000 0.004347 0.000000 0.028536
#
#
# Mechanical properties :
#
#
# Convention : Reuss Voigt Hill
#
# Bulk Modulus (GPa) = 34.60577 49.51222 42.05900
# Shear Modulus (GPa) = 21.47639 28.66846 25.07242
#
# Velocity S-wave (km/s) = 3.18137 3.67566 3.43741
# Velocity P-wave (km/s) = 5.45924 6.43020 5.96451
#
# Compressibility (1/GPa) = 0.02889691
#
# Stress axis : x y z
#
# Youngs Moduli (GPa) = 41.47885 97.13166 75.52793
#
# Poissons Ratio (x) = 0.64489 0.25510
# Poissons Ratio (y) = 0.27539 -0.04858
# Poissons Ratio (z) = 0.14010 -0.06248
#
# Static dielectric constant tensor:
#      x y z
#    x 1.774120 0.000000 -0.038040 
#    y 0.000000 1.854060 0.000000 
#    z -0.038040 0.000000 1.829570 
# 
# From -- ./inp_files/39901.got.cif
#   From: 2010.05.17/outbox.cif.g08.bks.cpg/sg5_20_cif.got.tgz:39901.got - 2010.06.03 18:56:24.
