data_PCOD9129432
_publ_section_title
;
Structure prediction by ZEFSAII (Michael W. Deem and Ramdas Pophale) SiO2 
 PCOD9129432
Probable space group: C 2
;
_chemical_formula_sum "Si O2"
_cell_formula_units_Z 26
_cell_length_a 26.888806
_cell_length_b 6.437674
_cell_length_c 23.266800
_cell_angle_alpha 90.000000
_cell_angle_beta 159.255361
_cell_angle_gamma 90.000000
_cell_volume 1426.560026
_symmetry_space_group_name_H-M "C 2"
_symmetry_group_IT_number 5
_symmetry_cell_setting 'monoclinic'
loop_
_space_group_symop_operation_xyz
x,y,z
-x,y,-z
1/2+x,1/2+y,z
1/2-x,1/2+y,-z
loop_
_atom_site_type_symbol
_atom_site_label
_atom_site_fract_x
_atom_site_fract_y
_atom_site_fract_z
Si Si1 0.000000 0.393770 0.500000
Si Si2 0.688571 0.635601 0.513839
Si Si3 0.669287 0.274702 0.726875
Si Si4 0.684694 0.641117 0.009338
Si Si5 0.437139 0.945655 0.217704
Si Si6 0.114259 0.013098 0.555852
Si Si7 0.936852 0.831298 0.716669
O O1 0.885220 0.545927 0.348390
O O2 0.926313 0.242037 0.465882
O O3 0.562975 0.804959 0.377978
O O4 0.689161 0.524680 0.576000
O O5 0.832684 0.745344 0.652331
O O6 0.650862 0.472635 0.422826
O O7 0.792072 0.257764 0.905518
O O8 0.694878 0.397797 0.695075
O O9 0.534486 0.391234 0.609282
O O10 0.829952 0.528118 0.149601
O O11 0.648768 0.803099 0.920016
O O12 0.560634 0.473443 0.875568
O O13 0.499045 0.140473 0.249897
#
# Coordination Sequence:
#
# PCOD9129432 Si02
#       7
#     2   4   4   4   4   4   4
#     4   8  16  34  56  88 108 156 194 240 294 334
#     4  11  22  39  59  87 118 159 199 240 298 358
#     4   9  19  35  54  91 119 147 199 251 288 347
#     4  11  22  36  59  90 123 153 193 247 304 345
#     4  11  22  36  58  89 120 158 191 246 300 353
#     4   9  19  33  59  85 117 156 197 243 293 343
#     4  11  23  38  57  89 120 155 195 244 296 357
#
# _framework density 18.225659
#
# number of rings (size 3 to 8) (size 9 to 14) (size 15 to 20)
#    0.000    2.154    3.077    1.846    2.154    3.692 
#    0.000    0.000    0.000    5.538    0.000    2.154 
#    0.000    0.000    0.000    0.000    0.000    0.000 
#
# Total GULP energy -72574.210037 kJ/mol
# GULP energy per Si atom -5582.631541 kJ/mol
# Density = 1.818418 g / cm^3
# Si number density = 18.225659 Si / 1000 Ang^3
#
#
#
# Elastic Constant Matrix: (Units=GPa)
#
#
# Indices 1 2 3 4 5 6 
#
# 1 125.8066 32.5521 51.0425 0.0000 -3.6304 0.0000
# 2 32.5521 88.3835 20.4247 0.0001 1.3842 0.0000
# 3 51.0425 20.4247 49.6422 0.0000 -0.7159 0.0000
# 4 0.0000 0.0001 0.0000 14.8644 0.0000 6.8244
# 5 -3.6304 1.3842 -0.7159 0.0000 25.2781 0.0000
# 6 0.0000 0.0000 0.0000 6.8244 0.0000 16.5405
#
#
#
# Elastic Compliance Matrix: (Units=1/GPa)
#
#
# Indices 1 2 3 4 5 6 
#
# 1 0.014032 -0.002063 -0.013554 0.000000 0.001744 0.000000
# 2 -0.002063 0.012824 -0.003171 0.000000 -0.001088 0.000000
# 3 -0.013554 -0.003171 0.035373 0.000000 -0.000771 0.000000
# 4 0.000000 0.000000 0.000000 0.082996 0.000000 -0.034243
# 5 0.001744 -0.001088 -0.000771 0.000000 0.039848 0.000000
# 6 0.000000 0.000000 0.000000 -0.034243 0.000000 0.074586
#
#
# Mechanical properties :
#
#
# Convention : Reuss Voigt Hill
#
# Bulk Modulus (GPa) = 40.56058 52.43011 46.49534
# Shear Modulus (GPa) = 16.36913 21.99081 19.17997
#
# Velocity S-wave (km/s) = 3.00014 3.47736 3.24753
# Velocity P-wave (km/s) = 5.85697 6.70465 6.29510
#
# Compressibility (1/GPa) = 0.02465448
#
# Stress axis : x y z
#
# Youngs Moduli (GPa) = 71.26618 77.97908 28.26977
#
# Poissons Ratio (x) = 0.16089 0.38316
# Poissons Ratio (y) = 0.14704 0.08963
# Poissons Ratio (z) = 0.96592 0.24724
#
# Static dielectric constant tensor:
#      x y z
#    x 1.619580 0.000000 -0.016720 
#    y 0.000000 1.635750 0.000000 
#    z -0.016720 0.000000 1.616910 
# 
# From -- ./inp_files/69883.got.cif
#   From: 2010.05.17/outbox.cif.g08.bks.cpg/sg5_35_cif.got.tgz:69883.got - 2010.06.03 18:56:24.
