data_PCOD9129352
_publ_section_title
;
Structure prediction by ZEFSAII (Michael W. Deem and Ramdas Pophale) SiO2 
 PCOD9129352
Probable space group: C 2
;
_chemical_formula_sum "Si O2"
_cell_formula_units_Z 24
_cell_length_a 15.195093
_cell_length_b 16.850751
_cell_length_c 15.814439
_cell_angle_alpha 90.000000
_cell_angle_beta 161.507152
_cell_angle_gamma 90.000000
_cell_volume 1284.371930
_symmetry_space_group_name_H-M "C 2"
_symmetry_group_IT_number 5
_symmetry_cell_setting 'monoclinic'
loop_
_space_group_symop_operation_xyz
x,y,z
-x,y,-z
1/2+x,1/2+y,z
1/2-x,1/2+y,-z
loop_
_atom_site_type_symbol
_atom_site_label
_atom_site_fract_x
_atom_site_fract_y
_atom_site_fract_z
Si Si1 0.378131 0.232260 0.069223
Si Si2 0.717171 0.458700 0.446918
Si Si3 0.623102 0.625999 0.440935
Si Si4 0.849676 0.373896 0.039479
Si Si5 0.192748 0.867930 0.251905
Si Si6 0.000000 0.042741 0.500000
Si Si7 0.500000 0.929947 0.000000
O O1 0.626625 0.187389 0.342480
O O2 0.527651 0.292605 0.140254
O O3 0.193047 0.286955 0.961717
O O4 0.170944 0.169009 0.839262
O O5 0.665360 0.550812 0.418315
O O6 0.731082 0.431495 0.362220
O O7 0.982784 0.427222 0.740350
O O8 0.455481 0.411145 0.245764
O O9 0.631831 0.594111 0.545096
O O10 0.991557 0.379532 0.077942
O O11 0.500000 0.845316 0.500000
O O12 0.000000 0.898309 0.000000
O O13 0.234848 0.987201 0.753978
#
# Coordination Sequence:
#
# PCOD9129352 Si02
#       7
#     4   4   4   4   4   2   2
#     4  11  25  38  60  90 128 157 190 247 312 359
#     4  11  22  41  63  85 122 163 201 243 296 357
#     4  12  23  40  60  91 128 156 191 246 311 366
#     4  11  21  41  61  90 119 162 203 240 295 358
#     4  11  23  41  63  90 116 159 210 249 289 354
#     4  12  24  36  60  98 122 148 194 252 312 352
#     4  12  20  40  66  90 116 152 212 250 278 362
#
# _framework density 18.686176
#
# number of rings (size 3 to 8) (size 9 to 14) (size 15 to 20)
#    0.000    0.667    3.333    7.000    3.500    0.000 
#    0.000    0.000    5.500    0.000    0.000    0.000 
#    0.000    0.000    0.000    0.000    0.000    0.000 
#
# Total GULP energy -67075.014728 kJ/mol
# GULP energy per Si atom -5589.584561 kJ/mol
# Density = 1.864365 g / cm^3
# Si number density = 18.686176 Si / 1000 Ang^3
#
#
#
# Elastic Constant Matrix: (Units=GPa)
#
#
# Indices 1 2 3 4 5 6 
#
# 1 77.4045 49.7784 1.7528 0.0003 -8.7497 0.0174
# 2 49.7784 86.8489 16.5429 0.0064 -3.9635 0.0085
# 3 1.7528 16.5429 65.3176 -0.0074 3.0933 0.0247
# 4 0.0003 0.0064 -0.0074 27.6477 -0.0058 -0.1964
# 5 -8.7497 -3.9635 3.0933 -0.0058 21.8772 0.0052
# 6 0.0174 0.0085 0.0247 -0.1964 0.0052 17.4665
#
#
#
# Elastic Compliance Matrix: (Units=1/GPa)
#
#
# Indices 1 2 3 4 5 6 
#
# 1 0.021629 -0.012562 0.002315 0.000004 0.006047 -0.000020
# 2 -0.012562 0.019547 -0.004574 -0.000006 -0.000836 0.000010
# 3 0.002315 -0.004574 0.016512 0.000005 -0.002238 -0.000023
# 4 0.000004 -0.000006 0.000005 0.036172 0.000009 0.000407
# 5 0.006047 -0.000836 -0.002238 0.000009 0.048293 -0.000017
# 6 -0.000020 0.000010 -0.000023 0.000407 -0.000017 0.057257
#
#
# Mechanical properties :
#
#
# Convention : Reuss Voigt Hill
#
# Bulk Modulus (GPa) = 35.65563 40.63546 38.14554
# Shear Modulus (GPa) = 20.97305 24.16473 22.56889
#
# Velocity S-wave (km/s) = 3.35383 3.59999 3.47909
# Velocity P-wave (km/s) = 5.84126 6.25087 6.04953
#
# Compressibility (1/GPa) = 0.02804606
#
# Stress axis : x y z
#
# Youngs Moduli (GPa) = 46.23505 51.15827 60.56155
#
# Poissons Ratio (x) = 0.64263 -0.14018
# Poissons Ratio (y) = 0.58079 0.27701
# Poissons Ratio (z) = -0.10702 0.23400
#
# Static dielectric constant tensor:
#      x y z
#    x 1.662350 0.000030 -0.014060 
#    y 0.000030 1.644640 -0.000020 
#    z -0.014060 -0.000020 1.634880 
# 
# From -- ./inp_files/6772.got.cif
#   From: 2010.05.17/outbox.cif.g08.bks.cpg/sg5_4_cif.got.tgz:6772.got - 2010.06.03 18:56:24.
