data_PCOD9129965
_publ_section_title
;
Structure prediction by ZEFSAII (Michael W. Deem and Ramdas Pophale) SiO2 
 PCOD9129965
Probable space group: C 2
;
_chemical_formula_sum "Si O2"
_cell_formula_units_Z 22
_cell_length_a 17.000573
_cell_length_b 10.984139
_cell_length_c 4.918910
_cell_angle_alpha 90.000000
_cell_angle_beta 84.063381
_cell_angle_gamma 90.000000
_cell_volume 913.614598
_symmetry_space_group_name_H-M "C 2"
_symmetry_group_IT_number 5
_symmetry_cell_setting 'monoclinic'
loop_
_space_group_symop_operation_xyz
x,y,z
-x,y,-z
1/2+x,1/2+y,z
1/2-x,1/2+y,-z
loop_
_atom_site_type_symbol
_atom_site_label
_atom_site_fract_x
_atom_site_fract_y
_atom_site_fract_z
Si Si1 0.653490 0.599320 0.700102
Si Si2 0.886598 0.880035 0.907662
Si Si3 0.500000 0.547133 0.500000
Si Si4 0.550333 0.126676 0.216809
Si Si5 0.209485 0.334778 0.952606
Si Si6 0.188364 0.485532 0.477575
O O1 0.571026 0.631301 0.586989
O O2 0.676830 0.700921 0.910215
O O3 0.734637 0.571682 0.511592
O O4 0.631059 0.469164 0.837544
O O5 0.918645 0.746431 0.949694
O O6 0.799863 0.852297 0.816302
O O7 0.950428 0.956915 0.714091
O O8 0.500000 0.164363 0.500000
O O9 0.622164 0.056823 0.333887
O O10 0.500000 0.059558 0.000000
O O11 0.163970 0.429765 0.773841
O O12 0.207176 0.373519 0.266166
#
# Coordination Sequence:
#
# PCOD9129965 Si02
#       6
#     4   4   2   4   4   4
#     4  11  25  44  71 103 142 187 239 295 358 422
#     4  11  24  43  71 105 139 181 240 297 352 413
#     4  12  22  44  68 106 140 176 246 286 354 410
#     4  12  25  45  72 104 142 184 240 299 353 422
#     4  11  25  46  73 100 142 189 235 291 357 429
#     4  11  25  47  70 103 140 190 238 288 359 432
#
# _framework density 24.080175000000001
#
# number of rings (size 3 to 8) (size 9 to 14) (size 15 to 20)
#    0.000    0.727    4.545    2.727    2.545    0.000 
#    4.909    0.000    0.000    0.000    0.000    0.000 
#    0.000    0.000    0.000    0.000    0.000    0.000 
#
# Total GULP energy -61446.653537 kJ/mol
# GULP energy per Si atom -5586.059412 kJ/mol
# Density = 2.402537 g / cm^3
# Si number density = 24.080175 Si / 1000 Ang^3
#
#
#
# Elastic Constant Matrix: (Units=GPa)
#
#
# Indices 1 2 3 4 5 6 
#
# 1 155.3242 31.3943 16.0721 0.0000 26.3758 0.0000
# 2 31.3943 43.7677 -1.5901 0.0000 5.0869 0.0000
# 3 16.0721 -1.5901 67.4943 0.0000 12.3630 0.0000
# 4 0.0000 0.0000 0.0000 29.8058 0.0000 10.5151
# 5 26.3758 5.0869 12.3630 0.0000 36.0008 0.0000
# 6 0.0000 0.0000 0.0000 10.5151 0.0000 -8.5796
#
#
#
# Elastic Compliance Matrix: (Units=1/GPa)
#
#
# Indices 1 2 3 4 5 6 
#
# 1 0.008555 -0.005595 -0.001244 0.000000 -0.005050 0.000000
# 2 -0.005595 0.026984 0.002044 0.000000 -0.000416 0.000000
# 3 -0.001244 0.002044 0.016056 0.000000 -0.004891 0.000000
# 4 0.000000 0.000000 0.000000 0.023423 0.000000 0.028707
# 5 -0.005050 -0.000416 -0.004891 0.000000 0.033216 0.000000
# 6 0.000000 0.000000 0.000000 0.028707 0.000000 -0.081372
#
#
# Mechanical properties :
#
#
# Convention : Reuss Voigt Hill
#
# Bulk Modulus (GPa) = 23.80618 39.81540 31.81079
# Shear Modulus (GPa) = 99.10226 26.15941 62.63084
#
# Velocity S-wave (km/s) = 6.42219 3.29955 5.10546
# Velocity P-wave (km/s) = 8.05607 5.57552 6.92773
#
# Compressibility (1/GPa) = 0.04200590
#
# Stress axis : x y z
#
# Youngs Moduli (GPa) = 116.88654 37.05946 62.28044
#
# Poissons Ratio (x) = 0.20734 0.07748
# Poissons Ratio (y) = 0.65397 -0.12731
# Poissons Ratio (z) = 0.14541 -0.07576
#
# Static dielectric constant tensor:
#      x y z
#    x 2.037220 0.000000 0.043670 
#    y 0.000000 1.910550 0.000000 
#    z 0.043670 0.000000 1.969570 
# 
# From -- ./inp_files/6591.got.cif
#   From: 2010.05.17/outbox.cif.g08.bks.cpg/sg5_4_cif.got.tgz:6591.got - 2010.06.03 18:56:24.
