data_PCOD9129910
_publ_section_title
;
Structure prediction by ZEFSAII (Michael W. Deem and Ramdas Pophale) SiO2 
 PCOD9129910
Probable space group: C 2
;
_chemical_formula_sum "Si O2"
_cell_formula_units_Z 24
_cell_length_a 7.623070
_cell_length_b 13.992034
_cell_length_c 13.685054
_cell_angle_alpha 90.000000
_cell_angle_beta 138.377149
_cell_angle_gamma 90.000000
_cell_volume 969.554219
_symmetry_space_group_name_H-M "C 2"
_symmetry_group_IT_number 5
_symmetry_cell_setting 'monoclinic'
loop_
_space_group_symop_operation_xyz
x,y,z
-x,y,-z
1/2+x,1/2+y,z
1/2-x,1/2+y,-z
loop_
_atom_site_type_symbol
_atom_site_label
_atom_site_fract_x
_atom_site_fract_y
_atom_site_fract_z
Si Si1 0.373744 0.955030 0.188136
Si Si2 0.964061 0.306249 0.600924
Si Si3 0.212306 0.664134 0.831543
Si Si4 0.103842 0.858920 0.681014
Si Si5 0.288206 0.466673 0.096682
Si Si6 0.695688 0.171784 0.157214
O O1 0.342292 0.875554 0.257478
O O2 0.667305 0.926506 0.268857
O O3 0.338027 0.056650 0.226731
O O4 0.202847 0.959793 0.016470
O O5 0.668794 0.344704 0.488736
O O6 0.000000 0.294328 0.500000
O O7 0.029263 0.210311 0.686850
O O8 0.193600 0.751686 0.748652
O O9 0.988413 0.667884 0.823078
O O10 0.500000 0.669376 0.000000
O O11 0.031460 0.910413 0.753305
O O12 0.265493 0.575324 0.126332
O O13 0.000000 0.421098 0.000000
O O14 0.500000 0.226567 0.000000
#
# Coordination Sequence:
#
# PCOD9129910 Si02
#       6
#     4   4   4   4   4   4
#     4  11  25  49  71 111 154 202 258 324 373 467
#     4  12  28  46  72 114 159 207 251 311 400 469
#     4  12  25  45  79 115 145 198 264 316 383 454
#     4  11  24  47  74 112 155 202 254 313 398 465
#     4   9  19  42  78 104 141 197 252 316 387 430
#     4  11  23  48  77 110 149 198 263 324 375 452
#
# _framework density 24.753646
#
# number of rings (size 3 to 8) (size 9 to 14) (size 15 to 20)
#    0.000    1.000    6.667    2.000    4.667    3.333 
#    3.000    1.667    0.000    0.000    0.000    0.000 
#    0.000    0.000    0.000    0.000    0.000    0.000 
#
# Total GULP energy -66959.533441 kJ/mol
# GULP energy per Si atom -5579.961120 kJ/mol
# Density = 2.469731 g / cm^3
# Si number density = 24.753646 Si / 1000 Ang^3
#
#
#
# Elastic Constant Matrix: (Units=GPa)
#
#
# Indices 1 2 3 4 5 6 
#
# 1 120.6539 3.0039 21.6974 0.0000 -4.0843 0.0000
# 2 3.0039 116.3514 61.4320 -0.0002 -7.2753 0.0000
# 3 21.6974 61.4320 169.3411 0.0002 -4.7604 0.0002
# 4 0.0000 -0.0002 0.0002 30.8173 0.0001 7.3575
# 5 -4.0843 -7.2753 -4.7604 0.0001 33.8605 0.0001
# 6 0.0000 0.0000 0.0002 7.3575 0.0001 6.2397
#
#
#
# Elastic Compliance Matrix: (Units=1/GPa)
#
#
# Indices 1 2 3 4 5 6 
#
# 1 0.008533 0.000498 -0.001247 0.000000 0.000961 0.000000
# 2 0.000498 0.010764 -0.003918 0.000000 0.001822 0.000000
# 3 -0.001247 -0.003918 0.007488 0.000000 0.000061 0.000000
# 4 0.000000 0.000000 0.000000 0.045164 0.000000 -0.053255
# 5 0.000961 0.001822 0.000061 0.000000 0.030049 -0.000001
# 6 0.000000 0.000000 0.000000 -0.053255 -0.000001 0.223058
#
#
# Mechanical properties :
#
#
# Convention : Reuss Voigt Hill
#
# Bulk Modulus (GPa) = 57.30026 64.29032 60.79529
# Shear Modulus (GPa) = 14.69701 35.53103 25.11402
#
# Velocity S-wave (km/s) = 2.43930 3.79276 3.18867
# Velocity P-wave (km/s) = 5.57961 6.72372 6.17821
#
# Compressibility (1/GPa) = 0.01745193
#
# Stress axis : x y z
#
# Youngs Moduli (GPa) = 117.19836 92.90114 133.54912
#
# Poissons Ratio (x) = -0.04628 0.16653
# Poissons Ratio (y) = -0.05839 0.52318
# Poissons Ratio (z) = 0.14614 0.36394
#
# Static dielectric constant tensor:
#      x y z
#    x 2.409950 0.000000 -0.070360 
#    y 0.000000 2.039060 0.000000 
#    z -0.070360 0.000000 1.967870 
# 
# From -- ./inp_files/51021.got.cif
#   From: 2010.05.17/outbox.cif.g08.bks.cpg/sg5_26_cif.got.tgz:51021.got - 2010.06.03 18:56:24.
