data_PCOD9129467
_publ_section_title
;
Structure prediction by ZEFSAII (Michael W. Deem and Ramdas Pophale) SiO2 
 PCOD9129467
Probable space group: C 2
;
_chemical_formula_sum "Si O2"
_cell_formula_units_Z 24
_cell_length_a 13.452457
_cell_length_b 12.931684
_cell_length_c 13.662608
_cell_angle_alpha 90.000000
_cell_angle_beta 150.193153
_cell_angle_gamma 90.000000
_cell_volume 1181.447826
_symmetry_space_group_name_H-M "C 2"
_symmetry_group_IT_number 5
_symmetry_cell_setting 'monoclinic'
loop_
_space_group_symop_operation_xyz
x,y,z
-x,y,-z
1/2+x,1/2+y,z
1/2-x,1/2+y,-z
loop_
_atom_site_type_symbol
_atom_site_label
_atom_site_fract_x
_atom_site_fract_y
_atom_site_fract_z
Si Si1 0.203154 0.234370 0.270572
Si Si2 0.591351 0.245509 0.348346
Si Si3 0.369867 0.458522 0.129312
Si Si4 0.104905 0.098038 0.484425
Si Si5 0.440679 0.955264 0.850856
Si Si6 0.789782 0.131124 0.927351
O O1 0.350539 0.239593 0.487352
O O2 0.249606 0.158281 0.220169
O O3 0.174693 0.352127 0.211492
O O4 0.985815 0.197377 0.120433
O O5 0.514016 0.359419 0.255037
O O6 0.784546 0.202035 0.457063
O O7 0.401055 0.169592 0.174880
O O8 0.457998 0.544793 0.279884
O O9 0.146233 0.429443 0.972046
O O10 0.344716 0.514915 0.003522
O O11 0.000000 0.110015 0.500000
O O12 0.286235 0.017119 0.653697
O O13 0.500000 0.015980 0.000000
#
# Coordination Sequence:
#
# PCOD9129467 Si02
#       6
#     4   4   4   4   4   4
#     4  11  22  39  70 103 129 174 228 290 341 407
#     4  12  24  42  71  99 140 181 229 285 351 414
#     4  12  24  41  70 100 136 186 228 287 352 413
#     4  12  26  40  67 101 139 178 236 288 340 415
#     4  12  21  38  69 102 129 171 236 289 341 401
#     4  11  23  39  66 104 136 169 230 293 344 401
#
# _framework density 20.314059
#
# number of rings (size 3 to 8) (size 9 to 14) (size 15 to 20)
#    0.000    0.333   10.000    0.500    0.000    0.000 
#    0.000    0.000   25.667    0.000    0.000    0.000 
#    0.000    0.000    0.000    0.000    0.000    0.000 
#
# Total GULP energy -66980.243156 kJ/mol
# GULP energy per Si atom -5581.686930 kJ/mol
# Density = 2.026782 g / cm^3
# Si number density = 20.314059 Si / 1000 Ang^3
#
#
#
# Elastic Constant Matrix: (Units=GPa)
#
#
# Indices 1 2 3 4 5 6 
#
# 1 91.0975 60.5604 34.4392 0.0004 8.0033 0.0001
# 2 60.5604 105.1523 39.9221 0.0023 -9.7119 0.0009
# 3 34.4392 39.9221 85.0161 0.0036 0.8979 0.0013
# 4 0.0004 0.0023 0.0036 35.9625 0.0022 -3.8450
# 5 8.0033 -9.7119 0.8979 0.0022 34.9616 0.0008
# 6 0.0001 0.0009 0.0013 -3.8450 0.0008 31.5120
#
#
#
# Elastic Compliance Matrix: (Units=1/GPa)
#
#
# Indices 1 2 3 4 5 6 
#
# 1 0.020220 -0.011290 -0.002808 0.000001 -0.007693 0.000001
# 2 -0.011290 0.018284 -0.004095 -0.000001 0.007769 -0.000001
# 3 -0.002808 -0.004095 0.014832 -0.000001 -0.000875 -0.000001
# 4 0.000001 -0.000001 -0.000001 0.028174 -0.000002 0.003438
# 5 -0.007693 0.007769 -0.000875 -0.000002 0.032544 -0.000001
# 6 0.000001 -0.000001 -0.000001 0.003438 -0.000001 0.032153
#
#
# Mechanical properties :
#
#
# Convention : Reuss Voigt Hill
#
# Bulk Modulus (GPa) = 58.99302 61.23435 60.11369
# Shear Modulus (GPa) = 26.56138 30.24352 28.40245
#
# Velocity S-wave (km/s) = 3.61991 3.86268 3.74326
# Velocity P-wave (km/s) = 6.82460 7.07835 6.95263
#
# Compressibility (1/GPa) = 0.01695116
#
# Stress axis : x y z
#
# Youngs Moduli (GPa) = 49.45630 54.69236 67.42138
#
# Poissons Ratio (x) = 0.61745 0.18934
# Poissons Ratio (y) = 0.55834 0.27607
# Poissons Ratio (z) = 0.13889 0.22395
#
# Static dielectric constant tensor:
#      x y z
#    x 1.748800 0.000000 -0.005280 
#    y 0.000000 1.747350 0.000000 
#    z -0.005280 0.000000 1.752040 
# 
# From -- ./inp_files/54404.got.cif
#   From: 2010.05.17/outbox.cif.g08.bks.cpg/sg5_28_cif.got.tgz:54404.got - 2010.06.03 18:56:24.
