data_PCOD9129932
_publ_section_title
;
Structure prediction by ZEFSAII (Michael W. Deem and Ramdas Pophale) SiO2 
 PCOD9129932
Probable space group: C 2
;
_chemical_formula_sum "Si O2"
_cell_formula_units_Z 22
_cell_length_a 21.545415
_cell_length_b 5.118073
_cell_length_c 20.998743
_cell_angle_alpha 90.000000
_cell_angle_beta 159.516280
_cell_angle_gamma 90.000000
_cell_volume 810.307281
_symmetry_space_group_name_H-M "C 2"
_symmetry_group_IT_number 5
_symmetry_cell_setting 'monoclinic'
loop_
_space_group_symop_operation_xyz
x,y,z
-x,y,-z
1/2+x,1/2+y,z
1/2-x,1/2+y,-z
loop_
_atom_site_type_symbol
_atom_site_label
_atom_site_fract_x
_atom_site_fract_y
_atom_site_fract_z
Si Si1 0.642759 0.472730 0.219845
Si Si2 0.500000 0.491877 0.500000
Si Si3 0.255568 0.594565 0.815309
Si Si4 0.545555 0.680085 0.678319
Si Si5 0.314593 0.951860 0.025206
Si Si6 0.803956 0.460771 0.650131
O O1 0.707875 0.405158 0.211084
O O2 0.748340 0.693653 0.362110
O O3 0.618455 0.204813 0.234250
O O4 0.453936 0.622478 0.031292
O O5 0.461415 0.648581 0.526836
O O6 0.656663 0.315944 0.679973
O O7 0.135652 0.460733 0.754315
O O8 0.710490 0.500532 0.858499
O O9 0.373674 0.583228 0.552335
O O10 0.219525 0.721435 0.971291
O O11 0.523181 0.892898 0.224713
#
# Coordination Sequence:
#
# PCOD9129932 Si02
#       6
#     4   2   4   4   4   4
#     4  11  24  43  72 112 161 207 247 309 400 482
#     4  12  22  42  70 116 154 198 244 314 394 474
#     4  11  24  40  70 112 164 206 244 310 391 481
#     4  12  27  46  79 112 160 202 258 321 395 473
#     4  12  30  54  80 108 152 208 275 337 388 452
#     4  12  25  49  76 109 148 205 265 324 392 464
#
# _framework density 27.150193000000002
#
# number of rings (size 3 to 8) (size 9 to 14) (size 15 to 20)
#    0.000    0.364    3.636    4.909    2.545    2.909 
#    0.000    0.000    0.000    0.000    0.000    0.000 
#    0.000    0.000    0.000    0.000    0.000    0.000 
#
# Total GULP energy -61446.686687 kJ/mol
# GULP energy per Si atom -5586.062426 kJ/mol
# Density = 2.708840 g / cm^3
# Si number density = 27.150193 Si / 1000 Ang^3
#
#
#
# Elastic Constant Matrix: (Units=GPa)
#
#
# Indices 1 2 3 4 5 6 
#
# 1 45.9330 3.6709 36.7439 0.0001 -6.7928 0.0001
# 2 3.6709 90.2135 -4.3687 0.0018 -25.8517 0.0020
# 3 36.7439 -4.3687 143.5955 -0.0001 16.6085 0.0002
# 4 0.0001 0.0018 -0.0001 50.5567 0.0002 -6.0037
# 5 -6.7928 -25.8517 16.6085 0.0002 47.8440 0.0002
# 6 0.0001 0.0020 0.0002 -6.0037 0.0002 50.1297
#
#
#
# Elastic Compliance Matrix: (Units=1/GPa)
#
#
# Indices 1 2 3 4 5 6 
#
# 1 0.029539 0.000507 -0.008397 0.000000 0.007383 0.000000
# 2 0.000507 0.013151 -0.000583 -0.000001 0.007380 -0.000001
# 3 -0.008397 -0.000583 0.009657 0.000000 -0.004860 0.000000
# 4 0.000000 -0.000001 0.000000 0.020065 0.000000 0.002403
# 5 0.007383 0.007380 -0.004860 0.000000 0.027624 0.000000
# 6 0.000000 -0.000001 0.000000 0.002403 0.000000 0.020236
#
#
# Mechanical properties :
#
#
# Convention : Reuss Voigt Hill
#
# Bulk Modulus (GPa) = 28.24821 39.09268 33.67045
# Shear Modulus (GPa) = 33.55258 45.95247 39.75253
#
# Velocity S-wave (km/s) = 3.51923 4.11850 3.83060
# Velocity P-wave (km/s) = 5.19040 6.08654 5.65625
#
# Compressibility (1/GPa) = 0.03540047
#
# Stress axis : x y z
#
# Youngs Moduli (GPa) = 33.85306 76.04071 103.55127
#
# Poissons Ratio (x) = -0.03855 0.86954
# Poissons Ratio (y) = -0.01716 0.06040
# Poissons Ratio (z) = 0.28427 0.04435
#
# Static dielectric constant tensor:
#      x y z
#    x 2.339760 0.000000 0.144410 
#    y 0.000000 2.184940 0.000000 
#    z 0.144410 0.000000 2.261530 
# 
# From -- ./inp_files/69590.got.cif
#   From: 2010.05.17/outbox.cif.g08.bks.cpg/sg5_35_cif.got.tgz:69590.got - 2010.06.03 18:56:24.
