data_PCOD9129140
_publ_section_title
;
Structure prediction by ZEFSAII (Michael W. Deem and Ramdas Pophale) SiO2 
 PCOD9129140
Probable space group: C 2
;
_chemical_formula_sum "Si O2"
_cell_formula_units_Z 20
_cell_length_a 24.965052
_cell_length_b 5.092802
_cell_length_c 12.635328
_cell_angle_alpha 90.000000
_cell_angle_beta 149.206565
_cell_angle_gamma 90.000000
_cell_volume 822.429384
_symmetry_space_group_name_H-M "C 2"
_symmetry_group_IT_number 5
_symmetry_cell_setting 'monoclinic'
loop_
_space_group_symop_operation_xyz
x,y,z
-x,y,-z
1/2+x,1/2+y,z
1/2-x,1/2+y,-z
loop_
_atom_site_type_symbol
_atom_site_label
_atom_site_fract_x
_atom_site_fract_y
_atom_site_fract_z
Si Si1 0.227295 0.913300 0.893074
Si Si2 0.366308 0.583364 0.579405
Si Si3 0.000000 0.806874 0.500000
Si Si4 0.654952 0.043893 0.121699
Si Si5 0.972582 0.604890 0.679377
Si Si6 0.500000 0.691410 0.000000
O O1 0.289191 0.920332 0.887572
O O2 0.105087 0.974433 0.668953
O O3 0.233542 0.628800 0.957202
O O4 0.245343 0.656733 0.351230
O O5 0.379090 0.301254 0.547326
O O6 0.436097 0.812119 0.644609
O O7 0.416692 0.551818 0.781136
O O8 0.002672 0.632721 0.609446
O O9 0.579420 0.862790 0.063568
O O10 0.568261 0.217669 0.913416
#
# Coordination Sequence:
#
# PCOD9129140 Si02
#       6
#     4   4   2   4   4   2
#     4  12  29  46  75 111 150 193 239 298 370 436
#     4  11  27  49  72 107 145 193 242 307 362 420
#     4  12  26  46  76 110 150 194 240 298 362 440
#     4  11  26  50  75 108 149 193 245 301 365 429
#     4  11  27  44  74 109 147 187 247 295 361 442
#     4  10  28  48  76 108 144 194 254 300 356 438
#
# _framework density 24.318197999999999
#
# number of rings (size 3 to 8) (size 9 to 14) (size 15 to 20)
#    0.000    0.800    4.000    0.000    8.400   12.800 
#    0.000    0.000    0.000    0.000    0.000    0.000 
#    0.000    0.000    0.000    0.000    0.000    0.000 
#
# Total GULP energy -55857.259074 kJ/mol
# GULP energy per Si atom -5585.725907 kJ/mol
# Density = 2.426285 g / cm^3
# Si number density = 24.318198 Si / 1000 Ang^3
#
#
#
# Elastic Constant Matrix: (Units=GPa)
#
#
# Indices 1 2 3 4 5 6 
#
# 1 146.7997 21.3360 27.1004 0.0000 6.3887 0.0000
# 2 21.3360 35.2728 -13.0453 0.0000 -11.7851 0.0000
# 3 27.1004 -13.0453 167.6479 0.0000 1.2218 0.0000
# 4 0.0000 0.0000 0.0000 28.9396 0.0000 4.7843
# 5 6.3887 -11.7851 1.2218 0.0000 47.4912 0.0000
# 6 0.0000 0.0000 0.0000 4.7843 0.0000 18.0993
#
#
#
# Elastic Compliance Matrix: (Units=1/GPa)
#
#
# Indices 1 2 3 4 5 6 
#
# 1 0.008214 -0.006536 -0.001817 0.000000 -0.002680 0.000000
# 2 -0.006536 0.037068 0.003868 0.000000 0.009978 0.000000
# 3 -0.001817 0.003868 0.006552 0.000000 0.001036 0.000000
# 4 0.000000 0.000000 0.000000 0.036134 0.000000 -0.009552
# 5 -0.002680 0.009978 0.001036 0.000000 0.023867 0.000000
# 6 0.000000 0.000000 0.000000 -0.009552 0.000000 0.057776
#
#
# Mechanical properties :
#
#
# Convention : Reuss Voigt Hill
#
# Bulk Modulus (GPa) = 23.32882 46.72252 35.02567
# Shear Modulus (GPa) = 25.92443 39.86129 32.89286
#
# Velocity S-wave (km/s) = 3.26859 4.05304 3.68176
# Velocity P-wave (km/s) = 4.88455 6.41541 5.70160
#
# Compressibility (1/GPa) = 0.04286544
#
# Stress axis : x y z
#
# Youngs Moduli (GPa) = 121.74353 26.97709 152.62446
#
# Poissons Ratio (x) = 0.17632 0.27730
# Poissons Ratio (y) = 0.79571 -0.59039
# Poissons Ratio (z) = 0.22119 -0.10435
#
# Static dielectric constant tensor:
#      x y z
#    x 1.931900 0.000000 -0.019340 
#    y 0.000000 1.868720 0.000000 
#    z -0.019340 0.000000 2.011450 
# 
# From -- ./inp_files/40985.got.cif
#   From: 2010.05.17/outbox.cif.g08.bks.cpg/sg5_21_cif.got.tgz:40985.got - 2010.06.03 18:56:24.
