data_PCOD9129552
_publ_section_title
;
Structure prediction by ZEFSAII (Michael W. Deem and Ramdas Pophale) SiO2 
 PCOD9129552
Probable space group: C 2
;
_chemical_formula_sum "Si O2"
_cell_formula_units_Z 28
_cell_length_a 12.276902
_cell_length_b 11.780982
_cell_length_c 7.995007
_cell_angle_alpha 90.000000
_cell_angle_beta 69.201149
_cell_angle_gamma 90.000000
_cell_volume 1080.993470
_symmetry_space_group_name_H-M "C 2"
_symmetry_group_IT_number 5
_symmetry_cell_setting 'monoclinic'
loop_
_space_group_symop_operation_xyz
x,y,z
-x,y,-z
1/2+x,1/2+y,z
1/2-x,1/2+y,-z
loop_
_atom_site_type_symbol
_atom_site_label
_atom_site_fract_x
_atom_site_fract_y
_atom_site_fract_z
Si Si1 0.228764 0.564660 0.709543
Si Si2 0.253558 0.785139 0.483988
Si Si3 0.592909 0.458667 0.620763
Si Si4 0.890523 0.788785 0.789142
Si Si5 0.757217 0.982517 0.061362
Si Si6 0.482034 0.038545 0.709189
Si Si7 0.916873 0.160740 0.181953
O O1 0.216828 0.684680 0.626026
O O2 0.351707 0.518355 0.569771
O O3 0.240981 0.550356 0.897172
O O4 0.105888 0.506632 0.723654
O O5 0.216153 0.897591 0.603914
O O6 0.187509 0.785514 0.338079
O O7 0.378009 0.747997 0.344779
O O8 0.506552 0.355148 0.674720
O O9 0.524720 0.554742 0.757852
O O10 0.935503 0.661760 0.801488
O O11 0.827384 0.866670 0.967056
O O12 0.626142 0.956334 0.193718
O O13 0.817082 0.079696 0.148348
O O14 0.500000 0.049605 0.500000
O O15 0.000000 0.213023 0.000000
#
# Coordination Sequence:
#
# PCOD9129552 Si02
#       7
#     4   4   4   4   4   4   4
#     4  11  24  39  70 108 140 181 240 298 352 421
#     4  11  22  44  70 101 137 192 236 285 360 430
#     4  11  22  42  72 103 130 187 241 284 353 428
#     4  12  22  43  78 100 138 192 243 287 358 433
#     4  12  26  42  68 114 144 181 243 307 349 428
#     4  12  23  48  75 101 144 192 235 296 362 427
#     4  11  24  45  67 104 149 182 233 307 362 410
#
# _framework density 25.902100999999998
#
# number of rings (size 3 to 8) (size 9 to 14) (size 15 to 20)
#    0.000    0.571    7.143    1.714    0.000    1.143 
#    5.143    0.000    0.000    0.000    0.000    0.000 
#    0.000    0.000    0.000    0.000    0.000    0.000 
#
# Total GULP energy -78058.948894 kJ/mol
# GULP energy per Si atom -5575.639207 kJ/mol
# Density = 2.584315 g / cm^3
# Si number density = 25.902101 Si / 1000 Ang^3
#
#
#
# Elastic Constant Matrix: (Units=GPa)
#
#
# Indices 1 2 3 4 5 6 
#
# 1 78.7093 -1.9829 7.9253 0.0000 -6.0631 0.0000
# 2 -1.9829 81.3807 33.0645 0.0000 -1.3030 0.0000
# 3 7.9253 33.0645 97.4044 0.0000 -44.1810 0.0000
# 4 0.0000 0.0000 0.0000 46.2585 0.0000 -7.5034
# 5 -6.0631 -1.3030 -44.1810 0.0000 43.4751 0.0000
# 6 0.0000 0.0000 0.0000 -7.5034 0.0000 36.2269
#
#
#
# Elastic Compliance Matrix: (Units=1/GPa)
#
#
# Indices 1 2 3 4 5 6 
#
# 1 0.012881 0.000670 -0.000837 0.000000 0.000965 0.000000
# 2 0.000670 0.016124 -0.009769 0.000000 -0.009351 0.000000
# 3 -0.000837 -0.009769 0.024979 0.000000 0.024975 0.000000
# 4 0.000000 0.000000 0.000000 0.022369 0.000000 0.004633
# 5 0.000965 -0.009351 0.024975 0.000000 0.048237 0.000000
# 6 0.000000 0.000000 0.000000 0.004633 0.000000 0.028563
#
#
# Mechanical properties :
#
#
# Convention : Reuss Voigt Hill
#
# Bulk Modulus (GPa) = 29.31785 37.27870 33.29828
# Shear Modulus (GPa) = 27.11536 39.75793 33.43664
#
# Velocity S-wave (km/s) = 3.23900 3.92207 3.59679
# Velocity P-wave (km/s) = 5.03304 5.91046 5.48931
#
# Compressibility (1/GPa) = 0.03410891
#
# Stress axis : x y z
#
# Youngs Moduli (GPa) = 77.63656 62.02018 40.03319
#
# Poissons Ratio (x) = -0.04153 0.03353
# Poissons Ratio (y) = -0.05198 0.39110
# Poissons Ratio (z) = 0.06502 0.60590
#
# Static dielectric constant tensor:
#      x y z
#    x 2.171970 0.000000 0.090980 
#    y 0.000000 2.075670 0.000000 
#    z 0.090980 0.000000 2.139810 
# 
# From -- ./inp_files/23796.got.cif
#   From: 2010.05.17/outbox.cif.g08.bks.cpg/sg5_12_cif.got.tgz:23796.got - 2010.06.03 18:56:24.
