data_PCOD9129764
_publ_section_title
;
Structure prediction by ZEFSAII (Michael W. Deem and Ramdas Pophale) SiO2 
 PCOD9129764
Probable space group: C 2
;
_chemical_formula_sum "Si O2"
_cell_formula_units_Z 16
_cell_length_a 20.070981
_cell_length_b 4.937626
_cell_length_c 6.563347
_cell_angle_alpha 90.000000
_cell_angle_beta 113.698816
_cell_angle_gamma 90.000000
_cell_volume 595.595721
_symmetry_space_group_name_H-M "C 2"
_symmetry_group_IT_number 5
_symmetry_cell_setting 'monoclinic'
loop_
_space_group_symop_operation_xyz
x,y,z
-x,y,-z
1/2+x,1/2+y,z
1/2-x,1/2+y,-z
loop_
_atom_site_type_symbol
_atom_site_label
_atom_site_fract_x
_atom_site_fract_y
_atom_site_fract_z
Si Si1 0.713683 0.271150 0.049772
Si Si2 0.856327 0.864064 0.676428
Si Si3 0.922164 0.362614 0.963193
Si Si4 0.918011 0.973349 0.323528
O O1 0.627713 0.279387 0.884526
O O2 0.757273 0.475698 0.958954
O O3 0.716996 0.402804 0.279597
O O4 0.866073 0.940193 0.455656
O O5 0.914531 0.072018 0.842761
O O6 0.870109 0.552601 0.759384
O O7 0.919391 0.254591 0.196599
O O8 0.000000 0.480903 0.000000
O O9 0.000000 0.908982 0.500000
#
# Coordination Sequence:
#
# PCOD9129764 Si02
#       4
#     4   4   4   4
#     4  11  26  49  71 105 156 206 255 322 388 463
#     4  11  25  45  74 106 154 204 257 317 390 464
#     4  11  23  43  68 111 162 188 244 331 389 447
#     4  11  25  48  77 118 146 208 261 318 392 470
#
# _framework density 26.863859000000001
#
# number of rings (size 3 to 8) (size 9 to 14) (size 15 to 20)
#    0.000    1.000    2.500    3.750    3.500    8.000 
#    0.000    0.000    0.000    0.000    0.000    0.000 
#    0.000    0.000    0.000    0.000    0.000    0.000 
#
# Total GULP energy -44536.139022 kJ/mol
# GULP energy per Si atom -5567.017378 kJ/mol
# Density = 2.680272 g / cm^3
# Si number density = 26.863859 Si / 1000 Ang^3
#
#
#
# Elastic Constant Matrix: (Units=GPa)
#
#
# Indices 1 2 3 4 5 6 
#
# 1 88.7401 15.3211 18.6572 0.0000 14.1874 0.0000
# 2 15.3211 109.4667 7.1281 0.0000 10.7210 0.0000
# 3 18.6572 7.1281 160.1398 0.0000 -27.8549 0.0000
# 4 0.0000 0.0000 0.0000 -9.6281 0.0000 10.5255
# 5 14.1874 10.7210 -27.8549 0.0000 57.6860 0.0000
# 6 0.0000 0.0000 0.0000 10.5255 0.0000 41.9846
#
#
#
# Elastic Compliance Matrix: (Units=1/GPa)
#
#
# Indices 1 2 3 4 5 6 
#
# 1 0.012536 -0.001242 -0.002076 0.000000 -0.003855 0.000000
# 2 -0.001242 0.009518 -0.000582 0.000000 -0.001745 0.000000
# 3 -0.002076 -0.000582 0.007227 0.000000 0.004108 0.000000
# 4 0.000000 0.000000 0.000000 -0.081521 0.000000 0.020437
# 5 -0.003855 -0.001745 0.004108 0.000000 0.020591 0.000000
# 6 0.000000 0.000000 0.000000 0.020437 0.000000 0.018695
#
#
# Mechanical properties :
#
#
# Convention : Reuss Voigt Hill
#
# Bulk Modulus (GPa) = 46.55356 48.95104 47.75230
# Shear Modulus (GPa) = 2492.00514 39.15783 1265.58149
#
# Velocity S-wave (km/s) = 30.49026 3.82205 21.72860
# Velocity P-wave (km/s) = 35.45291 6.14319 25.44256
#
# Compressibility (1/GPa) = 0.02148063
#
# Stress axis : x y z
#
# Youngs Moduli (GPa) = 79.77065 105.06616 138.37147
#
# Poissons Ratio (x) = 0.13048 0.28722
# Poissons Ratio (y) = 0.09907 0.08059
# Poissons Ratio (z) = 0.16558 0.06120
#
# Static dielectric constant tensor:
#      x y z
#    x 2.193710 0.000000 -0.078650 
#    y 0.000000 2.136000 0.000000 
#    z -0.078650 0.000000 2.254240 
# 
# From -- ./inp_files/9935.got.cif
#   From: 2010.05.17/outbox.cif.g08.bks.cpg/sg5_5_cif.got.tgz:9935.got - 2010.06.03 18:56:24.
