data_PCOD9129522
_publ_section_title
;
Structure prediction by ZEFSAII (Michael W. Deem and Ramdas Pophale) SiO2 
 PCOD9129522
Probable space group: C 2
;
_chemical_formula_sum "Si O2"
_cell_formula_units_Z 22
_cell_length_a 21.116604
_cell_length_b 5.991275
_cell_length_c 14.345971
_cell_angle_alpha 90.000000
_cell_angle_beta 147.929746
_cell_angle_gamma 90.000000
_cell_volume 963.682625
_symmetry_space_group_name_H-M "C 2"
_symmetry_group_IT_number 5
_symmetry_cell_setting 'monoclinic'
loop_
_space_group_symop_operation_xyz
x,y,z
-x,y,-z
1/2+x,1/2+y,z
1/2-x,1/2+y,-z
loop_
_atom_site_type_symbol
_atom_site_label
_atom_site_fract_x
_atom_site_fract_y
_atom_site_fract_z
Si Si1 0.396973 0.841280 0.211865
Si Si2 0.500000 0.576114 0.500000
Si Si3 0.042292 0.594937 0.880622
Si Si4 0.166960 0.002303 0.032054
Si Si5 0.239321 0.870226 0.739301
Si Si6 0.280570 0.944435 0.580128
O O1 0.491639 0.733867 0.399269
O O2 0.439063 0.058386 0.207562
O O3 0.277024 0.873171 0.121501
O O4 0.368582 0.679332 0.090721
O O5 0.617515 0.425851 0.640721
O O6 0.923673 0.471769 0.762538
O O7 0.154170 0.510183 0.080634
O O8 0.050283 0.858064 0.906605
O O9 0.220458 0.118265 0.189804
O O10 0.227337 0.925007 0.616912
O O11 0.243595 0.194753 0.494650
#
# Coordination Sequence:
#
# PCOD9129522 Si02
#       6
#     4   2   4   4   4   4
#     4  11  22  41  70 111 147 190 245 313 382 454
#     4  12  24  42  70 112 156 182 248 312 390 450
#     4  11  25  48  77 103 148 206 252 310 379 467
#     4  11  22  43  74 105 149 197 256 304 385 455
#     4  11  27  46  72 111 148 205 248 317 380 463
#     4  12  31  53  78 112 155 200 261 325 385 453
#
# _framework density 22.829093
#
# number of rings (size 3 to 8) (size 9 to 14) (size 15 to 20)
#    0.000    0.727    3.636    2.727   10.182    2.182 
#    0.000    0.000    0.000    0.000    0.000    0.000 
#    0.000    0.000    0.000    0.000    0.000    0.000 
#
# Total GULP energy -61428.208807 kJ/mol
# GULP energy per Si atom -5584.382619 kJ/mol
# Density = 2.277713 g / cm^3
# Si number density = 22.829093 Si / 1000 Ang^3
#
#
#
# Elastic Constant Matrix: (Units=GPa)
#
#
# Indices 1 2 3 4 5 6 
#
# 1 64.8272 26.2339 18.4551 0.0000 -6.3086 0.0000
# 2 26.2339 112.0975 42.9299 0.0000 -9.9769 0.0000
# 3 18.4551 42.9299 82.9496 0.0000 3.7500 0.0000
# 4 0.0000 0.0000 0.0000 35.0032 0.0000 -6.0801
# 5 -6.3086 -9.9769 3.7500 0.0000 36.5408 0.0000
# 6 0.0000 0.0000 0.0000 -6.0801 0.0000 23.0062
#
#
#
# Elastic Compliance Matrix: (Units=1/GPa)
#
#
# Indices 1 2 3 4 5 6 
#
# 1 0.017567 -0.002930 -0.002504 0.000000 0.002490 0.000000
# 2 -0.002930 0.012120 -0.005774 0.000000 0.003396 0.000000
# 3 -0.002504 -0.005774 0.015765 0.000000 -0.003627 0.000000
# 4 0.000000 0.000000 0.000000 0.029943 0.000000 0.007913
# 5 0.002490 0.003396 -0.003627 0.000000 0.029096 0.000000
# 6 0.000000 0.000000 0.000000 0.007913 0.000000 0.045558
#
#
# Mechanical properties :
#
#
# Convention : Reuss Voigt Hill
#
# Bulk Modulus (GPa) = 43.41405 48.34580 45.87993
# Shear Modulus (GPa) = 27.75540 30.39374 29.07457
#
# Velocity S-wave (km/s) = 3.49060 3.65274 3.57259
# Velocity P-wave (km/s) = 5.94172 6.24606 6.09579
#
# Compressibility (1/GPa) = 0.02303402
#
# Stress axis : x y z
#
# Youngs Moduli (GPa) = 56.92592 82.50680 63.43138
#
# Poissons Ratio (x) = 0.24178 0.15885
# Poissons Ratio (y) = 0.16682 0.36627
# Poissons Ratio (z) = 0.14256 0.47642
#
# Static dielectric constant tensor:
#      x y z
#    x 1.828390 0.000000 0.036020 
#    y 0.000000 2.050360 0.000000 
#    z 0.036020 0.000000 1.843610 
# 
# From -- ./inp_files/57438.got.cif
#   From: 2010.05.17/outbox.cif.g08.bks.cpg/sg5_29_cif.got.tgz:57438.got - 2010.06.03 18:56:24.
