data_PCOD9129961
_publ_section_title
;
Structure prediction by ZEFSAII (Michael W. Deem and Ramdas Pophale) SiO2 
 PCOD9129961
Probable space group: C 2
;
_chemical_formula_sum "Si O2"
_cell_formula_units_Z 18
_cell_length_a 11.738798
_cell_length_b 14.734257
_cell_length_c 6.238224
_cell_angle_alpha 90.000000
_cell_angle_beta 52.285229
_cell_angle_gamma 90.000000
_cell_volume 853.543135
_symmetry_space_group_name_H-M "C 2"
_symmetry_group_IT_number 5
_symmetry_cell_setting 'monoclinic'
loop_
_space_group_symop_operation_xyz
x,y,z
-x,y,-z
1/2+x,1/2+y,z
1/2-x,1/2+y,-z
loop_
_atom_site_type_symbol
_atom_site_label
_atom_site_fract_x
_atom_site_fract_y
_atom_site_fract_z
Si Si1 0.500000 0.318360 0.000000
Si Si2 0.379285 0.175032 0.801895
Si Si3 0.333040 0.787409 0.248965
Si Si4 0.365346 0.445097 0.482674
Si Si5 0.161477 0.142289 0.403311
O O1 0.545487 0.252571 0.140830
O O2 0.394205 0.388864 0.234719
O O3 0.500000 0.135310 0.500000
O O4 0.259914 0.224377 0.798639
O O5 0.283564 0.120887 0.084466
O O6 0.272481 0.888561 0.278191
O O7 0.309501 0.735591 0.503934
O O8 0.500000 0.782908 0.000000
O O9 0.500000 0.439011 0.500000
O O10 0.341011 0.550089 0.456706
O O11 0.000000 0.151282 0.500000
#
# Coordination Sequence:
#
# PCOD9129961 Si02
#       5
#     2   4   4   4   4
#     4  12  20  40  76  92 128 186 232 272 330 414
#     4  12  22  43  72  97 136 187 229 273 343 406
#     4  12  23  43  68 101 141 179 224 285 346 402
#     4  11  24  43  69 100 134 181 232 275 340 419
#     4  11  25  42  71 104 139 178 229 283 342 407
#
# _framework density 21.088564999999999
#
# number of rings (size 3 to 8) (size 9 to 14) (size 15 to 20)
#    0.000    0.444    8.889    0.000    1.556    0.000 
#    6.000    0.000    0.000    0.000    0.000    0.000 
#    0.000    0.000    0.000    0.000    0.000    0.000 
#
# Total GULP energy -50137.282257 kJ/mol
# GULP energy per Si atom -5570.809140 kJ/mol
# Density = 2.104057 g / cm^3
# Si number density = 21.088565 Si / 1000 Ang^3
#
#
#
# Elastic Constant Matrix: (Units=GPa)
#
#
# Indices 1 2 3 4 5 6 
#
# 1 76.5207 26.8798 25.5431 0.0000 -18.5684 0.0000
# 2 26.8798 88.8534 6.5452 0.0000 -4.4089 0.0000
# 3 25.5431 6.5452 107.9927 0.0000 -18.5529 0.0000
# 4 0.0000 0.0000 0.0000 -10.7528 0.0000 17.1090
# 5 -18.5684 -4.4089 -18.5529 0.0000 32.4700 0.0000
# 6 0.0000 0.0000 0.0000 17.1090 0.0000 4.3807
#
#
#
# Elastic Compliance Matrix: (Units=1/GPa)
#
#
# Indices 1 2 3 4 5 6 
#
# 1 0.017478 -0.004711 -0.002485 0.000000 0.007935 0.000000
# 2 -0.004711 0.012622 0.000201 0.000000 -0.000865 0.000000
# 3 -0.002485 0.000201 0.010641 0.000000 0.004686 0.000000
# 4 0.000000 0.000000 0.000000 -0.012891 0.000000 0.050347
# 5 0.007935 -0.000865 0.004686 0.000000 0.037896 0.000000
# 6 0.000000 0.000000 0.000000 0.050347 0.000000 0.031642
#
#
# Mechanical properties :
#
#
# Convention : Reuss Voigt Hill
#
# Bulk Modulus (GPa) = 37.38329 43.47810 40.43070
# Shear Modulus (GPa) = 41.56446 19.51283 30.53865
#
# Velocity S-wave (km/s) = 4.44435 3.04514 3.80954
# Velocity P-wave (km/s) = 6.64091 5.74678 6.20996
#
# Compressibility (1/GPa) = 0.02674992
#
# Stress axis : x y z
#
# Youngs Moduli (GPa) = 57.21374 79.22778 93.97976
#
# Poissons Ratio (x) = 0.37322 0.23357
# Poissons Ratio (y) = 0.26952 -0.01885
# Poissons Ratio (z) = 0.14219 -0.01589
#
# Static dielectric constant tensor:
#      x y z
#    x 1.790880 0.000000 -0.006270 
#    y 0.000000 1.723440 0.000000 
#    z -0.006270 0.000000 1.915940 
# 
# From -- ./inp_files/4988.got.cif
#   From: 2010.05.17/outbox.cif.g08.bks.cpg/sg5_3_cif.got.tgz:4988.got - 2010.06.03 18:56:24.
