data_PCOD9129486
_publ_section_title
;
Structure prediction by ZEFSAII (Michael W. Deem and Ramdas Pophale) SiO2 
 PCOD9129486
Probable space group: C 2
;
_chemical_formula_sum "Si O2"
_cell_formula_units_Z 18
_cell_length_a 14.251382
_cell_length_b 5.314142
_cell_length_c 20.548123
_cell_angle_alpha 90.000000
_cell_angle_beta 26.604084
_cell_angle_gamma 90.000000
_cell_volume 696.896871
_symmetry_space_group_name_H-M "C 2"
_symmetry_group_IT_number 5
_symmetry_cell_setting 'monoclinic'
loop_
_space_group_symop_operation_xyz
x,y,z
-x,y,-z
1/2+x,1/2+y,z
1/2-x,1/2+y,-z
loop_
_atom_site_type_symbol
_atom_site_label
_atom_site_fract_x
_atom_site_fract_y
_atom_site_fract_z
Si Si1 0.274709 0.056590 0.057639
Si Si2 0.283577 0.881961 0.565043
Si Si3 0.590061 0.382114 0.813815
Si Si4 0.529878 0.881880 0.682438
Si Si5 0.000000 0.172609 0.000000
O O1 0.185483 0.304187 0.149144
O O2 0.107014 0.987595 0.106913
O O3 0.314404 0.848885 0.087207
O O4 0.502793 0.106524 0.885683
O O5 0.466923 0.860986 0.397842
O O6 0.131546 0.643959 0.642045
O O7 0.281035 0.881277 0.645017
O O8 0.180130 0.151213 0.611631
O O9 0.592210 0.530265 0.879868
#
# Coordination Sequence:
#
# PCOD9129486 Si02
#       5
#     4   4   4   4   2
#     4  11  22  40  67  96 136 175 226 273 338 393
#     4   9  19  36  65 101 129 172 223 270 332 399
#     4  11  22  40  67  96 136 175 226 273 338 393
#     4   9  19  36  65 101 129 172 223 270 332 399
#     4  12  26  40  64 106 132 180 222 286 322 402
#
# _framework density 25.828789
#
# number of rings (size 3 to 8) (size 9 to 14) (size 15 to 20)
#    0.000    1.778    2.222    2.000    6.222    0.000 
#    0.000    0.000    0.000    8.000    0.000    0.000 
#    0.000    0.000    0.000    0.000    0.000    0.000 
#
# Total GULP energy -50314.649362 kJ/mol
# GULP energy per Si atom -5590.516596 kJ/mol
# Density = 2.577000 g / cm^3
# Si number density = 25.828789 Si / 1000 Ang^3
#
#
#
# Elastic Constant Matrix: (Units=GPa)
#
#
# Indices 1 2 3 4 5 6 
#
# 1 193.3945 48.1583 35.0844 -0.0025 54.9931 0.0017
# 2 48.1583 111.3232 16.9712 -0.0066 -0.4400 0.0089
# 3 35.0844 16.9712 167.0655 -0.0069 40.8680 0.0041
# 4 -0.0025 -0.0066 -0.0069 28.9644 0.0005 8.9307
# 5 54.9931 -0.4400 40.8680 0.0005 46.5656 0.0004
# 6 0.0017 0.0089 0.0041 8.9307 0.0004 38.1375
#
#
#
# Elastic Compliance Matrix: (Units=1/GPa)
#
#
# Indices 1 2 3 4 5 6 
#
# 1 0.009633 -0.004455 0.001557 0.000000 -0.012786 0.000001
# 2 -0.004455 0.011233 -0.001934 0.000002 0.007065 -0.000003
# 3 0.001557 -0.001934 0.008034 0.000002 -0.008909 -0.000001
# 4 0.000000 0.000002 0.000002 0.037212 -0.000002 -0.008714
# 5 -0.012786 0.007065 -0.008909 -0.000002 0.044460 0.000000
# 6 0.000001 -0.000003 -0.000001 -0.008714 0.000000 0.028261
#
#
# Mechanical properties :
#
#
# Convention : Reuss Voigt Hill
#
# Bulk Modulus (GPa) = 51.98302 74.69010 63.33656
# Shear Modulus (GPa) = 32.27678 47.50479 39.89079
#
# Velocity S-wave (km/s) = 3.53886 4.29326 3.93419
# Velocity P-wave (km/s) = 6.07188 7.31822 6.72399
#
# Compressibility (1/GPa) = 0.01923705
#
# Stress axis : x y z
#
# Youngs Moduli (GPa) = 103.80526 89.02393 124.46589
#
# Poissons Ratio (x) = 0.39663 -0.19382
# Poissons Ratio (y) = 0.46249 0.24068
# Poissons Ratio (z) = -0.16165 0.17214
#
# Static dielectric constant tensor:
#      x y z
#    x 2.078120 0.000000 -0.031270 
#    y 0.000000 2.024090 0.000000 
#    z -0.031270 0.000000 2.074850 
# 
# From -- ./inp_files/32983.got.cif
#   From: 2010.05.17/outbox.cif.g08.bks.cpg/sg5_17_cif.got.tgz:32983.got - 2010.06.03 18:56:24.
