data_PCOD9129287
_publ_section_title
;
Structure prediction by ZEFSAII (Michael W. Deem and Ramdas Pophale) SiO2 
 PCOD9129287
Probable space group: C 2
;
_chemical_formula_sum "Si O2"
_cell_formula_units_Z 24
_cell_length_a 12.242346
_cell_length_b 23.195674
_cell_length_c 11.716984
_cell_angle_alpha 90.000000
_cell_angle_beta 156.484263
_cell_angle_gamma 90.000000
_cell_volume 1327.582128
_symmetry_space_group_name_H-M "C 2"
_symmetry_group_IT_number 5
_symmetry_cell_setting 'monoclinic'
loop_
_space_group_symop_operation_xyz
x,y,z
-x,y,-z
1/2+x,1/2+y,z
1/2-x,1/2+y,-z
loop_
_atom_site_type_symbol
_atom_site_label
_atom_site_fract_x
_atom_site_fract_y
_atom_site_fract_z
Si Si1 0.500000 0.361531 0.500000
Si Si2 0.516885 0.029645 0.804734
Si Si3 0.753768 0.255095 0.858201
Si Si4 0.703966 0.691923 0.392040
Si Si5 0.719088 0.140572 0.295517
Si Si6 0.500000 0.943744 0.000000
Si Si7 0.065221 0.060741 0.195798
O O1 0.619239 0.317561 0.709977
O O2 0.246989 0.403298 0.279078
O O3 0.391964 0.080748 0.760969
O O4 0.306210 0.025801 0.494148
O O5 0.798628 0.048926 0.016745
O O6 0.567114 0.980619 0.949464
O O7 0.485391 0.214942 0.606323
O O8 0.000000 0.247739 0.000000
O O9 0.947760 0.235845 0.146335
O O10 0.755760 0.680670 0.572805
O O11 0.630927 0.629569 0.266746
O O12 0.000000 0.130322 0.500000
O O13 0.500000 0.165378 0.000000
O O14 0.000000 0.046877 0.000000
#
# Coordination Sequence:
#
# PCOD9129287 Si02
#       7
#     2   4   4   4   4   2   4
#     4  12  24  40  60  92 118 150 208 266 320 348
#     4  11  23  38  61  87 124 167 198 256 302 349
#     4  12  21  39  55  87 123 149 192 256 303 364
#     4  11  22  33  60  85 121 175 193 232 317 354
#     4  11  21  36  53  85 125 161 204 239 279 382
#     4  12  24  40  66  90 122 160 208 264 312 360
#     4  11  23  38  56  93 128 164 206 231 290 397
#
# _framework density 18.077977000000001
#
# number of rings (size 3 to 8) (size 9 to 14) (size 15 to 20)
#    0.000    0.667    3.333    7.000    1.167    2.667 
#    0.000    0.000    0.000    0.000    0.000   40.833 
#    0.000    0.000    0.000    0.000    0.000    0.000 
#
# Total GULP energy -66809.879964 kJ/mol
# GULP energy per Si atom -5567.489997 kJ/mol
# Density = 1.803683 g / cm^3
# Si number density = 18.077977 Si / 1000 Ang^3
#
#
#
# Elastic Constant Matrix: (Units=GPa)
#
#
# Indices 1 2 3 4 5 6 
#
# 1 112.0028 51.9936 52.6495 -0.0019 4.9635 0.0020
# 2 51.9936 83.2939 48.5497 0.0002 4.3869 0.0005
# 3 52.6495 48.5497 142.7477 -0.0015 11.8288 0.0046
# 4 -0.0019 0.0002 -0.0015 8.9382 -0.0011 38.7168
# 5 4.9635 4.3869 11.8288 -0.0011 53.2377 0.0031
# 6 0.0020 0.0005 0.0046 38.7168 0.0031 -32.6260
#
#
#
# Elastic Compliance Matrix: (Units=1/GPa)
#
#
# Indices 1 2 3 4 5 6 
#
# 1 0.013301 -0.006789 -0.002588 0.000000 -0.000106 0.000001
# 2 -0.006789 0.018439 -0.003763 0.000000 -0.000050 -0.000001
# 3 -0.002588 -0.003763 0.009367 -0.000001 -0.001530 0.000000
# 4 0.000000 0.000000 -0.000001 0.018221 -0.000001 0.021622
# 5 -0.000106 -0.000050 -0.001530 -0.000001 0.019138 0.000001
# 6 0.000001 -0.000001 0.000000 0.021622 0.000001 -0.004992
#
#
# Mechanical properties :
#
#
# Convention : Reuss Voigt Hill
#
# Bulk Modulus (GPa) = 67.44545 71.60334 69.52439
# Shear Modulus (GPa) = 47.75712 18.23343 32.99528
#
# Velocity S-wave (km/s) = 5.14535 3.17929 4.27683
# Velocity P-wave (km/s) = 8.52576 7.29186 7.93284
#
# Compressibility (1/GPa) = 0.01482680
#
# Stress axis : x y z
#
# Youngs Moduli (GPa) = 75.18200 54.23144 106.76112
#
# Poissons Ratio (x) = 0.36816 0.27632
# Poissons Ratio (y) = 0.51038 0.40179
# Poissons Ratio (z) = 0.19459 0.20410
#
# Static dielectric constant tensor:
#      x y z
#    x 1.716840 0.000000 -0.060880 
#    y 0.000000 1.629210 0.000000 
#    z -0.060880 0.000000 1.739620 
# 
# From -- ./inp_files/40818.got.cif
#   From: 2010.05.17/outbox.cif.g08.bks.cpg/sg5_21_cif.got.tgz:40818.got - 2010.06.03 18:56:24.
