data_PCOD9129819
_publ_section_title
;
Structure prediction by ZEFSAII (Michael W. Deem and Ramdas Pophale) SiO2 
 PCOD9129819
Probable space group: C 2
;
_chemical_formula_sum "Si O2"
_cell_formula_units_Z 24
_cell_length_a 18.085717
_cell_length_b 8.317792
_cell_length_c 15.148477
_cell_angle_alpha 90.000000
_cell_angle_beta 26.692555
_cell_angle_gamma 90.000000
_cell_volume 1023.659026
_symmetry_space_group_name_H-M "C 2"
_symmetry_group_IT_number 5
_symmetry_cell_setting 'monoclinic'
loop_
_space_group_symop_operation_xyz
x,y,z
-x,y,-z
1/2+x,1/2+y,z
1/2-x,1/2+y,-z
loop_
_atom_site_type_symbol
_atom_site_label
_atom_site_fract_x
_atom_site_fract_y
_atom_site_fract_z
Si Si1 0.163852 0.361590 0.521884
Si Si2 0.361146 0.208772 0.003563
Si Si3 0.686186 0.456848 0.277442
Si Si4 0.155557 0.282009 0.057717
Si Si5 0.695760 0.016366 0.666230
Si Si6 0.961883 0.041519 0.138967
O O1 0.197363 0.179777 0.454493
O O2 0.237784 0.398365 0.540996
O O3 0.270488 0.488389 0.351838
O O4 0.969027 0.379882 0.744596
O O5 0.511559 0.083884 0.853200
O O6 0.435017 0.377630 0.954473
O O7 0.288574 0.211274 0.983038
O O8 0.218916 0.143797 0.219186
O O9 0.500000 0.422761 0.500000
O O10 0.785569 0.428322 0.261153
O O11 0.745660 0.367265 0.126328
O O12 0.032101 0.160972 0.138372
O O13 0.000000 0.099612 0.000000
#
# Coordination Sequence:
#
# PCOD9129819 Si02
#       6
#     4   4   4   4   4   4
#     4  11  23  44  74  99 141 186 235 284 364 416
#     4  11  24  46  70 101 140 187 232 289 354 423
#     4  12  27  45  72 105 143 189 243 292 357 421
#     4  12  26  45  72 104 143 184 238 297 353 421
#     4  11  24  43  75 102 140 186 238 292 354 426
#     4  11  26  46  69 104 138 183 237 293 355 422
#
# _framework density 23.445305999999999
#
# number of rings (size 3 to 8) (size 9 to 14) (size 15 to 20)
#    0.000    0.667    3.333    4.500    7.000    0.000 
#    0.000    0.833    0.000    0.000    0.000    0.000 
#    0.000    0.000    0.000    0.000    0.000    0.000 
#
# Total GULP energy -67085.515808 kJ/mol
# GULP energy per Si atom -5590.459651 kJ/mol
# Density = 2.339194 g / cm^3
# Si number density = 23.445306 Si / 1000 Ang^3
#
#
#
# Elastic Constant Matrix: (Units=GPa)
#
#
# Indices 1 2 3 4 5 6 
#
# 1 130.0222 1.1921 53.7155 0.0000 12.4771 0.0000
# 2 1.1921 51.8495 36.5708 0.0000 -1.5597 0.0000
# 3 53.7155 36.5708 173.3431 0.0000 0.0788 0.0000
# 4 0.0000 0.0000 0.0000 32.6582 0.0000 13.0112
# 5 12.4771 -1.5597 0.0788 0.0000 39.2453 0.0000
# 6 0.0000 0.0000 0.0000 13.0112 0.0000 31.1833
#
#
#
# Elastic Compliance Matrix: (Units=1/GPa)
#
#
# Indices 1 2 3 4 5 6 
#
# 1 0.009318 0.002038 -0.003316 0.000000 -0.002875 0.000000
# 2 0.002038 0.023137 -0.005513 0.000000 0.000283 0.000000
# 3 -0.003316 -0.005513 0.007959 0.000000 0.000819 0.000000
# 4 0.000000 0.000000 0.000000 0.036725 0.000000 -0.015324
# 5 -0.002875 0.000283 0.000819 0.000000 0.026404 0.000000
# 6 0.000000 0.000000 0.000000 -0.015324 0.000000 0.038462
#
#
# Mechanical properties :
#
#
# Convention : Reuss Voigt Hill
#
# Bulk Modulus (GPa) = 37.26853 59.79686 48.53269
# Shear Modulus (GPa) = 30.38929 38.19979 34.29454
#
# Velocity S-wave (km/s) = 3.60415 4.04086 3.82874
# Velocity P-wave (km/s) = 5.76631 6.87979 6.34752
#
# Compressibility (1/GPa) = 0.02683229
#
# Stress axis : x y z
#
# Youngs Moduli (GPa) = 107.31680 43.22144 125.63980
#
# Poissons Ratio (x) = -0.08810 0.41665
# Poissons Ratio (y) = -0.21874 0.69265
# Poissons Ratio (z) = 0.35589 0.23828
#
# Static dielectric constant tensor:
#      x y z
#    x 1.869510 0.000000 -0.008100 
#    y 0.000000 1.958720 0.000000 
#    z -0.008100 0.000000 1.918650 
# 
# From -- ./inp_files/55702.got.cif
#   From: 2010.05.17/outbox.cif.g08.bks.cpg/sg5_28_cif.got.tgz:55702.got - 2010.06.03 18:56:24.
