data_PCOD9129684
_publ_section_title
;
Structure prediction by ZEFSAII (Michael W. Deem and Ramdas Pophale) SiO2 
 PCOD9129684
Probable space group: C 2
;
_chemical_formula_sum "Si O2"
_cell_formula_units_Z 30
_cell_length_a 30.320664
_cell_length_b 6.238432
_cell_length_c 9.213888
_cell_angle_alpha 90.000000
_cell_angle_beta 62.921403
_cell_angle_gamma 90.000000
_cell_volume 1551.793395
_symmetry_space_group_name_H-M "C 2"
_symmetry_group_IT_number 5
_symmetry_cell_setting 'monoclinic'
loop_
_space_group_symop_operation_xyz
x,y,z
-x,y,-z
1/2+x,1/2+y,z
1/2-x,1/2+y,-z
loop_
_atom_site_type_symbol
_atom_site_label
_atom_site_fract_x
_atom_site_fract_y
_atom_site_fract_z
Si Si1 0.319775 0.070050 0.350708
Si Si2 0.954743 0.037041 0.403906
Si Si3 0.856655 0.907713 0.056941
Si Si4 0.127517 0.164894 0.694794
Si Si5 0.944340 0.800383 0.715402
Si Si6 0.273385 0.494471 0.950581
Si Si7 0.714047 0.425015 0.401721
Si Si8 0.000000 0.419486 0.500000
O O1 0.334647 0.234607 0.201886
O O2 0.303648 0.191640 0.520928
O O3 0.365967 0.918808 0.316225
O O4 0.271086 0.951409 0.362921
O O5 0.915934 0.060863 0.334130
O O6 0.972957 0.270197 0.425009
O O7 0.932722 0.930088 0.583768
O O8 0.004887 0.904232 0.297984
O O9 0.876299 0.092268 0.133609
O O10 0.900187 0.812804 0.893594
O O11 0.814626 0.994063 0.013175
O O12 0.178817 0.081129 0.547133
O O13 0.959916 0.566243 0.639819
O O14 0.291751 0.476281 0.757852
O O15 0.249554 0.244360 0.006192
#
# Coordination Sequence:
#
# PCOD9129684 Si02
#       8
#     4   4   4   4   4   4   4   2
#     4  11  23  40  64  89 128 172 223 269 335 397
#     4   9  20  40  65  96 118 170 212 271 336 403
#     4  11  25  42  60  97 130 175 219 277 337 400
#     4  11  24  40  64  90 131 169 221 269 338 405
#     4   9  20  42  66  89 131 160 216 277 330 405
#     4  12  27  44  68  98 134 177 227 283 337 402
#     4  11  23  41  63  89 126 177 215 278 325 401
#     4   8  18  38  68  90 120 158 216 270 336 400
#
# _framework density 19.332471999999999
#
# number of rings (size 3 to 8) (size 9 to 14) (size 15 to 20)
#    0.000    1.867    2.667    1.600    3.733    8.000 
#    0.000    0.000    0.000    0.000    0.000    0.000 
#    0.000    0.000    0.000    0.000    0.000    0.000 
#
# Total GULP energy -83571.018821 kJ/mol
# GULP energy per Si atom -5571.401255 kJ/mol
# Density = 1.928847 g / cm^3
# Si number density = 19.332472 Si / 1000 Ang^3
#
#
#
# Elastic Constant Matrix: (Units=GPa)
#
#
# Indices 1 2 3 4 5 6 
#
# 1 83.9928 3.5163 12.0473 0.0000 16.1701 0.0000
# 2 3.5163 64.6185 -0.5612 0.0000 2.0845 0.0000
# 3 12.0473 -0.5612 66.4923 0.0000 10.4203 0.0000
# 4 0.0000 0.0000 0.0000 -3.9388 0.0000 6.1029
# 5 16.1701 2.0845 10.4203 0.0000 28.5735 0.0000
# 6 0.0000 0.0000 0.0000 6.1029 0.0000 -0.9216
#
#
#
# Elastic Compliance Matrix: (Units=1/GPa)
#
#
# Indices 1 2 3 4 5 6 
#
# 1 0.013487 -0.000516 -0.001334 0.000000 -0.007108 0.000000
# 2 -0.000516 0.015538 0.000378 0.000000 -0.000979 0.000000
# 3 -0.001334 0.000378 0.016090 0.000000 -0.005140 0.000000
# 4 0.000000 0.000000 0.000000 0.027416 0.000000 0.181551
# 5 -0.007108 -0.000979 -0.005140 0.000000 0.040966 0.000000
# 6 0.000000 0.000000 0.000000 0.181551 0.000000 0.117174
#
#
# Mechanical properties :
#
#
# Convention : Reuss Voigt Hill
#
# Bulk Modulus (GPa) = 23.71278 27.23424 25.47351
# Shear Modulus (GPa) = 20.18791 18.08268 19.13529
#
# Velocity S-wave (km/s) = 3.23499 3.06167 3.14952
# Velocity P-wave (km/s) = 5.12308 5.15910 5.14112
#
# Compressibility (1/GPa) = 0.04217135
#
# Stress axis : x y z
#
# Youngs Moduli (GPa) = 74.14411 64.35659 62.15117
#
# Poissons Ratio (x) = 0.03322 0.08291
# Poissons Ratio (y) = 0.03827 -0.02350
# Poissons Ratio (z) = 0.09891 -0.02434
#
# Static dielectric constant tensor:
#      x y z
#    x 1.677140 0.000000 -0.008960 
#    y 0.000000 1.759250 0.000000 
#    z -0.008960 0.000000 1.636740 
# 
# From -- ./inp_files/32251.got.cif
#   From: 2010.05.17/outbox.cif.g08.bks.cpg/sg5_17_cif.got.tgz:32251.got - 2010.06.03 18:56:24.
