data_PCOD9129107
_publ_section_title
;
Structure prediction by ZEFSAII (Michael W. Deem and Ramdas Pophale) SiO2 
 PCOD9129107
Probable space group: C 2
;
_chemical_formula_sum "Si O2"
_cell_formula_units_Z 22
_cell_length_a 12.939008
_cell_length_b 4.849574
_cell_length_c 25.619886
_cell_angle_alpha 90.000000
_cell_angle_beta 33.185226
_cell_angle_gamma 90.000000
_cell_volume 879.923380
_symmetry_space_group_name_H-M "C 2"
_symmetry_group_IT_number 5
_symmetry_cell_setting 'monoclinic'
loop_
_space_group_symop_operation_xyz
x,y,z
-x,y,-z
1/2+x,1/2+y,z
1/2-x,1/2+y,-z
loop_
_atom_site_type_symbol
_atom_site_label
_atom_site_fract_x
_atom_site_fract_y
_atom_site_fract_z
Si Si1 0.189571 0.747890 0.329418
Si Si2 0.146293 0.267599 0.277460
Si Si3 0.000000 0.467674 0.500000
Si Si4 0.630410 0.098195 0.660355
Si Si5 0.757991 0.148094 0.146173
Si Si6 0.666904 0.756923 0.005191
O O1 0.251628 0.472042 0.273807
O O2 0.025207 0.656208 0.438547
O O3 0.137380 0.977137 0.309100
O O4 0.337428 0.892862 0.304891
O O5 0.241204 0.347663 0.181742
O O6 0.939419 0.407062 0.357696
O O7 0.184983 0.277616 0.425881
O O8 0.445653 0.275490 0.753568
O O9 0.777858 0.149997 0.075835
O O10 0.440682 0.784556 0.095570
O O11 0.767399 0.037655 0.979392
#
# Coordination Sequence:
#
# PCOD9129107 Si02
#       6
#     4   4   2   4   4   4
#     4  12  25  49  72 108 144 206 258 322 384 441
#     4  10  27  45  77 103 149 206 257 311 391 452
#     4  12  26  52  76 112 162 206 278 332 376 458
#     4  10  26  51  73 109 156 202 262 322 376 470
#     4   9  26  47  77 119 149 202 258 305 385 480
#     4  11  26  48  80 117 157 193 247 319 386 462
#
# _framework density 25.002175999999999
#
# number of rings (size 3 to 8) (size 9 to 14) (size 15 to 20)
#    1.091    0.364    1.818    0.545    7.636    4.364 
#    9.818    0.000    0.000    0.000    0.000    0.000 
#    0.000    0.000    0.000    0.000    0.000    0.000 
#
# Total GULP energy -61486.384447 kJ/mol
# GULP energy per Si atom -5589.671313 kJ/mol
# Density = 2.494527 g / cm^3
# Si number density = 25.002176 Si / 1000 Ang^3
#
#
#
# Elastic Constant Matrix: (Units=GPa)
#
#
# Indices 1 2 3 4 5 6 
#
# 1 141.5139 32.0012 44.0954 -0.0206 -10.2364 0.0136
# 2 32.0012 108.0914 17.0882 -0.0905 -3.2594 0.1288
# 3 44.0954 17.0882 91.8339 -0.0680 -14.0268 0.0151
# 4 -0.0206 -0.0905 -0.0680 28.5940 -0.0277 5.5932
# 5 -10.2364 -3.2594 -14.0268 -0.0277 54.7818 0.0012
# 6 0.0136 0.1288 0.0151 5.5932 0.0012 31.2197
#
#
#
# Elastic Compliance Matrix: (Units=1/GPa)
#
#
# Indices 1 2 3 4 5 6 
#
# 1 0.008716 -0.001974 -0.003733 -0.000010 0.000555 0.000008
# 2 -0.001974 0.009980 -0.000911 0.000037 -0.000008 -0.000047
# 3 -0.003733 -0.000911 0.013255 0.000030 0.002642 -0.000006
# 4 -0.000010 0.000037 0.000030 0.036243 0.000026 -0.006493
# 5 0.000555 -0.000008 0.002642 0.000026 0.019034 -0.000007
# 6 0.000008 -0.000047 -0.000006 -0.006493 -0.000007 0.033195
#
#
# Mechanical properties :
#
#
# Convention : Reuss Voigt Hill
#
# Bulk Modulus (GPa) = 53.43039 58.64543 56.03791
# Shear Modulus (GPa) = 35.74113 39.46939 37.60526
#
# Velocity S-wave (km/s) = 3.78500 3.97752 3.88245
# Velocity P-wave (km/s) = 6.36540 6.67842 6.52379
#
# Compressibility (1/GPa) = 0.01871594
#
# Stress axis : x y z
#
# Youngs Moduli (GPa) = 114.72965 100.20539 75.44466
#
# Poissons Ratio (x) = 0.19776 0.28164
# Poissons Ratio (y) = 0.22643 0.06869
# Poissons Ratio (z) = 0.42830 0.09124
#
# Static dielectric constant tensor:
#      x y z
#    x 1.988990 -0.000020 -0.007150 
#    y -0.000020 2.009120 -0.000050 
#    z -0.007150 -0.000050 2.006980 
# 
# From -- ./inp_files/68465.got.cif
#   From: 2010.05.17/outbox.cif.g08.bks.cpg/sg5_35_cif.got.tgz:68465.got - 2010.06.03 18:56:24.
