data_PCOD9129418
_publ_section_title
;
Structure prediction by ZEFSAII (Michael W. Deem and Ramdas Pophale) SiO2 
 PCOD9129418
Probable space group: C 2
;
_chemical_formula_sum "Si O2"
_cell_formula_units_Z 24
_cell_length_a 12.735141
_cell_length_b 17.760044
_cell_length_c 7.713666
_cell_angle_alpha 90.000000
_cell_angle_beta 33.727565
_cell_angle_gamma 90.000000
_cell_volume 968.708212
_symmetry_space_group_name_H-M "C 2"
_symmetry_group_IT_number 5
_symmetry_cell_setting 'monoclinic'
loop_
_space_group_symop_operation_xyz
x,y,z
-x,y,-z
1/2+x,1/2+y,z
1/2-x,1/2+y,-z
loop_
_atom_site_type_symbol
_atom_site_label
_atom_site_fract_x
_atom_site_fract_y
_atom_site_fract_z
Si Si1 0.513261 0.452730 0.771105
Si Si2 0.540633 0.147265 0.239322
Si Si3 0.115613 0.479519 0.163588
Si Si4 0.175972 0.250994 0.344734
Si Si5 0.125837 0.121950 0.656913
Si Si6 0.351441 0.861278 0.325895
O O1 0.588339 0.537540 0.647541
O O2 0.673450 0.398428 0.477787
O O3 0.500000 0.442928 0.000000
O O4 0.314649 0.444661 0.948367
O O5 0.500000 0.157205 0.500000
O O6 0.341907 0.137806 0.413266
O O7 0.641928 0.066290 0.067578
O O8 0.661987 0.216128 0.996542
O O9 0.000000 0.488859 0.500000
O O10 0.981316 0.428317 0.228012
O O11 0.076346 0.181019 0.577895
O O12 0.238919 0.307282 0.407366
O O13 0.000000 0.293732 0.500000
O O14 0.000000 0.132272 0.000000
O O15 0.500000 0.818335 0.000000
#
# Coordination Sequence:
#
# PCOD9129418 Si02
#       6
#     4   4   4   4   4   4
#     4  11  22  42  78 109 145 200 257 310 371 443
#     4  11  23  44  77 114 144 195 258 315 372 448
#     4  11  21  45  77 111 150 190 256 324 372 444
#     4  12  27  47  72 105 155 202 247 314 384 445
#     4  11  22  44  73 111 149 193 254 312 369 446
#     4  12  28  48  73 110 157 204 251 308 387 453
#
# _framework density 24.775261
#
# number of rings (size 3 to 8) (size 9 to 14) (size 15 to 20)
#    0.000    0.667    3.333    6.500    2.333    2.000 
#    0.000    0.000    3.667    0.000    0.000    0.000 
#    0.000    0.000    0.000    0.000    0.000    0.000 
#
# Total GULP energy -67236.022861 kJ/mol
# GULP energy per Si atom -5603.001905 kJ/mol
# Density = 2.471887 g / cm^3
# Si number density = 24.775261 Si / 1000 Ang^3
#
#
#
# Elastic Constant Matrix: (Units=GPa)
#
#
# Indices 1 2 3 4 5 6 
#
# 1 92.1426 14.2184 40.1196 -0.0006 -28.2455 0.0001
# 2 14.2184 93.2908 43.3378 0.0001 1.1727 -0.0002
# 3 40.1196 43.3378 136.6488 -0.0008 -18.4120 0.0002
# 4 -0.0006 0.0001 -0.0008 33.4152 0.0006 1.5456
# 5 -28.2455 1.1727 -18.4120 0.0006 55.6531 -0.0004
# 6 0.0001 -0.0002 0.0002 1.5456 -0.0004 15.8073
#
#
#
# Elastic Compliance Matrix: (Units=1/GPa)
#
#
# Indices 1 2 3 4 5 6 
#
# 1 0.014226 -0.000815 -0.003080 0.000000 0.006218 0.000000
# 2 -0.000815 0.012766 -0.004083 0.000000 -0.002034 0.000000
# 3 -0.003080 -0.004083 0.009753 0.000000 0.001749 0.000000
# 4 0.000000 0.000000 0.000000 0.030062 0.000000 -0.002939
# 5 0.006218 -0.002034 0.001749 0.000000 0.021746 0.000000
# 6 0.000000 0.000000 0.000000 -0.002939 0.000000 0.063549
#
#
# Mechanical properties :
#
#
# Convention : Reuss Voigt Hill
#
# Bulk Modulus (GPa) = 48.10707 57.49265 52.79986
# Shear Modulus (GPa) = 28.57316 35.93554 32.25435
#
# Velocity S-wave (km/s) = 3.39970 3.81262 3.61207
# Velocity P-wave (km/s) = 5.90510 6.52974 6.22526
#
# Compressibility (1/GPa) = 0.02078697
#
# Stress axis : x y z
#
# Youngs Moduli (GPa) = 70.29462 78.33373 102.53155
#
# Poissons Ratio (x) = 0.06387 0.31582
# Poissons Ratio (y) = 0.05732 0.41867
# Poissons Ratio (z) = 0.21652 0.31986
#
# Static dielectric constant tensor:
#      x y z
#    x 2.029590 0.000000 0.029870 
#    y 0.000000 1.948870 0.000000 
#    z 0.029870 0.000000 1.951990 
# 
# From -- ./inp_files/25148.got.cif
#   From: 2010.05.17/outbox.cif.g08.bks.cpg/sg5_13_cif.got.tgz:25148.got - 2010.06.03 18:56:24.
