data_PCOD9129637
_publ_section_title
;
Structure prediction by ZEFSAII (Michael W. Deem and Ramdas Pophale) SiO2 
 PCOD9129637
Probable space group: C 2
;
_chemical_formula_sum "Si O2"
_cell_formula_units_Z 28
_cell_length_a 15.990489
_cell_length_b 7.434271
_cell_length_c 19.945287
_cell_angle_alpha 90.000000
_cell_angle_beta 28.141811
_cell_angle_gamma 90.000000
_cell_volume 1118.317978
_symmetry_space_group_name_H-M "C 2"
_symmetry_group_IT_number 5
_symmetry_cell_setting 'monoclinic'
loop_
_space_group_symop_operation_xyz
x,y,z
-x,y,-z
1/2+x,1/2+y,z
1/2-x,1/2+y,-z
loop_
_atom_site_type_symbol
_atom_site_label
_atom_site_fract_x
_atom_site_fract_y
_atom_site_fract_z
Si Si1 0.067329 0.023850 0.877401
Si Si2 0.297161 0.436171 0.949026
Si Si3 0.493923 0.283745 0.320020
Si Si4 0.075436 0.426143 0.333771
Si Si5 0.342919 0.616048 0.517621
Si Si6 0.023095 0.280137 0.222905
Si Si7 0.796077 0.780276 0.631511
O O1 0.160637 0.203453 0.782113
O O2 0.926637 0.947010 0.923253
O O3 0.000000 0.056044 0.000000
O O4 0.766373 0.892705 0.230207
O O5 0.361019 0.311269 0.841984
O O6 0.333362 0.628088 0.891175
O O7 0.097055 0.420100 0.115975
O O8 0.442280 0.470845 0.395976
O O9 0.329845 0.190240 0.397952
O O10 0.553249 0.136922 0.332595
O O11 0.047819 0.348731 0.278992
O O12 0.938850 0.301203 0.469175
O O13 0.307547 0.491334 0.607133
O O14 0.822321 0.217391 0.349922
O O15 0.000000 0.718828 0.500000
#
# Coordination Sequence:
#
# PCOD9129637 Si02
#       7
#     4   4   4   4   4   4   4
#     4  11  26  48  78 115 162 204 258 330 393 462
#     4  11  25  43  75 111 150 203 260 319 390 466
#     4  12  24  42  77 111 148 200 260 323 382 471
#     4  12  24  47  75 110 154 201 254 322 389 463
#     4  12  25  45  75 113 154 201 262 320 391 464
#     4  11  22  46  74 108 151 198 258 317 386 463
#     4  11  26  48  75 113 155 201 257 320 389 461
#
# _framework density 25.037600000000001
#
# number of rings (size 3 to 8) (size 9 to 14) (size 15 to 20)
#    0.000    0.571    5.714    1.714    4.000    3.429 
#    0.000    0.000    0.000    0.000    0.000    0.000 
#    0.000    0.000    0.000    0.000    0.000    0.000 
#
# Total GULP energy -78118.845344 kJ/mol
# GULP energy per Si atom -5579.917525 kJ/mol
# Density = 2.498061 g / cm^3
# Si number density = 25.037600 Si / 1000 Ang^3
#
#
#
# Elastic Constant Matrix: (Units=GPa)
#
#
# Indices 1 2 3 4 5 6 
#
# 1 137.9558 28.7405 51.6444 0.0000 -3.3229 0.0000
# 2 28.7405 79.5476 11.5520 0.0001 1.3479 -0.0001
# 3 51.6444 11.5520 96.9441 0.0002 -2.9231 -0.0001
# 4 0.0000 0.0001 0.0002 51.0648 -0.0001 4.0542
# 5 -3.3229 1.3479 -2.9231 -0.0001 44.8800 0.0000
# 6 0.0000 -0.0001 -0.0001 4.0542 0.0000 21.4623
#
#
#
# Elastic Compliance Matrix: (Units=1/GPa)
#
#
# Indices 1 2 3 4 5 6 
#
# 1 0.009634 -0.002794 -0.004784 0.000000 0.000486 0.000000
# 2 -0.002794 0.013613 -0.000153 0.000000 -0.000626 0.000000
# 3 -0.004784 -0.000153 0.012897 0.000000 0.000490 0.000000
# 4 0.000000 0.000000 0.000000 0.019881 0.000000 -0.003756
# 5 0.000486 -0.000626 0.000490 0.000000 0.022368 0.000000
# 6 0.000000 0.000000 0.000000 -0.003756 0.000000 0.047303
#
#
# Mechanical properties :
#
#
# Convention : Reuss Voigt Hill
#
# Bulk Modulus (GPa) = 48.35187 55.36903 51.86045
# Shear Modulus (GPa) = 33.77188 38.31546 36.04367
#
# Velocity S-wave (km/s) = 3.67665 3.91617 3.79830
# Velocity P-wave (km/s) = 6.11370 6.52770 6.32409
#
# Compressibility (1/GPa) = 0.02068172
#
# Stress axis : x y z
#
# Youngs Moduli (GPa) = 103.80393 73.45740 77.53755
#
# Poissons Ratio (x) = 0.20524 0.37097
# Poissons Ratio (y) = 0.29003 0.01183
# Poissons Ratio (z) = 0.49664 0.01121
#
# Static dielectric constant tensor:
#      x y z
#    x 2.011920 0.000000 0.052270 
#    y 0.000000 2.108880 0.000000 
#    z 0.052270 0.000000 2.234170 
# 
# From -- ./inp_files/69412.got.cif
#   From: 2010.05.17/outbox.cif.g08.bks.cpg/sg5_35_cif.got.tgz:69412.got - 2010.06.03 18:56:24.
