data_PCOD9129335
_publ_section_title
;
Structure prediction by ZEFSAII (Michael W. Deem and Ramdas Pophale) SiO2 
 PCOD9129335
Probable space group: C 2
;
_chemical_formula_sum "Si O2"
_cell_formula_units_Z 32
_cell_length_a 17.480064
_cell_length_b 11.461763
_cell_length_c 13.456175
_cell_angle_alpha 90.000000
_cell_angle_beta 32.814370
_cell_angle_gamma 90.000000
_cell_volume 1461.000806
_symmetry_space_group_name_H-M "C 2"
_symmetry_group_IT_number 5
_symmetry_cell_setting 'monoclinic'
loop_
_space_group_symop_operation_xyz
x,y,z
-x,y,-z
1/2+x,1/2+y,z
1/2-x,1/2+y,-z
loop_
_atom_site_type_symbol
_atom_site_label
_atom_site_fract_x
_atom_site_fract_y
_atom_site_fract_z
Si Si1 0.089840 0.956490 0.820056
Si Si2 0.531908 0.623620 0.197923
Si Si3 0.321723 0.796599 0.356751
Si Si4 0.005642 0.502564 0.209229
Si Si5 0.890514 0.498075 0.552029
Si Si6 0.742063 0.723066 0.795004
Si Si7 0.320873 0.417263 0.846869
Si Si8 0.006068 0.762877 0.788747
O O1 0.008315 0.840692 0.883599
O O2 0.245336 0.935168 0.686640
O O3 0.076326 0.033637 0.737069
O O4 0.000000 0.023016 0.000000
O O5 0.425662 0.732906 0.323652
O O6 0.603645 0.542346 0.205583
O O7 0.646579 0.673182 0.991613
O O8 0.330691 0.748840 0.233315
O O9 0.160866 0.779545 0.568383
O O10 0.384052 0.926925 0.289774
O O11 0.960479 0.524697 0.371462
O O12 0.021977 0.631660 0.150517
O O13 0.155688 0.439497 0.044666
O O14 0.846937 0.616692 0.655958
O O15 0.000000 0.429790 0.500000
O O16 0.818040 0.843964 0.746234
O O17 0.390574 0.322010 0.843918
#
# Coordination Sequence:
#
# PCOD9129335 Si02
#       8
#     4   4   4   4   4   4   4   4
#     4  11  21  40  65  94 131 185 238 293 349 434
#     4  11  21  41  69 100 140 185 235 294 366 432
#     4  12  24  42  77  99 143 193 250 291 368 441
#     4  12  25  45  67 105 145 188 235 308 366 433
#     4  12  23  38  69 102 135 175 241 302 353 427
#     4  12  23  43  72 108 138 189 248 303 346 453
#     4  11  26  41  70 103 146 180 239 306 375 424
#     4  11  25  45  66 100 141 191 234 303 367 439
#
# _framework density 21.902795000000001
#
# number of rings (size 3 to 8) (size 9 to 14) (size 15 to 20)
#    0.000    0.500    6.250    2.625    3.500    0.000 
#    2.250    0.000    0.000    0.000    0.000    0.000 
#    0.000    0.000    0.000    0.000    0.000    0.000 
#
# Total GULP energy -89197.576681 kJ/mol
# GULP energy per Si atom -5574.848543 kJ/mol
# Density = 2.185294 g / cm^3
# Si number density = 21.902795 Si / 1000 Ang^3
#
#
#
# Elastic Constant Matrix: (Units=GPa)
#
#
# Indices 1 2 3 4 5 6 
#
# 1 86.1328 19.9715 9.5463 0.0000 -20.1703 0.0000
# 2 19.9715 105.9395 7.1254 0.0000 -11.1512 0.0000
# 3 9.5463 7.1254 48.2531 0.0000 -14.3065 0.0000
# 4 0.0000 0.0000 0.0000 8.2667 0.0000 -14.6770
# 5 -20.1703 -11.1512 -14.3065 0.0000 32.7436 0.0000
# 6 0.0000 0.0000 0.0000 -14.6770 0.0000 26.6208
#
#
#
# Elastic Compliance Matrix: (Units=1/GPa)
#
#
# Indices 1 2 3 4 5 6 
#
# 1 0.013885 -0.001778 -0.000147 0.000000 0.007883 0.000000
# 2 -0.001778 0.010030 -0.000507 0.000000 0.002099 0.000000
# 3 -0.000147 -0.000507 0.023838 0.000001 0.010152 0.000000
# 4 0.000000 0.000000 0.000001 5.723174 0.000000 3.155386
# 5 0.007883 0.002099 0.010152 0.000000 0.040547 0.000000
# 6 0.000000 0.000000 0.000000 3.155386 0.000000 1.777239
#
#
# Mechanical properties :
#
#
# Convention : Reuss Voigt Hill
#
# Bulk Modulus (GPa) = 23.31627 34.84574 29.08101
# Shear Modulus (GPa) = 0.65721 27.10504 13.88113
#
# Velocity S-wave (km/s) = 0.54837 3.52165 2.52019
# Velocity P-wave (km/s) = 3.32707 5.69911 4.66633
#
# Compressibility (1/GPa) = 0.04288851
#
# Stress axis : x y z
#
# Youngs Moduli (GPa) = 72.02233 99.70545 41.94973
#
# Poissons Ratio (x) = 0.17726 0.00617
# Poissons Ratio (y) = 0.12804 0.02127
# Poissons Ratio (z) = 0.01059 0.05055
#
# Static dielectric constant tensor:
#      x y z
#    x 1.870920 0.000000 0.037550 
#    y 0.000000 1.896280 0.000000 
#    z 0.037550 0.000000 1.933770 
# 
# From -- ./inp_files/56015.got.cif
#   From: 2010.05.17/outbox.cif.g08.bks.cpg/sg5_29_cif.got.tgz:56015.got - 2010.06.03 18:56:24.
