data_PCOD9129916
_publ_section_title
;
Structure prediction by ZEFSAII (Michael W. Deem and Ramdas Pophale) SiO2 
 PCOD9129916
Probable space group: C 2
;
_chemical_formula_sum "Si O2"
_cell_formula_units_Z 30
_cell_length_a 8.638639
_cell_length_b 14.146710
_cell_length_c 11.024051
_cell_angle_alpha 90.000000
_cell_angle_beta 87.633842
_cell_angle_gamma 90.000000
_cell_volume 1346.082098
_symmetry_space_group_name_H-M "C 2"
_symmetry_group_IT_number 5
_symmetry_cell_setting 'monoclinic'
loop_
_space_group_symop_operation_xyz
x,y,z
-x,y,-z
1/2+x,1/2+y,z
1/2-x,1/2+y,-z
loop_
_atom_site_type_symbol
_atom_site_label
_atom_site_fract_x
_atom_site_fract_y
_atom_site_fract_z
Si Si1 0.000000 0.455900 0.000000
Si Si2 0.771513 0.705314 0.211541
Si Si3 0.178575 0.612181 0.531455
Si Si4 0.740895 0.296770 0.406002
Si Si5 0.022338 0.863717 0.206190
Si Si6 0.331255 0.529479 0.949259
Si Si7 0.529133 0.868010 0.258538
Si Si8 0.701102 0.443656 0.604525
O O1 0.165223 0.508382 0.020134
O O2 0.023886 0.399858 0.872944
O O3 0.820803 0.652571 0.333322
O O4 0.900529 0.783540 0.163695
O O5 0.720313 0.619897 0.127602
O O6 0.624893 0.771688 0.241788
O O7 0.256392 0.688899 0.440595
O O8 0.279734 0.519998 0.501054
O O9 0.000000 0.598741 0.500000
O O10 0.627946 0.308125 0.297068
O O11 0.682518 0.346684 0.530421
O O12 0.894403 0.348465 0.357703
O O13 0.932207 0.941921 0.291193
O O14 0.122258 0.927744 0.112472
O O15 0.500000 0.555701 0.000000
O O16 0.643632 0.941696 0.319972
#
# Coordination Sequence:
#
# PCOD9129916 Si02
#       8
#     2   4   4   4   4   4   4   4
#     4  12  28  54  80 106 146 208 276 324 388 458
#     4  11  26  47  71 115 152 194 262 314 393 486
#     4  12  23  39  71 110 151 192 239 304 391 480
#     4  12  21  43  70 105 148 192 237 303 389 467
#     4  11  23  49  73 105 153 194 246 319 394 460
#     4  12  28  54  80 109 153 208 268 333 391 461
#     4  11  25  46  70 102 147 194 252 319 378 455
#     4  11  24  40  71 104 150 192 243 309 391 469
#
# _framework density 22.286902999999999
#
# number of rings (size 3 to 8) (size 9 to 14) (size 15 to 20)
#    0.000    0.533    5.333    4.000    4.667    0.000 
#    6.000    0.000    0.000    0.000    0.000    0.000 
#    0.000    0.000    0.000    0.000    0.000    0.000 
#
# Total GULP energy -83704.360886 kJ/mol
# GULP energy per Si atom -5580.290726 kJ/mol
# Density = 2.223618 g / cm^3
# Si number density = 22.286903 Si / 1000 Ang^3
#
#
#
# Elastic Constant Matrix: (Units=GPa)
#
#
# Indices 1 2 3 4 5 6 
#
# 1 105.3471 16.7555 27.2882 0.0000 -2.4920 0.0000
# 2 16.7555 101.4741 24.8792 0.0000 2.2147 0.0000
# 3 27.2882 24.8792 49.5059 0.0000 8.2208 0.0000
# 4 0.0000 0.0000 0.0000 38.9661 0.0000 7.6407
# 5 -2.4920 2.2147 8.2208 0.0000 36.3806 0.0000
# 6 0.0000 0.0000 0.0000 7.6407 0.0000 10.4318
#
#
#
# Elastic Compliance Matrix: (Units=1/GPa)
#
#
# Indices 1 2 3 4 5 6 
#
# 1 0.011259 -0.000337 -0.006409 0.000000 0.002240 0.000000
# 2 -0.000337 0.011263 -0.005566 0.000000 0.000549 0.000000
# 3 -0.006409 -0.005566 0.027581 0.000000 -0.006333 0.000000
# 4 0.000000 0.000000 0.000000 0.029967 0.000000 -0.021950
# 5 0.002240 0.000549 -0.006333 0.000000 0.029038 0.000000
# 6 0.000000 0.000000 0.000000 -0.021950 0.000000 0.111938
#
#
# Mechanical properties :
#
#
# Convention : Reuss Voigt Hill
#
# Bulk Modulus (GPa) = 39.24611 43.79699 41.52155
# Shear Modulus (GPa) = 19.67248 29.64931 24.66090
#
# Velocity S-wave (km/s) = 2.97424 3.65135 3.33005
# Velocity P-wave (km/s) = 5.42610 6.12132 5.78416
#
# Compressibility (1/GPa) = 0.02548023
#
# Stress axis : x y z
#
# Youngs Moduli (GPa) = 88.81733 88.78675 36.25703
#
# Poissons Ratio (x) = 0.02989 0.23237
# Poissons Ratio (y) = 0.02990 0.20180
# Poissons Ratio (z) = 0.56922 0.49417
#
# Static dielectric constant tensor:
#      x y z
#    x 1.877850 0.000000 -0.002390 
#    y 0.000000 1.805850 0.000000 
#    z -0.002390 0.000000 1.842260 
# 
# From -- ./inp_files/36168.got.cif
#   From: 2010.05.17/outbox.cif.g08.bks.cpg/sg5_19_cif.got.tgz:36168.got - 2010.06.03 18:56:24.
