data_PCOD9129081
_publ_section_title
;
Structure prediction by ZEFSAII (Michael W. Deem and Ramdas Pophale) SiO2 
 PCOD9129081
Probable space group: C 2
;
_chemical_formula_sum "Si O2"
_cell_formula_units_Z 28
_cell_length_a 5.363724
_cell_length_b 13.719046
_cell_length_c 17.913740
_cell_angle_alpha 90.000000
_cell_angle_beta 121.509873
_cell_angle_gamma 90.000000
_cell_volume 1123.819386
_symmetry_space_group_name_H-M "C 2"
_symmetry_group_IT_number 5
_symmetry_cell_setting 'monoclinic'
loop_
_space_group_symop_operation_xyz
x,y,z
-x,y,-z
1/2+x,1/2+y,z
1/2-x,1/2+y,-z
loop_
_atom_site_type_symbol
_atom_site_label
_atom_site_fract_x
_atom_site_fract_y
_atom_site_fract_z
Si Si1 0.737751 0.959590 0.100882
Si Si2 0.667531 0.274121 0.805022
Si Si3 0.740560 0.703076 0.332462
Si Si4 0.798823 0.580719 0.765145
Si Si5 0.143957 0.335151 0.445056
Si Si6 0.192110 0.546484 0.409706
Si Si7 0.848816 0.162977 0.055849
O O1 0.913937 0.866149 0.157708
O O2 0.607832 0.002578 0.158445
O O3 0.904820 0.052885 0.093525
O O4 0.500000 0.933115 0.000000
O O5 0.646640 0.278486 0.712260
O O6 0.499881 0.176156 0.801704
O O7 0.006692 0.248357 0.873400
O O8 0.525453 0.620469 0.266560
O O9 0.565451 0.759978 0.368065
O O10 0.007596 0.640229 0.404675
O O11 0.788855 0.546826 0.677552
O O12 0.500000 0.335939 0.500000
O O13 0.046422 0.444810 0.410860
O O14 0.000000 0.307399 0.500000
O O15 0.500000 0.551109 0.500000
O O16 0.500000 0.172501 0.000000
O O17 0.000000 0.172591 0.000000
#
# Coordination Sequence:
#
# PCOD9129081 Si02
#       7
#     4   4   4   4   4   4   4
#     4  11  24  47  75 110 150 205 258 315 389 453
#     4  11  24  48  71 108 149 203 251 320 389 452
#     4  11  26  45  76 106 156 204 252 321 388 454
#     4  11  25  47  74 111 158 199 258 323 377 466
#     4  11  28  47  72 114 150 193 261 315 372 464
#     4  10  26  48  79 109 152 206 257 318 388 456
#     4  11  24  48  75 107 150 192 258 323 381 460
#
# _framework density 24.915037999999999
#
# number of rings (size 3 to 8) (size 9 to 14) (size 15 to 20)
#    0.000    1.143    1.429    3.000   10.000    1.143 
#    7.714    2.857    0.000    0.000    0.000    0.000 
#    0.000    0.000    0.000    0.000    0.000    0.000 
#
# Total GULP energy -78404.829037 kJ/mol
# GULP energy per Si atom -5600.344931 kJ/mol
# Density = 2.485833 g / cm^3
# Si number density = 24.915038 Si / 1000 Ang^3
#
#
#
# Elastic Constant Matrix: (Units=GPa)
#
#
# Indices 1 2 3 4 5 6 
#
# 1 89.0203 16.1347 35.0982 0.0000 -8.0574 0.0000
# 2 16.1347 94.8159 50.4964 0.0000 -2.7052 0.0000
# 3 35.0982 50.4964 130.1894 0.0000 -24.8954 0.0000
# 4 0.0000 0.0000 0.0000 47.6706 0.0000 -8.2357
# 5 -8.0574 -2.7052 -24.8954 0.0000 40.3571 0.0000
# 6 0.0000 0.0000 0.0000 -8.2357 0.0000 28.7298
#
#
#
# Elastic Compliance Matrix: (Units=1/GPa)
#
#
# Indices 1 2 3 4 5 6 
#
# 1 0.012594 -0.000475 -0.003102 0.000000 0.000569 0.000000
# 2 -0.000475 0.013555 -0.005639 0.000000 -0.002665 0.000000
# 3 -0.003102 -0.005639 0.011920 0.000000 0.006356 0.000000
# 4 0.000000 0.000000 0.000000 0.022070 0.000000 0.006327
# 5 0.000569 -0.002665 0.006356 0.000000 0.028635 0.000000
# 6 0.000000 0.000000 0.000000 0.006327 0.000000 0.036621
#
#
# Mechanical properties :
#
#
# Convention : Reuss Voigt Hill
#
# Bulk Modulus (GPa) = 50.92504 57.49825 54.21164
# Shear Modulus (GPa) = 33.25084 37.50459 35.37772
#
# Velocity S-wave (km/s) = 3.65714 3.88403 3.77229
# Velocity P-wave (km/s) = 6.19005 6.57587 6.38587
#
# Compressibility (1/GPa) = 0.01963670
#
# Stress axis : x y z
#
# Youngs Moduli (GPa) = 79.40225 73.77510 83.89178
#
# Poissons Ratio (x) = 0.03502 0.26027
# Poissons Ratio (y) = 0.03769 0.47307
# Poissons Ratio (z) = 0.24634 0.41602
#
# Static dielectric constant tensor:
#      x y z
#    x 1.958560 0.000000 0.033490 
#    y 0.000000 1.929560 0.000000 
#    z 0.033490 0.000000 2.092030 
# 
# From -- ./inp_files/58918.got.cif
#   From: 2010.05.17/outbox.cif.g08.bks.cpg/sg5_30_cif.got.tgz:58918.got - 2010.06.03 18:56:24.
