data_PCOD9129873
_publ_section_title
;
Structure prediction by ZEFSAII (Michael W. Deem and Ramdas Pophale) SiO2 
 PCOD9129873
Probable space group: C 2
;
_chemical_formula_sum "Si O2"
_cell_formula_units_Z 20
_cell_length_a 10.561842
_cell_length_b 10.533011
_cell_length_c 8.576106
_cell_angle_alpha 90.000000
_cell_angle_beta 74.229330
_cell_angle_gamma 90.000000
_cell_volume 918.160629
_symmetry_space_group_name_H-M "C 2"
_symmetry_group_IT_number 5
_symmetry_cell_setting 'monoclinic'
loop_
_space_group_symop_operation_xyz
x,y,z
-x,y,-z
1/2+x,1/2+y,z
1/2-x,1/2+y,-z
loop_
_atom_site_type_symbol
_atom_site_label
_atom_site_fract_x
_atom_site_fract_y
_atom_site_fract_z
Si Si1 0.414177 0.157420 0.188352
Si Si2 0.656198 0.910211 0.920374
Si Si3 0.500000 0.796524 0.500000
Si Si4 0.790770 0.192420 0.331460
Si Si5 0.256395 0.910896 0.759921
Si Si6 0.000000 0.679940 0.500000
O O1 0.338813 0.290242 0.228850
O O2 0.492829 0.128234 0.322053
O O3 0.320440 0.035236 0.192791
O O4 0.500000 0.166534 0.000000
O O5 0.692609 0.779908 0.825260
O O6 0.500000 0.904606 0.000000
O O7 0.725179 0.926850 0.061829
O O8 0.408840 0.720273 0.410631
O O9 0.395313 0.877292 0.633251
O O10 0.647963 0.234857 0.444408
O O11 0.790450 0.043358 0.295808
#
# Coordination Sequence:
#
# PCOD9129873 Si02
#       6
#     4   4   2   4   4   2
#     4  11  26  46  72 106 151 197 245 307 376 442
#     4  11  23  46  75 104 147 199 245 303 378 444
#     4  12  27  49  74 112 153 193 248 314 373 447
#     4  12  27  46  79 106 145 199 250 303 377 443
#     4  12  25  48  72 106 150 194 248 313 369 443
#     4  12  25  47  76 104 149 199 248 302 379 437
#
# _framework density 21.782682000000001
#
# number of rings (size 3 to 8) (size 9 to 14) (size 15 to 20)
#    0.000    0.400    4.000    5.400    2.800    1.600 
#    7.200    0.000    0.000    0.000    0.000    0.000 
#    0.000    0.000    0.000    0.000    0.000    0.000 
#
# Total GULP energy -55831.864607 kJ/mol
# GULP energy per Si atom -5583.186461 kJ/mol
# Density = 2.173310 g / cm^3
# Si number density = 21.782682 Si / 1000 Ang^3
#
#
#
# Elastic Constant Matrix: (Units=GPa)
#
#
# Indices 1 2 3 4 5 6 
#
# 1 89.2032 83.0412 62.2173 0.0000 18.4253 0.0000
# 2 83.0412 165.9081 52.2708 0.0000 -3.5703 0.0000
# 3 62.2173 52.2708 148.0386 0.0000 28.9489 0.0000
# 4 0.0000 0.0000 0.0000 -8.1870 0.0000 13.9015
# 5 18.4253 -3.5703 28.9489 0.0000 55.4056 0.0000
# 6 0.0000 0.0000 0.0000 13.9015 0.0000 38.4852
#
#
#
# Elastic Compliance Matrix: (Units=1/GPa)
#
#
# Indices 1 2 3 4 5 6 
#
# 1 0.028735 -0.012566 -0.006252 0.000000 -0.007099 0.000000
# 2 -0.012566 0.012457 -0.000102 0.000000 0.005035 0.000000
# 3 -0.006252 -0.000102 0.010039 0.000000 -0.003173 0.000000
# 4 0.000000 0.000000 0.000000 -0.075709 0.000000 0.027348
# 5 -0.007099 0.005035 -0.003173 0.000000 0.022392 0.000000
# 6 0.000000 0.000000 0.000000 0.027348 0.000000 0.016106
#
#
# Mechanical properties :
#
#
# Convention : Reuss Voigt Hill
#
# Bulk Modulus (GPa) = 74.66883 88.68984 81.67934
# Shear Modulus (GPa) = 88.77623 30.84881 59.81252
#
# Velocity S-wave (km/s) = 6.39092 3.76734 5.24579
# Velocity P-wave (km/s) = 9.42401 7.72838 8.61800
#
# Compressibility (1/GPa) = 0.01339247
#
# Stress axis : x y z
#
# Youngs Moduli (GPa) = 34.80126 80.27409 99.61305
#
# Poissons Ratio (x) = 1.00869 0.62273
# Poissons Ratio (y) = 0.43730 0.01017
# Poissons Ratio (z) = 0.21756 0.00819
#
# Static dielectric constant tensor:
#      x y z
#    x 1.791440 0.000000 -0.026430 
#    y 0.000000 1.815650 0.000000 
#    z -0.026430 0.000000 1.834640 
# 
# From -- ./inp_files/18284.got.cif
#   From: 2010.05.17/outbox.cif.g08.bks.cpg/sg5_10_cif.got.tgz:18284.got - 2010.06.03 18:56:24.
