data_PCOD9129281
_publ_section_title
;
Structure prediction by ZEFSAII (Michael W. Deem and Ramdas Pophale) SiO2 
 PCOD9129281
Probable space group: C 2
;
_chemical_formula_sum "Si O2"
_cell_formula_units_Z 20
_cell_length_a 10.510339
_cell_length_b 13.866501
_cell_length_c 5.613225
_cell_angle_alpha 90.000000
_cell_angle_beta 96.076858
_cell_angle_gamma 90.000000
_cell_volume 813.483568
_symmetry_space_group_name_H-M "C 2"
_symmetry_group_IT_number 5
_symmetry_cell_setting 'monoclinic'
loop_
_space_group_symop_operation_xyz
x,y,z
-x,y,-z
1/2+x,1/2+y,z
1/2-x,1/2+y,-z
loop_
_atom_site_type_symbol
_atom_site_label
_atom_site_fract_x
_atom_site_fract_y
_atom_site_fract_z
Si Si1 0.697780 0.795240 0.281999
Si Si2 0.262542 0.896605 0.213991
Si Si3 0.349076 0.100197 0.400815
Si Si4 0.500000 0.404251 0.000000
Si Si5 0.379714 0.562297 0.295238
Si Si6 0.500000 0.703822 0.000000
O O1 0.699769 0.858569 0.518234
O O2 0.802635 0.708169 0.312251
O O3 0.555845 0.752655 0.241358
O O4 0.693337 0.846863 0.021790
O O5 0.111665 0.864924 0.184763
O O6 0.309278 0.008981 0.222809
O O7 0.500000 0.098328 0.500000
O O8 0.253306 0.076615 0.601491
O O9 0.411466 0.463199 0.168398
O O10 0.500000 0.572477 0.500000
O O11 0.389656 0.637101 0.082782
#
# Coordination Sequence:
#
# PCOD9129281 Si02
#       6
#     4   4   4   2   4   2
#     4  12  29  49  80 121 164 220 275 343 416 498
#     4  12  29  49  80 121 164 220 275 343 416 498
#     4  12  28  52  83 124 173 213 272 356 425 484
#     4  11  24  46  80 109 158 212 288 331 400 495
#     4  11  20  47  81 111 146 215 280 335 402 494
#     4  11  24  46  80 109 158 212 288 331 400 495
#
# _framework density 24.585622999999998
#
# number of rings (size 3 to 8) (size 9 to 14) (size 15 to 20)
#    0.000    0.400    4.000    3.600    5.600    1.600 
#    0.000    8.000    0.000    0.000    0.000    0.000 
#    0.000    0.000    0.000    0.000    0.000    0.000 
#
# Total GULP energy -55733.673156 kJ/mol
# GULP energy per Si atom -5573.367316 kJ/mol
# Density = 2.452966 g / cm^3
# Si number density = 24.585623 Si / 1000 Ang^3
#
#
#
# Elastic Constant Matrix: (Units=GPa)
#
#
# Indices 1 2 3 4 5 6 
#
# 1 125.6197 -3.4857 33.6961 0.0000 2.3621 0.0000
# 2 -3.4857 94.5558 54.2555 0.0000 1.2035 0.0000
# 3 33.6961 54.2555 151.1922 0.0000 -2.4436 0.0000
# 4 0.0000 0.0000 0.0000 37.1704 0.0000 27.5808
# 5 2.3621 1.2035 -2.4436 0.0000 58.7310 0.0000
# 6 0.0000 0.0000 0.0000 27.5808 0.0000 14.5351
#
#
#
# Elastic Compliance Matrix: (Units=1/GPa)
#
#
# Indices 1 2 3 4 5 6 
#
# 1 0.008719 0.001823 -0.002605 0.000000 -0.000496 0.000000
# 2 0.001823 0.013712 -0.005336 0.000000 -0.000576 0.000000
# 3 -0.002605 -0.005336 0.009119 0.000000 0.000594 0.000000
# 4 0.000000 0.000000 0.000000 -0.065941 0.000000 0.125125
# 5 -0.000496 -0.000576 0.000594 0.000000 0.017083 0.000000
# 6 0.000000 0.000000 0.000000 0.125125 0.000000 -0.168630
#
#
# Mechanical properties :
#
#
# Convention : Reuss Voigt Hill
#
# Bulk Modulus (GPa) = 51.77854 60.03328 55.90591
# Shear Modulus (GPa) = -29.89336 41.21408 5.66036
#
# Velocity S-wave (km/s) = -3.49074 4.09877 1.51898
# Velocity P-wave (km/s) = 2.20436 6.84623 5.08577
#
# Compressibility (1/GPa) = 0.01931302
#
# Stress axis : x y z
#
# Youngs Moduli (GPa) = 114.68804 72.92808 109.65837
#
# Poissons Ratio (x) = -0.13293 0.28570
# Poissons Ratio (y) = -0.20904 0.58515
# Poissons Ratio (z) = 0.29880 0.38916
#
# Static dielectric constant tensor:
#      x y z
#    x 2.054600 0.000000 0.081470 
#    y 0.000000 2.146060 0.000000 
#    z 0.081470 0.000000 1.941730 
# 
# From -- ./inp_files/4720.got.cif
#   From: 2010.05.17/outbox.cif.g08.bks.cpg/sg5_3_cif.got.tgz:4720.got - 2010.06.03 18:56:24.
