data_PCOD9129935
_publ_section_title
;
Structure prediction by ZEFSAII (Michael W. Deem and Ramdas Pophale) SiO2 
 PCOD9129935
Probable space group: C 2
;
_chemical_formula_sum "Si O2"
_cell_formula_units_Z 30
_cell_length_a 16.143782
_cell_length_b 16.489600
_cell_length_c 12.463426
_cell_angle_alpha 90.000000
_cell_angle_beta 26.597433
_cell_angle_gamma 90.000000
_cell_volume 1485.451224
_symmetry_space_group_name_H-M "C 2"
_symmetry_group_IT_number 5
_symmetry_cell_setting 'monoclinic'
loop_
_space_group_symop_operation_xyz
x,y,z
-x,y,-z
1/2+x,1/2+y,z
1/2-x,1/2+y,-z
loop_
_atom_site_type_symbol
_atom_site_label
_atom_site_fract_x
_atom_site_fract_y
_atom_site_fract_z
Si Si1 0.156131 0.048780 0.729186
Si Si2 0.524575 0.174662 0.586402
Si Si3 0.824038 0.973677 0.768365
Si Si4 0.077663 0.835320 0.187770
Si Si5 0.543716 0.776147 0.324618
Si Si6 0.198212 0.391405 0.544901
Si Si7 0.500000 0.923293 0.000000
Si Si8 0.856531 0.106970 0.905998
O O1 0.292116 0.120988 0.611935
O O2 0.027042 0.080869 0.782422
O O3 0.294886 0.978832 0.523140
O O4 0.000000 0.024727 0.000000
O O5 0.500000 0.216356 0.500000
O O6 0.506041 0.246731 0.692344
O O7 0.335840 0.123399 0.811037
O O8 0.865955 0.885534 0.771009
O O9 0.000000 0.001895 0.500000
O O10 0.802175 0.035118 0.889659
O O11 0.658137 0.972244 0.877201
O O12 0.915173 0.880232 0.315166
O O13 0.265697 0.826096 0.905210
O O14 0.500000 0.766944 0.500000
O O15 0.393924 0.825817 0.427575
O O16 0.583479 0.689015 0.224665
O O17 0.099897 0.383661 0.777689
#
# Coordination Sequence:
#
# PCOD9129935 Si02
#       8
#     4   4   4   4   4   4   2   4
#     4  12  25  44  70 104 142 186 232 289 347 422
#     4  11  24  41  65  98 136 179 227 288 347 404
#     4  12  22  42  70  98 135 174 226 289 346 406
#     4  11  24  44  67 102 136 175 235 281 350 415
#     4  11  27  46  69 101 140 186 231 287 349 423
#     4  12  26  42  71 104 139 187 234 287 351 409
#     4  12  24  42  68 108 136 176 242 294 338 412
#     4  11  24  46  67  98 138 181 234 280 354 410
#
# _framework density 20.195882999999998
#
# number of rings (size 3 to 8) (size 9 to 14) (size 15 to 20)
#    0.000    0.533    5.333    2.400    1.867    0.533 
#    2.400    2.667    0.000    0.000    0.000    0.000 
#    0.000    0.000    0.000    0.000    0.000    0.000 
#
# Total GULP energy -83662.382742 kJ/mol
# GULP energy per Si atom -5577.492183 kJ/mol
# Density = 2.014992 g / cm^3
# Si number density = 20.195883 Si / 1000 Ang^3
#
#
#
# Elastic Constant Matrix: (Units=GPa)
#
#
# Indices 1 2 3 4 5 6 
#
# 1 134.8274 25.1892 37.5006 0.0031 -16.4871 -0.0026
# 2 25.1892 52.8987 9.4185 0.0083 -11.8690 -0.0110
# 3 37.5006 9.4185 63.3564 0.0093 -0.8208 -0.0123
# 4 0.0031 0.0083 0.0093 24.9197 -0.0035 -6.6585
# 5 -16.4871 -11.8690 -0.8208 -0.0035 41.2112 0.0045
# 6 -0.0026 -0.0110 -0.0123 -6.6585 0.0045 9.9674
#
#
#
# Elastic Compliance Matrix: (Units=1/GPa)
#
#
# Indices 1 2 3 4 5 6 
#
# 1 0.009832 -0.003074 -0.005324 0.000000 0.002942 -0.000009
# 2 -0.003074 0.021730 -0.001346 -0.000001 0.005002 0.000019
# 3 -0.005324 -0.001346 0.019108 -0.000001 -0.002137 0.000021
# 4 0.000000 -0.000001 -0.000001 0.048848 0.000000 0.032632
# 5 0.002942 0.005002 -0.002137 0.000000 0.026840 -0.000008
# 6 -0.000009 0.000019 0.000021 0.032632 -0.000008 0.122126
#
#
# Mechanical properties :
#
#
# Convention : Reuss Voigt Hill
#
# Bulk Modulus (GPa) = 32.07117 43.92209 37.99663
# Shear Modulus (GPa) = 17.96201 27.15128 22.55665
#
# Velocity S-wave (km/s) = 2.98550 3.67058 3.34562
# Velocity P-wave (km/s) = 5.27246 6.30551 5.81198
#
# Compressibility (1/GPa) = 0.03118065
#
# Stress axis : x y z
#
# Youngs Moduli (GPa) = 101.71080 46.02022 52.33494
#
# Poissons Ratio (x) = 0.14145 0.27865
# Poissons Ratio (y) = 0.31261 0.07046
# Poissons Ratio (z) = 0.54155 0.06195
#
# Static dielectric constant tensor:
#      x y z
#    x 1.711970 0.000000 0.052770 
#    y 0.000000 1.713110 0.000000 
#    z 0.052770 0.000000 1.760950 
# 
# From -- ./inp_files/43295.got.cif
#   From: 2010.05.17/outbox.cif.g08.bks.cpg/sg5_22_cif.got.tgz:43295.got - 2010.06.03 18:56:24.
