data_PCOD9129664
_publ_section_title
;
Structure prediction by ZEFSAII (Michael W. Deem and Ramdas Pophale) SiO2 
 PCOD9129664
Probable space group: C 2
;
_chemical_formula_sum "Si O2"
_cell_formula_units_Z 30
_cell_length_a 5.128697
_cell_length_b 23.788674
_cell_length_c 12.838882
_cell_angle_alpha 90.000000
_cell_angle_beta 95.282525
_cell_angle_gamma 90.000000
_cell_volume 1559.753724
_symmetry_space_group_name_H-M "C 2"
_symmetry_group_IT_number 5
_symmetry_cell_setting 'monoclinic'
loop_
_space_group_symop_operation_xyz
x,y,z
-x,y,-z
1/2+x,1/2+y,z
1/2-x,1/2+y,-z
loop_
_atom_site_type_symbol
_atom_site_label
_atom_site_fract_x
_atom_site_fract_y
_atom_site_fract_z
Si Si1 0.553057 0.606080 0.262900
Si Si2 0.730178 0.316844 0.924940
Si Si3 0.500000 0.111245 0.000000
Si Si4 0.393728 0.518784 0.103675
Si Si5 0.160561 0.193790 0.112871
Si Si6 0.573058 0.940052 0.624763
Si Si7 0.553523 0.072041 0.379734
Si Si8 0.630864 0.413698 0.755808
O O1 0.588412 0.555065 0.181561
O O2 0.500375 0.662916 0.197528
O O3 0.835686 0.611916 0.322941
O O4 0.333048 0.587343 0.338401
O O5 0.765483 0.257886 0.865395
O O6 0.636736 0.363909 0.840054
O O7 0.500000 0.308466 0.000000
O O8 0.000000 0.330036 0.000000
O O9 0.701494 0.068031 0.059536
O O10 0.391354 0.151645 0.086375
O O11 0.300147 0.469069 0.173284
O O12 0.500000 0.493690 0.000000
O O13 0.000000 0.195640 0.000000
O O14 0.500000 0.931261 0.500000
O O15 0.364274 0.905314 0.683516
O O16 0.862409 0.925130 0.680419
O O17 0.513834 0.006328 0.642455
O O18 0.500000 0.078462 0.500000
#
# Coordination Sequence:
#
# PCOD9129664 Si02
#       8
#     4   4   2   4   4   4   4   4
#     4  12  21  38  61  91 123 167 209 255 316 376
#     4  11  25  44  64  91 132 178 219 261 311 382
#     4  12  20  36  56  84 136 164 210 246 298 368
#     4  12  24  32  56  92 132 164 196 251 313 382
#     4  11  23  38  62  91 126 176 219 255 298 382
#     4  11  23  42  66  92 126 164 217 267 328 393
#     4  11  23  39  60  91 128 163 205 265 324 386
#     4  12  25  41  63  95 131 168 212 266 327 384
#
# _framework density 19.233806999999999
#
# number of rings (size 3 to 8) (size 9 to 14) (size 15 to 20)
#    0.000    0.533    6.000    2.800    2.800    2.133 
#    0.000    0.000    0.000    3.200    0.000    0.000 
#    0.000    0.000    0.000    0.000    0.000    0.000 
#
# Total GULP energy -83656.656034 kJ/mol
# GULP energy per Si atom -5577.110402 kJ/mol
# Density = 1.919003 g / cm^3
# Si number density = 19.233807 Si / 1000 Ang^3
#
#
#
# Elastic Constant Matrix: (Units=GPa)
#
#
# Indices 1 2 3 4 5 6 
#
# 1 66.3394 -9.1416 17.8406 0.0000 -6.5663 0.0000
# 2 -9.1416 87.7393 31.6858 0.0000 1.7018 0.0000
# 3 17.8406 31.6858 100.1712 0.0000 -10.3205 0.0000
# 4 0.0000 0.0000 0.0000 18.5481 0.0000 -5.1380
# 5 -6.5663 1.7018 -10.3205 0.0000 27.2883 0.0000
# 6 0.0000 0.0000 0.0000 -5.1380 0.0000 11.9385
#
#
#
# Elastic Compliance Matrix: (Units=1/GPa)
#
#
# Indices 1 2 3 4 5 6 
#
# 1 0.016723 0.003025 -0.003684 0.000000 0.002442 0.000000
# 2 0.003025 0.013572 -0.005041 0.000000 -0.002025 0.000000
# 3 -0.003684 -0.005041 0.012668 0.000000 0.004219 0.000000
# 4 0.000000 0.000000 0.000000 0.061211 0.000000 0.026344
# 5 0.002442 -0.002025 0.004219 0.000000 0.038955 0.000000
# 6 0.000000 0.000000 0.000000 0.026344 0.000000 0.095101
#
#
# Mechanical properties :
#
#
# Convention : Reuss Voigt Hill
#
# Bulk Modulus (GPa) = 31.67996 37.22438 34.45217
# Shear Modulus (GPa) = 19.21962 25.81264 22.51613
#
# Velocity S-wave (km/s) = 3.16454 3.66737 3.42519
# Velocity P-wave (km/s) = 5.46435 6.10970 5.79601
#
# Compressibility (1/GPa) = 0.03156570
#
# Stress axis : x y z
#
# Youngs Moduli (GPa) = 59.79679 73.67998 78.93847
#
# Poissons Ratio (x) = -0.22291 0.29079
# Poissons Ratio (y) = -0.18091 0.39789
# Poissons Ratio (z) = 0.22028 0.37139
#
# Static dielectric constant tensor:
#      x y z
#    x 1.751650 0.000000 0.044370 
#    y 0.000000 1.687560 0.000000 
#    z 0.044370 0.000000 1.783710 
# 
# From -- ./inp_files/33965.got.cif
#   From: 2010.05.17/outbox.cif.g08.bks.cpg/sg5_17_cif.got.tgz:33965.got - 2010.06.03 18:56:24.
