data_PCOD9129296
_publ_section_title
;
Structure prediction by ZEFSAII (Michael W. Deem and Ramdas Pophale) SiO2 
 PCOD9129296
Probable space group: C 2
;
_chemical_formula_sum "Si O2"
_cell_formula_units_Z 24
_cell_length_a 22.816158
_cell_length_b 4.921346
_cell_length_c 11.293550
_cell_angle_alpha 90.000000
_cell_angle_beta 48.528252
_cell_angle_gamma 90.000000
_cell_volume 950.172383
_symmetry_space_group_name_H-M "C 2"
_symmetry_group_IT_number 5
_symmetry_cell_setting 'monoclinic'
loop_
_space_group_symop_operation_xyz
x,y,z
-x,y,-z
1/2+x,1/2+y,z
1/2-x,1/2+y,-z
loop_
_atom_site_type_symbol
_atom_site_label
_atom_site_fract_x
_atom_site_fract_y
_atom_site_fract_z
Si Si1 0.643556 0.669540 0.383532
Si Si2 0.610827 0.485315 0.182733
Si Si3 0.232779 0.911695 0.601391
Si Si4 0.951010 0.656899 0.413649
Si Si5 0.477061 0.831305 0.865570
Si Si6 0.902258 0.833086 0.048561
O O1 0.661340 0.550875 0.229568
O O2 0.713197 0.795026 0.365784
O O3 0.605655 0.415330 0.503160
O O4 0.580524 0.915372 0.460725
O O5 0.535710 0.300307 0.319300
O O6 0.574972 0.768255 0.182029
O O7 0.644420 0.361719 0.015447
O O8 0.240167 0.698669 0.484943
O O9 0.148022 0.927604 0.774780
O O10 0.952679 0.500817 0.283872
O O11 0.475721 0.530138 0.919470
O O12 0.430364 0.025138 0.016663
#
# Coordination Sequence:
#
# PCOD9129296 Si02
#       6
#     4   4   4   4   4   4
#     4  12  25  37  66 103 136 180 217 266 340 403
#     4   9  22  35  66 101 137 162 199 269 353 406
#     4  12  27  51  67  90 129 188 244 280 311 374
#     4  11  21  36  63 106 145 165 205 265 351 433
#     4   9  18  36  62  98 132 168 192 258 346 402
#     4   9  20  40  66  91 124 174 218 271 329 393
#
# _framework density 25.258573999999999
#
# number of rings (size 3 to 8) (size 9 to 14) (size 15 to 20)
#    1.000    0.667    1.667    2.500    7.000    0.000 
#    3.000    0.000    0.000   41.000    0.000    0.000 
#    0.000    0.000    0.000    0.000    0.000    0.000 
#
# Total GULP energy -66980.013188 kJ/mol
# GULP energy per Si atom -5581.667766 kJ/mol
# Density = 2.520108 g / cm^3
# Si number density = 25.258574 Si / 1000 Ang^3
#
#
#
# Elastic Constant Matrix: (Units=GPa)
#
#
# Indices 1 2 3 4 5 6 
#
# 1 97.3671 -7.3798 11.3500 0.0000 16.2328 0.0002
# 2 -7.3798 147.7726 16.6103 0.0000 -10.3430 0.0007
# 3 11.3500 16.6103 104.5737 -0.0001 8.6220 0.0002
# 4 0.0000 0.0000 -0.0001 29.1496 -0.0001 -1.1161
# 5 16.2328 -10.3430 8.6220 -0.0001 25.3747 0.0001
# 6 0.0002 0.0007 0.0002 -1.1161 0.0001 25.5270
#
#
#
# Elastic Compliance Matrix: (Units=1/GPa)
#
#
# Indices 1 2 3 4 5 6 
#
# 1 0.011545 0.000159 -0.000694 0.000000 -0.007085 0.000000
# 2 0.000159 0.007167 -0.001428 0.000000 0.003305 0.000000
# 3 -0.000694 -0.001428 0.010161 0.000000 -0.003591 0.000000
# 4 0.000000 0.000000 0.000000 0.034363 0.000000 0.001502
# 5 -0.007085 0.003305 -0.003591 0.000000 0.046509 0.000000
# 6 0.000000 0.000000 0.000000 0.001502 0.000000 0.039240
#
#
# Mechanical properties :
#
#
# Convention : Reuss Voigt Hill
#
# Bulk Modulus (GPa) = 40.08770 43.43047 41.75909
# Shear Modulus (GPa) = 31.01228 37.95245 34.48237
#
# Velocity S-wave (km/s) = 3.50779 3.88049 3.69884
# Velocity P-wave (km/s) = 5.68432 6.10813 5.90003
#
# Compressibility (1/GPa) = 0.02494531
#
# Stress axis : x y z
#
# Youngs Moduli (GPa) = 86.62128 139.52972 98.41704
#
# Poissons Ratio (x) = -0.02214 0.06831
# Poissons Ratio (y) = -0.01374 0.14055
# Poissons Ratio (z) = 0.06012 0.19926
#
# Static dielectric constant tensor:
#      x y z
#    x 2.159240 0.000000 0.062860 
#    y 0.000000 1.914680 0.000000 
#    z 0.062860 0.000000 2.009610 
# 
# From -- ./inp_files/46910.got.cif
#   From: 2010.05.17/outbox.cif.g08.bks.cpg/sg5_24_cif.got.tgz:46910.got - 2010.06.03 18:56:24.
