data_PCOD9129863
_publ_section_title
;
Structure prediction by ZEFSAII (Michael W. Deem and Ramdas Pophale) SiO2 
 PCOD9129863
Probable space group: C 2
;
_chemical_formula_sum "Si O2"
_cell_formula_units_Z 20
_cell_length_a 10.354375
_cell_length_b 9.579664
_cell_length_c 22.944652
_cell_angle_alpha 90.000000
_cell_angle_beta 154.491829
_cell_angle_gamma 90.000000
_cell_volume 980.098710
_symmetry_space_group_name_H-M "C 2"
_symmetry_group_IT_number 5
_symmetry_cell_setting 'monoclinic'
loop_
_space_group_symop_operation_xyz
x,y,z
-x,y,-z
1/2+x,1/2+y,z
1/2-x,1/2+y,-z
loop_
_atom_site_type_symbol
_atom_site_label
_atom_site_fract_x
_atom_site_fract_y
_atom_site_fract_z
Si Si1 0.077969 0.154790 0.969298
Si Si2 0.299229 0.654798 0.469305
Si Si3 0.210604 0.175095 0.750017
Si Si4 0.439201 0.385309 0.249998
Si Si5 0.259155 0.462363 0.749993
O O1 0.867490 0.293771 0.880216
O O2 0.986997 0.056981 0.878974
O O3 0.431932 0.173806 0.112635
O O4 0.000000 0.088466 0.000000
O O5 0.500000 0.588499 0.500000
O O6 0.518619 0.673802 0.612648
O O7 0.153351 0.793785 0.380218
O O8 0.028948 0.556968 0.378991
O O9 0.158238 0.333142 0.750017
O O10 0.122014 0.039101 0.750025
O O11 0.593436 0.409029 0.250015
#
# Coordination Sequence:
#
# PCOD9129863 Si02
#       5
#     4   4   4   4   4
#     4  11  23  46  70  95 141 182 223 281 348 404
#     4  11  23  46  70  95 141 182 223 281 348 404
#     4  12  23  40  71 103 130 178 233 279 334 407
#     4  11  25  47  70  96 140 187 223 281 348 404
#     4  11  24  47  67  99 138 183 226 284 340 411
#
# _framework density 20.406106999999999
#
# number of rings (size 3 to 8) (size 9 to 14) (size 15 to 20)
#    0.000    0.800    4.000    3.600    0.000    0.000 
#   21.600    0.000    0.000    0.000    0.000    0.000 
#    0.000    0.000    0.000    0.000    0.000    0.000 
#
# Total GULP energy -55814.263287 kJ/mol
# GULP energy per Si atom -5581.426329 kJ/mol
# Density = 2.035966 g / cm^3
# Si number density = 20.406107 Si / 1000 Ang^3
#
#
#
# Elastic Constant Matrix: (Units=GPa)
#
#
# Indices 1 2 3 4 5 6 
#
# 1 76.7521 72.6139 46.5043 0.0003 -0.9767 0.0001
# 2 72.6139 154.4384 69.7845 0.0003 0.2025 0.0000
# 3 46.5043 69.7845 184.0858 0.0043 -6.1234 0.0002
# 4 0.0003 0.0003 0.0043 18.0680 0.0005 1.6094
# 5 -0.9767 0.2025 -6.1234 0.0005 22.9632 0.0000
# 6 0.0001 0.0000 0.0002 1.6094 0.0000 42.1724
#
#
#
# Elastic Compliance Matrix: (Units=1/GPa)
#
#
# Indices 1 2 3 4 5 6 
#
# 1 0.024172 -0.010396 -0.002147 0.000000 0.000547 0.000000
# 2 -0.010396 0.012301 -0.002074 0.000000 -0.001104 0.000000
# 3 -0.002147 -0.002074 0.006819 -0.000002 0.001745 0.000000
# 4 0.000000 0.000000 -0.000002 0.055535 -0.000002 -0.002119
# 5 0.000547 -0.001104 0.001745 -0.000002 0.044046 0.000000
# 6 0.000000 0.000000 0.000000 -0.002119 0.000000 0.023793
#
#
# Mechanical properties :
#
#
# Convention : Reuss Voigt Hill
#
# Bulk Modulus (GPa) = 71.12995 88.12021 79.62508
# Shear Modulus (GPa) = 24.92678 31.73229 28.32953
#
# Velocity S-wave (km/s) = 3.49884 3.94768 3.73001
# Velocity P-wave (km/s) = 7.15928 8.00349 7.59313
#
# Compressibility (1/GPa) = 0.01405878
#
# Stress axis : x y z
#
# Youngs Moduli (GPa) = 41.36982 81.29120 146.65018
#
# Poissons Ratio (x) = 0.84508 0.31491
# Poissons Ratio (y) = 0.43007 0.30413
# Poissons Ratio (z) = 0.08884 0.16859
#
# Static dielectric constant tensor:
#      x y z
#    x 1.707750 0.000000 -0.015320 
#    y 0.000000 1.759450 0.000000 
#    z -0.015320 0.000000 1.936970 
# 
# From -- ./inp_files/18310.got.cif
#   From: 2010.05.17/outbox.cif.g08.bks.cpg/sg5_10_cif.got.tgz:18310.got - 2010.06.03 18:56:24.
