data_PCOD9129245
_publ_section_title
;
Structure prediction by ZEFSAII (Michael W. Deem and Ramdas Pophale) SiO2 
 PCOD9129245
Probable space group: C 2
;
_chemical_formula_sum "Si O2"
_cell_formula_units_Z 30
_cell_length_a 12.158980
_cell_length_b 15.390547
_cell_length_c 9.297149
_cell_angle_alpha 90.000000
_cell_angle_beta 66.283099
_cell_angle_gamma 90.000000
_cell_volume 1592.869534
_symmetry_space_group_name_H-M "C 2"
_symmetry_group_IT_number 5
_symmetry_cell_setting 'monoclinic'
loop_
_space_group_symop_operation_xyz
x,y,z
-x,y,-z
1/2+x,1/2+y,z
1/2-x,1/2+y,-z
loop_
_atom_site_type_symbol
_atom_site_label
_atom_site_fract_x
_atom_site_fract_y
_atom_site_fract_z
Si Si1 0.614788 0.236200 0.194179
Si Si2 0.207006 0.272439 0.651194
Si Si3 0.907608 0.868094 0.364192
Si Si4 0.500000 0.522253 0.500000
Si Si5 0.233265 0.133140 0.391781
Si Si6 0.527042 0.863666 0.314374
Si Si7 0.486881 0.064972 0.336919
Si Si8 0.209015 0.793775 0.841581
O O1 0.732094 0.246019 0.231620
O O2 0.509397 0.294074 0.320124
O O3 0.565681 0.138051 0.216254
O O4 0.641211 0.274567 0.024004
O O5 0.297467 0.339816 0.524224
O O6 0.201556 0.188511 0.550833
O O7 0.077736 0.317095 0.719814
O O8 0.857996 0.861652 0.228243
O O9 0.961819 0.958285 0.389952
O O10 0.615885 0.580914 0.405473
O O11 0.347567 0.073903 0.367496
O O12 0.277817 0.204077 0.253630
O O13 0.500000 0.848124 0.500000
O O14 0.656215 0.826664 0.207277
O O15 0.526597 0.966741 0.291174
O O16 0.500000 0.084397 0.500000
#
# Coordination Sequence:
#
# PCOD9129245 Si02
#       8
#     4   4   4   2   4   4   4   4
#     4  12  22  42  63  93 128 167 212 255 311 395
#     4  11  20  40  69  91 126 167 214 256 312 381
#     4  11  21  39  66  91 116 168 215 257 310 369
#     4  12  24  38  68  98 126 156 228 274 310 370
#     4  11  22  39  64  95 125 165 213 261 321 370
#     4  11  22  40  65  96 125 159 215 266 311 370
#     4  11  22  38  66  95 119 161 219 267 303 370
#     4  11  25  42  66  89 130 174 203 255 332 381
#
# _framework density 18.833935
#
# number of rings (size 3 to 8) (size 9 to 14) (size 15 to 20)
#    0.000    0.800    8.000    2.000    1.867    0.533 
#    2.400    1.333    2.933    0.000    0.000    0.000 
#    0.000    0.000    0.000    0.000    0.000    0.000 
#
# Total GULP energy -83832.220789 kJ/mol
# GULP energy per Si atom -5588.814719 kJ/mol
# Density = 1.879107 g / cm^3
# Si number density = 18.833935 Si / 1000 Ang^3
#
#
#
# Elastic Constant Matrix: (Units=GPa)
#
#
# Indices 1 2 3 4 5 6 
#
# 1 137.1686 23.7001 25.6936 0.0000 5.0527 0.0000
# 2 23.7001 32.8107 8.5969 0.0000 3.5004 0.0000
# 3 25.6936 8.5969 62.2889 0.0000 8.5236 0.0000
# 4 0.0000 0.0000 0.0000 3.7502 0.0000 4.8767
# 5 5.0527 3.5004 8.5236 0.0000 20.4037 0.0000
# 6 0.0000 0.0000 0.0000 4.8767 0.0000 48.6565
#
#
#
# Elastic Compliance Matrix: (Units=1/GPa)
#
#
# Indices 1 2 3 4 5 6 
#
# 1 0.008793 -0.005602 -0.002850 0.000000 -0.000026 0.000000
# 2 -0.005602 0.035473 -0.002060 0.000000 -0.003838 0.000000
# 3 -0.002850 -0.002060 0.018422 0.000000 -0.006637 0.000000
# 4 0.000000 0.000000 0.000000 0.306612 0.000000 -0.030731
# 5 -0.000026 -0.003838 -0.006637 0.000000 0.052448 0.000000
# 6 0.000000 0.000000 0.000000 -0.030731 0.000000 0.023632
#
#
# Mechanical properties :
#
#
# Convention : Reuss Voigt Hill
#
# Bulk Modulus (GPa) = 24.00134 38.69438 31.34786
# Shear Modulus (GPa) = 10.41029 26.18060 18.29544
#
# Velocity S-wave (km/s) = 2.35360 3.73242 3.12012
# Velocity P-wave (km/s) = 4.48968 6.25813 5.44616
#
# Compressibility (1/GPa) = 0.04166435
#
# Stress axis : x y z
#
# Youngs Moduli (GPa) = 113.72612 28.19009 54.28157
#
# Poissons Ratio (x) = 0.15792 0.15472
# Poissons Ratio (y) = 0.63708 0.11182
# Poissons Ratio (z) = 0.32416 0.05807
#
# Static dielectric constant tensor:
#      x y z
#    x 1.669570 0.000000 0.025580 
#    y 0.000000 1.637940 0.000000 
#    z 0.025580 0.000000 1.633640 
# 
# From -- ./inp_files/20616.got.cif
#   From: 2010.05.17/outbox.cif.g08.bks.cpg/sg5_11_cif.got.tgz:20616.got - 2010.06.03 18:56:24.
