data_PCOD9129628
_publ_section_title
;
Structure prediction by ZEFSAII (Michael W. Deem and Ramdas Pophale) SiO2 
 PCOD9129628
Probable space group: C 2
;
_chemical_formula_sum "Si O2"
_cell_formula_units_Z 32
_cell_length_a 22.942365
_cell_length_b 13.550499
_cell_length_c 9.304449
_cell_angle_alpha 90.000000
_cell_angle_beta 26.792476
_cell_angle_gamma 90.000000
_cell_volume 1303.856556
_symmetry_space_group_name_H-M "C 2"
_symmetry_group_IT_number 5
_symmetry_cell_setting 'monoclinic'
loop_
_space_group_symop_operation_xyz
x,y,z
-x,y,-z
1/2+x,1/2+y,z
1/2-x,1/2+y,-z
loop_
_atom_site_type_symbol
_atom_site_label
_atom_site_fract_x
_atom_site_fract_y
_atom_site_fract_z
Si Si1 0.118356 0.682180 0.130479
Si Si2 0.336032 0.846339 0.707811
Si Si3 0.849799 0.887985 0.339036
Si Si4 0.971881 0.063877 0.711946
Si Si5 0.264587 0.472208 0.823006
Si Si6 0.935868 0.206845 0.275063
Si Si7 0.209248 0.501110 0.402876
Si Si8 0.337445 0.170984 0.275552
O O1 0.000000 0.683436 0.500000
O O2 0.203809 0.782298 0.965671
O O3 0.202415 0.581781 0.972920
O O4 0.072841 0.676010 0.063635
O O5 0.433404 0.767138 0.427801
O O6 0.375407 0.939026 0.520015
O O7 0.315489 0.892974 0.908212
O O8 0.845445 0.769960 0.350287
O O9 0.776441 0.936583 0.633565
O O10 0.779571 0.921233 0.348966
O O11 0.000000 0.917064 0.000000
O O12 0.084640 0.980567 0.458115
O O13 0.992021 0.111386 0.825148
O O14 0.000000 0.119117 0.500000
O O15 0.821522 0.040253 0.050332
O O16 0.800961 0.173239 0.502344
O O17 0.000000 0.261156 0.000000
O O18 0.153298 0.580787 0.635359
#
# Coordination Sequence:
#
# PCOD9129628 Si02
#       8
#     4   4   4   4   4   4   4   4
#     4  11  25  45  67  92 140 183 217 276 352 398
#     4  11  26  44  69  98 136 178 227 277 340 408
#     4  12  25  41  73 105 127 183 236 276 338 404
#     4  12  23  38  72 105 130 171 228 286 338 393
#     4  12  25  44  67 100 142 174 223 289 336 405
#     4  11  22  46  69  95 136 181 216 282 344 396
#     4  12  22  42  70  99 134 176 228 279 336 400
#     4  11  24  44  69 103 137 174 230 290 331 404
#
# _framework density 24.542577999999999
#
# number of rings (size 3 to 8) (size 9 to 14) (size 15 to 20)
#    0.000    0.500   10.000    0.000    3.500    2.000 
#    4.500    0.000    0.000    0.000    0.000    0.000 
#    0.000    0.000    0.000    0.000    0.000    0.000 
#
# Total GULP energy -89309.620047 kJ/mol
# GULP energy per Si atom -5581.851253 kJ/mol
# Density = 2.448672 g / cm^3
# Si number density = 24.542578 Si / 1000 Ang^3
#
#
#
# Elastic Constant Matrix: (Units=GPa)
#
#
# Indices 1 2 3 4 5 6 
#
# 1 57.0226 13.3665 14.7949 0.0000 26.5288 0.0000
# 2 13.3665 106.0169 31.6214 0.0000 22.0859 0.0000
# 3 14.7949 31.6214 88.9443 0.0000 50.1669 0.0000
# 4 0.0000 0.0000 0.0000 3.8997 0.0000 11.0660
# 5 26.5288 22.0859 50.1669 0.0000 43.2580 0.0000
# 6 0.0000 0.0000 0.0000 11.0660 0.0000 33.1104
#
#
#
# Elastic Compliance Matrix: (Units=1/GPa)
#
#
# Indices 1 2 3 4 5 6 
#
# 1 0.030893 -0.000971 0.016227 0.000001 -0.037269 0.000000
# 2 -0.000971 0.010718 -0.002597 0.000000 -0.001865 0.000000
# 3 0.016227 -0.002597 0.041436 0.000001 -0.056679 0.000000
# 4 0.000001 0.000000 0.000001 4.967932 -0.000002 -1.660355
# 5 -0.037269 -0.001865 -0.056679 -0.000002 0.112657 0.000001
# 6 0.000000 0.000000 0.000000 -1.660355 0.000001 0.585117
#
#
# Mechanical properties :
#
#
# Convention : Reuss Voigt Hill
#
# Bulk Modulus (GPa) = 9.22813 41.28326 25.25569
# Shear Modulus (GPa) = 0.86812 28.86700 14.86756
#
# Velocity S-wave (km/s) = 0.59539 3.43330 2.46394
# Velocity P-wave (km/s) = 2.05934 5.70739 4.29041
#
# Compressibility (1/GPa) = 0.10836434
#
# Stress axis : x y z
#
# Youngs Moduli (GPa) = 32.36990 93.30095 24.13377
#
# Poissons Ratio (x) = 0.09059 -0.39162
# Poissons Ratio (y) = 0.03143 0.06268
# Poissons Ratio (z) = -0.52527 0.24232
#
# Static dielectric constant tensor:
#      x y z
#    x 2.002510 0.000000 -0.051140 
#    y 0.000000 1.978280 0.000000 
#    z -0.051140 0.000000 2.023060 
# 
# From -- ./inp_files/31056.got.cif
#   From: 2010.05.17/outbox.cif.g08.bks.cpg/sg5_16_cif.got.tgz:31056.got - 2010.06.03 18:56:24.
