data_PCOD9129755
_publ_section_title
;
Structure prediction by ZEFSAII (Michael W. Deem and Ramdas Pophale) SiO2 
 PCOD9129755
Probable space group: C 2
;
_chemical_formula_sum "Si O2"
_cell_formula_units_Z 28
_cell_length_a 27.219549
_cell_length_b 5.309989
_cell_length_c 9.164118
_cell_angle_alpha 90.000000
_cell_angle_beta 121.400464
_cell_angle_gamma 90.000000
_cell_volume 1130.556951
_symmetry_space_group_name_H-M "C 2"
_symmetry_group_IT_number 5
_symmetry_cell_setting 'monoclinic'
loop_
_space_group_symop_operation_xyz
x,y,z
-x,y,-z
1/2+x,1/2+y,z
1/2-x,1/2+y,-z
loop_
_atom_site_type_symbol
_atom_site_label
_atom_site_fract_x
_atom_site_fract_y
_atom_site_fract_z
Si Si1 0.221578 0.474780 0.406046
Si Si2 0.929394 0.672546 0.139283
Si Si3 0.878488 0.779955 0.582472
Si Si4 0.385900 0.537328 0.305055
Si Si5 0.528260 0.922405 0.401734
Si Si6 0.163273 0.320879 0.038647
Si Si7 0.063959 0.072758 0.083133
O O1 0.265791 0.712733 0.487243
O O2 0.166191 0.618741 0.390047
O O3 0.215431 0.374942 0.229770
O O4 0.927522 0.877803 0.264015
O O5 0.968425 0.423243 0.220285
O O6 0.863059 0.592814 0.035176
O O7 0.946283 0.811498 0.018750
O O8 0.857162 0.874409 0.390353
O O9 0.931366 0.600387 0.627229
O O10 0.906422 0.006960 0.717437
O O11 0.430425 0.715156 0.463194
O O12 0.341505 0.675362 0.124005
O O13 0.500000 0.046421 0.500000
O O14 0.115578 0.200428 0.073345
O O15 0.000000 0.185618 0.000000
#
# Coordination Sequence:
#
# PCOD9129755 Si02
#       7
#     4   4   4   4   4   4   4
#     4  12  30  56  87 110 148 211 285 359 413 455
#     4  11  23  43  63 106 161 210 242 300 390 487
#     4  12  26  45  77 113 153 201 269 323 391 481
#     4  11  26  41  74 109 162 204 255 308 395 480
#     4  12  24  38  69 112 161 210 244 294 390 495
#     4  11  25  47  75 106 152 206 254 330 411 472
#     4  11  24  38  69 112 163 200 249 305 391 491
#
# _framework density 24.766556000000001
#
# number of rings (size 3 to 8) (size 9 to 14) (size 15 to 20)
#    0.000    0.571    5.714    0.857   10.000    0.571 
#    0.000    0.000    6.286    0.000    0.000    0.000 
#    0.000    0.000    0.000    0.000    0.000    0.000 
#
# Total GULP energy -78011.668139 kJ/mol
# GULP energy per Si atom -5572.262010 kJ/mol
# Density = 2.471019 g / cm^3
# Si number density = 24.766556 Si / 1000 Ang^3
#
#
#
# Elastic Constant Matrix: (Units=GPa)
#
#
# Indices 1 2 3 4 5 6 
#
# 1 58.4860 -6.1120 22.1620 0.0000 -3.5053 0.0000
# 2 -6.1120 79.5374 53.0229 0.0000 1.7337 0.0000
# 3 22.1620 53.0229 164.6842 0.0000 -12.8748 0.0000
# 4 0.0000 0.0000 0.0000 76.2623 0.0000 -86.4022
# 5 -3.5053 1.7337 -12.8748 0.0000 39.7761 0.0000
# 6 0.0000 0.0000 0.0000 -86.4022 0.0000 207.4886
#
#
#
# Elastic Compliance Matrix: (Units=1/GPa)
#
#
# Indices 1 2 3 4 5 6 
#
# 1 0.018980 0.004001 -0.003822 0.000000 0.000261 0.000000
# 2 0.004001 0.017084 -0.006227 0.000000 -0.002408 0.000000
# 3 -0.003822 -0.006227 0.008809 0.000000 0.002786 0.000000
# 4 0.000000 0.000000 0.000000 0.024824 0.000000 0.010337
# 5 0.000261 -0.002408 0.002786 0.000000 0.026170 0.000000
# 6 0.000000 0.000000 0.000000 0.010337 0.000000 0.009124
#
#
# Mechanical properties :
#
#
# Convention : Reuss Voigt Hill
#
# Bulk Modulus (GPa) = 30.50960 48.98372 39.74666
# Shear Modulus (GPa) = 39.05816 80.28106 59.66961
#
# Velocity S-wave (km/s) = 3.97552 5.69960 4.91377
# Velocity P-wave (km/s) = 5.78088 7.94576 6.94815
#
# Compressibility (1/GPa) = 0.03277657
#
# Stress axis : x y z
#
# Youngs Moduli (GPa) = 52.68695 58.53498 113.51710
#
# Poissons Ratio (x) = -0.23418 0.43384
# Poissons Ratio (y) = -0.21078 0.70687
# Poissons Ratio (z) = 0.20136 0.36450
#
# Static dielectric constant tensor:
#      x y z
#    x 1.953290 0.000000 0.064630 
#    y 0.000000 2.043230 0.000000 
#    z 0.064630 0.000000 1.957120 
# 
# From -- ./inp_files/32331.got.cif
#   From: 2010.05.17/outbox.cif.g08.bks.cpg/sg5_17_cif.got.tgz:32331.got - 2010.06.03 18:56:24.
