data_PCOD9129748
_publ_section_title
;
Structure prediction by ZEFSAII (Michael W. Deem and Ramdas Pophale) SiO2 
 PCOD9129748
Probable space group: C 2
;
_chemical_formula_sum "Si O2"
_cell_formula_units_Z 20
_cell_length_a 17.704088
_cell_length_b 6.048535
_cell_length_c 9.119546
_cell_angle_alpha 90.000000
_cell_angle_beta 76.009952
_cell_angle_gamma 90.000000
_cell_volume 947.588749
_symmetry_space_group_name_H-M "C 2"
_symmetry_group_IT_number 5
_symmetry_cell_setting 'monoclinic'
loop_
_space_group_symop_operation_xyz
x,y,z
-x,y,-z
1/2+x,1/2+y,z
1/2-x,1/2+y,-z
loop_
_atom_site_type_symbol
_atom_site_label
_atom_site_fract_x
_atom_site_fract_y
_atom_site_fract_z
Si Si1 0.557806 0.413410 0.598844
Si Si2 0.073434 0.656179 0.874144
Si Si3 0.791710 0.759048 0.964747
Si Si4 0.639943 0.819774 0.607966
Si Si5 0.806975 0.675080 0.623681
O O1 0.500000 0.335749 0.500000
O O2 0.540915 0.326133 0.768276
O O3 0.565533 0.673704 0.607354
O O4 0.642604 0.335205 0.503466
O O5 0.115931 0.480201 0.750765
O O6 0.138482 0.757608 0.950530
O O7 0.000000 0.568666 0.000000
O O8 0.821306 0.734832 0.784483
O O9 0.748578 0.510134 0.006975
O O10 0.716044 0.697446 0.632888
O O11 0.665218 0.937845 0.445850
#
# Coordination Sequence:
#
# PCOD9129748 Si02
#       5
#     4   4   4   4   4
#     4  11  25  44  71 103 138 185 240 302 363 427
#     4  11  26  48  67 103 148 187 241 300 369 435
#     4  12  27  45  74 109 147 191 244 299 366 435
#     4  11  23  43  73 100 136 188 238 297 359 433
#     4  11  23  42  71 101 139 183 241 295 354 434
#
# _framework density 21.106202
#
# number of rings (size 3 to 8) (size 9 to 14) (size 15 to 20)
#    0.000    0.800    4.000    2.400    5.600    5.600 
#    0.000    0.000    0.000    0.000    0.000    0.000 
#    0.000    0.000    0.000    0.000    0.000    0.000 
#
# Total GULP energy -55719.311347 kJ/mol
# GULP energy per Si atom -5571.931135 kJ/mol
# Density = 2.105816 g / cm^3
# Si number density = 21.106202 Si / 1000 Ang^3
#
#
#
# Elastic Constant Matrix: (Units=GPa)
#
#
# Indices 1 2 3 4 5 6 
#
# 1 81.5037 15.7181 19.7456 0.0000 14.2420 0.0000
# 2 15.7181 58.8075 15.6935 0.0000 -0.2596 0.0000
# 3 19.7456 15.6935 121.7260 0.0000 4.4855 0.0000
# 4 0.0000 0.0000 0.0000 9.7319 0.0000 11.4671
# 5 14.2420 -0.2596 4.4855 0.0000 42.2224 0.0000
# 6 0.0000 0.0000 0.0000 11.4671 0.0000 20.1023
#
#
#
# Elastic Compliance Matrix: (Units=1/GPa)
#
#
# Indices 1 2 3 4 5 6 
#
# 1 0.014129 -0.003346 -0.001691 0.000000 -0.004607 0.000000
# 2 -0.003346 0.018408 -0.001884 0.000000 0.001442 0.000000
# 3 -0.001691 -0.001884 0.008746 0.000000 -0.000370 0.000000
# 4 0.000000 0.000000 0.000000 0.313424 0.000000 -0.178790
# 5 -0.004607 0.001442 -0.000370 0.000000 0.025286 0.000000
# 6 0.000000 0.000000 0.000000 -0.178790 0.000000 0.151734
#
#
# Mechanical properties :
#
#
# Convention : Reuss Voigt Hill
#
# Bulk Modulus (GPa) = 36.43935 40.48351 38.46143
# Shear Modulus (GPa) = 9.01363 28.46998 18.74180
#
# Velocity S-wave (km/s) = 2.06879 3.67671 2.98313
# Velocity P-wave (km/s) = 4.79674 6.10301 5.48888
#
# Compressibility (1/GPa) = 0.02744286
#
# Stress axis : x y z
#
# Youngs Moduli (GPa) = 70.77521 54.32452 114.33864
#
# Poissons Ratio (x) = 0.18175 0.19333
# Poissons Ratio (y) = 0.23678 0.21537
# Poissons Ratio (z) = 0.11967 0.10233
#
# Static dielectric constant tensor:
#      x y z
#    x 1.782340 0.000000 0.028220 
#    y 0.000000 1.907050 0.000000 
#    z 0.028220 0.000000 1.724770 
# 
# From -- ./inp_files/25928.got.cif
#   From: 2010.05.17/outbox.cif.g08.bks.cpg/sg5_13_cif.got.tgz:25928.got - 2010.06.03 18:56:24.
