data_PCOD9129073
_publ_section_title
;
Structure prediction by ZEFSAII (Michael W. Deem and Ramdas Pophale) SiO2 
 PCOD9129073
Probable space group: C 2
;
_chemical_formula_sum "Si O2"
_cell_formula_units_Z 30
_cell_length_a 8.966804
_cell_length_b 14.390214
_cell_length_c 11.822747
_cell_angle_alpha 90.000000
_cell_angle_beta 68.647953
_cell_angle_gamma 90.000000
_cell_volume 1420.827363
_symmetry_space_group_name_H-M "C 2"
_symmetry_group_IT_number 5
_symmetry_cell_setting 'monoclinic'
loop_
_space_group_symop_operation_xyz
x,y,z
-x,y,-z
1/2+x,1/2+y,z
1/2-x,1/2+y,-z
loop_
_atom_site_type_symbol
_atom_site_label
_atom_site_fract_x
_atom_site_fract_y
_atom_site_fract_z
Si Si1 0.665801 0.357790 0.992305
Si Si2 0.589271 0.072538 0.796941
Si Si3 0.155117 0.567900 0.523770
Si Si4 0.274038 0.564480 0.083644
Si Si5 0.344510 0.687302 0.857495
Si Si6 0.000000 0.971059 0.500000
Si Si7 0.189061 0.187850 0.703399
Si Si8 0.698989 0.388367 0.247200
O O1 0.681354 0.456551 0.925480
O O2 0.807275 0.287913 0.920100
O O3 0.500000 0.312498 0.000000
O O4 0.655439 0.376170 0.128339
O O5 0.585453 0.094189 0.664739
O O6 0.413138 0.069490 0.895449
O O7 0.697937 0.148419 0.826680
O O8 0.672786 0.971993 0.785186
O O9 0.500000 0.021446 0.500000
O O10 0.330200 0.519917 0.505297
O O11 0.207321 0.652659 0.429617
O O12 0.288840 0.617547 0.197618
O O13 0.364445 0.617094 0.957562
O O14 0.499029 0.686262 0.735455
O O15 0.942252 0.916602 0.627890
O O16 0.233007 0.290858 0.729191
#
# Coordination Sequence:
#
# PCOD9129073 Si02
#       8
#     4   4   4   4   4   2   4   4
#     4  12  26  41  66 105 140 180 231 285 345 423
#     4  11  24  46  69 100 137 184 226 286 347 413
#     4  11  24  46  76 101 136 185 241 285 351 411
#     4  12  24  40  71  98 139 179 225 281 351 410
#     4  12  25  43  67 100 143 177 228 284 347 416
#     4  10  26  48  74  98 140 188 238 292 346 416
#     4  12  25  44  70 101 135 184 232 284 346 415
#     4  11  25  44  70  97 140 184 233 282 349 413
#
# _framework density 21.114457999999999
#
# number of rings (size 3 to 8) (size 9 to 14) (size 15 to 20)
#    0.000    0.533    4.000    4.800    2.800    1.067 
#    0.000    0.000    5.867    0.000    0.000    0.000 
#    0.000    0.000    0.000    0.000    0.000    0.000 
#
# Total GULP energy -83794.996834 kJ/mol
# GULP energy per Si atom -5586.333122 kJ/mol
# Density = 2.106640 g / cm^3
# Si number density = 21.114458 Si / 1000 Ang^3
#
#
#
# Elastic Constant Matrix: (Units=GPa)
#
#
# Indices 1 2 3 4 5 6 
#
# 1 116.3920 17.1568 29.7677 0.0000 -11.8953 0.0000
# 2 17.1568 107.2741 22.8599 0.0000 -3.3543 0.0000
# 3 29.7677 22.8599 91.3248 0.0000 4.3869 0.0000
# 4 0.0000 0.0000 0.0000 149.5480 0.0000 148.1676
# 5 -11.8953 -3.3543 4.3869 0.0000 45.6189 0.0000
# 6 0.0000 0.0000 0.0000 148.1676 0.0000 210.1957
#
#
#
# Elastic Compliance Matrix: (Units=1/GPa)
#
#
# Indices 1 2 3 4 5 6 
#
# 1 0.009796 -0.000814 -0.003124 0.000000 0.002795 0.000000
# 2 -0.000814 0.009957 -0.002263 0.000000 0.000738 0.000000
# 3 -0.003124 -0.002263 0.012640 0.000000 -0.002196 0.000000
# 4 0.000000 0.000000 0.000000 0.022171 0.000000 -0.015628
# 5 0.002795 0.000738 -0.002196 0.000000 0.022915 0.000000
# 6 0.000000 0.000000 0.000000 -0.015628 0.000000 0.015774
#
#
# Mechanical properties :
#
#
# Convention : Reuss Voigt Hill
#
# Bulk Modulus (GPa) = 50.01658 50.50662 50.26160
# Shear Modulus (GPa) = 44.51657 97.41962 70.96810
#
# Velocity S-wave (km/s) = 4.59665 6.79993 5.80380
# Velocity P-wave (km/s) = 7.20500 9.25334 8.29266
#
# Compressibility (1/GPa) = 0.01999337
#
# Stress axis : x y z
#
# Youngs Moduli (GPa) = 102.08105 100.42898 79.11399
#
# Poissons Ratio (x) = 0.08172 0.24713
# Poissons Ratio (y) = 0.08306 0.17901
# Poissons Ratio (z) = 0.31887 0.22724
#
# Static dielectric constant tensor:
#      x y z
#    x 1.804690 0.000000 -0.011920 
#    y 0.000000 1.736610 0.000000 
#    z -0.011920 0.000000 1.692530 
# 
# From -- ./inp_files/36350.got.cif
#   From: 2010.05.17/outbox.cif.g08.bks.cpg/sg5_19_cif.got.tgz:36350.got - 2010.06.03 18:56:24.
