data_PCOD9129888
_publ_section_title
;
Structure prediction by ZEFSAII (Michael W. Deem and Ramdas Pophale) SiO2 
 PCOD9129888
Probable space group: C 2
;
_chemical_formula_sum "Si O2"
_cell_formula_units_Z 20
_cell_length_a 12.300274
_cell_length_b 6.198101
_cell_length_c 19.937271
_cell_angle_alpha 90.000000
_cell_angle_beta 148.798963
_cell_angle_gamma 90.000000
_cell_volume 787.416534
_symmetry_space_group_name_H-M "C 2"
_symmetry_group_IT_number 5
_symmetry_cell_setting 'monoclinic'
loop_
_space_group_symop_operation_xyz
x,y,z
-x,y,-z
1/2+x,1/2+y,z
1/2-x,1/2+y,-z
loop_
_atom_site_type_symbol
_atom_site_label
_atom_site_fract_x
_atom_site_fract_y
_atom_site_fract_z
Si Si1 0.065728 0.518550 0.458930
Si Si2 0.077967 0.346900 0.328867
Si Si3 0.981044 0.390799 0.910735
Si Si4 0.440060 0.546305 0.147046
Si Si5 0.762113 0.160107 0.318006
O O1 0.998030 0.512789 0.343622
O O2 0.279083 0.654367 0.565342
O O3 0.000000 0.600550 0.500000
O O4 0.987039 0.270829 0.428038
O O5 0.219111 0.481719 0.350917
O O6 0.919897 0.218805 0.196708
O O7 0.809583 0.552365 0.789992
O O8 0.951620 0.164073 0.858362
O O9 0.210574 0.467161 0.007234
O O10 0.000000 0.376232 0.000000
O O11 0.596776 0.352105 0.247778
#
# Coordination Sequence:
#
# PCOD9129888 Si02
#       5
#     4   4   4   4   4
#     4  12  25  48  72 103 142 190 240 291 360 421
#     4  11  27  47  73 104 145 190 236 302 351 426
#     4  11  24  44  75 103 145 187 233 294 358 419
#     4  11  23  47  69 109 142 184 242 292 350 430
#     4  11  25  49  72 106 145 189 240 293 357 429
#
# _framework density 25.399516999999999
#
# number of rings (size 3 to 8) (size 9 to 14) (size 15 to 20)
#    0.000    0.800    4.000    2.400    0.000    4.800 
#    0.000    0.000    0.000    0.000    0.000    0.000 
#    0.000    0.000    0.000    0.000    0.000    0.000 
#
# Total GULP energy -55682.963931 kJ/mol
# GULP energy per Si atom -5568.296393 kJ/mol
# Density = 2.534171 g / cm^3
# Si number density = 25.399517 Si / 1000 Ang^3
#
#
#
# Elastic Constant Matrix: (Units=GPa)
#
#
# Indices 1 2 3 4 5 6 
#
# 1 144.5984 25.0132 33.0855 0.0000 -39.5767 0.0000
# 2 25.0132 110.0906 57.9281 0.0000 0.3456 0.0000
# 3 33.0855 57.9281 85.7461 0.0000 -16.3459 0.0000
# 4 0.0000 0.0000 0.0000 32.2489 0.0000 12.5700
# 5 -39.5767 0.3456 -16.3459 0.0000 59.1581 0.0000
# 6 0.0000 0.0000 0.0000 12.5700 0.0000 23.8424
#
#
#
# Elastic Compliance Matrix: (Units=1/GPa)
#
#
# Indices 1 2 3 4 5 6 
#
# 1 0.009026 -0.001239 -0.001576 0.000000 0.005610 0.000000
# 2 -0.001239 0.014739 -0.010190 0.000000 -0.003731 0.000000
# 3 -0.001576 -0.010190 0.020020 0.000000 0.004537 0.000000
# 4 0.000000 0.000000 0.000000 0.039029 0.000000 -0.020577
# 5 0.005610 -0.003731 0.004537 0.000000 0.021932 0.000000
# 6 0.000000 0.000000 0.000000 -0.020577 0.000000 0.052790
#
#
# Mechanical properties :
#
#
# Convention : Reuss Voigt Hill
#
# Bulk Modulus (GPa) = 56.26337 63.60984 59.93661
# Shear Modulus (GPa) = 26.38923 38.01045 32.19984
#
# Velocity S-wave (km/s) = 3.22680 3.87266 3.56439
# Velocity P-wave (km/s) = 6.00686 6.71526 6.37092
#
# Compressibility (1/GPa) = 0.01777355
#
# Stress axis : x y z
#
# Youngs Moduli (GPa) = 110.78829 67.84938 49.95113
#
# Poissons Ratio (x) = 0.08407 0.07874
# Poissons Ratio (y) = 0.13727 0.50901
# Poissons Ratio (z) = 0.17463 0.69139
#
# Static dielectric constant tensor:
#      x y z
#    x 2.064090 0.000000 -0.062540 
#    y 0.000000 1.964620 0.000000 
#    z -0.062540 0.000000 2.060470 
# 
# From -- ./inp_files/65756.got.cif
#   From: 2010.05.17/outbox.cif.g08.bks.cpg/sg5_33_cif.got.tgz:65756.got - 2010.06.03 18:56:24.
