data_PCOD9129913
_publ_section_title
;
Structure prediction by ZEFSAII (Michael W. Deem and Ramdas Pophale) SiO2 
 PCOD9129913
Probable space group: C 2
;
_chemical_formula_sum "Si O2"
_cell_formula_units_Z 18
_cell_length_a 7.276717
_cell_length_b 12.441296
_cell_length_c 8.431994
_cell_angle_alpha 90.000000
_cell_angle_beta 112.806145
_cell_angle_gamma 90.000000
_cell_volume 703.684962
_symmetry_space_group_name_H-M "C 2"
_symmetry_group_IT_number 5
_symmetry_cell_setting 'monoclinic'
loop_
_space_group_symop_operation_xyz
x,y,z
-x,y,-z
1/2+x,1/2+y,z
1/2-x,1/2+y,-z
loop_
_atom_site_type_symbol
_atom_site_label
_atom_site_fract_x
_atom_site_fract_y
_atom_site_fract_z
Si Si1 0.093952 0.371910 0.206595
Si Si2 0.355249 0.675382 0.581989
Si Si3 0.500000 0.457586 0.000000
Si Si4 0.647662 0.074931 0.813777
Si Si5 0.023091 0.795384 0.264592
O O1 0.025227 0.268058 0.283389
O O2 0.332472 0.356723 0.275979
O O3 0.022357 0.485008 0.253593
O O4 0.000000 0.364312 0.000000
O O5 0.500000 0.623746 0.500000
O O6 0.252794 0.599476 0.678777
O O7 0.183838 0.743043 0.433962
O O8 0.681979 0.532310 0.010663
O O9 0.597629 0.380449 0.162407
O O10 0.570497 0.189150 0.845064
#
# Coordination Sequence:
#
# PCOD9129913 Si02
#       5
#     4   4   2   4   4
#     4  11  23  48  81 113 154 209 262 327 391 472
#     4  11  27  50  79 115 166 206 265 330 395 473
#     4  12  26  44  76 110 152 204 260 310 394 468
#     4  11  26  45  76 115 152 205 265 317 395 465
#     4  11  27  47  76 115 154 206 260 328 390 465
#
# _framework density 25.579628
#
# number of rings (size 3 to 8) (size 9 to 14) (size 15 to 20)
#    0.000    0.889    2.222    4.000    7.778    7.111 
#    0.000    4.444    0.000    0.000    0.000    0.000 
#    0.000    0.000    0.000    0.000    0.000    0.000 
#
# Total GULP energy -50377.798671 kJ/mol
# GULP energy per Si atom -5597.533186 kJ/mol
# Density = 2.552141 g / cm^3
# Si number density = 25.579628 Si / 1000 Ang^3
#
#
#
# Elastic Constant Matrix: (Units=GPa)
#
#
# Indices 1 2 3 4 5 6 
#
# 1 110.1136 49.9827 41.7268 0.0000 0.2333 0.0000
# 2 49.9827 172.0842 36.9951 0.0000 1.4499 0.0000
# 3 41.7268 36.9951 96.9207 0.0000 6.4797 0.0000
# 4 0.0000 0.0000 0.0000 35.8075 0.0000 1.4154
# 5 0.2333 1.4499 6.4797 0.0000 40.6480 0.0000
# 6 0.0000 0.0000 0.0000 1.4154 0.0000 51.8293
#
#
#
# Elastic Compliance Matrix: (Units=1/GPa)
#
#
# Indices 1 2 3 4 5 6 
#
# 1 0.011810 -0.002542 -0.004160 0.000000 0.000686 0.000000
# 2 -0.002542 0.006879 -0.001532 0.000000 0.000013 0.000000
# 3 -0.004160 -0.001532 0.012825 0.000000 -0.001966 0.000000
# 4 0.000000 0.000000 0.000000 0.027957 0.000000 -0.000764
# 5 0.000686 0.000013 -0.001966 0.000000 0.024910 0.000000
# 6 0.000000 0.000000 0.000000 -0.000764 0.000000 0.019315
#
#
# Mechanical properties :
#
#
# Convention : Reuss Voigt Hill
#
# Bulk Modulus (GPa) = 66.46495 70.72532 68.59514
# Shear Modulus (GPa) = 39.94229 42.35122 41.14675
#
# Velocity S-wave (km/s) = 3.95585 4.07340 4.01506
# Velocity P-wave (km/s) = 6.84872 7.05922 6.95477
#
# Compressibility (1/GPa) = 0.01504552
#
# Stress axis : x y z
#
# Youngs Moduli (GPa) = 84.67148 145.37704 77.97191
#
# Poissons Ratio (x) = 0.36951 0.32439
# Poissons Ratio (y) = 0.21521 0.11947
# Poissons Ratio (z) = 0.35226 0.22275
#
# Static dielectric constant tensor:
#      x y z
#    x 2.082770 0.000000 -0.023970 
#    y 0.000000 1.956540 0.000000 
#    z -0.023970 0.000000 2.086050 
# 
# From -- ./inp_files/14192.got.cif
#   From: 2010.05.17/outbox.cif.g08.bks.cpg/sg5_8_cif.got.tgz:14192.got - 2010.06.03 18:56:24.
