data_PCOD9129410
_publ_section_title
;
Structure prediction by ZEFSAII (Michael W. Deem and Ramdas Pophale) SiO2 
 PCOD9129410
Probable space group: C 2
;
_chemical_formula_sum "Si O2"
_cell_formula_units_Z 22
_cell_length_a 19.489478
_cell_length_b 10.067360
_cell_length_c 4.850463
_cell_angle_alpha 90.000000
_cell_angle_beta 97.017216
_cell_angle_gamma 90.000000
_cell_volume 944.568959
_symmetry_space_group_name_H-M "C 2"
_symmetry_group_IT_number 5
_symmetry_cell_setting 'monoclinic'
loop_
_space_group_symop_operation_xyz
x,y,z
-x,y,-z
1/2+x,1/2+y,z
1/2-x,1/2+y,-z
loop_
_atom_site_type_symbol
_atom_site_label
_atom_site_fract_x
_atom_site_fract_y
_atom_site_fract_z
Si Si1 0.686263 0.339540 0.255309
Si Si2 0.592756 0.297511 0.698472
Si Si3 0.500000 0.894201 0.000000
Si Si4 0.387282 0.685861 0.041863
Si Si5 0.000000 0.562997 0.500000
Si Si6 0.703099 0.632096 0.476148
Si Si7 0.000000 0.981056 0.000000
O O1 0.617782 0.328860 0.406357
O O2 0.717114 0.484590 0.355736
O O3 0.734338 0.216531 0.366095
O O4 0.658617 0.321099 0.931167
O O5 0.559434 0.152141 0.669338
O O6 0.532281 0.390118 0.782236
O O7 0.439284 0.807069 0.107609
O O8 0.530677 0.978283 0.265389
O O9 0.353970 0.630319 0.305683
O O10 0.327025 0.715013 0.796291
O O11 0.435787 0.578496 0.910244
#
# Coordination Sequence:
#
# PCOD9129410 Si02
#       7
#     4   4   2   4   2   4   2
#     4  12  26  45  70 103 149 196 254 297 371 438
#     4  12  25  44  72 106 137 190 243 309 367 437
#     4  11  25  46  68 110 147 185 234 310 388 447
#     4  11  25  43  76 102 143 190 245 309 370 436
#     4  12  26  44  70 108 150 182 238 308 392 440
#     4  12  25  47  68 109 145 202 251 303 365 449
#     4  11  21  44  76 106 137 175 254 316 352 427
#
# _framework density 23.291048
#
# number of rings (size 3 to 8) (size 9 to 14) (size 15 to 20)
#    0.000    0.364    3.636    4.909    0.000    8.000 
#    0.000    0.000    0.000    0.000    0.000    0.000 
#    0.000    0.000    0.000    0.000    0.000    0.000 
#
# Total GULP energy -61501.913806 kJ/mol
# GULP energy per Si atom -5591.083073 kJ/mol
# Density = 2.323804 g / cm^3
# Si number density = 23.291048 Si / 1000 Ang^3
#
#
#
# Elastic Constant Matrix: (Units=GPa)
#
#
# Indices 1 2 3 4 5 6 
#
# 1 74.8115 34.9082 11.5805 0.0000 5.3897 0.0000
# 2 34.9082 111.7397 19.3280 0.0000 15.3206 0.0000
# 3 11.5805 19.3280 100.2170 0.0000 15.6156 0.0000
# 4 0.0000 0.0000 0.0000 35.4253 0.0000 3.6442
# 5 5.3897 15.3206 15.6156 0.0000 42.4814 0.0000
# 6 0.0000 0.0000 0.0000 3.6442 0.0000 26.6875
#
#
#
# Elastic Compliance Matrix: (Units=1/GPa)
#
#
# Indices 1 2 3 4 5 6 
#
# 1 0.015726 -0.004764 -0.000907 0.000000 0.000056 0.000000
# 2 -0.004764 0.011037 -0.001116 0.000000 -0.002966 0.000000
# 3 -0.000907 -0.001116 0.010839 0.000000 -0.003466 0.000000
# 4 0.000000 0.000000 0.000000 0.028631 0.000000 -0.003910
# 5 0.000056 -0.002966 -0.003466 0.000000 0.025876 0.000000
# 6 0.000000 0.000000 0.000000 -0.003910 0.000000 0.038005
#
#
# Mechanical properties :
#
#
# Convention : Reuss Voigt Hill
#
# Bulk Modulus (GPa) = 41.61830 46.48908 44.05369
# Shear Modulus (GPa) = 32.96044 35.64894 34.30469
#
# Velocity S-wave (km/s) = 3.76594 3.91651 3.84196
# Velocity P-wave (km/s) = 6.06772 6.36046 6.21582
#
# Compressibility (1/GPa) = 0.02402789
#
# Stress axis : x y z
#
# Youngs Moduli (GPa) = 63.58840 90.60192 92.26308
#
# Poissons Ratio (x) = 0.43160 0.08371
# Poissons Ratio (y) = 0.30292 0.10297
# Poissons Ratio (z) = 0.05769 0.10112
#
# Static dielectric constant tensor:
#      x y z
#    x 1.882650 0.000000 0.037400 
#    y 0.000000 1.938200 0.000000 
#    z 0.037400 0.000000 1.843050 
# 
# From -- ./inp_files/9248.got.cif
#   From: 2010.05.17/outbox.cif.g08.bks.cpg/sg5_5_cif.got.tgz:9248.got - 2010.06.03 18:56:24.
