data_PCOD9129542
_publ_section_title
;
Structure prediction by ZEFSAII (Michael W. Deem and Ramdas Pophale) SiO2 
 PCOD9129542
Probable space group: C 2
;
_chemical_formula_sum "Si O2"
_cell_formula_units_Z 30
_cell_length_a 15.245822
_cell_length_b 11.538902
_cell_length_c 9.343664
_cell_angle_alpha 90.000000
_cell_angle_beta 67.369786
_cell_angle_gamma 90.000000
_cell_volume 1517.182214
_symmetry_space_group_name_H-M "C 2"
_symmetry_group_IT_number 5
_symmetry_cell_setting 'monoclinic'
loop_
_space_group_symop_operation_xyz
x,y,z
-x,y,-z
1/2+x,1/2+y,z
1/2-x,1/2+y,-z
loop_
_atom_site_type_symbol
_atom_site_label
_atom_site_fract_x
_atom_site_fract_y
_atom_site_fract_z
Si Si1 0.500000 0.956390 0.000000
Si Si2 0.333332 0.774419 0.091103
Si Si3 0.936370 0.052984 0.162356
Si Si4 0.252568 0.197303 0.146896
Si Si5 0.631039 0.294135 0.356540
Si Si6 0.622559 0.314826 0.700465
Si Si7 0.071128 0.053029 0.328700
Si Si8 0.054874 0.657452 0.154757
O O1 0.409482 0.874295 0.062880
O O2 0.506668 0.038468 0.135489
O O3 0.376183 0.654440 0.127303
O O4 0.239062 0.801940 0.238303
O O5 0.303875 0.764659 0.942939
O O6 0.014503 0.096070 0.225272
O O7 0.878808 0.952972 0.277596
O O8 0.000000 0.994466 0.000000
O O9 0.291175 0.266971 0.258798
O O10 0.177715 0.102542 0.251925
O O11 0.349005 0.160366 0.001743
O O12 0.626733 0.285725 0.529794
O O13 0.580774 0.413224 0.334662
O O14 0.587290 0.185708 0.296438
O O15 0.525659 0.255285 0.819655
O O16 0.000000 0.089494 0.500000
#
# Coordination Sequence:
#
# PCOD9129542 Si02
#       8
#     2   4   4   4   4   4   4   4
#     4  12  22  46  68  94 138 180 232 276 342 394
#     4  11  26  44  67 100 137 181 227 284 335 407
#     4  12  23  44  72  97 135 180 234 281 334 407
#     4  11  24  42  67 103 130 178 226 276 336 407
#     4  11  25  42  67 104 137 174 227 281 342 402
#     4  12  24  43  70 105 134 175 230 284 344 405
#     4  12  23  43  68  97 142 181 222 282 339 401
#     4  11  22  42  69  99 131 177 223 279 337 402
#
# _framework density 19.773496999999999
#
# number of rings (size 3 to 8) (size 9 to 14) (size 15 to 20)
#    0.000    0.533    6.000    2.000    3.733    2.133 
#    0.000    0.000    2.933    0.000    0.000    0.000 
#    0.000    0.000    0.000    0.000    0.000    0.000 
#
# Total GULP energy -83691.840352 kJ/mol
# GULP energy per Si atom -5579.456023 kJ/mol
# Density = 1.972849 g / cm^3
# Si number density = 19.773497 Si / 1000 Ang^3
#
#
#
# Elastic Constant Matrix: (Units=GPa)
#
#
# Indices 1 2 3 4 5 6 
#
# 1 137.6701 56.7899 53.5595 0.0000 12.7745 0.0000
# 2 56.7899 92.0194 40.5939 0.0000 2.8244 0.0000
# 3 53.5595 40.5939 134.4915 0.0000 9.7119 0.0000
# 4 0.0000 0.0000 0.0000 18.2254 0.0000 -2.0873
# 5 12.7745 2.8244 9.7119 0.0000 35.8982 0.0000
# 6 0.0000 0.0000 0.0000 -2.0873 0.0000 24.5970
#
#
#
# Elastic Compliance Matrix: (Units=1/GPa)
#
#
# Indices 1 2 3 4 5 6 
#
# 1 0.010710 -0.005458 -0.002421 0.000000 -0.002727 0.000000
# 2 -0.005458 0.015318 -0.002553 0.000000 0.001428 0.000000
# 3 -0.002421 -0.002553 0.009275 0.000000 -0.001447 0.000000
# 4 0.000000 0.000000 0.000000 0.055407 0.000000 0.004702
# 5 -0.002727 0.001428 -0.001447 0.000000 0.029106 0.000000
# 6 0.000000 0.000000 0.000000 0.004702 0.000000 0.041054
#
#
# Mechanical properties :
#
#
# Convention : Reuss Voigt Hill
#
# Bulk Modulus (GPa) = 69.25721 74.00754 71.63238
# Shear Modulus (GPa) = 26.80291 29.95997 28.38144
#
# Velocity S-wave (km/s) = 3.68570 3.89673 3.79268
# Velocity P-wave (km/s) = 7.29478 7.59966 7.44878
#
# Compressibility (1/GPa) = 0.01443893
#
# Stress axis : x y z
#
# Youngs Moduli (GPa) = 93.37004 65.28195 107.82229
#
# Poissons Ratio (x) = 0.35632 0.26102
# Poissons Ratio (y) = 0.50962 0.27527
# Poissons Ratio (z) = 0.22603 0.16666
#
# Static dielectric constant tensor:
#      x y z
#    x 1.721990 0.000000 0.004610 
#    y 0.000000 1.686190 0.000000 
#    z 0.004610 0.000000 1.743320 
# 
# From -- ./inp_files/23853.got.cif
#   From: 2010.05.17/outbox.cif.g08.bks.cpg/sg5_12_cif.got.tgz:23853.got - 2010.06.03 18:56:24.
