data_PCOD9129738
_publ_section_title
;
Structure prediction by ZEFSAII (Michael W. Deem and Ramdas Pophale) SiO2 
 PCOD9129738
Probable space group: C 2
;
_chemical_formula_sum "Si O2"
_cell_formula_units_Z 28
_cell_length_a 23.256830
_cell_length_b 5.137914
_cell_length_c 14.616708
_cell_angle_alpha 90.000000
_cell_angle_beta 138.317081
_cell_angle_gamma 90.000000
_cell_volume 1161.485035
_symmetry_space_group_name_H-M "C 2"
_symmetry_group_IT_number 5
_symmetry_cell_setting 'monoclinic'
loop_
_space_group_symop_operation_xyz
x,y,z
-x,y,-z
1/2+x,1/2+y,z
1/2-x,1/2+y,-z
loop_
_atom_site_type_symbol
_atom_site_label
_atom_site_fract_x
_atom_site_fract_y
_atom_site_fract_z
Si Si1 0.416514 0.119920 0.344649
Si Si2 0.074501 0.127100 0.762390
Si Si3 0.212893 0.956271 0.355146
Si Si4 0.621535 0.628171 0.423748
Si Si5 0.910589 0.841553 0.947021
Si Si6 0.713100 0.344350 0.686534
Si Si7 0.357447 0.868822 0.986163
O O1 0.500000 0.206464 0.500000
O O2 0.406743 0.337750 0.252752
O O3 0.337662 0.115672 0.321898
O O4 0.430760 0.832054 0.325453
O O5 0.981293 0.153100 0.702360
O O6 0.143512 0.257159 0.913391
O O7 0.309680 0.865684 0.495699
O O8 0.163682 0.791196 0.218425
O O9 0.154264 0.965522 0.375161
O O10 0.225615 0.232759 0.320442
O O11 0.642992 0.506875 0.548172
O O12 0.914804 0.619477 0.029758
O O13 0.889514 0.118739 0.966895
O O14 0.000000 0.853418 0.000000
O O15 0.766309 0.457303 0.834651
#
# Coordination Sequence:
#
# PCOD9129738 Si02
#       7
#     4   4   4   4   4   4   4
#     4  12  26  47  73 102 138 184 236 298 353 420
#     4  12  28  45  73 104 140 182 241 293 355 420
#     4  11  24  40  70 102 137 188 233 291 361 422
#     4  12  23  43  69 104 142 180 238 299 350 428
#     4  11  23  42  68  97 145 186 232 283 357 427
#     4  11  25  45  69  98 144 186 236 295 358 427
#     4  11  25  45  67 101 139 187 235 290 355 430
#
# _framework density 24.107068000000002
#
# number of rings (size 3 to 8) (size 9 to 14) (size 15 to 20)
#    0.000    0.571    4.286    3.429    2.000    3.429 
#    0.000    0.000    0.000    0.000    0.000    0.000 
#    0.000    0.000    0.000    0.000    0.000    0.000 
#
# Total GULP energy -78213.677567 kJ/mol
# GULP energy per Si atom -5586.691255 kJ/mol
# Density = 2.405220 g / cm^3
# Si number density = 24.107068 Si / 1000 Ang^3
#
#
#
# Elastic Constant Matrix: (Units=GPa)
#
#
# Indices 1 2 3 4 5 6 
#
# 1 63.5638 -14.1555 -18.0858 0.0001 -3.7417 -0.0001
# 2 -14.1555 75.7525 -15.3579 0.0013 -2.6851 0.0013
# 3 -18.0858 -15.3579 93.4357 0.0001 -3.5276 0.0004
# 4 0.0001 0.0013 0.0001 31.5339 -0.0001 -22.4630
# 5 -3.7417 -2.6851 -3.5276 -0.0001 18.9599 -0.0001
# 6 -0.0001 0.0013 0.0004 -22.4630 -0.0001 27.9640
#
#
#
# Elastic Compliance Matrix: (Units=1/GPa)
#
#
# Indices 1 2 3 4 5 6 
#
# 1 0.018310 0.004509 0.004477 -0.000001 0.005085 -0.000001
# 2 0.004509 0.014873 0.003455 -0.000003 0.003639 -0.000003
# 3 0.004477 0.003455 0.012275 -0.000001 0.003657 -0.000001
# 4 -0.000001 -0.000003 -0.000001 0.074130 0.000000 0.059547
# 5 0.005085 0.003639 0.003657 0.000000 0.054942 0.000000
# 6 -0.000001 -0.000003 -0.000001 0.059547 0.000000 0.083594
#
#
# Mechanical properties :
#
#
# Convention : Reuss Voigt Hill
#
# Bulk Modulus (GPa) = 14.21648 15.28374 14.75011
# Shear Modulus (GPa) = 19.47895 34.38165 26.93030
#
# Velocity S-wave (km/s) = 2.84565 3.78061 3.34595
# Velocity P-wave (km/s) = 4.08742 5.04094 4.58901
#
# Compressibility (1/GPa) = 0.07034092
#
# Stress axis : x y z
#
# Youngs Moduli (GPa) = 54.61584 67.23612 81.46563
#
# Poissons Ratio (x) = -0.30319 -0.36474
# Poissons Ratio (y) = -0.24628 -0.28146
# Poissons Ratio (z) = -0.24453 -0.23229
#
# Static dielectric constant tensor:
#      x y z
#    x 1.899450 0.000000 0.017170 
#    y 0.000000 1.950730 0.000000 
#    z 0.017170 0.000000 2.000260 
# 
# From -- ./inp_files/45740.got.cif
#   From: 2010.05.17/outbox.cif.g08.bks.cpg/sg5_23_cif.got.tgz:45740.got - 2010.06.03 18:56:24.
