data_PCOD9129834
_publ_section_title
;
Structure prediction by ZEFSAII (Michael W. Deem and Ramdas Pophale) SiO2 
 PCOD9129834
Probable space group: C 2
;
_chemical_formula_sum "Si O2"
_cell_formula_units_Z 24
_cell_length_a 14.979285
_cell_length_b 9.015213
_cell_length_c 9.018721
_cell_angle_alpha 90.000000
_cell_angle_beta 106.780928
_cell_angle_gamma 90.000000
_cell_volume 1166.037593
_symmetry_space_group_name_H-M "C 2"
_symmetry_group_IT_number 5
_symmetry_cell_setting 'monoclinic'
loop_
_space_group_symop_operation_xyz
x,y,z
-x,y,-z
1/2+x,1/2+y,z
1/2-x,1/2+y,-z
loop_
_atom_site_type_symbol
_atom_site_label
_atom_site_fract_x
_atom_site_fract_y
_atom_site_fract_z
Si Si1 0.595831 0.175080 0.973710
Si Si2 0.719307 0.624816 0.302208
Si Si3 0.278182 0.810644 0.207362
Si Si4 0.604821 0.822337 0.020629
Si Si5 0.903239 0.772067 0.370024
Si Si6 0.607374 0.604562 0.537580
O O1 0.594653 0.212145 0.797848
O O2 0.604073 0.000923 0.017513
O O3 0.500000 0.230981 0.000000
O O4 0.684141 0.247924 0.093037
O O5 0.755303 0.480325 0.232795
O O6 0.814680 0.697890 0.407984
O O7 0.643047 0.578040 0.387415
O O8 0.672410 0.746260 0.172072
O O9 0.357552 0.784408 0.122873
O O10 0.319332 0.723510 0.366163
O O11 0.500000 0.770118 0.000000
O O12 0.000000 0.738564 0.500000
O O13 0.889213 0.949612 0.371308
O O14 0.500000 0.657102 0.500000
#
# Coordination Sequence:
#
# PCOD9129834 Si02
#       6
#     4   4   4   4   4   4
#     4  11  26  44  70 103 133 182 229 287 344 402
#     4  12  25  45  69 102 136 184 228 285 345 408
#     4  12  24  44  70 104 134 182 232 282 346 406
#     4  11  23  45  69 102 136 174 229 284 343 403
#     4  11  25  47  67  98 142 181 231 280 342 414
#     4  11  27  45  68 100 142 186 226 281 343 412
#
# _framework density 20.582526000000001
#
# number of rings (size 3 to 8) (size 9 to 14) (size 15 to 20)
#    0.000    0.667    3.333    3.000    9.333    1.333 
#    3.000    0.000    0.000    0.000    0.000    0.000 
#    0.000    0.000    0.000    0.000    0.000    0.000 
#
# Total GULP energy -67058.333408 kJ/mol
# GULP energy per Si atom -5588.194451 kJ/mol
# Density = 2.053568 g / cm^3
# Si number density = 20.582526 Si / 1000 Ang^3
#
#
#
# Elastic Constant Matrix: (Units=GPa)
#
#
# Indices 1 2 3 4 5 6 
#
# 1 136.9395 27.5259 48.3192 0.0000 -7.7690 0.0000
# 2 27.5259 77.5988 42.2689 0.0000 15.8602 0.0000
# 3 48.3192 42.2689 75.2534 0.0000 -1.7740 0.0000
# 4 0.0000 0.0000 0.0000 1.3573 0.0000 -10.6550
# 5 -7.7690 15.8602 -1.7740 0.0000 47.6307 0.0000
# 6 0.0000 0.0000 0.0000 -10.6550 0.0000 28.2637
#
#
#
# Elastic Compliance Matrix: (Units=1/GPa)
#
#
# Indices 1 2 3 4 5 6 
#
# 1 0.009539 -0.000545 -0.005783 0.000000 0.001522 0.000000
# 2 -0.000545 0.020914 -0.011574 0.000000 -0.007484 0.000000
# 3 -0.005783 -0.011574 0.023592 0.000000 0.003789 0.000000
# 4 0.000000 0.000000 0.000000 -0.376017 0.000000 -0.141752
# 5 0.001522 -0.007484 0.003789 0.000000 0.023876 0.000000
# 6 0.000000 0.000000 0.000000 -0.141752 0.000000 -0.018057
#
#
# Mechanical properties :
#
#
# Convention : Reuss Voigt Hill
#
# Bulk Modulus (GPa) = 54.81929 58.44664 56.63296
# Shear Modulus (GPa) = -18.23021 26.89553 4.33266
#
# Velocity S-wave (km/s) = -2.97932 3.61878 1.45244
# Velocity P-wave (km/s) = 3.85442 6.77633 5.51249
#
# Compressibility (1/GPa) = 0.01824175
#
# Stress axis : x y z
#
# Youngs Moduli (GPa) = 104.83460 47.81482 42.38755
#
# Poissons Ratio (x) = 0.02604 0.24513
# Poissons Ratio (y) = 0.05709 0.49059
# Poissons Ratio (z) = 0.60626 0.55340
#
# Static dielectric constant tensor:
#      x y z
#    x 1.770820 0.000000 -0.007960 
#    y 0.000000 1.744300 0.000000 
#    z -0.007960 0.000000 1.728000 
# 
# From -- ./inp_files/22899.got.cif
#   From: 2010.05.17/outbox.cif.g08.bks.cpg/sg5_12_cif.got.tgz:22899.got - 2010.06.03 18:56:24.
