data_PCOD9129941
_publ_section_title
;
Structure prediction by ZEFSAII (Michael W. Deem and Ramdas Pophale) SiO2 
 PCOD9129941
Probable space group: C 2
;
_chemical_formula_sum "Si O2"
_cell_formula_units_Z 30
_cell_length_a 31.072821
_cell_length_b 8.909685
_cell_length_c 9.287954
_cell_angle_alpha 90.000000
_cell_angle_beta 33.260958
_cell_angle_gamma 90.000000
_cell_volume 1410.271189
_symmetry_space_group_name_H-M "C 2"
_symmetry_group_IT_number 5
_symmetry_cell_setting 'monoclinic'
loop_
_space_group_symop_operation_xyz
x,y,z
-x,y,-z
1/2+x,1/2+y,z
1/2-x,1/2+y,-z
loop_
_atom_site_type_symbol
_atom_site_label
_atom_site_fract_x
_atom_site_fract_y
_atom_site_fract_z
Si Si1 0.591864 0.291480 0.259539
Si Si2 0.235310 0.765317 0.376397
Si Si3 0.000000 0.085556 0.000000
Si Si4 0.980543 0.544867 0.893529
Si Si5 0.815134 0.581126 0.215315
Si Si6 0.586898 0.320838 0.605976
Si Si7 0.615697 0.630074 0.170120
Si Si8 0.491373 0.757423 0.307670
O O1 0.500000 0.245725 0.500000
O O2 0.614641 0.319701 0.362682
O O3 0.598432 0.458801 0.174669
O O4 0.648051 0.175904 0.020019
O O5 0.231128 0.690125 0.545732
O O6 0.152087 0.753874 0.529157
O O7 0.264572 0.937408 0.309332
O O8 0.296356 0.675017 0.106888
O O9 0.937132 0.974919 0.249740
O O10 0.022759 0.189248 0.070458
O O11 0.010061 0.715370 0.807208
O O12 0.028407 0.431816 0.657232
O O13 0.891336 0.529295 0.093927
O O14 0.000000 0.495773 0.000000
O O15 0.562034 0.735311 0.220499
O O16 0.581917 0.666086 0.422614
#
# Coordination Sequence:
#
# PCOD9129941 Si02
#       8
#     4   4   2   4   4   4   4   4
#     4  12  24  45  75 102 133 190 243 295 356 430
#     4  12  28  46  68 104 148 191 234 302 371 433
#     4  12  22  44  68 104 130 186 234 290 356 420
#     4  12  23  44  71 107 135 184 244 300 345 429
#     4  12  27  46  73 101 144 194 239 295 370 440
#     4  12  26  43  71 102 144 183 241 297 356 436
#     4  11  24  45  67 102 140 185 234 296 355 426
#     4  11  24  41  73 100 137 180 241 297 348 429
#
# _framework density 21.272504999999999
#
# number of rings (size 3 to 8) (size 9 to 14) (size 15 to 20)
#    0.000    0.267    8.000    0.800    5.600    1.067 
#    0.000    0.000    0.000    0.000    0.000    0.000 
#    0.000    0.000    0.000    0.000    0.000    0.000 
#
# Total GULP energy -83763.273170 kJ/mol
# GULP energy per Si atom -5584.218211 kJ/mol
# Density = 2.122409 g / cm^3
# Si number density = 21.272505 Si / 1000 Ang^3
#
#
#
# Elastic Constant Matrix: (Units=GPa)
#
#
# Indices 1 2 3 4 5 6 
#
# 1 67.9315 0.0281 17.9895 0.0000 20.8160 0.0000
# 2 0.0281 77.3414 22.7894 0.0000 13.6037 0.0000
# 3 17.9895 22.7894 81.4731 0.0000 17.9104 0.0000
# 4 0.0000 0.0000 0.0000 45.3184 0.0000 2.4562
# 5 20.8160 13.6037 17.9104 0.0000 35.7686 0.0000
# 6 0.0000 0.0000 0.0000 2.4562 0.0000 20.7477
#
#
#
# Elastic Compliance Matrix: (Units=1/GPa)
#
#
# Indices 1 2 3 4 5 6 
#
# 1 0.018623 0.002592 -0.002515 0.000000 -0.010565 0.000000
# 2 0.002592 0.014928 -0.003560 0.000000 -0.005404 0.000000
# 3 -0.002515 -0.003560 0.014839 0.000000 -0.004613 0.000000
# 4 0.000000 0.000000 0.000000 0.022209 0.000000 -0.002629
# 5 -0.010565 -0.005404 -0.004613 0.000000 0.038471 0.000000
# 6 0.000000 0.000000 0.000000 -0.002629 0.000000 0.048509
#
#
# Mechanical properties :
#
#
# Convention : Reuss Voigt Hill
#
# Bulk Modulus (GPa) = 24.13983 34.26223 29.20103
# Shear Modulus (GPa) = 28.03442 32.76288 30.39865
#
# Velocity S-wave (km/s) = 3.63419 3.92873 3.78433
# Velocity P-wave (km/s) = 5.38352 6.05981 5.73165
#
# Compressibility (1/GPa) = 0.04142531
#
# Stress axis : x y z
#
# Youngs Moduli (GPa) = 53.69747 66.98710 67.38927
#
# Poissons Ratio (x) = -0.17366 0.16946
# Poissons Ratio (y) = -0.13921 0.23992
# Poissons Ratio (z) = 0.13503 0.23849
#
# Static dielectric constant tensor:
#      x y z
#    x 1.754960 0.000000 0.046820 
#    y 0.000000 1.786790 0.000000 
#    z 0.046820 0.000000 1.810250 
# 
# From -- ./inp_files/32501.got.cif
#   From: 2010.05.17/outbox.cif.g08.bks.cpg/sg5_17_cif.got.tgz:32501.got - 2010.06.03 18:56:24.
