data_PCOD9129546
_publ_section_title
;
Structure prediction by ZEFSAII (Michael W. Deem and Ramdas Pophale) SiO2 
 PCOD9129546
Probable space group: C 2
;
_chemical_formula_sum "Si O2"
_cell_formula_units_Z 28
_cell_length_a 19.341006
_cell_length_b 8.617098
_cell_length_c 14.558504
_cell_angle_alpha 90.000000
_cell_angle_beta 148.763247
_cell_angle_gamma 90.000000
_cell_volume 1258.255705
_symmetry_space_group_name_H-M "C 2"
_symmetry_group_IT_number 5
_symmetry_cell_setting 'monoclinic'
loop_
_space_group_symop_operation_xyz
x,y,z
-x,y,-z
1/2+x,1/2+y,z
1/2-x,1/2+y,-z
loop_
_atom_site_type_symbol
_atom_site_label
_atom_site_fract_x
_atom_site_fract_y
_atom_site_fract_z
Si Si1 0.361243 0.130700 0.728185
Si Si2 0.948092 0.537564 0.547552
Si Si3 0.384561 0.718819 0.057909
Si Si4 0.309233 0.056062 0.047766
Si Si5 0.660932 0.568156 0.167806
Si Si6 0.641441 0.830538 0.403376
Si Si7 0.167420 0.718008 0.109896
O O1 0.284022 0.263594 0.586351
O O2 0.299175 0.121135 0.759934
O O3 0.357741 0.976307 0.663954
O O4 0.511270 0.186157 0.914033
O O5 0.794536 0.599438 0.380280
O O6 0.926196 0.373638 0.575251
O O7 0.000000 0.535004 0.500000
O O8 0.063536 0.610494 0.744795
O O9 0.543248 0.708044 0.244679
O O10 0.339332 0.882656 0.048382
O O11 0.317462 0.574831 0.031846
O O12 0.336020 0.709320 0.899588
O O13 0.273810 0.158539 0.918486
O O14 0.693799 0.397202 0.163414
O O15 0.500000 0.553879 0.000000
#
# Coordination Sequence:
#
# PCOD9129546 Si02
#       7
#     4   4   4   4   4   4   4
#     4  11  23  44  65 102 141 182 227 287 356 409
#     4  11  22  44  67  98 133 185 228 283 338 415
#     4  11  25  42  68  97 134 183 235 291 346 413
#     4  11  24  46  69  95 136 181 235 290 349 414
#     4  12  24  40  72 102 135 184 239 277 350 425
#     4  11  25  42  68 102 137 183 235 289 350 415
#     4  11  22  42  70  96 138 184 220 284 357 411
#
# _framework density 22.253029000000002
#
# number of rings (size 3 to 8) (size 9 to 14) (size 15 to 20)
#    0.000    0.857    7.143    0.857    6.000    1.143 
#    0.000    0.000    3.143    0.000    0.000    0.000 
#    0.000    0.000    0.000    0.000    0.000    0.000 
#
# Total GULP energy -77994.524679 kJ/mol
# GULP energy per Si atom -5571.037477 kJ/mol
# Density = 2.220238 g / cm^3
# Si number density = 22.253029 Si / 1000 Ang^3
#
#
#
# Elastic Constant Matrix: (Units=GPa)
#
#
# Indices 1 2 3 4 5 6 
#
# 1 63.7635 25.1798 19.8232 0.0000 -14.8311 0.0000
# 2 25.1798 42.5388 35.8507 0.0000 -5.1469 0.0000
# 3 19.8232 35.8507 111.2324 0.0000 -17.6831 0.0000
# 4 0.0000 0.0000 0.0000 35.4720 0.0000 -2.8041
# 5 -14.8311 -5.1469 -17.6831 0.0000 31.6724 0.0000
# 6 0.0000 0.0000 0.0000 -2.8041 0.0000 35.6061
#
#
#
# Elastic Compliance Matrix: (Units=1/GPa)
#
#
# Indices 1 2 3 4 5 6 
#
# 1 0.022815 -0.014006 0.001959 0.000000 0.009501 0.000000
# 2 -0.014006 0.040884 -0.011706 0.000000 -0.006450 0.000000
# 3 0.001959 -0.011706 0.013451 0.000000 0.006525 0.000000
# 4 0.000000 0.000000 0.000000 0.028368 0.000000 0.002234
# 5 0.009501 -0.006450 0.006525 0.000000 0.038617 0.000000
# 6 0.000000 0.000000 0.000000 0.002234 0.000000 0.028261
#
#
# Mechanical properties :
#
#
# Convention : Reuss Voigt Hill
#
# Bulk Modulus (GPa) = 33.73505 42.13800 37.93652
# Shear Modulus (GPa) = 21.75960 29.66215 25.71087
#
# Velocity S-wave (km/s) = 3.13041 3.65492 3.40279
# Velocity P-wave (km/s) = 5.31589 6.06533 5.70293
#
# Compressibility (1/GPa) = 0.02964276
#
# Stress axis : x y z
#
# Youngs Moduli (GPa) = 43.83151 24.45959 74.34130
#
# Poissons Ratio (x) = 0.34257 -0.14560
# Poissons Ratio (y) = 0.61389 0.87027
# Poissons Ratio (z) = -0.08585 0.28633
#
# Static dielectric constant tensor:
#      x y z
#    x 1.965530 0.000000 -0.003410 
#    y 0.000000 1.784620 0.000000 
#    z -0.003410 0.000000 1.855090 
# 
# From -- ./inp_files/56846.got.cif
#   From: 2010.05.17/outbox.cif.g08.bks.cpg/sg5_29_cif.got.tgz:56846.got - 2010.06.03 18:56:24.
