data_PCOD9129509
_publ_section_title
;
Structure prediction by ZEFSAII (Michael W. Deem and Ramdas Pophale) SiO2 
 PCOD9129509
Probable space group: C 2
;
_chemical_formula_sum "Si O2"
_cell_formula_units_Z 32
_cell_length_a 18.043550
_cell_length_b 15.664947
_cell_length_c 11.459387
_cell_angle_alpha 90.000000
_cell_angle_beta 29.184985
_cell_angle_gamma 90.000000
_cell_volume 1579.441362
_symmetry_space_group_name_H-M "C 2"
_symmetry_group_IT_number 5
_symmetry_cell_setting 'monoclinic'
loop_
_space_group_symop_operation_xyz
x,y,z
-x,y,-z
1/2+x,1/2+y,z
1/2-x,1/2+y,-z
loop_
_atom_site_type_symbol
_atom_site_label
_atom_site_fract_x
_atom_site_fract_y
_atom_site_fract_z
Si Si1 0.659164 0.763800 0.125249
Si Si2 0.594126 0.125151 0.268273
Si Si3 0.401131 0.013253 0.362887
Si Si4 0.684067 0.544952 0.445445
Si Si5 0.152260 0.998357 0.060447
Si Si6 0.662122 0.394890 0.827292
Si Si7 0.677860 0.732159 0.370827
Si Si8 0.221237 0.427973 0.883724
O O1 0.658568 0.771156 0.267237
O O2 0.482580 0.744427 0.342924
O O3 0.775677 0.686655 0.953803
O O4 0.712409 0.836202 0.960368
O O5 0.500000 0.168259 0.500000
O O6 0.478777 0.089005 0.330736
O O7 0.693225 0.047743 0.186104
O O8 0.299455 0.044572 0.395014
O O9 0.294791 0.952604 0.588428
O O10 0.547378 0.960017 0.119548
O O11 0.509195 0.544726 0.728743
O O12 0.712039 0.631169 0.330987
O O13 0.710048 0.457947 0.334481
O O14 0.179872 0.980456 0.158132
O O15 0.149496 0.916192 0.981860
O O16 0.697559 0.296498 0.749059
O O17 0.500000 0.421039 0.000000
#
# Coordination Sequence:
#
# PCOD9129509 Si02
#       8
#     4   4   4   4   4   4   4   4
#     4  11  23  41  67 101 132 181 241 286 346 405
#     4  11  23  40  70 100 137 180 231 281 348 415
#     4  11  24  42  69 104 136 183 227 287 356 423
#     4  12  25  45  71 101 144 182 232 287 360 414
#     4  11  22  41  67  98 128 180 235 281 334 417
#     4  12  23  41  71 101 137 184 236 289 349 416
#     4  11  24  43  69 100 138 182 237 299 336 413
#     4  11  24  41  68  96 136 176 229 289 346 408
#
# _framework density 20.260328999999999
#
# number of rings (size 3 to 8) (size 9 to 14) (size 15 to 20)
#    0.000    0.750    6.250    2.250    1.750    3.000 
#    0.000    1.250    0.000    0.000    0.000    0.000 
#    0.000    0.000    0.000    0.000    0.000    0.000 
#
# Total GULP energy -89144.503718 kJ/mol
# GULP energy per Si atom -5571.531482 kJ/mol
# Density = 2.021422 g / cm^3
# Si number density = 20.260329 Si / 1000 Ang^3
#
#
#
# Elastic Constant Matrix: (Units=GPa)
#
#
# Indices 1 2 3 4 5 6 
#
# 1 94.5146 28.9981 36.8842 0.0000 -19.2210 0.0000
# 2 28.9981 82.0107 11.6129 0.0001 -1.0614 0.0000
# 3 36.8842 11.6129 77.7670 0.0001 -12.8997 -0.0001
# 4 0.0000 0.0001 0.0001 -15.7131 0.0000 -0.8984
# 5 -19.2210 -1.0614 -12.8997 0.0000 36.1376 0.0000
# 6 0.0000 0.0000 -0.0001 -0.8984 0.0000 22.2448
#
#
#
# Elastic Compliance Matrix: (Units=1/GPa)
#
#
# Indices 1 2 3 4 5 6 
#
# 1 0.015409 -0.004574 -0.005621 0.000000 0.006055 0.000000
# 2 -0.004574 0.013818 -0.000245 0.000000 -0.002114 0.000000
# 3 -0.005621 -0.000245 0.016012 0.000000 0.002719 0.000000
# 4 0.000000 0.000000 0.000000 -0.063494 0.000000 -0.002564
# 5 0.006055 -0.002114 0.002719 0.000000 0.031801 0.000000
# 6 0.000000 0.000000 0.000000 -0.002564 0.000000 0.044851
#
#
# Mechanical properties :
#
#
# Convention : Reuss Voigt Hill
#
# Bulk Modulus (GPa) = 41.05089 45.47584 43.26337
# Shear Modulus (GPa) = 57.21124 20.32033 38.76579
#
# Velocity S-wave (km/s) = 5.31971 3.17039 4.37897
# Velocity P-wave (km/s) = 7.61828 5.99136 6.85327
#
# Compressibility (1/GPa) = 0.02436001
#
# Stress axis : x y z
#
# Youngs Moduli (GPa) = 64.89897 72.36856 62.45172
#
# Poissons Ratio (x) = 0.33102 0.35103
# Poissons Ratio (y) = 0.29685 0.01529
# Poissons Ratio (z) = 0.36478 0.01771
#
# Static dielectric constant tensor:
#      x y z
#    x 1.783230 0.000000 -0.046610 
#    y 0.000000 1.761650 0.000000 
#    z -0.046610 0.000000 1.808300 
# 
# From -- ./inp_files/44946.got.cif
#   From: 2010.05.17/outbox.cif.g08.bks.cpg/sg5_23_cif.got.tgz:44946.got - 2010.06.03 18:56:24.
