data_PCOD9129429
_publ_section_title
;
Structure prediction by ZEFSAII (Michael W. Deem and Ramdas Pophale) SiO2 
 PCOD9129429
Probable space group: C 2
;
_chemical_formula_sum "Si O2"
_cell_formula_units_Z 26
_cell_length_a 23.668987
_cell_length_b 6.607774
_cell_length_c 27.556292
_cell_angle_alpha 90.000000
_cell_angle_beta 19.488844
_cell_angle_gamma 90.000000
_cell_volume 1437.844828
_symmetry_space_group_name_H-M "C 2"
_symmetry_group_IT_number 5
_symmetry_cell_setting 'monoclinic'
loop_
_space_group_symop_operation_xyz
x,y,z
-x,y,-z
1/2+x,1/2+y,z
1/2-x,1/2+y,-z
loop_
_atom_site_type_symbol
_atom_site_label
_atom_site_fract_x
_atom_site_fract_y
_atom_site_fract_z
Si Si1 0.495270 0.429020 0.827154
Si Si2 0.265624 0.114956 0.178178
Si Si3 0.488510 0.528756 0.330976
Si Si4 0.444173 0.359986 0.111610
Si Si5 0.893512 0.672016 0.350436
Si Si6 0.000000 0.237110 0.000000
Si Si7 0.389734 0.785224 0.856022
O O1 0.564582 0.375588 0.823833
O O2 0.604243 0.327366 0.696465
O O3 0.472870 0.667008 0.833937
O O4 0.304219 0.341280 0.977591
O O5 0.295078 0.238029 0.204355
O O6 0.344673 0.890774 0.118142
O O7 0.387480 0.238175 0.042105
O O8 0.080628 0.091493 0.305757
O O9 0.296917 0.607900 0.483854
O O10 0.476813 0.290890 0.328166
O O11 0.594542 0.630971 0.201689
O O12 0.463293 0.584427 0.073892
O O13 0.004682 0.481440 0.244532
#
# Coordination Sequence:
#
# PCOD9129429 Si02
#       7
#     4   4   4   4   4   2   4
#     4  11  22  36  59  86 121 152 191 249 295 350
#     4   9  19  34  59  84 113 155 197 243 290 339
#     4  11  22  39  60  83 119 156 195 242 293 357
#     4   9  19  35  55  88 117 148 199 244 286 350
#     4  11  24  38  57  88 117 156 196 241 295 355
#     4   8  18  32  52  88 108 150 194 238 298 336
#     4  11  22  36  56  88 116 154 190 236 303 345
#
# _framework density 18.082619000000001
#
# number of rings (size 3 to 8) (size 9 to 14) (size 15 to 20)
#    0.000    2.154    4.615    0.000    2.154    2.462 
#    0.000    0.769    0.000    0.000    0.000    0.000 
#    0.000    0.000    0.000    0.000    0.000    0.000 
#
# Total GULP energy -72478.176161 kJ/mol
# GULP energy per Si atom -5575.244320 kJ/mol
# Density = 1.804146 g / cm^3
# Si number density = 18.082619 Si / 1000 Ang^3
#
#
#
# Elastic Constant Matrix: (Units=GPa)
#
#
# Indices 1 2 3 4 5 6 
#
# 1 108.1759 28.9595 3.5769 0.0082 -5.7177 -0.0124
# 2 28.9595 109.6216 14.5281 0.0212 -7.0989 -0.0384
# 3 3.5769 14.5281 47.3154 -0.0013 -0.5902 -0.0071
# 4 0.0082 0.0212 -0.0013 27.2803 -0.0004 6.6576
# 5 -5.7177 -7.0989 -0.5902 -0.0004 21.6530 0.0069
# 6 -0.0124 -0.0384 -0.0071 6.6576 0.0069 17.5827
#
#
#
# Elastic Compliance Matrix: (Units=1/GPa)
#
#
# Indices 1 2 3 4 5 6 
#
# 1 0.010017 -0.002535 0.000044 -0.000001 0.001815 0.000001
# 2 -0.002535 0.010355 -0.002955 -0.000013 0.002645 0.000024
# 3 0.000044 -0.002955 0.022034 0.000003 -0.000357 0.000001
# 4 -0.000001 -0.000013 0.000003 0.040389 0.000001 -0.015293
# 5 0.001815 0.002645 -0.000357 0.000001 0.047520 -0.000012
# 6 0.000001 0.000024 0.000001 -0.015293 -0.000012 0.062665
#
#
# Mechanical properties :
#
#
# Convention : Reuss Voigt Hill
#
# Bulk Modulus (GPa) = 31.73112 39.91575 35.82343
# Shear Modulus (GPa) = 23.32354 27.83976 25.58165
#
# Velocity S-wave (km/s) = 3.59532 3.92801 3.76534
# Velocity P-wave (km/s) = 5.90094 6.53410 6.22557
#
# Compressibility (1/GPa) = 0.03151481
#
# Stress axis : x y z
#
# Youngs Moduli (GPa) = 99.82799 96.57399 45.38377
#
# Poissons Ratio (x) = 0.24477 -0.00198
# Poissons Ratio (y) = 0.25302 0.13410
# Poissons Ratio (z) = -0.00435 0.28536
#
# Static dielectric constant tensor:
#      x y z
#    x 1.639690 0.000000 0.000570 
#    y 0.000000 1.656260 0.000010 
#    z 0.000570 0.000010 1.590590 
# 
# From -- ./inp_files/32103.got.cif
#   From: 2010.05.17/outbox.cif.g08.bks.cpg/sg5_17_cif.got.tgz:32103.got - 2010.06.03 18:56:24.
