data_PCOD9129602
_publ_section_title
;
Structure prediction by ZEFSAII (Michael W. Deem and Ramdas Pophale) SiO2 
 PCOD9129602
Probable space group: C 2
;
_chemical_formula_sum "Si O2"
_cell_formula_units_Z 20
_cell_length_a 18.347808
_cell_length_b 6.711708
_cell_length_c 7.405227
_cell_angle_alpha 90.000000
_cell_angle_beta 78.720592
_cell_angle_gamma 90.000000
_cell_volume 894.303967
_symmetry_space_group_name_H-M "C 2"
_symmetry_group_IT_number 5
_symmetry_cell_setting 'monoclinic'
loop_
_space_group_symop_operation_xyz
x,y,z
-x,y,-z
1/2+x,1/2+y,z
1/2-x,1/2+y,-z
loop_
_atom_site_type_symbol
_atom_site_label
_atom_site_fract_x
_atom_site_fract_y
_atom_site_fract_z
Si Si1 0.321595 0.771940 0.804839
Si Si2 0.414890 0.730232 0.102772
Si Si3 0.415935 0.529305 0.478993
Si Si4 0.682576 0.181704 0.345129
Si Si5 0.299741 0.022961 0.269653
O O1 0.364213 0.685509 0.609728
O O2 0.236351 0.705304 0.822173
O O3 0.330582 0.009219 0.792859
O O4 0.363943 0.680324 0.955049
O O5 0.408204 0.574363 0.270502
O O6 0.381504 0.941669 0.188657
O O7 0.500000 0.744793 0.000000
O O8 0.500000 0.560395 0.500000
O O9 0.387294 0.314331 0.558733
O O10 0.745369 0.336895 0.254916
O O11 0.708673 0.073416 0.515721
#
# Coordination Sequence:
#
# PCOD9129602 Si02
#       5
#     4   4   4   4   4
#     4  11  25  45  71 104 143 184 243 297 355 424
#     4  12  26  45  72 105 148 190 231 299 364 428
#     4  11  24  46  70 100 145 191 237 296 358 430
#     4  11  22  44  76 100 136 191 241 293 356 423
#     4  11  23  42  72 105 137 184 238 294 355 430
#
# _framework density 22.363759000000002
#
# number of rings (size 3 to 8) (size 9 to 14) (size 15 to 20)
#    0.000    0.800    6.000    1.200    2.800    2.400 
#    3.600    1.000    0.000    0.000    0.000    0.000 
#    0.000    0.000    0.000    0.000    0.000    0.000 
#
# Total GULP energy -55933.313335 kJ/mol
# GULP energy per Si atom -5593.331334 kJ/mol
# Density = 2.231286 g / cm^3
# Si number density = 22.363759 Si / 1000 Ang^3
#
#
#
# Elastic Constant Matrix: (Units=GPa)
#
#
# Indices 1 2 3 4 5 6 
#
# 1 59.4258 9.9442 16.0068 0.0000 -7.4760 0.0000
# 2 9.9442 98.3940 13.9461 0.0000 -7.6300 0.0000
# 3 16.0068 13.9461 96.5231 0.0000 4.2371 0.0000
# 4 0.0000 0.0000 0.0000 13.2424 0.0000 0.4975
# 5 -7.4760 -7.6300 4.2371 0.0000 46.4275 0.0000
# 6 0.0000 0.0000 0.0000 0.4975 0.0000 28.1924
#
#
#
# Elastic Compliance Matrix: (Units=1/GPa)
#
#
# Indices 1 2 3 4 5 6 
#
# 1 0.018207 -0.001184 -0.002980 0.000000 0.003009 0.000000
# 2 -0.001184 0.010613 -0.001411 0.000000 0.001682 0.000000
# 3 -0.002980 -0.001411 0.011134 0.000000 -0.001728 0.000000
# 4 0.000000 0.000000 0.000000 0.075565 0.000000 -0.001333
# 5 0.003009 0.001682 -0.001728 0.000000 0.022458 0.000000
# 6 0.000000 0.000000 0.000000 -0.001333 0.000000 0.035494
#
#
# Mechanical properties :
#
#
# Convention : Reuss Voigt Hill
#
# Bulk Modulus (GPa) = 34.71795 37.12635 35.92215
# Shear Modulus (GPa) = 25.74346 31.86885 28.80616
#
# Velocity S-wave (km/s) = 3.39650 3.77904 3.59287
# Velocity P-wave (km/s) = 5.56233 5.97317 5.77141
#
# Compressibility (1/GPa) = 0.02880354
#
# Stress axis : x y z
#
# Youngs Moduli (GPa) = 54.92320 94.22096 89.81364
#
# Poissons Ratio (x) = 0.11159 0.26768
# Poissons Ratio (y) = 0.06505 0.12672
# Poissons Ratio (z) = 0.16369 0.13294
#
# Static dielectric constant tensor:
#      x y z
#    x 1.812690 0.000000 -0.012350 
#    y 0.000000 1.858980 0.000000 
#    z -0.012350 0.000000 1.852200 
# 
# From -- ./inp_files/25952.got.cif
#   From: 2010.05.17/outbox.cif.g08.bks.cpg/sg5_13_cif.got.tgz:25952.got - 2010.06.03 18:56:24.
