data_PCOD9129437
_publ_section_title
;
Structure prediction by ZEFSAII (Michael W. Deem and Ramdas Pophale) SiO2 
 PCOD9129437
Probable space group: C 2
;
_chemical_formula_sum "Si O2"
_cell_formula_units_Z 14
_cell_length_a 17.534711
_cell_length_b 7.060643
_cell_length_c 5.351604
_cell_angle_alpha 90.000000
_cell_angle_beta 129.709992
_cell_angle_gamma 90.000000
_cell_volume 509.701458
_symmetry_space_group_name_H-M "C 2"
_symmetry_group_IT_number 5
_symmetry_cell_setting 'monoclinic'
loop_
_space_group_symop_operation_xyz
x,y,z
-x,y,-z
1/2+x,1/2+y,z
1/2-x,1/2+y,-z
loop_
_atom_site_type_symbol
_atom_site_label
_atom_site_fract_x
_atom_site_fract_y
_atom_site_fract_z
Si Si1 0.111455 0.097620 0.333529
Si Si2 0.500000 0.685223 0.500000
Si Si3 0.308217 0.022528 0.470567
Si Si4 0.902302 0.570354 0.167448
O O1 0.085153 0.050941 0.564753
O O2 0.143962 0.315559 0.437243
O O3 0.199096 0.012174 0.357591
O O4 0.000000 0.074204 0.000000
O O5 0.434465 0.845393 0.212761
O O6 0.319666 0.095838 0.211245
O O7 0.371338 0.125881 0.823819
O O8 0.000000 0.654164 0.500000
#
# Coordination Sequence:
#
# PCOD9129437 Si02
#       4
#     4   2   4   4
#     4  11  22  41  62  91 122 162 200 256 292 369
#     4   8  18  36  66  76 128 156 198 238 312 336
#     4  11  22  36  66  90 119 161 207 236 316 349
#     4   9  18  37  61  91 114 161 200 247 289 370
#
# _framework density 27.46706
#
# number of rings (size 3 to 8) (size 9 to 14) (size 15 to 20)
#    0.857    1.143    2.857    0.857    4.000    0.000 
#    0.000    4.286    3.143    0.000    0.000    0.000 
#    0.000    0.000    0.000    0.000    0.000    0.000 
#
# Total GULP energy -38978.274193 kJ/mol
# GULP energy per Si atom -5568.324885 kJ/mol
# Density = 2.740454 g / cm^3
# Si number density = 27.467060 Si / 1000 Ang^3
#
#
#
# Elastic Constant Matrix: (Units=GPa)
#
#
# Indices 1 2 3 4 5 6 
#
# 1 246.3979 2.1435 29.0816 0.0000 25.2201 0.0000
# 2 2.1435 64.0888 0.5208 0.0000 0.4632 0.0000
# 3 29.0816 0.5208 64.7398 0.0000 17.4750 0.0000
# 4 0.0000 0.0000 0.0000 3.8761 0.0000 17.6552
# 5 25.2201 0.4632 17.4750 0.0000 60.3501 0.0000
# 6 0.0000 0.0000 0.0000 17.6552 0.0000 30.5637
#
#
#
# Elastic Compliance Matrix: (Units=1/GPa)
#
#
# Indices 1 2 3 4 5 6 
#
# 1 0.004389 -0.000124 -0.001601 0.000000 -0.001370 0.000000
# 2 -0.000124 0.015608 -0.000056 0.000000 -0.000052 0.000000
# 3 -0.001601 -0.000056 0.017341 0.000000 -0.004352 0.000000
# 4 0.000000 0.000000 0.000000 -0.158166 0.000000 0.091365
# 5 -0.001370 -0.000052 -0.004352 0.000000 0.018403 0.000000
# 6 0.000000 0.000000 0.000000 0.091365 0.000000 -0.020059
#
#
# Mechanical properties :
#
#
# Convention : Reuss Voigt Hill
#
# Bulk Modulus (GPa) = 29.60635 48.74647 39.17641
# Shear Modulus (GPa) = -46.44067 41.85669 -2.29199
#
# Velocity S-wave (km/s) = -4.11637 3.90793 -0.91447
# Velocity P-wave (km/s) = 3.43371 6.17644 3.63029
#
# Compressibility (1/GPa) = 0.03377654
#
# Stress axis : x y z
#
# Youngs Moduli (GPa) = 227.85972 64.06842 57.66801
#
# Poissons Ratio (x) = 0.00794 0.09231
# Poissons Ratio (y) = 0.02823 0.00322
# Poissons Ratio (z) = 0.36475 0.00358
#
# Static dielectric constant tensor:
#      x y z
#    x 2.560460 0.000000 -0.361210 
#    y 0.000000 2.149370 0.000000 
#    z -0.361210 0.000000 2.474280 
# 
# From -- ./inp_files/4191.got.cif
#   From: 2010.05.17/outbox.cif.g08.bks.cpg/sg5_3_cif.got.tgz:4191.got - 2010.06.03 18:56:24.
