data_PCOD9129596
_publ_section_title
;
Structure prediction by ZEFSAII (Michael W. Deem and Ramdas Pophale) SiO2 
 PCOD9129596
Probable space group: C 2
;
_chemical_formula_sum "Si O2"
_cell_formula_units_Z 32
_cell_length_a 29.993044
_cell_length_b 11.224130
_cell_length_c 9.279749
_cell_angle_alpha 90.000000
_cell_angle_beta 29.705406
_cell_angle_gamma 90.000000
_cell_volume 1548.063338
_symmetry_space_group_name_H-M "C 2"
_symmetry_group_IT_number 5
_symmetry_cell_setting 'monoclinic'
loop_
_space_group_symop_operation_xyz
x,y,z
-x,y,-z
1/2+x,1/2+y,z
1/2-x,1/2+y,-z
loop_
_atom_site_type_symbol
_atom_site_label
_atom_site_fract_x
_atom_site_fract_y
_atom_site_fract_z
Si Si1 0.909252 0.073560 0.687067
Si Si2 0.314035 0.753493 0.147750
Si Si3 0.618274 0.016447 0.038951
Si Si4 0.755618 0.388723 0.850559
Si Si5 0.083779 0.034463 0.660019
Si Si6 0.347524 0.273446 0.596651
Si Si7 0.420711 0.036025 0.512120
Si Si8 0.227093 0.184656 0.426535
O O1 0.926141 0.090898 0.470531
O O2 0.000000 0.019773 0.500000
O O3 0.885472 0.193670 0.839477
O O4 0.822590 0.987891 0.948224
O O5 0.215734 0.732931 0.356326
O O6 0.320989 0.699186 0.286130
O O7 0.327786 0.893978 0.121024
O O8 0.524498 0.998877 0.219680
O O9 0.603116 0.040863 0.251292
O O10 0.675629 0.126821 0.820748
O O11 0.848703 0.450357 0.636803
O O12 0.765857 0.307833 0.680729
O O13 0.719894 0.307016 0.082492
O O14 0.171502 0.093010 0.484363
O O15 0.100114 0.893813 0.589967
O O16 0.000000 0.055028 0.000000
O O17 0.409218 0.166382 0.476333
#
# Coordination Sequence:
#
# PCOD9129596 Si02
#       8
#     4   4   4   4   4   4   4   4
#     4  11  25  42  71 101 134 179 241 280 350 419
#     4  12  25  41  72 101 139 188 228 290 349 411
#     4  11  25  44  69 107 141 178 235 291 348 412
#     4  11  23  42  70  98 138 184 231 284 345 422
#     4  11  25  46  70 100 141 178 232 295 348 414
#     4  11  22  44  71  97 136 185 231 283 353 410
#     4  11  23  44  73 102 136 183 238 286 349 419
#     4  12  26  44  69  99 147 181 231 291 350 408
#
# _framework density 20.670988999999999
#
# number of rings (size 3 to 8) (size 9 to 14) (size 15 to 20)
#    0.000    0.750    5.000    2.250    3.500    5.000 
#    0.000    1.250    0.000    0.000    0.000    0.000 
#    0.000    0.000    0.000    0.000    0.000    0.000 
#
# Total GULP energy -89496.691184 kJ/mol
# GULP energy per Si atom -5593.543199 kJ/mol
# Density = 2.062394 g / cm^3
# Si number density = 20.670989 Si / 1000 Ang^3
#
#
#
# Elastic Constant Matrix: (Units=GPa)
#
#
# Indices 1 2 3 4 5 6 
#
# 1 114.9920 27.6284 38.1372 0.0000 -4.8875 0.0000
# 2 27.6284 55.4443 12.4686 0.0000 7.4793 0.0000
# 3 38.1372 12.4686 84.6754 0.0000 2.4848 0.0000
# 4 0.0000 0.0000 0.0000 13.4930 0.0000 -0.4252
# 5 -4.8875 7.4793 2.4848 0.0000 41.7599 0.0000
# 6 0.0000 0.0000 0.0000 -0.4252 0.0000 23.2484
#
#
#
# Elastic Compliance Matrix: (Units=1/GPa)
#
#
# Indices 1 2 3 4 5 6 
#
# 1 0.011518 -0.005064 -0.004516 0.000000 0.002524 0.000000
# 2 -0.005064 0.021313 -0.000729 0.000000 -0.004367 0.000000
# 3 -0.004516 -0.000729 0.013987 0.000000 -0.001230 0.000000
# 4 0.000000 0.000000 0.000000 0.074155 0.000000 0.001356
# 5 0.002524 -0.004367 -0.001230 0.000000 0.025097 0.000000
# 6 0.000000 0.000000 0.000000 0.001356 0.000000 0.043039
#
#
# Mechanical properties :
#
#
# Convention : Reuss Voigt Hill
#
# Bulk Modulus (GPa) = 38.16963 45.73114 41.95038
# Shear Modulus (GPa) = 22.88735 27.49210 25.18972
#
# Velocity S-wave (km/s) = 3.33110 3.65085 3.49464
# Velocity P-wave (km/s) = 5.77065 6.32005 6.05159
#
# Compressibility (1/GPa) = 0.02619884
#
# Stress axis : x y z
#
# Youngs Moduli (GPa) = 86.82029 46.92017 71.49374
#
# Poissons Ratio (x) = 0.23762 0.32286
# Poissons Ratio (y) = 0.43970 0.05214
# Poissons Ratio (z) = 0.39208 0.03422
#
# Static dielectric constant tensor:
#      x y z
#    x 1.722300 0.000000 -0.005270 
#    y 0.000000 1.719600 0.000000 
#    z -0.005270 0.000000 1.738790 
# 
# From -- ./inp_files/32637.got.cif
#   From: 2010.05.17/outbox.cif.g08.bks.cpg/sg5_17_cif.got.tgz:32637.got - 2010.06.03 18:56:24.
