data_PCOD9129232
_publ_section_title
;
Structure prediction by ZEFSAII (Michael W. Deem and Ramdas Pophale) SiO2 
 PCOD9129232
Probable space group: C 2
;
_chemical_formula_sum "Si O2"
_cell_formula_units_Z 32
_cell_length_a 18.558442
_cell_length_b 8.848567
_cell_length_c 24.426251
_cell_angle_alpha 90.000000
_cell_angle_beta 21.990289
_cell_angle_gamma 90.000000
_cell_volume 1501.981071
_symmetry_space_group_name_H-M "C 2"
_symmetry_group_IT_number 5
_symmetry_cell_setting 'monoclinic'
loop_
_space_group_symop_operation_xyz
x,y,z
-x,y,-z
1/2+x,1/2+y,z
1/2-x,1/2+y,-z
loop_
_atom_site_type_symbol
_atom_site_label
_atom_site_fract_x
_atom_site_fract_y
_atom_site_fract_z
Si Si1 0.665186 0.789030 0.841161
Si Si2 0.532047 0.460509 0.635890
Si Si3 0.312699 0.280284 0.276625
Si Si4 0.682775 0.805450 0.642076
Si Si5 0.528133 0.501261 0.198655
Si Si6 0.522235 0.077815 0.423285
Si Si7 0.524231 0.987637 0.120522
Si Si8 0.013972 0.265054 0.582300
O O1 0.772893 0.649491 0.735773
O O2 0.560448 0.897938 0.871645
O O3 0.840612 0.880501 0.746095
O O4 0.500000 0.740785 0.000000
O O5 0.725870 0.386861 0.474759
O O6 0.526821 0.430823 0.704055
O O7 0.520670 0.636351 0.623872
O O8 0.404346 0.433962 0.235957
O O9 0.187598 0.270734 0.309382
O O10 0.174950 0.225237 0.423428
O O11 0.484627 0.164731 0.145260
O O12 0.520089 0.676482 0.756138
O O13 0.599856 0.927085 0.741623
O O14 0.869287 0.713285 0.531905
O O15 0.749816 0.465771 0.032195
O O16 0.500000 0.010009 0.500000
O O17 0.465021 0.945341 0.421207
#
# Coordination Sequence:
#
# PCOD9129232 Si02
#       8
#     4   4   4   4   4   4   4   4
#     4  11  23  43  64 103 134 178 228 279 348 417
#     4  11  25  41  71  96 137 182 223 288 344 409
#     4  11  23  40  67  97 130 171 231 280 331 396
#     4  11  24  39  65  98 125 178 234 268 339 420
#     4  12  26  44  62 101 143 178 216 291 356 407
#     4  11  20  37  70  96 128 168 229 294 326 397
#     4  12  23  42  69  93 137 180 227 276 339 429
#     4  11  21  42  70 100 126 171 235 294 321 400
#
# _framework density 21.305195000000001
#
# number of rings (size 3 to 8) (size 9 to 14) (size 15 to 20)
#    0.000    0.750    7.500    0.750    1.750    0.000 
#    0.000    3.125    0.000    0.000    0.000    0.000 
#    0.000    0.000    0.000    0.000    0.000    0.000 
#
# Total GULP energy -89290.286630 kJ/mol
# GULP energy per Si atom -5580.642914 kJ/mol
# Density = 2.125670 g / cm^3
# Si number density = 21.305195 Si / 1000 Ang^3
#
#
#
# Elastic Constant Matrix: (Units=GPa)
#
#
# Indices 1 2 3 4 5 6 
#
# 1 53.5645 24.4612 33.0871 -0.0007 -14.6405 -0.0003
# 2 24.4612 95.7316 46.8418 0.0048 -1.0886 -0.0007
# 3 33.0871 46.8418 124.1027 0.0088 2.7132 -0.0013
# 4 -0.0007 0.0048 0.0088 26.4403 -0.0017 -6.6083
# 5 -14.6405 -1.0886 2.7132 -0.0017 29.8384 0.0003
# 6 -0.0003 -0.0007 -0.0013 -6.6083 0.0003 24.9705
#
#
#
# Elastic Compliance Matrix: (Units=1/GPa)
#
#
# Indices 1 2 3 4 5 6 
#
# 1 0.028332 -0.003958 -0.006373 0.000005 0.014336 0.000001
# 2 -0.003958 0.013390 -0.003975 -0.000001 -0.001092 0.000000
# 3 -0.006373 -0.003975 0.011351 -0.000004 -0.004304 -0.000001
# 4 0.000005 -0.000001 -0.000004 0.040500 0.000005 0.010718
# 5 0.014336 -0.001092 -0.004304 0.000005 0.040900 0.000001
# 6 0.000001 0.000000 -0.000001 0.010718 0.000001 0.042884
#
#
# Mechanical properties :
#
#
# Convention : Reuss Voigt Hill
#
# Bulk Modulus (GPa) = 40.88099 53.57543 47.22821
# Shear Modulus (GPa) = 23.35127 27.51708 25.43417
#
# Velocity S-wave (km/s) = 3.31424 3.59774 3.45889
# Velocity P-wave (km/s) = 5.82026 6.51610 6.17798
#
# Compressibility (1/GPa) = 0.02446125
#
# Stress axis : x y z
#
# Youngs Moduli (GPa) = 35.29616 74.68468 88.09548
#
# Poissons Ratio (x) = 0.29559 0.56144
# Poissons Ratio (y) = 0.13970 0.35016
# Poissons Ratio (z) = 0.22495 0.29685
#
# Static dielectric constant tensor:
#      x y z
#    x 1.797300 0.000000 -0.014710 
#    y 0.000000 1.827130 0.000000 
#    z -0.014710 0.000000 1.735310 
# 
# From -- ./inp_files/71087.got.cif
#   From: 2010.05.17/outbox.cif.g08.bks.cpg/sg5_36_cif.got.tgz:71087.got - 2010.06.03 18:56:24.
