data_PCOD9129462
_publ_section_title
;
Structure prediction by ZEFSAII (Michael W. Deem and Ramdas Pophale) SiO2 
 PCOD9129462
Probable space group: C 2
;
_chemical_formula_sum "Si O2"
_cell_formula_units_Z 26
_cell_length_a 21.484751
_cell_length_b 7.556344
_cell_length_c 14.149122
_cell_angle_alpha 90.000000
_cell_angle_beta 148.661066
_cell_angle_gamma 90.000000
_cell_volume 1194.697824
_symmetry_space_group_name_H-M "C 2"
_symmetry_group_IT_number 5
_symmetry_cell_setting 'monoclinic'
loop_
_space_group_symop_operation_xyz
x,y,z
-x,y,-z
1/2+x,1/2+y,z
1/2-x,1/2+y,-z
loop_
_atom_site_type_symbol
_atom_site_label
_atom_site_fract_x
_atom_site_fract_y
_atom_site_fract_z
Si Si1 0.941695 0.512380 0.524324
Si Si2 0.661682 0.999324 0.177292
Si Si3 0.633780 0.105003 0.930086
Si Si4 0.000000 0.802054 0.000000
Si Si5 0.847085 0.005794 0.072275
Si Si6 0.439637 0.587127 0.520339
Si Si7 0.168668 0.114163 0.148319
O O1 0.942820 0.299695 0.524979
O O2 0.804506 0.569707 0.352505
O O3 0.000000 0.571903 0.500000
O O4 0.022031 0.579289 0.715263
O O5 0.804487 0.023349 0.357359
O O6 0.634932 0.793037 0.160526
O O7 0.615136 0.033491 0.010373
O O8 0.600999 0.154749 0.161274
O O9 0.666820 0.309663 0.984625
O O10 0.747811 0.026122 0.023929
O O11 0.919117 0.947106 0.950320
O O12 0.976260 0.025082 0.285942
O O13 0.829436 0.140501 0.962972
O O14 0.500000 0.527187 0.500000
#
# Coordination Sequence:
#
# PCOD9129462 Si02
#       7
#     4   4   4   2   4   4   4
#     4  11  22  39  67 105 141 176 222 284 353 413
#     4  12  25  46  73 100 136 186 231 285 343 408
#     4  12  23  39  66 106 142 176 222 282 352 416
#     4  12  26  52  70  94 138 190 242 278 332 406
#     4  12  23  39  66 106 142 176 222 282 352 416
#     4  11  22  39  67 105 141 176 222 284 353 413
#     4  12  25  46  73 100 136 186 231 285 343 408
#
# _framework density 21.762824999999999
#
# number of rings (size 3 to 8) (size 9 to 14) (size 15 to 20)
#    0.000    0.308    6.154    4.154    0.000    1.231 
#    0.000    1.538    0.000    0.000    0.000    0.000 
#    0.000    0.000    0.000    0.000    0.000    0.000 
#
# Total GULP energy -72616.437312 kJ/mol
# GULP energy per Si atom -5585.879793 kJ/mol
# Density = 2.171329 g / cm^3
# Si number density = 21.762825 Si / 1000 Ang^3
#
#
#
# Elastic Constant Matrix: (Units=GPa)
#
#
# Indices 1 2 3 4 5 6 
#
# 1 55.4016 20.2295 45.6179 0.0000 29.6075 0.0000
# 2 20.2295 125.8697 -20.6207 0.0000 17.8609 0.0000
# 3 45.6179 -20.6207 96.1594 0.0000 13.4305 0.0000
# 4 0.0000 0.0000 0.0000 33.5159 0.0000 7.2000
# 5 29.6075 17.8609 13.4305 0.0000 40.5465 0.0000
# 6 0.0000 0.0000 0.0000 7.2000 0.0000 16.0881
#
#
#
# Elastic Compliance Matrix: (Units=1/GPa)
#
#
# Indices 1 2 3 4 5 6 
#
# 1 0.058799 -0.009353 -0.025666 0.000000 -0.030314 0.000000
# 2 -0.009353 0.010552 0.006706 0.000000 -0.000040 0.000000
# 3 -0.025666 0.006706 0.022866 0.000000 0.008214 0.000000
# 4 0.000000 0.000000 0.000000 0.033010 0.000000 -0.014773
# 5 -0.030314 -0.000040 0.008214 0.000000 0.044095 0.000000
# 6 0.000000 0.000000 0.000000 -0.014773 0.000000 0.068769
#
#
# Mechanical properties :
#
#
# Convention : Reuss Voigt Hill
#
# Bulk Modulus (GPa) = 28.09801 40.87603 34.48702
# Shear Modulus (GPa) = 16.30882 33.51037 24.90960
#
# Velocity S-wave (km/s) = 2.74047 3.92828 3.38686
# Velocity P-wave (km/s) = 4.79089 6.27682 5.58351
#
# Compressibility (1/GPa) = 0.03558971
#
# Stress axis : x y z
#
# Youngs Moduli (GPa) = 17.00711 94.76782 43.73296
#
# Poissons Ratio (x) = 0.88639 1.12245
# Poissons Ratio (y) = 0.15907 -0.29325
# Poissons Ratio (z) = 0.43650 -0.63547
#
# Static dielectric constant tensor:
#      x y z
#    x 2.020930 0.000000 0.041280 
#    y 0.000000 1.822040 0.000000 
#    z 0.041280 0.000000 1.766020 
# 
# From -- ./inp_files/56854.got.cif
#   From: 2010.05.17/outbox.cif.g08.bks.cpg/sg5_29_cif.got.tgz:56854.got - 2010.06.03 18:56:24.
