data_PCOD9129012
_publ_section_title
;
Structure prediction by ZEFSAII (Michael W. Deem and Ramdas Pophale) SiO2 
 PCOD9129012
Probable space group: C 2
;
_chemical_formula_sum "Si O2"
_cell_formula_units_Z 30
_cell_length_a 12.013923
_cell_length_b 14.391791
_cell_length_c 9.092924
_cell_angle_alpha 90.000000
_cell_angle_beta 113.669436
_cell_angle_gamma 90.000000
_cell_volume 1439.926566
_symmetry_space_group_name_H-M "C 2"
_symmetry_group_IT_number 5
_symmetry_cell_setting 'monoclinic'
loop_
_space_group_symop_operation_xyz
x,y,z
-x,y,-z
1/2+x,1/2+y,z
1/2-x,1/2+y,-z
loop_
_atom_site_type_symbol
_atom_site_label
_atom_site_fract_x
_atom_site_fract_y
_atom_site_fract_z
Si Si1 0.487038 0.302120 0.663998
Si Si2 0.727641 0.955354 0.022449
Si Si3 0.145650 0.130093 0.353748
Si Si4 0.362053 0.651864 0.151043
Si Si5 0.190042 0.657745 0.300770
Si Si6 0.886159 0.952343 0.841477
Si Si7 0.500000 0.044982 0.000000
Si Si8 0.239825 0.265170 0.171754
O O1 0.500000 0.331047 0.500000
O O2 0.385090 0.225500 0.635520
O O3 0.444478 0.383916 0.751372
O O4 0.615482 0.255303 0.777016
O O5 0.726301 0.875582 0.144955
O O6 0.805981 0.047587 0.103573
O O7 0.788297 0.914771 0.906836
O O8 0.588664 0.987242 0.940628
O O9 0.212858 0.107997 0.541755
O O10 0.199737 0.221575 0.304386
O O11 0.000214 0.143294 0.277722
O O12 0.170737 0.041863 0.264134
O O13 0.277769 0.702787 0.226087
O O14 0.340361 0.708987 0.990016
O O15 0.090291 0.602241 0.153165
O O16 0.000000 0.984005 0.000000
#
# Coordination Sequence:
#
# PCOD9129012 Si02
#       8
#     4   4   4   4   4   4   2   4
#     4  12  25  43  67 105 142 184 244 293 351 419
#     4  11  23  43  70 106 138 189 243 284 348 435
#     4  12  24  43  68 104 142 182 229 295 354 409
#     4  11  23  43  70 101 139 187 236 283 353 428
#     4  11  25  44  69  99 142 182 234 287 355 421
#     4  12  23  44  72 101 137 185 241 288 344 427
#     4  10  26  44  72 104 144 188 232 294 366 424
#     4  12  23  41  73  97 143 187 230 289 354 414
#
# _framework density 20.834396000000002
#
# number of rings (size 3 to 8) (size 9 to 14) (size 15 to 20)
#    0.000    0.533    5.333    3.200    2.800    3.200 
#    0.000    0.000    0.000    0.000    0.000    0.000 
#    0.000    0.000    0.000    0.000    0.000    0.000 
#
# Total GULP energy -83691.466202 kJ/mol
# GULP energy per Si atom -5579.431080 kJ/mol
# Density = 2.078698 g / cm^3
# Si number density = 20.834396 Si / 1000 Ang^3
#
#
#
# Elastic Constant Matrix: (Units=GPa)
#
#
# Indices 1 2 3 4 5 6 
#
# 1 137.2015 28.2973 37.1940 0.0000 2.1689 0.0000
# 2 28.2973 60.4838 12.5772 0.0000 7.3818 0.0000
# 3 37.1940 12.5772 117.3356 0.0000 13.7650 0.0000
# 4 0.0000 0.0000 0.0000 19.0289 0.0000 -13.8034
# 5 2.1689 7.3818 13.7650 0.0000 40.0378 0.0000
# 6 0.0000 0.0000 0.0000 -13.8034 0.0000 29.5888
#
#
#
# Elastic Compliance Matrix: (Units=1/GPa)
#
#
# Indices 1 2 3 4 5 6 
#
# 1 0.008707 -0.003686 -0.002490 0.000000 0.001064 0.000000
# 2 -0.003686 0.018734 -0.000477 0.000000 -0.003090 0.000000
# 3 -0.002490 -0.000477 0.009729 0.000000 -0.003122 0.000000
# 4 0.000000 0.000000 0.000000 0.079431 0.000000 0.037055
# 5 0.001064 -0.003090 -0.003122 0.000000 0.026562 0.000000
# 6 0.000000 0.000000 0.000000 0.037055 0.000000 0.051083
#
#
# Mechanical properties :
#
#
# Convention : Reuss Voigt Hill
#
# Bulk Modulus (GPa) = 41.90254 52.35087 47.12671
# Shear Modulus (GPa) = 23.20114 33.52791 28.36453
#
# Velocity S-wave (km/s) = 3.34068 4.01591 3.69376
# Velocity P-wave (km/s) = 5.91913 6.83264 6.39223
#
# Compressibility (1/GPa) = 0.02386490
#
# Stress axis : x y z
#
# Youngs Moduli (GPa) = 114.85274 53.37873 102.78349
#
# Poissons Ratio (x) = 0.19673 0.25590
# Poissons Ratio (y) = 0.42330 0.04906
# Poissons Ratio (z) = 0.28595 0.02548
#
# Static dielectric constant tensor:
#      x y z
#    x 1.782960 0.000000 -0.017360 
#    y 0.000000 1.784530 0.000000 
#    z -0.017360 0.000000 1.804670 
# 
# From -- ./inp_files/20683.got.cif
#   From: 2010.05.17/outbox.cif.g08.bks.cpg/sg5_11_cif.got.tgz:20683.got - 2010.06.03 18:56:24.
