data_PCOD9129832
_publ_section_title
;
Structure prediction by ZEFSAII (Michael W. Deem and Ramdas Pophale) SiO2 
 PCOD9129832
Probable space group: C 2
;
_chemical_formula_sum "Si O2"
_cell_formula_units_Z 32
_cell_length_a 10.977205
_cell_length_b 8.392061
_cell_length_c 25.920013
_cell_angle_alpha 90.000000
_cell_angle_beta 142.276265
_cell_angle_gamma 90.000000
_cell_volume 1460.978959
_symmetry_space_group_name_H-M "C 2"
_symmetry_group_IT_number 5
_symmetry_cell_setting 'monoclinic'
loop_
_space_group_symop_operation_xyz
x,y,z
-x,y,-z
1/2+x,1/2+y,z
1/2-x,1/2+y,-z
loop_
_atom_site_type_symbol
_atom_site_label
_atom_site_fract_x
_atom_site_fract_y
_atom_site_fract_z
Si Si1 0.831454 0.520520 0.743558
Si Si2 0.765806 0.654966 0.286091
Si Si3 0.208396 0.616236 0.824046
Si Si4 0.627159 0.465286 0.839057
Si Si5 0.417977 0.020830 0.529511
Si Si6 0.523941 0.123245 0.102860
Si Si7 0.013208 0.141738 0.443694
Si Si8 0.385818 0.467282 0.041657
O O1 0.751648 0.344277 0.727263
O O2 0.691972 0.601428 0.654187
O O3 0.053675 0.495309 0.796804
O O4 0.851811 0.627301 0.801957
O O5 0.801391 0.593017 0.240347
O O6 0.565419 0.570379 0.240240
O O7 0.944248 0.610447 0.383191
O O8 0.129696 0.788220 0.816081
O O9 0.436631 0.584580 0.915690
O O10 0.629637 0.466430 0.901492
O O11 0.830856 0.539567 0.887875
O O12 0.500000 0.067039 0.500000
O O13 0.191881 0.061988 0.470385
O O14 0.448906 0.831050 0.544138
O O15 0.451202 0.287312 0.053624
O O16 0.327121 0.021219 0.049720
O O17 0.000000 0.091711 0.500000
#
# Coordination Sequence:
#
# PCOD9129832 Si02
#       8
#     4   4   4   4   4   4   4   4
#     4  12  25  43  72 101 137 181 230 286 344 409
#     4  11  25  42  70 102 135 177 229 282 345 415
#     4  11  23  45  68  97 136 179 228 283 343 413
#     4  11  23  45  68  94 136 180 224 281 345 409
#     4  11  26  45  73 103 139 185 229 289 357 424
#     4  12  25  44  69 100 136 180 231 285 345 411
#     4  11  26  48  70 102 144 186 235 289 351 426
#     4  11  26  44  67  96 137 182 228 283 350 409
#
# _framework density 21.903122
#
# number of rings (size 3 to 8) (size 9 to 14) (size 15 to 20)
#    0.000    0.750    2.500    4.125    5.250    5.500 
#    2.250    0.000    0.000    0.000    0.000    0.000 
#    0.000    0.000    0.000    0.000    0.000    0.000 
#
# Total GULP energy -89499.158881 kJ/mol
# GULP energy per Si atom -5593.697430 kJ/mol
# Density = 2.185327 g / cm^3
# Si number density = 21.903122 Si / 1000 Ang^3
#
#
#
# Elastic Constant Matrix: (Units=GPa)
#
#
# Indices 1 2 3 4 5 6 
#
# 1 97.6481 -0.7293 26.1920 0.0000 9.1872 0.0000
# 2 -0.7293 48.0241 -2.7913 0.0000 0.0363 0.0000
# 3 26.1920 -2.7913 95.3591 0.0000 1.7825 0.0000
# 4 0.0000 0.0000 0.0000 33.6620 0.0000 13.1390
# 5 9.1872 0.0363 1.7825 0.0000 34.9134 0.0000
# 6 0.0000 0.0000 0.0000 13.1390 0.0000 36.1682
#
#
#
# Elastic Compliance Matrix: (Units=1/GPa)
#
#
# Indices 1 2 3 4 5 6 
#
# 1 0.011327 -0.000004 -0.003058 0.000000 -0.002824 0.000000
# 2 -0.000004 0.020858 0.000613 0.000000 -0.000052 0.000000
# 3 -0.003058 0.000613 0.011340 0.000000 0.000225 0.000000
# 4 0.000000 0.000000 0.000000 0.034615 0.000000 -0.012575
# 5 -0.002824 -0.000052 0.000225 0.000000 0.029374 0.000000
# 6 0.000000 0.000000 0.000000 -0.012575 0.000000 0.032217
#
#
# Mechanical properties :
#
#
# Convention : Reuss Voigt Hill
#
# Bulk Modulus (GPa) = 25.88879 31.81934 28.85407
# Shear Modulus (GPa) = 31.74469 35.50605 33.62537
#
# Velocity S-wave (km/s) = 3.81113 4.03059 3.92240
# Velocity P-wave (km/s) = 5.58673 6.01829 5.80652
#
# Compressibility (1/GPa) = 0.03862676
#
# Stress axis : x y z
#
# Youngs Moduli (GPa) = 88.28523 47.94219 88.17989
#
# Poissons Ratio (x) = 0.00017 0.26969
# Poissons Ratio (y) = 0.00032 -0.05401
# Poissons Ratio (z) = 0.27002 -0.02937
#
# Static dielectric constant tensor:
#      x y z
#    x 1.789670 0.000000 0.001780 
#    y 0.000000 1.799100 0.000000 
#    z 0.001780 0.000000 1.779870 
# 
# From -- ./inp_files/71733.got.cif
#   From: 2010.05.17/outbox.cif.g08.bks.cpg/sg5_36_cif.got.tgz:71733.got - 2010.06.03 18:56:24.
