data_PCOD9129256
_publ_section_title
;
Structure prediction by ZEFSAII (Michael W. Deem and Ramdas Pophale) SiO2 
 PCOD9129256
Probable space group: C 2
;
_chemical_formula_sum "Si O2"
_cell_formula_units_Z 30
_cell_length_a 19.174011
_cell_length_b 14.550372
_cell_length_c 13.842544
_cell_angle_alpha 90.000000
_cell_angle_beta 159.402722
_cell_angle_gamma 90.000000
_cell_volume 1358.611645
_symmetry_space_group_name_H-M "C 2"
_symmetry_group_IT_number 5
_symmetry_cell_setting 'monoclinic'
loop_
_space_group_symop_operation_xyz
x,y,z
-x,y,-z
1/2+x,1/2+y,z
1/2-x,1/2+y,-z
loop_
_atom_site_type_symbol
_atom_site_label
_atom_site_fract_x
_atom_site_fract_y
_atom_site_fract_z
Si Si1 0.359158 0.241330 0.592648
Si Si2 0.276071 0.335796 0.187582
Si Si3 0.708892 0.165485 0.910733
Si Si4 0.417389 0.984223 0.175691
Si Si5 0.058343 0.599402 0.975474
Si Si6 0.000000 0.295876 0.000000
Si Si7 0.814413 0.889406 0.691133
Si Si8 0.913759 0.233864 0.488027
O O1 0.538886 0.217020 0.753551
O O2 0.380906 0.161890 0.701710
O O3 0.158145 0.241209 0.270767
O O4 0.374623 0.339522 0.668491
O O5 0.500000 0.364762 0.500000
O O6 0.275945 0.226125 0.165887
O O7 0.132572 0.349900 0.093053
O O8 0.193864 0.387541 0.985127
O O9 0.650649 0.057633 0.832125
O O10 0.915658 0.179278 0.234570
O O11 0.654398 0.970562 0.477491
O O12 0.365664 0.033879 0.008521
O O13 0.235235 0.668225 0.227415
O O14 0.000000 0.553725 0.000000
O O15 0.684249 0.812067 0.575559
O O16 0.000000 0.910758 0.000000
O O17 0.000000 0.273537 0.500000
#
# Coordination Sequence:
#
# PCOD9129256 Si02
#       8
#     4   4   4   4   4   2   4   4
#     4  11  20  41  68  99 139 192 239 286 366 447
#     4  12  26  46  73 101 149 192 243 302 366 453
#     4  11  24  45  67 102 147 193 238 300 376 433
#     4  11  26  42  71 109 143 181 251 304 366 439
#     4  11  23  41  67 104 138 181 247 299 363 433
#     4  12  24  42  74 102 144 200 238 284 384 432
#     4  12  22  43  72 104 141 186 247 307 371 441
#     4  12  19  38  73  98 131 186 240 301 364 429
#
# _framework density 22.081365000000002
#
# number of rings (size 3 to 8) (size 9 to 14) (size 15 to 20)
#    0.000    0.533    9.333    0.000    2.800    0.000 
#    4.800    0.667    0.000    0.000    0.000    0.000 
#    0.000    0.000    0.000    0.000    0.000    0.000 
#
# Total GULP energy -83753.035589 kJ/mol
# GULP energy per Si atom -5583.535706 kJ/mol
# Density = 2.203111 g / cm^3
# Si number density = 22.081365 Si / 1000 Ang^3
#
#
#
# Elastic Constant Matrix: (Units=GPa)
#
#
# Indices 1 2 3 4 5 6 
#
# 1 67.6974 9.1570 3.9766 0.0000 15.0966 0.0000
# 2 9.1570 69.8429 27.6396 0.0000 6.7067 0.0000
# 3 3.9766 27.6396 162.2294 0.0000 -11.0988 0.0000
# 4 0.0000 0.0000 0.0000 16.5600 0.0000 9.2531
# 5 15.0966 6.7067 -11.0988 0.0000 26.3013 0.0000
# 6 0.0000 0.0000 0.0000 9.2531 0.0000 30.2287
#
#
#
# Elastic Compliance Matrix: (Units=1/GPa)
#
#
# Indices 1 2 3 4 5 6 
#
# 1 0.017189 -0.000913 -0.000952 0.000000 -0.010035 0.000000
# 2 -0.000913 0.016115 -0.003057 0.000000 -0.004875 0.000000
# 3 -0.000952 -0.003057 0.007001 0.000000 0.004280 0.000000
# 4 0.000000 0.000000 0.000000 0.072846 0.000000 -0.022298
# 5 -0.010035 -0.004875 0.004280 0.000000 0.046830 0.000000
# 6 0.000000 0.000000 0.000000 -0.022298 0.000000 0.039907
#
#
# Mechanical properties :
#
#
# Convention : Reuss Voigt Hill
#
# Bulk Modulus (GPa) = 32.82886 42.36845 37.59866
# Shear Modulus (GPa) = 22.73903 31.88445 27.31174
#
# Velocity S-wave (km/s) = 3.21251 3.80406 3.52073
# Velocity P-wave (km/s) = 5.35348 6.20674 5.79583
#
# Compressibility (1/GPa) = 0.03046100
#
# Stress axis : x y z
#
# Youngs Moduli (GPa) = 58.17691 62.05248 142.83478
#
# Poissons Ratio (x) = 0.05666 0.13603
# Poissons Ratio (y) = 0.05312 0.43661
# Poissons Ratio (z) = 0.05540 0.18968
#
# Static dielectric constant tensor:
#      x y z
#    x 1.861150 0.000000 -0.009720 
#    y 0.000000 1.891190 0.000000 
#    z -0.009720 0.000000 1.800160 
# 
# From -- ./inp_files/57148.got.cif
#   From: 2010.05.17/outbox.cif.g08.bks.cpg/sg5_29_cif.got.tgz:57148.got - 2010.06.03 18:56:24.
