data_PCOD9129408
_publ_section_title
;
Structure prediction by ZEFSAII (Michael W. Deem and Ramdas Pophale) SiO2 
 PCOD9129408
Probable space group: C 2
;
_chemical_formula_sum "Si O2"
_cell_formula_units_Z 24
_cell_length_a 11.594160
_cell_length_b 7.602964
_cell_length_c 23.410040
_cell_angle_alpha 90.000000
_cell_angle_beta 26.690191
_cell_angle_gamma 90.000000
_cell_volume 926.896622
_symmetry_space_group_name_H-M "C 2"
_symmetry_group_IT_number 5
_symmetry_cell_setting 'monoclinic'
loop_
_space_group_symop_operation_xyz
x,y,z
-x,y,-z
1/2+x,1/2+y,z
1/2-x,1/2+y,-z
loop_
_atom_site_type_symbol
_atom_site_label
_atom_site_fract_x
_atom_site_fract_y
_atom_site_fract_z
Si Si1 0.475772 0.858890 0.923547
Si Si2 0.984992 0.792555 0.210439
Si Si3 0.324738 0.370599 0.521330
Si Si4 0.006647 0.734653 0.671591
Si Si5 0.716724 0.921351 0.111514
Si Si6 0.674556 0.704052 0.242612
O O1 0.025029 0.843077 0.604572
O O2 0.701585 0.713518 0.820220
O O3 0.308312 0.839628 0.940035
O O4 0.265980 0.860232 0.066704
O O5 0.020783 0.581988 0.199607
O O6 0.899419 0.838615 0.312460
O O7 0.795273 0.818274 0.241587
O O8 0.500000 0.365120 0.500000
O O9 0.124648 0.208643 0.609973
O O10 0.833931 0.286652 0.816297
O O11 0.163894 0.553622 0.595438
O O12 0.358749 0.036718 0.153879
O O13 0.000000 0.987676 0.000000
#
# Coordination Sequence:
#
# PCOD9129408 Si02
#       6
#     4   4   4   4   4   4
#     4  11  25  47  78 121 154 197 257 313 389 475
#     4  11  25  46  80 115 159 199 248 317 394 462
#     4  12  29  54  81 107 156 209 265 323 376 452
#     4  12  27  51  81 109 156 203 260 318 384 448
#     4  11  21  44  75 110 159 201 237 307 386 452
#     4  11  25  48  79 118 149 205 258 316 382 455
#
# _framework density 25.892855000000001
#
# number of rings (size 3 to 8) (size 9 to 14) (size 15 to 20)
#    0.000    0.667    3.333    3.500    4.667    1.333 
#    9.000    0.833    0.000    0.000    0.000    0.000 
#    0.000    0.000    0.000    0.000    0.000    0.000 
#
# Total GULP energy -67140.376429 kJ/mol
# GULP energy per Si atom -5595.031369 kJ/mol
# Density = 2.583392 g / cm^3
# Si number density = 25.892855 Si / 1000 Ang^3
#
#
#
# Elastic Constant Matrix: (Units=GPa)
#
#
# Indices 1 2 3 4 5 6 
#
# 1 178.1679 39.4189 68.5369 -0.0002 17.4773 0.0000
# 2 39.4189 66.8452 44.7953 0.0001 4.9760 0.0000
# 3 68.5369 44.7953 142.3726 -0.0024 25.3778 0.0002
# 4 -0.0002 0.0001 -0.0024 31.8728 -0.0003 4.2289
# 5 17.4773 4.9760 25.3778 -0.0003 64.0516 0.0001
# 6 0.0000 0.0000 0.0002 4.2289 0.0001 37.6133
#
#
#
# Elastic Compliance Matrix: (Units=1/GPa)
#
#
# Indices 1 2 3 4 5 6 
#
# 1 0.007222 -0.002488 -0.002558 0.000000 -0.000764 0.000000
# 2 -0.002488 0.019869 -0.005272 0.000000 0.001224 0.000000
# 3 -0.002558 -0.005272 0.010455 0.000001 -0.003035 0.000000
# 4 0.000000 0.000000 0.000001 0.031850 0.000000 -0.003581
# 5 -0.000764 0.001224 -0.003035 0.000000 0.016928 0.000000
# 6 0.000000 0.000000 0.000000 -0.003581 0.000000 0.026989
#
#
# Mechanical properties :
#
#
# Convention : Reuss Voigt Hill
#
# Bulk Modulus (GPa) = 59.13488 76.98755 68.06122
# Shear Modulus (GPa) = 35.82062 42.34983 39.08522
#
# Velocity S-wave (km/s) = 3.72347 4.04862 3.88944
# Velocity P-wave (km/s) = 6.43222 7.18698 6.82005
#
# Compressibility (1/GPa) = 0.01691049
#
# Stress axis : x y z
#
# Youngs Moduli (GPa) = 138.46719 50.32991 95.65069
#
# Poissons Ratio (x) = 0.12522 0.24463
# Poissons Ratio (y) = 0.34451 0.50426
# Poissons Ratio (z) = 0.35414 0.26534
#
# Static dielectric constant tensor:
#      x y z
#    x 2.093630 0.000000 0.022080 
#    y 0.000000 2.132520 0.000000 
#    z 0.022080 0.000000 2.047250 
# 
# From -- ./inp_files/68422.got.cif
#   From: 2010.05.17/outbox.cif.g08.bks.cpg/sg5_35_cif.got.tgz:68422.got - 2010.06.03 18:56:24.
