data_PCOD9129559
_publ_section_title
;
Structure prediction by ZEFSAII (Michael W. Deem and Ramdas Pophale) SiO2 
 PCOD9129559
Probable space group: C 2
;
_chemical_formula_sum "Si O2"
_cell_formula_units_Z 26
_cell_length_a 10.383107
_cell_length_b 9.180133
_cell_length_c 14.187499
_cell_angle_alpha 90.000000
_cell_angle_beta 123.529167
_cell_angle_gamma 90.000000
_cell_volume 1127.307314
_symmetry_space_group_name_H-M "C 2"
_symmetry_group_IT_number 5
_symmetry_cell_setting 'monoclinic'
loop_
_space_group_symop_operation_xyz
x,y,z
-x,y,-z
1/2+x,1/2+y,z
1/2-x,1/2+y,-z
loop_
_atom_site_type_symbol
_atom_site_label
_atom_site_fract_x
_atom_site_fract_y
_atom_site_fract_z
Si Si1 0.481761 0.965820 0.322659
Si Si2 0.553765 0.623236 0.917313
Si Si3 0.014799 0.137653 0.393766
Si Si4 0.167494 0.643298 0.253283
Si Si5 0.218379 0.401599 0.938425
Si Si6 0.697141 0.485046 0.319323
Si Si7 0.500000 0.190173 0.000000
O O1 0.542605 0.804499 0.372194
O O2 0.352527 0.957849 0.187504
O O3 0.375450 0.019024 0.366756
O O4 0.611362 0.061993 0.324769
O O5 0.593042 0.792599 0.930038
O O6 0.420914 0.578688 0.791946
O O7 0.500000 0.587354 0.000000
O O8 0.707593 0.525223 0.966386
O O9 0.839847 0.100821 0.290577
O O10 0.000000 0.134745 0.500000
O O11 0.140468 0.029568 0.400289
O O12 0.172200 0.815331 0.282197
O O13 0.054192 0.614432 0.119048
O O14 0.359287 0.295403 0.970074
#
# Coordination Sequence:
#
# PCOD9129559 Si02
#       7
#     4   4   4   4   4   4   2
#     4  11  23  43  67  99 129 172 221 271 330 387
#     4  12  22  38  59  95 138 177 210 259 322 399
#     4  11  26  49  70  92 129 176 227 279 332 387
#     4  11  24  42  68 101 136 175 217 271 329 396
#     4  12  21  39  63  93 138 178 208 258 326 391
#     4  11  22  43  64  94 135 174 216 272 332 387
#     4  12  18  40  64  94 140 176 202 256 330 392
#
# _framework density 23.06381
#
# number of rings (size 3 to 8) (size 9 to 14) (size 15 to 20)
#    0.000    0.615    8.462    0.923    0.000    3.692 
#    8.308    0.769    0.000    0.000    0.000    0.000 
#    0.000    0.000    0.000    0.000    0.000    0.000 
#
# Total GULP energy -72697.757470 kJ/mol
# GULP energy per Si atom -5592.135190 kJ/mol
# Density = 2.301132 g / cm^3
# Si number density = 23.063810 Si / 1000 Ang^3
#
#
#
# Elastic Constant Matrix: (Units=GPa)
#
#
# Indices 1 2 3 4 5 6 
#
# 1 122.7260 56.6804 9.3178 0.0000 -26.8144 0.0000
# 2 56.6804 82.1087 9.9267 0.0000 -13.1547 0.0000
# 3 9.3178 9.9267 95.7521 0.0000 -14.1091 0.0000
# 4 0.0000 0.0000 0.0000 19.0765 0.0000 -17.0686
# 5 -26.8144 -13.1547 -14.1091 0.0000 33.4474 0.0000
# 6 0.0000 0.0000 0.0000 -17.0686 0.0000 38.7021
#
#
#
# Elastic Compliance Matrix: (Units=1/GPa)
#
#
# Indices 1 2 3 4 5 6 
#
# 1 0.013638 -0.008218 0.000703 0.000000 0.007998 0.000000
# 2 -0.008218 0.017986 -0.001059 0.000000 0.000039 0.000000
# 3 0.000703 -0.001059 0.011203 0.000000 0.004873 0.000000
# 4 0.000000 0.000000 0.000000 0.086589 0.000000 0.038188
# 5 0.007998 0.000039 0.004873 0.000000 0.038380 0.000000
# 6 0.000000 0.000000 0.000000 0.038188 0.000000 0.042680
#
#
# Mechanical properties :
#
#
# Convention : Reuss Voigt Hill
#
# Bulk Modulus (GPa) = 38.94190 50.27073 44.60631
# Shear Modulus (GPa) = 21.16994 33.22268 27.19631
#
# Velocity S-wave (km/s) = 3.03295 3.79947 3.43764
# Velocity P-wave (km/s) = 5.40242 6.41027 5.92780
#
# Compressibility (1/GPa) = 0.02567928
#
# Stress axis : x y z
#
# Youngs Moduli (GPa) = 73.32633 55.59835 89.26150
#
# Poissons Ratio (x) = 0.45690 -0.06278
# Poissons Ratio (y) = 0.60259 0.09455
# Poissons Ratio (z) = -0.05157 0.05889
#
# Static dielectric constant tensor:
#      x y z
#    x 1.932750 0.000000 -0.013400 
#    y 0.000000 1.840750 0.000000 
#    z -0.013400 0.000000 1.908250 
# 
# From -- ./inp_files/47366.got.cif
#   From: 2010.05.17/outbox.cif.g08.bks.cpg/sg5_24_cif.got.tgz:47366.got - 2010.06.03 18:56:24.
