data_PCOD9129431
_publ_section_title
;
Structure prediction by ZEFSAII (Michael W. Deem and Ramdas Pophale) SiO2 
 PCOD9129431
Probable space group: C 2
;
_chemical_formula_sum "Si O2"
_cell_formula_units_Z 28
_cell_length_a 8.940673
_cell_length_b 13.418900
_cell_length_c 17.571518
_cell_angle_alpha 90.000000
_cell_angle_beta 142.803012
_cell_angle_gamma 90.000000
_cell_volume 1274.482383
_symmetry_space_group_name_H-M "C 2"
_symmetry_group_IT_number 5
_symmetry_cell_setting 'monoclinic'
loop_
_space_group_symop_operation_xyz
x,y,z
-x,y,-z
1/2+x,1/2+y,z
1/2-x,1/2+y,-z
loop_
_atom_site_type_symbol
_atom_site_label
_atom_site_fract_x
_atom_site_fract_y
_atom_site_fract_z
Si Si1 0.326375 0.432680 0.285714
Si Si2 0.508865 0.797737 0.770446
Si Si3 0.669688 0.441151 0.196577
Si Si4 0.285032 0.309280 0.634434
Si Si5 0.500000 0.240612 0.500000
Si Si6 0.538505 0.124364 0.360781
Si Si7 0.708831 0.573626 0.874238
Si Si8 0.500000 0.532549 0.500000
O O1 0.106197 0.351769 0.201325
O O2 0.583118 0.374161 0.377571
O O3 0.320029 0.512970 0.216605
O O4 0.327115 0.478555 0.369630
O O5 0.736708 0.865786 0.831889
O O6 0.272629 0.793087 0.615120
O O7 0.589222 0.683906 0.819823
O O8 0.694736 0.371304 0.280746
O O9 0.414003 0.503220 0.109300
O O10 0.864010 0.531882 0.275610
O O11 0.441470 0.207019 0.697452
O O12 0.000000 0.291912 0.500000
O O13 0.479660 0.175179 0.416351
O O14 0.819800 0.090485 0.482112
O O15 0.000000 0.586619 0.000000
#
# Coordination Sequence:
#
# PCOD9129431 Si02
#       8
#     4   4   4   4   2   4   4   2
#     4  11  24  42  67  98 139 178 226 281 344 411
#     4  12  24  42  72 103 138 181 226 280 351 414
#     4  11  25  41  65  96 133 175 233 280 341 403
#     4  11  22  36  57  92 137 186 216 259 331 409
#     4  12  23  40  63 104 152 186 215 274 345 426
#     4  12  23  36  59  95 147 179 223 265 330 418
#     4  11  27  51  71  95 134 183 242 296 335 395
#     4  12  23  36  63 104 144 184 211 274 351 420
#
# _framework density 21.969702000000002
#
# number of rings (size 3 to 8) (size 9 to 14) (size 15 to 20)
#    0.000    0.571    5.000    3.000    5.000    1.143 
#    0.000    0.000    0.000    0.000    0.000    0.000 
#    0.000    0.000    0.000    0.000    0.000    0.000 
#
# Total GULP energy -78048.643510 kJ/mol
# GULP energy per Si atom -5574.903108 kJ/mol
# Density = 2.191970 g / cm^3
# Si number density = 21.969702 Si / 1000 Ang^3
#
#
#
# Elastic Constant Matrix: (Units=GPa)
#
#
# Indices 1 2 3 4 5 6 
#
# 1 132.2473 54.4686 14.9125 0.0001 27.0404 0.0000
# 2 54.4686 145.5027 21.0694 -0.0001 13.1029 0.0000
# 3 14.9125 21.0694 36.0876 0.0004 25.8877 0.0001
# 4 0.0001 -0.0001 0.0004 5.7331 0.0002 8.0328
# 5 27.0404 13.1029 25.8877 0.0002 28.6023 0.0000
# 6 0.0000 0.0000 0.0001 8.0328 0.0000 57.6998
#
#
#
# Elastic Compliance Matrix: (Units=1/GPa)
#
#
# Indices 1 2 3 4 5 6 
#
# 1 0.012292 -0.004539 0.012589 -0.000001 -0.020936 0.000000
# 2 -0.004539 0.009206 -0.010128 0.000001 0.009241 0.000000
# 3 0.012589 -0.010128 0.095888 -0.000006 -0.094049 0.000001
# 4 -0.000001 0.000001 -0.000006 0.216696 0.000004 -0.030168
# 5 -0.020936 0.009241 -0.094049 0.000004 0.135644 0.000000
# 6 0.000000 0.000000 0.000001 -0.030168 0.000000 0.021531
#
#
# Mechanical properties :
#
#
# Convention : Reuss Voigt Hill
#
# Bulk Modulus (GPa) = 8.83161 54.97096 31.90128
# Shear Modulus (GPa) = 9.37809 33.29951 21.33880
#
# Velocity S-wave (km/s) = 2.06831 3.89742 3.11992
# Velocity P-wave (km/s) = 3.11970 6.73267 5.24697
#
# Compressibility (1/GPa) = 0.11322966
#
# Stress axis : x y z
#
# Youngs Moduli (GPa) = 81.35174 108.61983 10.42885
#
# Poissons Ratio (x) = 0.49305 -0.13129
# Poissons Ratio (y) = 0.36927 0.10563
# Poissons Ratio (z) = -1.02414 1.10013
#
# Static dielectric constant tensor:
#      x y z
#    x 1.822460 0.000000 0.031000 
#    y 0.000000 1.923890 0.000000 
#    z 0.031000 0.000000 1.790790 
# 
# From -- ./inp_files/59746.got.cif
#   From: 2010.05.17/outbox.cif.g08.bks.cpg/sg5_30_cif.got.tgz:59746.got - 2010.06.03 18:56:24.
