data_PCOD9129164
_publ_section_title
;
Structure prediction by ZEFSAII (Michael W. Deem and Ramdas Pophale) SiO2 
 PCOD9129164
Probable space group: C 2
;
_chemical_formula_sum "Si O2"
_cell_formula_units_Z 32
_cell_length_a 14.068307
_cell_length_b 12.827754
_cell_length_c 10.097335
_cell_angle_alpha 90.000000
_cell_angle_beta 121.593294
_cell_angle_gamma 90.000000
_cell_volume 1552.139935
_symmetry_space_group_name_H-M "C 2"
_symmetry_group_IT_number 5
_symmetry_cell_setting 'monoclinic'
loop_
_space_group_symop_operation_xyz
x,y,z
-x,y,-z
1/2+x,1/2+y,z
1/2-x,1/2+y,-z
loop_
_atom_site_type_symbol
_atom_site_label
_atom_site_fract_x
_atom_site_fract_y
_atom_site_fract_z
Si Si1 0.941240 0.369970 0.323213
Si Si2 0.599668 0.545722 0.991181
Si Si3 0.088252 0.033507 0.673502
Si Si4 0.144690 0.593411 0.805923
Si Si5 0.157716 0.598072 0.130513
Si Si6 0.674477 0.307470 0.758435
Si Si7 0.688004 0.318878 0.088272
Si Si8 0.588604 0.875816 0.176636
O O1 0.911135 0.492862 0.297753
O O2 0.818652 0.321107 0.219770
O O3 0.000000 0.338764 0.500000
O O4 0.028079 0.348834 0.268802
O O5 0.720086 0.596334 0.100564
O O6 0.624551 0.427793 0.061676
O O7 0.500000 0.594124 0.000000
O O8 0.563500 0.548296 0.811261
O O9 0.105310 0.909267 0.669459
O O10 0.000000 0.070496 0.500000
O O11 0.210446 0.083832 0.748876
O O12 0.111818 0.697592 0.704124
O O13 0.128491 0.581544 0.953234
O O14 0.133191 0.721229 0.125158
O O15 0.106772 0.502055 0.175263
O O16 0.792748 0.322257 0.769739
O O17 0.692142 0.310838 0.931132
O O18 0.500000 0.847501 0.000000
#
# Coordination Sequence:
#
# PCOD9129164 Si02
#       8
#     4   4   4   4   4   4   4   4
#     4  11  22  37  55  80 116 144 170 224 282 315
#     4   9  18  34  53  74 102 140 175 207 257 319
#     4   9  18  34  53  75 106 136 167 217 268 305
#     4   9  18  36  55  78 108 138 175 222 267 309
#     4   9  18  34  58  80 102 136 183 224 255 313
#     4   9  18  34  58  80 102 136 183 224 255 313
#     4   9  18  36  55  78 108 138 175 222 267 309
#     4  11  18  35  59  84 102 140 194 217 253 329
#
# _framework density 20.616698
#
# number of rings (size 3 to 8) (size 9 to 14) (size 15 to 20)
#    0.000    2.500    2.500    1.500    0.000    2.000 
#   13.500    1.250    0.000    0.000    0.000    0.000 
#    0.000    0.000    0.000    0.000    0.000    0.000 
#
# Total GULP energy -89165.177330 kJ/mol
# GULP energy per Si atom -5572.823583 kJ/mol
# Density = 2.056977 g / cm^3
# Si number density = 20.616698 Si / 1000 Ang^3
#
#
#
# Elastic Constant Matrix: (Units=GPa)
#
#
# Indices 1 2 3 4 5 6 
#
# 1 53.1137 -22.0781 29.9774 0.0000 0.7644 0.0000
# 2 -22.0781 77.5034 3.1004 0.0000 2.8860 0.0000
# 3 29.9774 3.1004 90.3731 0.0000 4.4136 0.0000
# 4 0.0000 0.0000 0.0000 3.4046 0.0000 -7.2339
# 5 0.7644 2.8860 4.4136 0.0000 21.3606 0.0000
# 6 0.0000 0.0000 0.0000 -7.2339 0.0000 -4.9598
#
#
#
# Elastic Compliance Matrix: (Units=1/GPa)
#
#
# Indices 1 2 3 4 5 6 
#
# 1 0.027570 0.008236 -0.009420 0.000000 -0.000153 0.000000
# 2 0.008236 0.015440 -0.003178 0.000000 -0.001724 0.000000
# 3 -0.009420 -0.003178 0.014407 0.000000 -0.002210 0.000000
# 4 0.000000 0.000000 0.000000 0.071657 0.000000 -0.104513
# 5 -0.000153 -0.001724 -0.002210 0.000000 0.047510 0.000000
# 6 0.000000 0.000000 0.000000 -0.104513 0.000000 -0.049188
#
#
# Mechanical properties :
#
#
# Convention : Reuss Voigt Hill
#
# Bulk Modulus (GPa) = 20.53619 26.99881 23.76750
# Shear Modulus (GPa) = 32.81894 17.96045 25.38969
#
# Velocity S-wave (km/s) = 3.99414 2.95474 3.51310
# Velocity P-wave (km/s) = 5.59048 4.97642 5.29236
#
# Compressibility (1/GPa) = 0.04869451
#
# Stress axis : x y z
#
# Youngs Moduli (GPa) = 36.27098 64.76575 69.41072
#
# Poissons Ratio (x) = -0.53344 0.65387
# Poissons Ratio (y) = -0.29874 0.22056
# Poissons Ratio (z) = 0.34168 0.20580
#
# Static dielectric constant tensor:
#      x y z
#    x 1.715940 0.000000 0.009720 
#    y 0.000000 1.829960 0.000000 
#    z 0.009720 0.000000 1.670920 
# 
# From -- ./inp_files/24665.got.cif
#   From: 2010.05.17/outbox.cif.g08.bks.cpg/sg5_13_cif.got.tgz:24665.got - 2010.06.03 18:56:24.
