data_PCOD9129072
_publ_section_title
;
Structure prediction by ZEFSAII (Michael W. Deem and Ramdas Pophale) SiO2 
 PCOD9129072
Probable space group: C 2
;
_chemical_formula_sum "Si O2"
_cell_formula_units_Z 20
_cell_length_a 11.348844
_cell_length_b 9.284943
_cell_length_c 14.678301
_cell_angle_alpha 90.000000
_cell_angle_beta 33.131971
_cell_angle_gamma 90.000000
_cell_volume 845.379884
_symmetry_space_group_name_H-M "C 2"
_symmetry_group_IT_number 5
_symmetry_cell_setting 'monoclinic'
loop_
_space_group_symop_operation_xyz
x,y,z
-x,y,-z
1/2+x,1/2+y,z
1/2-x,1/2+y,-z
loop_
_atom_site_type_symbol
_atom_site_label
_atom_site_fract_x
_atom_site_fract_y
_atom_site_fract_z
Si Si1 0.467166 0.105940 0.296980
Si Si2 0.161738 0.099368 0.790752
Si Si3 0.000000 0.834116 0.000000
Si Si4 0.578516 0.418780 0.626359
Si Si5 0.500000 0.270904 0.500000
Si Si6 0.727397 0.624543 0.057586
O O1 0.369435 0.267281 0.357936
O O2 0.667813 0.116948 0.237526
O O3 0.292382 0.996161 0.449734
O O4 0.569828 0.067378 0.132529
O O5 0.302865 0.160104 0.615791
O O6 0.938376 0.181471 0.913472
O O7 0.086571 0.938229 0.863746
O O8 0.816236 0.738529 0.072288
O O9 0.457222 0.373340 0.612269
O O10 0.418840 0.511003 0.792638
#
# Coordination Sequence:
#
# PCOD9129072 Si02
#       6
#     4   4   2   4   2   4
#     4  11  26  48  79 113 157 210 257 320 394 462
#     4  11  24  50  75 107 158 202 255 318 384 455
#     4  12  28  46  78 118 146 216 252 320 390 462
#     4  11  27  47  75 115 151 208 260 320 386 467
#     4  10  26  48  74 114 154 210 256 324 388 460
#     4  12  26  48  74 116 155 201 265 314 388 464
#
# _framework density 23.658002
#
# number of rings (size 3 to 8) (size 9 to 14) (size 15 to 20)
#    0.000    0.800    2.000    3.600    8.400    0.000 
#    7.200    0.000    0.000    0.000    0.000    0.000 
#    0.000    0.000    0.000    0.000    0.000    0.000 
#
# Total GULP energy -55708.359224 kJ/mol
# GULP energy per Si atom -5570.835922 kJ/mol
# Density = 2.360416 g / cm^3
# Si number density = 23.658002 Si / 1000 Ang^3
#
#
#
# Elastic Constant Matrix: (Units=GPa)
#
#
# Indices 1 2 3 4 5 6 
#
# 1 95.2758 56.8122 41.0936 -0.0001 3.3276 -0.0002
# 2 56.8122 107.5922 84.0306 -0.0007 -8.2041 0.0001
# 3 41.0936 84.0306 179.7596 -0.0020 16.2842 0.0007
# 4 -0.0001 -0.0007 -0.0020 45.3728 0.0006 5.6761
# 5 3.3276 -8.2041 16.2842 0.0006 41.8606 -0.0001
# 6 -0.0002 0.0001 0.0007 5.6761 -0.0001 32.1037
#
#
#
# Elastic Compliance Matrix: (Units=1/GPa)
#
#
# Indices 1 2 3 4 5 6 
#
# 1 0.015797 -0.009524 0.001164 0.000000 -0.003575 0.000000
# 2 -0.009524 0.021840 -0.008799 0.000000 0.008460 0.000000
# 3 0.001164 -0.008799 0.009924 0.000000 -0.005678 0.000000
# 4 0.000000 0.000000 0.000000 0.022538 -0.000001 -0.003985
# 5 -0.003575 0.008460 -0.005678 -0.000001 0.028040 0.000000
# 6 0.000000 0.000000 0.000000 -0.003985 0.000000 0.031854
#
#
# Mechanical properties :
#
#
# Convention : Reuss Voigt Hill
#
# Bulk Modulus (GPa) = 75.49466 82.94449 79.21957
# Shear Modulus (GPa) = 29.63425 37.24682 33.44054
#
# Velocity S-wave (km/s) = 3.54306 3.97216 3.76373
# Velocity P-wave (km/s) = 6.97982 7.49488 7.24193
#
# Compressibility (1/GPa) = 0.01324597
#
# Stress axis : x y z
#
# Youngs Moduli (GPa) = 63.30201 45.78751 100.76456
#
# Poissons Ratio (x) = 0.43606 -0.11733
# Poissons Ratio (y) = 0.60286 0.88659
# Poissons Ratio (z) = -0.07371 0.40287
#
# Static dielectric constant tensor:
#      x y z
#    x 1.947040 0.000000 0.049000 
#    y 0.000000 1.949270 0.000000 
#    z 0.049000 0.000000 1.956250 
# 
# From -- ./inp_files/60290.got.cif
#   From: 2010.05.17/outbox.cif.g08.bks.cpg/sg5_31_cif.got.tgz:60290.got - 2010.06.03 18:56:24.
