data_PCOD9129044
_publ_section_title
;
Structure prediction by ZEFSAII (Michael W. Deem and Ramdas Pophale) SiO2 
 PCOD9129044
Probable space group: C 2
;
_chemical_formula_sum "Si O2"
_cell_formula_units_Z 16
_cell_length_a 18.136190
_cell_length_b 4.976188
_cell_length_c 9.479832
_cell_angle_alpha 90.000000
_cell_angle_beta 42.589255
_cell_angle_gamma 90.000000
_cell_volume 578.980565
_symmetry_space_group_name_H-M "C 2"
_symmetry_group_IT_number 5
_symmetry_cell_setting 'monoclinic'
loop_
_space_group_symop_operation_xyz
x,y,z
-x,y,-z
1/2+x,1/2+y,z
1/2-x,1/2+y,-z
loop_
_atom_site_type_symbol
_atom_site_label
_atom_site_fract_x
_atom_site_fract_y
_atom_site_fract_z
Si Si1 0.000000 0.824530 0.000000
Si Si2 0.206717 0.229833 0.273362
Si Si3 0.500000 0.362187 0.500000
Si Si4 0.611094 0.974052 0.143191
Si Si5 0.080140 0.298523 0.724331
O O1 0.052773 0.591338 0.823608
O O2 0.088500 0.063655 0.828430
O O3 0.193283 0.433312 0.159691
O O4 0.176404 0.311084 0.474084
O O5 0.108645 0.027138 0.374921
O O6 0.322361 0.094907 0.080805
O O7 0.523928 0.169341 0.336149
O O8 0.534979 0.731328 0.197608
#
# Coordination Sequence:
#
# PCOD9129044 Si02
#       5
#     2   4   2   4   4
#     4  10  26  46  74  94 128 198 252 276 336 386
#     4  12  24  38  70 107 142 178 218 282 362 428
#     4  12  20  40  60 102 152 176 212 262 354 428
#     4  12  24  38  70 107 142 178 218 282 362 428
#     4  11  23  48  70  98 141 185 234 296 330 401
#
# _framework density 27.634779999999999
#
# number of rings (size 3 to 8) (size 9 to 14) (size 15 to 20)
#    0.000    0.500    7.500    1.500    0.000    0.000 
#    0.000    5.000    0.000    0.000    0.000    0.000 
#    0.000    0.000    0.000    0.000    0.000    0.000 
#
# Total GULP energy -44595.003620 kJ/mol
# GULP energy per Si atom -5574.375452 kJ/mol
# Density = 2.757188 g / cm^3
# Si number density = 27.634780 Si / 1000 Ang^3
#
#
#
# Elastic Constant Matrix: (Units=GPa)
#
#
# Indices 1 2 3 4 5 6 
#
# 1 62.4772 21.8381 52.6791 -0.0005 19.8698 0.0013
# 2 21.8381 112.5854 52.5606 -0.0048 9.8506 0.0032
# 3 52.6791 52.5606 288.9463 -0.0011 37.6185 0.0003
# 4 -0.0005 -0.0048 -0.0011 42.2894 -0.0001 4.1909
# 5 19.8698 9.8506 37.6185 -0.0001 41.0221 -0.0002
# 6 0.0013 0.0032 0.0003 4.1909 -0.0002 21.9754
#
#
#
# Elastic Compliance Matrix: (Units=1/GPa)
#
#
# Indices 1 2 3 4 5 6 
#
# 1 0.021289 -0.002314 -0.002487 0.000000 -0.007475 -0.000001
# 2 -0.002314 0.009982 -0.001394 0.000001 0.000003 -0.000002
# 3 -0.002487 -0.001394 0.004505 0.000000 -0.002592 0.000000
# 4 0.000000 0.000001 0.000000 0.024102 0.000000 -0.004596
# 5 -0.007475 0.000003 -0.002592 0.000000 0.030374 0.000001
# 6 -0.000001 -0.000002 0.000000 -0.004596 0.000001 0.046382
#
#
# Mechanical properties :
#
#
# Convention : Reuss Voigt Hill
#
# Bulk Modulus (GPa) = 42.76203 79.79604 61.27904
# Shear Modulus (GPa) = 31.88352 43.51946 37.70149
#
# Velocity S-wave (km/s) = 3.40037 3.97269 3.69762
# Velocity P-wave (km/s) = 5.56096 7.06972 6.36024
#
# Compressibility (1/GPa) = 0.02338523
#
# Stress axis : x y z
#
# Youngs Moduli (GPa) = 46.97207 100.18369 221.95808
#
# Poissons Ratio (x) = 0.23185 0.55204
# Poissons Ratio (y) = 0.10871 0.30943
# Poissons Ratio (z) = 0.11683 0.13967
#
# Static dielectric constant tensor:
#      x y z
#    x 2.448730 0.000000 0.034740 
#    y 0.000000 2.214260 0.000000 
#    z 0.034740 0.000000 2.062980 
# 
# From -- ./inp_files/22308.got.cif
#   From: 2010.05.17/outbox.cif.g08.bks.cpg/sg5_12_cif.got.tgz:22308.got - 2010.06.03 18:56:24.
