data_PCOD9129382
_publ_section_title
;
Structure prediction by ZEFSAII (Michael W. Deem and Ramdas Pophale) SiO2 
 PCOD9129382
Probable space group: C 2
;
_chemical_formula_sum "Si O2"
_cell_formula_units_Z 26
_cell_length_a 20.970178
_cell_length_b 8.125249
_cell_length_c 9.232263
_cell_angle_alpha 90.000000
_cell_angle_beta 49.767105
_cell_angle_gamma 90.000000
_cell_volume 1200.918481
_symmetry_space_group_name_H-M "C 2"
_symmetry_group_IT_number 5
_symmetry_cell_setting 'monoclinic'
loop_
_space_group_symop_operation_xyz
x,y,z
-x,y,-z
1/2+x,1/2+y,z
1/2-x,1/2+y,-z
loop_
_atom_site_type_symbol
_atom_site_label
_atom_site_fract_x
_atom_site_fract_y
_atom_site_fract_z
Si Si1 0.127986 0.491230 0.526019
Si Si2 0.405511 0.846513 0.136260
Si Si3 0.835320 0.581718 0.014841
Si Si4 0.991252 0.758996 0.186347
Si Si5 0.500000 0.825150 0.500000
Si Si6 0.067436 0.088310 0.151680
Si Si7 0.255250 0.427216 0.117291
O O1 0.123575 0.350138 0.655854
O O2 0.065684 0.434820 0.490742
O O3 0.217240 0.504240 0.319258
O O4 0.091081 0.658064 0.648787
O O5 0.342858 0.965061 0.142380
O O6 0.500000 0.919712 0.000000
O O7 0.418935 0.685234 0.019635
O O8 0.771917 0.734333 0.117654
O O9 0.928457 0.659423 0.867847
O O10 0.806257 0.471223 0.923598
O O11 0.999437 0.943763 0.234722
O O12 0.000000 0.772698 0.000000
O O13 0.542424 0.711801 0.315264
O O14 0.155829 0.003992 0.052694
#
# Coordination Sequence:
#
# PCOD9129382 Si02
#       7
#     4   4   4   4   2   4   4
#     4  12  23  41  71 101 134 187 240 283 363 413
#     4  12  21  43  71  98 134 188 226 299 345 412
#     4  11  21  43  65  93 141 183 230 280 357 409
#     4  11  22  42  72 101 132 185 240 289 342 417
#     4  12  24  42  70 102 132 194 236 278 356 422
#     4  11  26  45  69 103 146 179 239 295 352 422
#     4  11  26  41  66 102 141 186 228 301 352 417
#
# _framework density 21.650096000000001
#
# number of rings (size 3 to 8) (size 9 to 14) (size 15 to 20)
#    0.000    0.615    4.615    4.154    0.000    4.308 
#    0.000    1.538    0.000    0.000    0.000    0.000 
#    0.000    0.000    0.000    0.000    0.000    0.000 
#
# Total GULP energy -72667.343557 kJ/mol
# GULP energy per Si atom -5589.795658 kJ/mol
# Density = 2.160082 g / cm^3
# Si number density = 21.650096 Si / 1000 Ang^3
#
#
#
# Elastic Constant Matrix: (Units=GPa)
#
#
# Indices 1 2 3 4 5 6 
#
# 1 81.7859 26.5202 22.5993 0.0000 21.9496 0.0000
# 2 26.5202 85.5750 6.9091 0.0000 -0.2557 0.0000
# 3 22.5993 6.9091 80.4591 0.0000 -1.4996 0.0000
# 4 0.0000 0.0000 0.0000 17.3606 0.0000 9.0420
# 5 21.9496 -0.2557 -1.4996 0.0000 26.7831 0.0000
# 6 0.0000 0.0000 0.0000 9.0420 0.0000 33.0988
#
#
#
# Elastic Compliance Matrix: (Units=1/GPa)
#
#
# Indices 1 2 3 4 5 6 
#
# 1 0.020177 -0.005861 -0.005479 0.000000 -0.016898 0.000000
# 2 -0.005861 0.013470 0.000582 0.000000 0.004964 0.000000
# 3 -0.005479 0.000582 0.014016 0.000000 0.005280 0.000000
# 4 0.000000 0.000000 0.000000 0.067157 0.000000 -0.018346
# 5 -0.016898 0.004964 0.005280 0.000000 0.051529 0.000000
# 6 0.000000 0.000000 0.000000 -0.018346 0.000000 0.035224
#
#
# Mechanical properties :
#
#
# Convention : Reuss Voigt Hill
#
# Bulk Modulus (GPa) = 38.24541 39.98636 39.11589
# Shear Modulus (GPa) = 21.57000 28.23459 24.90229
#
# Velocity S-wave (km/s) = 3.15985 3.61519 3.39516
# Velocity P-wave (km/s) = 5.56924 5.99463 5.78585
#
# Compressibility (1/GPa) = 0.02614693
#
# Stress axis : x y z
#
# Youngs Moduli (GPa) = 49.56247 74.23989 71.34703
#
# Poissons Ratio (x) = 0.43512 0.39090
# Poissons Ratio (y) = 0.29048 -0.04153
# Poissons Ratio (z) = 0.27155 -0.04321
#
# Static dielectric constant tensor:
#      x y z
#    x 1.796870 0.000000 -0.008310 
#    y 0.000000 1.817850 0.000000 
#    z -0.008310 0.000000 1.789390 
# 
# From -- ./inp_files/28901.got.cif
#   From: 2010.05.17/outbox.cif.g08.bks.cpg/sg5_15_cif.got.tgz:28901.got - 2010.06.03 18:56:24.
