data_PCOD9129071
_publ_section_title
;
Structure prediction by ZEFSAII (Michael W. Deem and Ramdas Pophale) SiO2 
 PCOD9129071
Probable space group: C 2
;
_chemical_formula_sum "Si O2"
_cell_formula_units_Z 18
_cell_length_a 20.933979
_cell_length_b 5.379911
_cell_length_c 15.272381
_cell_angle_alpha 90.000000
_cell_angle_beta 158.183173
_cell_angle_gamma 90.000000
_cell_volume 639.229288
_symmetry_space_group_name_H-M "C 2"
_symmetry_group_IT_number 5
_symmetry_cell_setting 'monoclinic'
loop_
_space_group_symop_operation_xyz
x,y,z
-x,y,-z
1/2+x,1/2+y,z
1/2-x,1/2+y,-z
loop_
_atom_site_type_symbol
_atom_site_label
_atom_site_fract_x
_atom_site_fract_y
_atom_site_fract_z
Si Si1 0.845118 0.091720 0.513202
Si Si2 0.735636 0.110836 0.772927
Si Si3 0.500000 0.867967 0.000000
Si Si4 0.174898 0.106909 0.806095
Si Si5 0.540494 0.090254 0.339319
O O1 0.876137 0.351728 0.599269
O O2 0.003988 0.115021 0.369900
O O3 0.658050 0.038761 0.234617
O O4 0.905728 0.844028 0.638463
O O5 0.624480 0.099954 0.542294
O O6 0.683656 0.354370 0.761489
O O7 0.923998 0.185121 0.977317
O O8 0.335843 0.082027 0.076748
O O9 0.290941 0.853025 0.209191
#
# Coordination Sequence:
#
# PCOD9129071 Si02
#       5
#     4   4   2   4   4
#     4  11  24  45  74 107 150 194 241 307 371 433
#     4  11  26  46  74 106 147 196 242 302 372 435
#     4  10  26  48  74 110 156 196 238 306 382 442
#     4  12  25  46  77 110 142 194 256 302 359 442
#     4  11  24  44  72 109 147 187 248 312 359 429
#
# _framework density 28.158909000000001
#
# number of rings (size 3 to 8) (size 9 to 14) (size 15 to 20)
#    0.000    0.889    0.000    6.667    0.000   19.556 
#    0.000   13.333    0.000    0.000    0.000    0.000 
#    0.000    0.000    0.000    0.000    0.000    0.000 
#
# Total GULP energy -50516.860179 kJ/mol
# GULP energy per Si atom -5612.984464 kJ/mol
# Density = 2.809482 g / cm^3
# Si number density = 28.158909 Si / 1000 Ang^3
#
#
#
# Elastic Constant Matrix: (Units=GPa)
#
#
# Indices 1 2 3 4 5 6 
#
# 1 167.5969 52.1111 50.8499 0.0000 35.0122 0.0000
# 2 52.1111 266.9834 47.1770 0.0011 15.6261 -0.0007
# 3 50.8499 47.1770 243.0822 0.0001 15.3630 -0.0001
# 4 0.0000 0.0011 0.0001 49.2260 0.0000 15.1438
# 5 35.0122 15.6261 15.3630 0.0000 65.4028 -0.0001
# 6 0.0000 -0.0007 -0.0001 15.1438 -0.0001 -1.5840
#
#
#
# Elastic Compliance Matrix: (Units=1/GPa)
#
#
# Indices 1 2 3 4 5 6 
#
# 1 0.007343 -0.001035 -0.001119 0.000000 -0.003421 0.000000
# 2 -0.001035 0.004062 -0.000554 0.000000 -0.000286 -0.000001
# 3 -0.001119 -0.000554 0.004476 0.000000 -0.000320 0.000000
# 4 0.000000 0.000000 0.000000 0.005154 0.000000 0.049279
# 5 -0.003421 -0.000286 -0.000320 0.000000 0.017265 0.000000
# 6 0.000000 -0.000001 0.000000 0.049279 0.000000 -0.160186
#
#
# Mechanical properties :
#
#
# Convention : Reuss Voigt Hill
#
# Bulk Modulus (GPa) = 95.55938 108.65983 102.10961
# Shear Modulus (GPa) = -44.25475 57.77726 6.76126
#
# Velocity S-wave (km/s) = -3.96865 4.53463 1.55123
# Velocity P-wave (km/s) = 3.60682 8.12951 6.28880
#
# Compressibility (1/GPa) = 0.01046470
#
# Stress axis : x y z
#
# Youngs Moduli (GPa) = 136.19049 246.17075 223.43435
#
# Poissons Ratio (x) = 0.25485 0.25000
# Poissons Ratio (y) = 0.14099 0.12372
# Poissons Ratio (z) = 0.15238 0.13631
#
# Static dielectric constant tensor:
#      x y z
#    x 2.208850 0.000000 0.015670 
#    y 0.000000 2.335920 0.000000 
#    z 0.015670 0.000000 2.139210 
# 
# From -- ./inp_files/47020.got.cif
#   From: 2010.05.17/outbox.cif.g08.bks.cpg/sg5_24_cif.got.tgz:47020.got - 2010.06.03 18:56:24.
