data_PCOD9129800
_publ_section_title
;
Structure prediction by ZEFSAII (Michael W. Deem and Ramdas Pophale) SiO2 
 PCOD9129800
Probable space group: C 2
;
_chemical_formula_sum "Si O2"
_cell_formula_units_Z 20
_cell_length_a 9.351665
_cell_length_b 22.817253
_cell_length_c 7.993293
_cell_angle_alpha 90.000000
_cell_angle_beta 31.760659
_cell_angle_gamma 90.000000
_cell_volume 897.782015
_symmetry_space_group_name_H-M "C 2"
_symmetry_group_IT_number 5
_symmetry_cell_setting 'monoclinic'
loop_
_space_group_symop_operation_xyz
x,y,z
-x,y,-z
1/2+x,1/2+y,z
1/2-x,1/2+y,-z
loop_
_atom_site_type_symbol
_atom_site_label
_atom_site_fract_x
_atom_site_fract_y
_atom_site_fract_z
Si Si1 0.247574 0.685440 0.626760
Si Si2 0.117429 0.813980 0.695507
Si Si3 0.622780 0.879683 0.062740
Si Si4 0.884044 0.002933 0.803813
Si Si5 0.616394 0.069589 0.569644
O O1 0.500000 0.686102 0.500000
O O2 0.218714 0.747902 0.564135
O O3 0.239048 0.630681 0.511740
O O4 0.000000 0.679479 0.000000
O O5 0.372274 0.856997 0.421610
O O6 0.000000 0.816423 0.000000
O O7 0.868599 0.833411 0.826158
O O8 0.500000 0.886888 0.000000
O O9 0.755549 0.941049 0.983405
O O10 0.000000 0.998972 0.500000
O O11 0.139821 0.022983 0.658952
O O12 0.637481 0.048974 0.063870
O O13 0.500000 0.074044 0.500000
#
# Coordination Sequence:
#
# PCOD9129800 Si02
#       5
#     4   4   4   4   4
#     4  11  23  44  70  96 132 180 221 260 326 409
#     4  11  24  44  69 100 135 174 222 272 327 391
#     4  12  25  43  68  98 134 177 223 271 327 390
#     4  12  25  46  69  94 135 182 222 263 328 410
#     4  12  26  43  69 104 133 167 221 284 335 376
#
# _framework density 22.277123
#
# number of rings (size 3 to 8) (size 9 to 14) (size 15 to 20)
#    0.000    0.400    0.000   11.400    0.000    4.800 
#    0.000    3.000    0.000    0.000    0.000    0.000 
#    0.000    0.000    0.000    0.000    0.000    0.000 
#
# Total GULP energy -56032.588674 kJ/mol
# GULP energy per Si atom -5603.258867 kJ/mol
# Density = 2.222642 g / cm^3
# Si number density = 22.277123 Si / 1000 Ang^3
#
#
#
# Elastic Constant Matrix: (Units=GPa)
#
#
# Indices 1 2 3 4 5 6 
#
# 1 88.8940 57.6097 24.7860 0.0000 -45.3067 0.0000
# 2 57.6097 149.5988 58.1139 0.0000 -18.5567 0.0000
# 3 24.7860 58.1139 136.4667 0.0000 -29.8626 0.0000
# 4 0.0000 0.0000 0.0000 37.1375 0.0000 -9.9651
# 5 -45.3067 -18.5567 -29.8626 0.0000 51.9175 0.0000
# 6 0.0000 0.0000 0.0000 -9.9651 0.0000 36.7992
#
#
#
# Elastic Compliance Matrix: (Units=1/GPa)
#
#
# Indices 1 2 3 4 5 6 
#
# 1 0.028425 -0.009602 0.004122 0.000000 0.023744 0.000000
# 2 -0.009602 0.011302 -0.004597 0.000000 -0.006984 0.000000
# 3 0.004122 -0.004597 0.010255 0.000000 0.007853 0.000000
# 4 0.000000 0.000000 0.000000 0.029037 0.000000 0.007863
# 5 0.023744 -0.006984 0.007853 0.000000 0.042003 0.000000
# 6 0.000000 0.000000 0.000000 0.007863 0.000000 0.029304
#
#
# Mechanical properties :
#
#
# Convention : Reuss Voigt Hill
#
# Bulk Modulus (GPa) = 33.52608 72.88652 53.20630
# Shear Modulus (GPa) = 27.71279 40.80081 34.25680
#
# Velocity S-wave (km/s) = 3.53087 4.28426 3.92568
# Velocity P-wave (km/s) = 5.63071 7.56719 6.66960
#
# Compressibility (1/GPa) = 0.02982753
#
# Stress axis : x y z
#
# Youngs Moduli (GPa) = 35.18067 88.48140 97.51139
#
# Poissons Ratio (x) = 0.84962 -0.40197
# Poissons Ratio (y) = 0.33781 0.44828
# Poissons Ratio (z) = -0.14503 0.40676
#
# Static dielectric constant tensor:
#      x y z
#    x 1.783870 0.000000 0.020300 
#    y 0.000000 1.845040 0.000000 
#    z 0.020300 0.000000 1.793670 
# 
# From -- ./inp_files/17284.got.cif
#   From: 2010.05.17/outbox.cif.g08.bks.cpg/sg5_9_cif.got.tgz:17284.got - 2010.06.03 18:56:24.
