data_PCOD9129963
_publ_section_title
;
Structure prediction by ZEFSAII (Michael W. Deem and Ramdas Pophale) SiO2 
 PCOD9129963
Probable space group: C 2
;
_chemical_formula_sum "Si O2"
_cell_formula_units_Z 20
_cell_length_a 19.719571
_cell_length_b 10.090512
_cell_length_c 4.914289
_cell_angle_alpha 90.000000
_cell_angle_beta 121.239445
_cell_angle_gamma 90.000000
_cell_volume 836.067313
_symmetry_space_group_name_H-M "C 2"
_symmetry_group_IT_number 5
_symmetry_cell_setting 'monoclinic'
loop_
_space_group_symop_operation_xyz
x,y,z
-x,y,-z
1/2+x,1/2+y,z
1/2-x,1/2+y,-z
loop_
_atom_site_type_symbol
_atom_site_label
_atom_site_fract_x
_atom_site_fract_y
_atom_site_fract_z
Si Si1 0.331502 0.199280 0.281575
Si Si2 0.422136 0.141418 0.982684
Si Si3 0.905101 0.196011 0.348645
Si Si4 0.719262 0.481635 0.786970
Si Si5 0.855999 0.365544 0.750960
O O1 0.351007 0.193628 0.640083
O O2 0.297193 0.339263 0.120095
O O3 0.409925 0.180696 0.265736
O O4 0.276849 0.078752 0.072205
O O5 0.416493 0.982443 0.955604
O O6 0.500000 0.191621 0.000000
O O7 0.862675 0.064643 0.383853
O O8 0.880161 0.311596 0.507857
O O9 0.000000 0.183486 0.500000
O O10 0.867234 0.243386 0.983434
O O11 0.770448 0.434912 0.628491
#
# Coordination Sequence:
#
# PCOD9129963 Si02
#       5
#     4   4   4   4   4
#     4  11  26  43  73 100 141 193 237 297 357 442
#     4  11  24  43  70 104 141 184 239 299 366 429
#     4  12  26  45  73 109 148 189 244 308 367 427
#     4  11  26  47  73 107 144 193 249 293 365 440
#     4  11  25  44  73 101 145 195 240 292 364 447
#
# _framework density 23.921516
#
# number of rings (size 3 to 8) (size 9 to 14) (size 15 to 20)
#    0.000    0.800    2.000    4.800    5.600    6.400 
#    0.000    0.000    0.000    0.000    0.000    0.000 
#    0.000    0.000    0.000    0.000    0.000    0.000 
#
# Total GULP energy -55876.558613 kJ/mol
# GULP energy per Si atom -5587.655861 kJ/mol
# Density = 2.386707 g / cm^3
# Si number density = 23.921516 Si / 1000 Ang^3
#
#
#
# Elastic Constant Matrix: (Units=GPa)
#
#
# Indices 1 2 3 4 5 6 
#
# 1 168.2014 46.4867 33.1069 0.0000 10.5494 0.0000
# 2 46.4867 130.4723 25.5735 0.0000 13.0964 0.0000
# 3 33.1069 25.5735 63.6102 0.0000 -14.6357 0.0000
# 4 0.0000 0.0000 0.0000 21.7047 0.0000 -8.5525
# 5 10.5494 13.0964 -14.6357 0.0000 38.9663 0.0000
# 6 0.0000 0.0000 0.0000 -8.5525 0.0000 31.3647
#
#
#
# Elastic Compliance Matrix: (Units=1/GPa)
#
#
# Indices 1 2 3 4 5 6 
#
# 1 0.007316 -0.001561 -0.003848 0.000000 -0.002901 0.000000
# 2 -0.001561 0.009418 -0.003946 0.000000 -0.004225 0.000000
# 3 -0.003848 -0.003946 0.021733 0.000000 0.010531 0.000000
# 4 0.000000 0.000000 0.000000 0.051619 0.000000 0.014075
# 5 -0.002901 -0.004225 0.010531 0.000000 0.031824 0.000000
# 6 0.000000 0.000000 0.000000 0.014075 0.000000 0.035721
#
#
# Mechanical properties :
#
#
# Convention : Reuss Voigt Hill
#
# Bulk Modulus (GPa) = 50.61411 63.62421 57.11916
# Shear Modulus (GPa) = 27.33342 35.54826 31.44084
#
# Velocity S-wave (km/s) = 3.38395 3.85910 3.62931
# Velocity P-wave (km/s) = 6.03924 6.81994 6.44143
#
# Compressibility (1/GPa) = 0.01975734
#
# Stress axis : x y z
#
# Youngs Moduli (GPa) = 136.68641 106.17675 46.01394
#
# Poissons Ratio (x) = 0.16578 0.17704
# Poissons Ratio (y) = 0.21341 0.18157
# Poissons Ratio (z) = 0.52590 0.41896
#
# Static dielectric constant tensor:
#      x y z
#    x 1.988580 0.000000 0.055850 
#    y 0.000000 1.896130 0.000000 
#    z 0.055850 0.000000 1.920170 
# 
# From -- ./inp_files/9254.got.cif
#   From: 2010.05.17/outbox.cif.g08.bks.cpg/sg5_5_cif.got.tgz:9254.got - 2010.06.03 18:56:24.
