data_PCOD9129980
_publ_section_title
;
Structure prediction by ZEFSAII (Michael W. Deem and Ramdas Pophale) SiO2 
 PCOD9129980
Probable space group: C 2
;
_chemical_formula_sum "Si O2"
_cell_formula_units_Z 28
_cell_length_a 10.744201
_cell_length_b 8.623888
_cell_length_c 16.111332
_cell_angle_alpha 90.000000
_cell_angle_beta 127.097852
_cell_angle_gamma 90.000000
_cell_volume 1190.686382
_symmetry_space_group_name_H-M "C 2"
_symmetry_group_IT_number 5
_symmetry_cell_setting 'monoclinic'
loop_
_space_group_symop_operation_xyz
x,y,z
-x,y,-z
1/2+x,1/2+y,z
1/2-x,1/2+y,-z
loop_
_atom_site_type_symbol
_atom_site_label
_atom_site_fract_x
_atom_site_fract_y
_atom_site_fract_z
Si Si1 0.000000 0.964391 0.000000
Si Si2 0.575675 0.074956 0.357828
Si Si3 0.220343 0.242312 0.938305
Si Si4 0.000000 0.517027 0.500000
Si Si5 0.131161 0.206349 0.614321
Si Si6 0.178635 0.414164 0.081051
Si Si7 0.960302 0.244592 0.709682
Si Si8 0.782846 0.157175 0.787648
O O1 0.131895 0.846944 0.021850
O O2 0.086699 0.063434 0.106990
O O3 0.697410 0.160065 0.346833
O O4 0.393326 0.104201 0.264551
O O5 0.583228 0.110582 0.459667
O O6 0.615054 0.893189 0.364044
O O7 0.075898 0.306538 0.828081
O O8 0.231590 0.064688 0.914268
O O9 0.200169 0.269436 0.027286
O O10 0.887352 0.391510 0.408695
O O11 0.071600 0.171304 0.683418
O O12 0.000000 0.135540 0.500000
O O13 0.213564 0.338612 0.183307
O O14 0.000000 0.461837 0.000000
O O15 0.835674 0.148930 0.712785
#
# Coordination Sequence:
#
# PCOD9129980 Si02
#       8
#     2   4   4   2   4   4   4   4
#     4  12  24  46  72 102 144 202 236 294 360 412
#     4  11  24  45  74 100 142 183 234 295 367 421
#     4  12  25  44  71  97 142 196 239 292 358 410
#     4   8  22  46  70 100 138 176 230 302 348 442
#     4   9  23  47  66 102 141 173 228 296 359 432
#     4  12  25  44  65  99 142 184 242 293 342 410
#     4  11  24  44  67 102 141 181 235 295 346 432
#     4  12  25  45  71 106 148 187 246 294 348 433
#
# _framework density 23.515848999999999
#
# number of rings (size 3 to 8) (size 9 to 14) (size 15 to 20)
#    0.429    0.571    4.286    1.714    4.000    1.143 
#    7.714    0.000    0.000    0.000    0.000    0.000 
#    0.000    0.000    0.000    0.000    0.000    0.000 
#
# Total GULP energy -78136.745755 kJ/mol
# GULP energy per Si atom -5581.196125 kJ/mol
# Density = 2.346233 g / cm^3
# Si number density = 23.515849 Si / 1000 Ang^3
#
#
#
# Elastic Constant Matrix: (Units=GPa)
#
#
# Indices 1 2 3 4 5 6 
#
# 1 186.7211 50.7105 43.6282 0.0000 -17.8967 0.0000
# 2 50.7105 83.1242 24.6977 0.0000 -9.5012 0.0000
# 3 43.6282 24.6977 78.5937 0.0000 -16.7307 0.0000
# 4 0.0000 0.0000 0.0000 20.3946 0.0000 -2.5582
# 5 -17.8967 -9.5012 -16.7307 0.0000 46.4883 0.0000
# 6 0.0000 0.0000 0.0000 -2.5582 0.0000 34.5786
#
#
#
# Elastic Compliance Matrix: (Units=1/GPa)
#
#
# Indices 1 2 3 4 5 6 
#
# 1 0.006976 -0.003365 -0.002588 0.000000 0.001067 0.000000
# 2 -0.003365 0.014967 -0.002664 0.000000 0.000805 0.000000
# 3 -0.002588 -0.002664 0.015887 0.000000 0.004177 0.000000
# 4 0.000000 0.000000 0.000000 0.049492 0.000000 0.003662
# 5 0.001067 0.000805 0.004177 0.000000 0.023589 0.000000
# 6 0.000000 0.000000 0.000000 0.003662 0.000000 0.029191
#
#
# Mechanical properties :
#
#
# Convention : Reuss Voigt Hill
#
# Bulk Modulus (GPa) = 48.55490 65.16800 56.86145
# Shear Modulus (GPa) = 30.45058 35.58581 33.01819
#
# Velocity S-wave (km/s) = 3.60237 3.89430 3.75117
# Velocity P-wave (km/s) = 6.16403 6.92772 6.55700
#
# Compressibility (1/GPa) = 0.02059524
#
# Stress axis : x y z
#
# Youngs Moduli (GPa) = 143.33908 66.81561 62.94613
#
# Poissons Ratio (x) = 0.22484 0.16292
# Poissons Ratio (y) = 0.48235 0.16768
# Poissons Ratio (z) = 0.37099 0.17799
#
# Static dielectric constant tensor:
#      x y z
#    x 1.942110 0.000000 -0.046250 
#    y 0.000000 1.891340 0.000000 
#    z -0.046250 0.000000 1.957780 
# 
# From -- ./inp_files/52528.got.cif
#   From: 2010.05.17/outbox.cif.g08.bks.cpg/sg5_27_cif.got.tgz:52528.got - 2010.06.03 18:56:24.
