data_PCOD9129247
_publ_section_title
;
Structure prediction by ZEFSAII (Michael W. Deem and Ramdas Pophale) SiO2 
 PCOD9129247
Probable space group: C 2
;
_chemical_formula_sum "Si O2"
_cell_formula_units_Z 26
_cell_length_a 17.604544
_cell_length_b 8.111497
_cell_length_c 9.209042
_cell_angle_alpha 90.000000
_cell_angle_beta 104.639298
_cell_angle_gamma 90.000000
_cell_volume 1272.352370
_symmetry_space_group_name_H-M "C 2"
_symmetry_group_IT_number 5
_symmetry_cell_setting 'monoclinic'
loop_
_space_group_symop_operation_xyz
x,y,z
-x,y,-z
1/2+x,1/2+y,z
1/2-x,1/2+y,-z
loop_
_atom_site_type_symbol
_atom_site_label
_atom_site_fract_x
_atom_site_fract_y
_atom_site_fract_z
Si Si1 0.072378 0.215880 0.770841
Si Si2 0.412591 0.430676 0.451558
Si Si3 0.758166 0.372595 0.129874
Si Si4 0.619229 0.314698 0.256787
Si Si5 0.500000 0.509675 0.000000
Si Si6 0.334742 0.223504 0.173268
Si Si7 0.996248 0.544499 0.171224
O O1 0.160124 0.277427 0.843869
O O2 0.019108 0.380040 0.743245
O O3 0.075406 0.101130 0.630073
O O4 0.040166 0.112502 0.891138
O O5 0.500000 0.353460 0.500000
O O6 0.383663 0.428192 0.602105
O O7 0.354492 0.319528 0.329017
O O8 0.705930 0.301156 0.235174
O O9 0.780238 0.563095 0.164707
O O10 0.707765 0.343364 0.960628
O O11 0.566044 0.401732 0.109348
O O12 0.574125 0.141916 0.257245
O O13 0.419214 0.159160 0.155629
O O14 0.000000 0.505004 0.000000
#
# Coordination Sequence:
#
# PCOD9129247 Si02
#       7
#     4   4   4   4   2   4   4
#     4  11  25  42  67 103 140 175 242 290 349 409
#     4  12  24  44  65  97 141 188 226 292 345 408
#     4  11  24  42  69 102 137 179 231 298 340 423
#     4  12  23  41  72  94 138 189 230 284 356 412
#     4  12  20  40  68 100 126 190 236 272 340 424
#     4  11  22  42  68 100 137 177 227 286 356 402
#     4  11  20  40  70 103 128 176 239 284 332 415
#
# _framework density 20.43459
#
# number of rings (size 3 to 8) (size 9 to 14) (size 15 to 20)
#    0.000    0.615    6.154    2.769    0.000    1.231 
#    5.538    0.000    0.000    0.000    0.000    0.000 
#    0.000    0.000    0.000    0.000    0.000    0.000 
#
# Total GULP energy -72678.978245 kJ/mol
# GULP energy per Si atom -5590.690634 kJ/mol
# Density = 2.038808 g / cm^3
# Si number density = 20.434590 Si / 1000 Ang^3
#
#
#
# Elastic Constant Matrix: (Units=GPa)
#
#
# Indices 1 2 3 4 5 6 
#
# 1 91.0795 34.0334 9.7087 0.0000 -6.5346 0.0000
# 2 34.0334 111.7127 36.0655 0.0000 6.8521 0.0000
# 3 9.7087 36.0655 91.0581 0.0000 4.0152 0.0000
# 4 0.0000 0.0000 0.0000 18.9004 0.0000 -2.0566
# 5 -6.5346 6.8521 4.0152 0.0000 25.6336 0.0000
# 6 0.0000 0.0000 0.0000 -2.0566 0.0000 35.5047
#
#
#
# Elastic Compliance Matrix: (Units=1/GPa)
#
#
# Indices 1 2 3 4 5 6 
#
# 1 0.012861 -0.004222 0.000107 0.000000 0.004390 0.000000
# 2 -0.004222 0.011766 -0.004052 0.000000 -0.003587 0.000000
# 3 0.000107 -0.004052 0.012614 0.000000 -0.000865 0.000000
# 4 0.000000 0.000000 0.000000 0.053245 0.000000 0.003084
# 5 0.004390 -0.003587 -0.000865 0.000000 0.041225 0.000000
# 6 0.000000 0.000000 0.000000 0.003084 0.000000 0.028344
#
#
# Mechanical properties :
#
#
# Convention : Reuss Voigt Hill
#
# Bulk Modulus (GPa) = 47.83040 50.38506 49.10773
# Shear Modulus (GPa) = 27.26949 30.27724 28.77337
#
# Velocity S-wave (km/s) = 3.65701 3.85342 3.75650
# Velocity P-wave (km/s) = 6.42566 6.67149 6.54972
#
# Compressibility (1/GPa) = 0.02090721
#
# Stress axis : x y z
#
# Youngs Moduli (GPa) = 77.75711 84.99170 79.28009
#
# Poissons Ratio (x) = 0.35883 -0.00852
# Poissons Ratio (y) = 0.32829 0.32123
# Poissons Ratio (z) = -0.00835 0.34437
#
# Static dielectric constant tensor:
#      x y z
#    x 1.717000 0.000000 -0.019510 
#    y 0.000000 1.764490 0.000000 
#    z -0.019510 0.000000 1.712180 
# 
# From -- ./inp_files/26798.got.cif
#   From: 2010.05.17/outbox.cif.g08.bks.cpg/sg5_14_cif.got.tgz:26798.got - 2010.06.03 18:56:24.
