data_PCOD9129320
_publ_section_title
;
Structure prediction by ZEFSAII (Michael W. Deem and Ramdas Pophale) SiO2 
 PCOD9129320
Probable space group: C 2
;
_chemical_formula_sum "Si O2"
_cell_formula_units_Z 28
_cell_length_a 12.045789
_cell_length_b 13.527090
_cell_length_c 9.199622
_cell_angle_alpha 90.000000
_cell_angle_beta 102.612763
_cell_angle_gamma 90.000000
_cell_volume 1462.853233
_symmetry_space_group_name_H-M "C 2"
_symmetry_group_IT_number 5
_symmetry_cell_setting 'monoclinic'
loop_
_space_group_symop_operation_xyz
x,y,z
-x,y,-z
1/2+x,1/2+y,z
1/2-x,1/2+y,-z
loop_
_atom_site_type_symbol
_atom_site_label
_atom_site_fract_x
_atom_site_fract_y
_atom_site_fract_z
Si Si1 0.979297 0.296830 0.665551
Si Si2 0.155933 0.422783 0.896817
Si Si3 0.978129 0.895429 0.324376
Si Si4 0.389213 0.321512 0.878717
Si Si5 0.454180 0.596131 0.151502
Si Si6 0.791432 0.636944 0.019908
Si Si7 0.226182 0.312063 0.201836
O O1 0.849435 0.315810 0.676045
O O2 0.000000 0.294681 0.500000
O O3 0.061667 0.376173 0.765984
O O4 0.010452 0.193007 0.750085
O O5 0.281054 0.392558 0.870680
O O6 0.142598 0.539771 0.911489
O O7 0.157518 0.369412 0.054738
O O8 0.067044 0.821126 0.272992
O O9 0.000000 0.903644 0.500000
O O10 0.849806 0.859533 0.257647
O O11 0.994465 0.000042 0.249104
O O12 0.500000 0.357195 0.000000
O O13 0.356355 0.215704 0.937201
O O14 0.500000 0.599525 0.000000
O O15 0.317946 0.597469 0.098018
O O16 0.747447 0.702317 0.143576
#
# Coordination Sequence:
#
# PCOD9129320 Si02
#       7
#     4   4   4   4   4   4   4
#     4  12  26  43  64  99 137 171 210 274 336 383
#     4  11  22  43  68  94 130 172 224 267 315 389
#     4  12  26  42  65 100 138 169 207 276 338 382
#     4  11  21  40  67  97 124 171 220 268 315 386
#     4  12  21  43  71  98 123 171 231 268 311 384
#     4  11  21  38  72  97 119 164 236 265 309 373
#     4  11  23  44  64  95 125 178 220 262 320 394
#
# _framework density 19.140677
#
# number of rings (size 3 to 8) (size 9 to 14) (size 15 to 20)
#    0.000    0.571    8.571    2.143    2.000    1.143 
#    0.000    0.714    0.000    0.000    0.000    0.000 
#    0.000    0.000    0.000    0.000    0.000    0.000 
#
# Total GULP energy -78246.371928 kJ/mol
# GULP energy per Si atom -5589.026566 kJ/mol
# Density = 1.909711 g / cm^3
# Si number density = 19.140677 Si / 1000 Ang^3
#
#
#
# Elastic Constant Matrix: (Units=GPa)
#
#
# Indices 1 2 3 4 5 6 
#
# 1 98.8463 35.3211 41.7146 0.0000 -29.6923 0.0000
# 2 35.3211 136.3507 49.6684 0.0000 -13.0893 0.0000
# 3 41.7146 49.6684 128.4129 0.0000 -35.4202 0.0000
# 4 0.0000 0.0000 0.0000 25.2460 0.0000 3.9680
# 5 -29.6923 -13.0893 -35.4202 0.0000 37.9577 0.0000
# 6 0.0000 0.0000 0.0000 3.9680 0.0000 11.9899
#
#
#
# Elastic Compliance Matrix: (Units=1/GPa)
#
#
# Indices 1 2 3 4 5 6 
#
# 1 0.014227 -0.002378 -0.001156 0.000000 0.009231 0.000000
# 2 -0.002378 0.008935 -0.003160 0.000000 -0.001728 0.000000
# 3 -0.001156 -0.003160 0.011897 0.000000 0.009108 0.000000
# 4 0.000000 0.000000 0.000000 0.041784 0.000000 -0.013828
# 5 0.009231 -0.001728 0.009108 0.000000 0.041469 0.000000
# 6 0.000000 0.000000 0.000000 -0.013828 0.000000 0.087980
#
#
# Mechanical properties :
#
#
# Convention : Reuss Voigt Hill
#
# Bulk Modulus (GPa) = 46.14338 68.55755 57.35046
# Shear Modulus (GPa) = 22.03570 30.83243 26.43407
#
# Velocity S-wave (km/s) = 3.39669 4.01787 3.72027
# Velocity P-wave (km/s) = 6.28833 7.57759 6.96287
#
# Compressibility (1/GPa) = 0.02167158
#
# Stress axis : x y z
#
# Youngs Moduli (GPa) = 70.28863 111.91450 84.05166
#
# Poissons Ratio (x) = 0.26618 0.09713
# Poissons Ratio (y) = 0.16717 0.26561
# Poissons Ratio (z) = 0.08123 0.35367
#
# Static dielectric constant tensor:
#      x y z
#    x 1.708510 0.000000 -0.015900 
#    y 0.000000 1.687580 0.000000 
#    z -0.015900 0.000000 1.647090 
# 
# From -- ./inp_files/20407.got.cif
#   From: 2010.05.17/outbox.cif.g08.bks.cpg/sg5_11_cif.got.tgz:20407.got - 2010.06.03 18:56:24.
