data_PCOD9129310
_publ_section_title
;
Structure prediction by ZEFSAII (Michael W. Deem and Ramdas Pophale) SiO2 
 PCOD9129310
Probable space group: C 2
;
_chemical_formula_sum "Si O2"
_cell_formula_units_Z 28
_cell_length_a 9.099490
_cell_length_b 10.775544
_cell_length_c 24.982922
_cell_angle_alpha 90.000000
_cell_angle_beta 30.646447
_cell_angle_gamma 90.000000
_cell_volume 1248.669090
_symmetry_space_group_name_H-M "C 2"
_symmetry_group_IT_number 5
_symmetry_cell_setting 'monoclinic'
loop_
_space_group_symop_operation_xyz
x,y,z
-x,y,-z
1/2+x,1/2+y,z
1/2-x,1/2+y,-z
loop_
_atom_site_type_symbol
_atom_site_label
_atom_site_fract_x
_atom_site_fract_y
_atom_site_fract_z
Si Si1 0.339400 0.453660 0.402866
Si Si2 0.320305 0.924836 0.882743
Si Si3 0.109134 0.580311 0.879067
Si Si4 0.042283 0.711845 0.703179
Si Si5 0.702862 0.951095 0.655643
Si Si6 0.596875 0.644590 0.118041
Si Si7 0.112818 0.223227 0.295551
O O1 0.442191 0.333120 0.337872
O O2 0.483591 0.432960 0.416042
O O3 0.448170 0.590964 0.351764
O O4 0.000000 0.454431 0.500000
O O5 0.477434 0.957664 0.777481
O O6 0.306557 0.777497 0.889853
O O7 0.533303 0.971303 0.862430
O O8 0.000000 0.972674 0.000000
O O9 0.371589 0.559624 0.838619
O O10 0.173674 0.698138 0.821177
O O11 0.825963 0.598967 0.003438
O O12 0.190592 0.587008 0.633272
O O13 0.201908 0.739748 0.708926
O O14 0.711505 0.668600 0.810300
O O15 0.593482 0.837892 0.653898
#
# Coordination Sequence:
#
# PCOD9129310 Si02
#       7
#     4   4   4   4   4   4   4
#     4  11  25  47  70  94 135 180 222 285 351 404
#     4  12  20  39  63  88 136 182 217 278 333 393
#     4  11  21  37  64  91 132 183 221 268 334 398
#     4  11  23  42  67 102 130 174 233 277 345 409
#     4  11  23  43  67  95 135 172 221 286 335 403
#     4  11  22  39  62  96 133 182 227 272 337 400
#     4  11  23  43  68 101 132 177 226 285 343 406
#
# _framework density 22.423874999999999
#
# number of rings (size 3 to 8) (size 9 to 14) (size 15 to 20)
#    0.000    0.857    7.143    0.857    0.000    5.714 
#    0.000    3.571    0.000    0.000    0.000    0.000 
#    0.000    0.000    0.000    0.000    0.000    0.000 
#
# Total GULP energy -78164.617713 kJ/mol
# GULP energy per Si atom -5583.186980 kJ/mol
# Density = 2.237284 g / cm^3
# Si number density = 22.423875 Si / 1000 Ang^3
#
#
#
# Elastic Constant Matrix: (Units=GPa)
#
#
# Indices 1 2 3 4 5 6 
#
# 1 110.5078 76.7495 25.2076 -0.0035 -37.2751 -0.0012
# 2 76.7495 113.4528 11.2160 -0.0027 -6.9753 -0.0013
# 3 25.2076 11.2160 65.8186 0.0043 -33.0751 0.0011
# 4 -0.0035 -0.0027 0.0043 14.7866 0.0001 -12.1709
# 5 -37.2751 -6.9753 -33.0751 0.0001 40.6545 -0.0012
# 6 -0.0012 -0.0013 0.0011 -12.1709 -0.0012 47.9375
#
#
#
# Elastic Compliance Matrix: (Units=1/GPa)
#
#
# Indices 1 2 3 4 5 6 
#
# 1 0.032973 -0.021027 0.007332 0.000003 0.032589 0.000002
# 2 -0.021027 0.022380 -0.005953 0.000001 -0.020282 0.000000
# 3 0.007332 -0.005953 0.027513 -0.000009 0.028084 -0.000002
# 4 0.000003 0.000001 -0.000009 0.085495 -0.000004 0.021707
# 5 0.032589 -0.020282 0.028084 -0.000004 0.073846 0.000000
# 6 0.000002 0.000000 -0.000002 0.021707 0.000000 0.026372
#
#
# Mechanical properties :
#
#
# Convention : Reuss Voigt Hill
#
# Bulk Modulus (GPa) = 22.95204 57.34728 40.14966
# Shear Modulus (GPa) = 15.50880 32.44945 23.97912
#
# Velocity S-wave (km/s) = 2.63272 3.80820 3.27365
# Velocity P-wave (km/s) = 4.41581 6.70568 5.67739
#
# Compressibility (1/GPa) = 0.04356912
#
# Stress axis : x y z
#
# Youngs Moduli (GPa) = 30.32822 44.68251 36.34687
#
# Poissons Ratio (x) = 0.93953 -0.26648
# Poissons Ratio (y) = 0.63770 0.21637
# Poissons Ratio (z) = -0.22235 0.26599
#
# Static dielectric constant tensor:
#      x y z
#    x 1.851390 -0.000010 0.003870 
#    y -0.000010 1.832600 -0.000010 
#    z 0.003870 -0.000010 1.897080 
# 
# From -- ./inp_files/50264.got.cif
#   From: 2010.05.17/outbox.cif.g08.bks.cpg/sg5_26_cif.got.tgz:50264.got - 2010.06.03 18:56:24.
