data_PCOD9129513
_publ_section_title
;
Structure prediction by ZEFSAII (Michael W. Deem and Ramdas Pophale) SiO2 
 PCOD9129513
Probable space group: C 2
;
_chemical_formula_sum "Si O2"
_cell_formula_units_Z 20
_cell_length_a 24.900986
_cell_length_b 5.076438
_cell_length_c 7.322403
_cell_angle_alpha 90.000000
_cell_angle_beta 65.931370
_cell_angle_gamma 90.000000
_cell_volume 845.137624
_symmetry_space_group_name_H-M "C 2"
_symmetry_group_IT_number 5
_symmetry_cell_setting 'monoclinic'
loop_
_space_group_symop_operation_xyz
x,y,z
-x,y,-z
1/2+x,1/2+y,z
1/2-x,1/2+y,-z
loop_
_atom_site_type_symbol
_atom_site_label
_atom_site_fract_x
_atom_site_fract_y
_atom_site_fract_z
Si Si1 0.919153 0.370010 0.947733
Si Si2 0.881665 0.984562 0.514774
Si Si3 0.549675 0.976784 0.670273
Si Si4 0.280240 0.387364 0.385445
Si Si5 0.654267 0.367802 0.049966
O O1 0.870326 0.576779 0.950862
O O2 0.980478 0.423802 0.759848
O O3 0.895512 0.076950 0.946482
O O4 0.931930 0.429842 0.143309
O O5 0.931779 0.765072 0.420017
O O6 0.841223 0.973972 0.392895
O O7 0.840424 0.918772 0.743337
O O8 0.912266 0.264709 0.492476
O O9 0.233193 0.593256 0.528130
O O10 0.289108 0.404893 0.156435
#
# Coordination Sequence:
#
# PCOD9129513 Si02
#       5
#     4   4   4   4   4
#     4  11  22  41  68  98 137 177 210 252 317 391
#     4  12  25  43  68  99 131 168 218 266 321 385
#     4  11  22  41  68  98 137 177 210 252 317 391
#     4  12  26  46  69  90 127 168 218 278 332 372
#     4  12  25  43  68  99 131 168 218 266 321 385
#
# _framework density 23.664784000000001
#
# number of rings (size 3 to 8) (size 9 to 14) (size 15 to 20)
#    0.000    0.400    4.000    4.800    0.000    9.600 
#    0.000    0.000    0.000    0.000    0.000    0.000 
#    0.000    0.000    0.000    0.000    0.000    0.000 
#
# Total GULP energy -56054.545883 kJ/mol
# GULP energy per Si atom -5605.454588 kJ/mol
# Density = 2.361092 g / cm^3
# Si number density = 23.664784 Si / 1000 Ang^3
#
#
#
# Elastic Constant Matrix: (Units=GPa)
#
#
# Indices 1 2 3 4 5 6 
#
# 1 17.2899 8.0863 -6.3684 0.0000 3.2085 0.0000
# 2 8.0863 42.5474 -6.5619 0.0000 -3.5161 0.0000
# 3 -6.3684 -6.5619 120.0430 0.0000 7.2880 0.0000
# 4 0.0000 0.0000 0.0000 38.8463 0.0000 -8.2174
# 5 3.2085 -3.5161 7.2880 0.0000 32.4789 0.0000
# 6 0.0000 0.0000 0.0000 -8.2174 0.0000 32.2207
#
#
#
# Elastic Compliance Matrix: (Units=1/GPa)
#
#
# Indices 1 2 3 4 5 6 
#
# 1 0.066725 -0.012885 0.003366 0.000000 -0.008742 0.000000
# 2 -0.012885 0.026363 0.000514 0.000000 0.004012 0.000000
# 3 0.003366 0.000514 0.008672 0.000000 -0.002223 0.000000
# 4 0.000000 0.000000 0.000000 0.027210 0.000000 0.006940
# 5 -0.008742 0.004012 -0.002223 0.000000 0.032586 0.000000
# 6 0.000000 0.000000 0.000000 0.006940 0.000000 0.032806
#
#
# Mechanical properties :
#
#
# Convention : Reuss Voigt Hill
#
# Bulk Modulus (GPa) = 11.94014 18.91027 15.42521
# Shear Modulus (GPa) = 20.80837 33.02415 26.91626
#
# Velocity S-wave (km/s) = 2.96851 3.73969 3.37619
# Velocity P-wave (km/s) = 4.09950 5.16287 4.66161
#
# Compressibility (1/GPa) = 0.08375108
#
# Stress axis : x y z
#
# Youngs Moduli (GPa) = 14.98684 37.93231 115.31398
#
# Poissons Ratio (x) = 0.48875 -0.38818
# Poissons Ratio (y) = 0.19310 -0.05927
# Poissons Ratio (z) = -0.05045 -0.01950
#
# Static dielectric constant tensor:
#      x y z
#    x 1.865500 0.000000 0.028920 
#    y 0.000000 1.822290 0.000000 
#    z 0.028920 0.000000 1.917500 
# 
# From -- ./inp_files/31247.got.cif
#   From: 2010.05.17/outbox.cif.g08.bks.cpg/sg5_16_cif.got.tgz:31247.got - 2010.06.03 18:56:24.
