data_PCOD9129995
_publ_section_title
;
Structure prediction by ZEFSAII (Michael W. Deem and Ramdas Pophale) SiO2 
 PCOD9129995
Probable space group: C 2
;
_chemical_formula_sum "Si O2"
_cell_formula_units_Z 18
_cell_length_a 5.239096
_cell_length_b 30.848658
_cell_length_c 5.623054
_cell_angle_alpha 90.000000
_cell_angle_beta 125.249207
_cell_angle_gamma 90.000000
_cell_volume 742.165240
_symmetry_space_group_name_H-M "C 2"
_symmetry_group_IT_number 5
_symmetry_cell_setting 'monoclinic'
loop_
_space_group_symop_operation_xyz
x,y,z
-x,y,-z
1/2+x,1/2+y,z
1/2-x,1/2+y,-z
loop_
_atom_site_type_symbol
_atom_site_label
_atom_site_fract_x
_atom_site_fract_y
_atom_site_fract_z
Si Si1 0.000000 0.974820 0.500000
Si Si2 0.500000 0.644927 0.500000
Si Si3 0.500000 0.920692 0.500000
Si Si4 0.000000 0.858331 0.000000
Si Si5 0.500000 0.085711 0.500000
Si Si6 0.000000 0.026614 0.000000
Si Si7 0.668428 0.279697 0.814690
Si Si8 0.500000 0.202820 0.000000
O O1 0.679655 0.948444 0.392733
O O2 0.044556 0.000439 0.774960
O O3 0.247911 0.615469 0.497865
O O4 0.699134 0.672720 0.798935
O O5 0.776953 0.889947 0.737865
O O6 0.222605 0.821894 0.004405
O O7 0.695726 0.055829 0.785918
O O8 0.500000 0.299235 0.500000
O O9 0.453447 0.239033 0.768491
O O10 0.000000 0.257369 0.000000
#
# Coordination Sequence:
#
# PCOD9129995 Si02
#       8
#     2   2   2   2   2   2   4   2
#     4  12  31  54  86 121 157 212 263 327 412 472
#     4  12  27  47  76 118 153 198 253 326 386 455
#     4  12  29  49  80 118 159 200 261 332 392 461
#     4  11  27  46  70 110 154 202 262 318 382 458
#     4  12  29  50  84 115 155 204 257 319 406 466
#     4  12  29  58  85 116 162 208 266 324 393 518
#     4  11  24  44  73 102 144 214 252 311 379 454
#     4  11  26  44  71 108 154 196 262 312 379 454
#
# _framework density 24.253361000000002
#
# number of rings (size 3 to 8) (size 9 to 14) (size 15 to 20)
#    0.000    0.444    0.000    6.000    9.333   14.222 
#    0.000    0.000    0.000    0.000    0.000    0.000 
#    0.000    0.000    0.000    0.000    0.000    0.000 
#
# Total GULP energy -50204.443021 kJ/mol
# GULP energy per Si atom -5578.271447 kJ/mol
# Density = 2.419816 g / cm^3
# Si number density = 24.253361 Si / 1000 Ang^3
#
#
#
# Elastic Constant Matrix: (Units=GPa)
#
#
# Indices 1 2 3 4 5 6 
#
# 1 142.9645 74.0133 27.2594 0.0000 -2.6289 0.0000
# 2 74.0133 157.2309 66.7868 0.0000 -2.6743 0.0000
# 3 27.2594 66.7868 116.0628 0.0000 16.3202 0.0000
# 4 0.0000 0.0000 0.0000 49.7247 0.0000 8.2354
# 5 -2.6289 -2.6743 16.3202 0.0000 43.4329 0.0000
# 6 0.0000 0.0000 0.0000 8.2354 0.0000 47.4511
#
#
#
# Elastic Compliance Matrix: (Units=1/GPa)
#
#
# Indices 1 2 3 4 5 6 
#
# 1 0.009266 -0.004537 0.000417 0.000000 0.000125 0.000000
# 2 -0.004537 0.010897 -0.005554 0.000000 0.002483 0.000000
# 3 0.000417 -0.005554 0.012415 0.000000 -0.004982 0.000000
# 4 0.000000 0.000000 0.000000 0.020706 0.000000 -0.003594
# 5 0.000125 0.002483 -0.004982 0.000000 0.025056 0.000000
# 6 0.000000 0.000000 0.000000 -0.003594 0.000000 0.021698
#
#
# Mechanical properties :
#
#
# Convention : Reuss Voigt Hill
#
# Bulk Modulus (GPa) = 75.58849 83.59745 79.59297
# Shear Modulus (GPa) = 40.38858 44.66833 42.52845
#
# Velocity S-wave (km/s) = 4.08521 4.29620 4.19203
# Velocity P-wave (km/s) = 7.31340 7.69110 7.50462
#
# Compressibility (1/GPa) = 0.01322953
#
# Stress axis : x y z
#
# Youngs Moduli (GPa) = 107.91786 91.76638 80.54887
#
# Poissons Ratio (x) = 0.41633 -0.03357
# Poissons Ratio (y) = 0.48960 0.44740
# Poissons Ratio (z) = -0.04497 0.50970
#
# Static dielectric constant tensor:
#      x y z
#    x 2.111140 0.000000 -0.248320 
#    y 0.000000 1.865750 0.000000 
#    z -0.248320 0.000000 1.889160 
# 
# From -- ./inp_files/1066.got.cif
#   From: 2010.05.17/outbox.cif.g08.bks.cpg/sg5_1_cif.got.tgz:1066.got - 2010.06.03 18:56:24.
