data_PCOD9129801
_publ_section_title
;
Structure prediction by ZEFSAII (Michael W. Deem and Ramdas Pophale) SiO2 
 PCOD9129801
Probable space group: C 2
;
_chemical_formula_sum "Si O2"
_cell_formula_units_Z 20
_cell_length_a 9.079815
_cell_length_b 20.912011
_cell_length_c 8.836240
_cell_angle_alpha 90.000000
_cell_angle_beta 149.009768
_cell_angle_gamma 90.000000
_cell_volume 863.885910
_symmetry_space_group_name_H-M "C 2"
_symmetry_group_IT_number 5
_symmetry_cell_setting 'monoclinic'
loop_
_space_group_symop_operation_xyz
x,y,z
-x,y,-z
1/2+x,1/2+y,z
1/2-x,1/2+y,-z
loop_
_atom_site_type_symbol
_atom_site_label
_atom_site_fract_x
_atom_site_fract_y
_atom_site_fract_z
Si Si1 0.093590 0.584600 0.408694
Si Si2 0.833348 0.337415 0.510205
Si Si3 0.212710 0.389723 0.058580
Si Si4 0.794397 0.216847 0.678473
Si Si5 0.622391 0.532385 0.765748
O O1 0.227984 0.655665 0.515101
O O2 0.343971 0.533295 0.622928
O O3 0.000000 0.584284 0.500000
O O4 0.865817 0.569200 0.075858
O O5 0.496768 0.353160 0.246508
O O6 0.900727 0.274192 0.668132
O O7 0.000000 0.327345 0.500000
O O8 0.003980 0.396284 0.733226
O O9 0.290599 0.459642 0.185899
O O10 0.000000 0.360049 0.000000
O O11 0.500000 0.237223 0.500000
O O12 0.000000 0.199198 0.000000
O O13 0.500000 0.560728 0.500000
#
# Coordination Sequence:
#
# PCOD9129801 Si02
#       5
#     4   4   4   4   4
#     4  11  24  43  68  99 137 183 231 281 342 410
#     4  12  26  43  69 105 138 175 229 294 351 397
#     4  12  25  45  69  97 138 188 231 273 342 428
#     4  11  23  44  70  96 133 185 233 275 339 425
#     4  12  25  43  68 101 138 179 231 285 341 406
#
# _framework density 23.151205999999998
#
# number of rings (size 3 to 8) (size 9 to 14) (size 15 to 20)
#    0.000    0.400    0.000   11.400    0.000    5.600 
#    0.000    6.000    0.000    0.000    0.000    0.000 
#    0.000    0.000    0.000    0.000    0.000    0.000 
#
# Total GULP energy -55781.738914 kJ/mol
# GULP energy per Si atom -5578.173891 kJ/mol
# Density = 2.309851 g / cm^3
# Si number density = 23.151206 Si / 1000 Ang^3
#
#
#
# Elastic Constant Matrix: (Units=GPa)
#
#
# Indices 1 2 3 4 5 6 
#
# 1 136.7795 58.4731 60.5162 0.0000 6.3473 0.0000
# 2 58.4731 80.8692 55.3250 0.0000 -8.8242 0.0000
# 3 60.5162 55.3250 181.5925 0.0000 1.4527 0.0000
# 4 0.0000 0.0000 0.0000 33.8401 0.0000 -0.3378
# 5 6.3473 -8.8242 1.4527 0.0000 37.7323 0.0000
# 6 0.0000 0.0000 0.0000 -0.3378 0.0000 25.4920
#
#
#
# Elastic Compliance Matrix: (Units=1/GPa)
#
#
# Indices 1 2 3 4 5 6 
#
# 1 0.011385 -0.007649 -0.001435 0.000000 -0.003649 0.000000
# 2 -0.007649 0.021336 -0.004003 0.000000 0.006431 0.000000
# 3 -0.001435 -0.004003 0.007212 0.000000 -0.000973 0.000000
# 4 0.000000 0.000000 0.000000 0.029555 0.000000 0.000392
# 5 -0.003649 0.006431 -0.000973 0.000000 0.028658 0.000000
# 6 0.000000 0.000000 0.000000 0.000392 0.000000 0.039233
#
#
# Mechanical properties :
#
#
# Convention : Reuss Voigt Hill
#
# Bulk Modulus (GPa) = 72.66860 83.09662 77.88261
# Shear Modulus (GPa) = 29.73749 34.40802 32.07275
#
# Velocity S-wave (km/s) = 3.58787 3.85935 3.72608
# Velocity P-wave (km/s) = 6.97284 7.47197 7.22672
#
# Compressibility (1/GPa) = 0.01376110
#
# Stress axis : x y z
#
# Youngs Moduli (GPa) = 87.83626 46.86864 138.65298
#
# Poissons Ratio (x) = 0.35848 0.19891
# Poissons Ratio (y) = 0.67182 0.55502
# Poissons Ratio (z) = 0.12601 0.18761
#
# Static dielectric constant tensor:
#      x y z
#    x 1.970340 0.000000 0.017950 
#    y 0.000000 1.924380 0.000000 
#    z 0.017950 0.000000 1.952170 
# 
# From -- ./inp_files/17332.got.cif
#   From: 2010.05.17/outbox.cif.g08.bks.cpg/sg5_9_cif.got.tgz:17332.got - 2010.06.03 18:56:24.
