data_PCOD9129945
_publ_section_title
;
Structure prediction by ZEFSAII (Michael W. Deem and Ramdas Pophale) SiO2 
 PCOD9129945
Probable space group: C 2
;
_chemical_formula_sum "Si O2"
_cell_formula_units_Z 32
_cell_length_a 22.778255
_cell_length_b 12.006902
_cell_length_c 6.058688
_cell_angle_alpha 90.000000
_cell_angle_beta 71.694127
_cell_angle_gamma 90.000000
_cell_volume 1573.171832
_symmetry_space_group_name_H-M "C 2"
_symmetry_group_IT_number 5
_symmetry_cell_setting 'monoclinic'
loop_
_space_group_symop_operation_xyz
x,y,z
-x,y,-z
1/2+x,1/2+y,z
1/2-x,1/2+y,-z
loop_
_atom_site_type_symbol
_atom_site_label
_atom_site_fract_x
_atom_site_fract_y
_atom_site_fract_z
Si Si1 0.835512 0.095970 0.520581
Si Si2 0.532042 0.934374 0.211113
Si Si3 0.779896 0.702797 0.598285
Si Si4 0.260197 0.417749 0.893141
Si Si5 0.572395 0.501061 0.956260
Si Si6 0.848546 0.576410 0.873282
Si Si7 0.432754 0.696736 0.694833
Si Si8 0.157983 0.809697 0.869458
O O1 0.776436 0.149084 0.469097
O O2 0.875399 0.192471 0.593903
O O3 0.808268 0.999806 0.712103
O O4 0.884687 0.040131 0.297001
O O5 0.500000 0.935055 0.500000
O O6 0.561946 0.810777 0.175727
O O7 0.583334 0.029038 0.180992
O O8 0.500000 0.947221 0.000000
O O9 0.752817 0.796304 0.793912
O O10 0.820154 0.607174 0.668198
O O11 0.826235 0.775043 0.394922
O O12 0.197048 0.484508 0.973877
O O13 0.288346 0.389914 0.099540
O O14 0.596084 0.378182 0.983131
O O15 0.500000 0.499969 0.000000
O O16 0.580850 0.591694 0.135781
O O17 0.843259 0.693681 0.002220
O O18 0.500000 0.680863 0.500000
#
# Coordination Sequence:
#
# PCOD9129945 Si02
#       8
#     4   4   4   4   4   4   4   4
#     4  12  24  40  70 102 144 186 242 303 380 443
#     4  11  29  51  77 108 147 199 257 315 378 457
#     4  11  26  42  69 106 140 188 241 311 372 459
#     4  11  24  42  66 103 138 183 232 300 371 447
#     4  12  24  42  70 101 140 188 239 305 370 443
#     4  11  27  46  72 101 146 189 247 305 377 451
#     4  11  25  44  68 103 144 186 246 311 369 445
#     4  11  24  45  66 104 143 181 242 295 373 452
#
# _framework density 20.341070999999999
#
# number of rings (size 3 to 8) (size 9 to 14) (size 15 to 20)
#    0.000    0.750    5.000    1.125    7.000    0.500 
#    0.000    0.000    0.000    0.000    0.000    0.000 
#    0.000    0.000    0.000    0.000    0.000    0.000 
#
# Total GULP energy -89254.469143 kJ/mol
# GULP energy per Si atom -5578.404321 kJ/mol
# Density = 2.029477 g / cm^3
# Si number density = 20.341071 Si / 1000 Ang^3
#
#
#
# Elastic Constant Matrix: (Units=GPa)
#
#
# Indices 1 2 3 4 5 6 
#
# 1 114.4577 51.1463 28.3865 0.0000 26.2987 0.0000
# 2 51.1463 103.0433 28.4839 0.0000 7.5313 0.0000
# 3 28.3865 28.4839 59.7409 0.0000 4.6662 0.0000
# 4 0.0000 0.0000 0.0000 16.4234 0.0000 -0.9264
# 5 26.2987 7.5313 4.6662 0.0000 27.2537 0.0000
# 6 0.0000 0.0000 0.0000 -0.9264 0.0000 49.4926
#
#
#
# Elastic Compliance Matrix: (Units=1/GPa)
#
#
# Indices 1 2 3 4 5 6 
#
# 1 0.014883 -0.005531 -0.003479 0.000000 -0.012237 0.000000
# 2 -0.005531 0.013366 -0.003925 0.000000 0.002316 0.000000
# 3 -0.003479 -0.003925 0.020187 0.000000 0.000985 0.000000
# 4 0.000000 0.000000 0.000000 0.060953 0.000000 0.001141
# 5 -0.012237 0.002316 0.000985 0.000000 0.047692 0.000000
# 6 0.000000 0.000000 0.000000 0.001141 0.000000 0.020226
#
#
# Mechanical properties :
#
#
# Convention : Reuss Voigt Hill
#
# Bulk Modulus (GPa) = 44.31702 54.80837 49.56269
# Shear Modulus (GPa) = 23.73048 29.91562 26.82305
#
# Velocity S-wave (km/s) = 3.41930 3.83913 3.63528
# Velocity P-wave (km/s) = 6.11744 6.83045 6.48376
#
# Compressibility (1/GPa) = 0.02256470
#
# Stress axis : x y z
#
# Youngs Moduli (GPa) = 67.19049 74.81692 49.53791
#
# Poissons Ratio (x) = 0.41383 0.17233
# Poissons Ratio (y) = 0.37165 0.19446
# Poissons Ratio (z) = 0.23374 0.29369
#
# Static dielectric constant tensor:
#      x y z
#    x 1.786110 0.000000 0.042510 
#    y 0.000000 1.697450 0.000000 
#    z 0.042510 0.000000 1.807750 
# 
# From -- ./inp_files/10374.got.cif
#   From: 2010.05.17/outbox.cif.g08.bks.cpg/sg5_6_cif.got.tgz:10374.got - 2010.06.03 18:56:24.
