data_PCOD9129890
_publ_section_title
;
Structure prediction by ZEFSAII (Michael W. Deem and Ramdas Pophale) SiO2 
 PCOD9129890
Probable space group: C 2
;
_chemical_formula_sum "Si O2"
_cell_formula_units_Z 24
_cell_length_a 16.603961
_cell_length_b 5.074718
_cell_length_c 21.751432
_cell_angle_alpha 90.000000
_cell_angle_beta 145.956441
_cell_angle_gamma 90.000000
_cell_volume 1026.035109
_symmetry_space_group_name_H-M "C 2"
_symmetry_group_IT_number 5
_symmetry_cell_setting 'monoclinic'
loop_
_space_group_symop_operation_xyz
x,y,z
-x,y,-z
1/2+x,1/2+y,z
1/2-x,1/2+y,-z
loop_
_atom_site_type_symbol
_atom_site_label
_atom_site_fract_x
_atom_site_fract_y
_atom_site_fract_z
Si Si1 0.163190 0.185740 0.351363
Si Si2 0.560080 0.005893 0.406547
Si Si3 0.710504 0.635447 0.012023
Si Si4 0.237057 0.304314 0.777671
Si Si5 0.882050 0.308110 0.815030
Si Si6 0.898409 0.902278 0.225290
O O1 0.308347 0.045047 0.464821
O O2 0.121227 0.379728 0.381569
O O3 0.177013 0.295923 0.292040
O O4 0.025170 0.995992 0.260926
O O5 0.484663 0.277123 0.337175
O O6 0.427740 0.839512 0.350302
O O7 0.549355 0.735191 0.921021
O O8 0.723183 0.339883 0.995747
O O9 0.805299 0.684312 0.132373
O O10 0.307083 0.589822 0.811469
O O11 0.342638 0.099110 0.811964
O O12 0.201120 0.146569 0.817965
#
# Coordination Sequence:
#
# PCOD9129890 Si02
#       6
#     4   4   4   4   4   4
#     4  11  24  42  79 102 142 182 245 289 340 417
#     4  11  23  47  71 108 138 194 232 287 352 416
#     4  12  26  46  77 108 136 180 241 299 344 407
#     4  11  27  49  66 105 152 181 233 280 361 423
#     4  12  26  49  71 108 142 186 232 292 355 414
#     4  11  24  49  72 104 143 185 236 290 346 421
#
# _framework density 23.391010000000001
#
# number of rings (size 3 to 8) (size 9 to 14) (size 15 to 20)
#    0.000    0.667    5.000    2.000    4.667    1.333 
#    6.000    0.000    0.000    0.000    0.000    0.000 
#    0.000    0.000    0.000    0.000    0.000    0.000 
#
# Total GULP energy -67089.218811 kJ/mol
# GULP energy per Si atom -5590.768234 kJ/mol
# Density = 2.333777 g / cm^3
# Si number density = 23.391010 Si / 1000 Ang^3
#
#
#
# Elastic Constant Matrix: (Units=GPa)
#
#
# Indices 1 2 3 4 5 6 
#
# 1 46.9575 -2.4364 17.1442 0.0000 19.3471 -0.0002
# 2 -2.4364 64.3531 -10.4254 0.0009 5.4534 0.0021
# 3 17.1442 -10.4254 57.0942 0.0003 -0.0137 0.0001
# 4 0.0000 0.0009 0.0003 30.6435 -0.0002 7.3658
# 5 19.3471 5.4534 -0.0137 -0.0002 32.2354 0.0001
# 6 -0.0002 0.0021 0.0001 7.3658 0.0001 48.1189
#
#
#
# Elastic Compliance Matrix: (Units=1/GPa)
#
#
# Indices 1 2 3 4 5 6 
#
# 1 0.033239 0.001393 -0.009732 0.000000 -0.020190 0.000000
# 2 0.001393 0.016311 0.002559 0.000000 -0.003594 -0.000001
# 3 -0.009732 0.002559 0.020906 0.000000 0.005417 0.000000
# 4 0.000000 0.000000 0.000000 0.033880 0.000000 -0.005186
# 5 -0.020190 -0.003594 0.005417 0.000000 0.043750 0.000000
# 6 0.000000 -0.000001 0.000000 -0.005186 0.000000 0.021576
#
#
# Mechanical properties :
#
#
# Convention : Reuss Voigt Hill
#
# Bulk Modulus (GPa) = 16.97871 19.66331 18.32101
# Shear Modulus (GPa) = 24.89380 33.14106 29.01743
#
# Velocity S-wave (km/s) = 3.26582 3.76816 3.52595
# Velocity P-wave (km/s) = 4.63629 5.23036 4.94226
#
# Compressibility (1/GPa) = 0.05889730
#
# Stress axis : x y z
#
# Youngs Moduli (GPa) = 30.08472 61.30762 47.83370
#
# Poissons Ratio (x) = -0.08539 0.46550
# Poissons Ratio (y) = -0.04190 -0.12242
# Poissons Ratio (z) = 0.29277 -0.15691
#
# Static dielectric constant tensor:
#      x y z
#    x 1.909090 0.000000 -0.012920 
#    y 0.000000 1.920640 0.000000 
#    z -0.012920 0.000000 1.832840 
# 
# From -- ./inp_files/67659.got.cif
#   From: 2010.05.17/outbox.cif.g08.bks.cpg/sg5_34_cif.got.tgz:67659.got - 2010.06.03 18:56:24.
