data_PCOD9129060
_publ_section_title
;
Structure prediction by ZEFSAII (Michael W. Deem and Ramdas Pophale) SiO2 
 PCOD9129060
Probable space group: C 2
;
_chemical_formula_sum "Si O2"
_cell_formula_units_Z 28
_cell_length_a 18.128654
_cell_length_b 5.481588
_cell_length_c 17.805806
_cell_angle_alpha 90.000000
_cell_angle_beta 42.365166
_cell_angle_gamma 90.000000
_cell_volume 1192.336809
_symmetry_space_group_name_H-M "C 2"
_symmetry_group_IT_number 5
_symmetry_cell_setting 'monoclinic'
loop_
_space_group_symop_operation_xyz
x,y,z
-x,y,-z
1/2+x,1/2+y,z
1/2-x,1/2+y,-z
loop_
_atom_site_type_symbol
_atom_site_label
_atom_site_fract_x
_atom_site_fract_y
_atom_site_fract_z
Si Si1 0.656499 0.770760 0.875245
Si Si2 0.781055 0.849182 0.643541
Si Si3 0.500000 0.140585 0.000000
Si Si4 0.001738 0.377411 0.646117
Si Si5 0.755702 0.852438 0.412477
Si Si6 0.000000 0.638545 0.500000
Si Si7 0.978961 0.031287 0.907736
Si Si8 0.495205 0.380811 0.281969
O O1 0.762024 0.813276 0.746977
O O2 0.562005 0.734469 0.880214
O O3 0.632384 0.581246 0.960218
O O4 0.612046 0.018133 0.943146
O O5 0.732176 0.604362 0.642865
O O6 0.909146 0.812482 0.533725
O O7 0.741787 0.105069 0.639257
O O8 0.465047 0.298011 0.097317
O O9 0.135577 0.363858 0.540347
O O10 0.960346 0.459527 0.595506
O O11 0.968203 0.605294 0.725167
O O12 0.966493 0.106485 0.695558
O O13 0.862195 0.857156 0.384695
O O14 0.972765 0.978299 0.825341
#
# Coordination Sequence:
#
# PCOD9129060 Si02
#       8
#     4   4   2   4   4   2   4   4
#     4   9  18  32  54  90 121 167 195 254 315 380
#     4  11  22  38  66  86 126 167 214 264 299 370
#     4   8  16  30  54  82 132 160 182 248 316 400
#     4  11  25  39  61  84 123 169 211 264 309 371
#     4  11  22  38  60  93 124 157 205 261 331 387
#     4  10  26  48  62  88 122 176 240 254 302 378
#     4   9  19  31  54  89 131 151 205 240 334 397
#     4  12  22  37  62  93 127 161 195 265 335 384
#
# _framework density 23.483297
#
# number of rings (size 3 to 8) (size 9 to 14) (size 15 to 20)
#    0.000    2.000    1.429    4.286    6.000    5.143 
#    0.000    0.000    0.000    1.714    0.000    0.000 
#    0.000    0.000    0.000    0.000    0.000    0.000 
#
# Total GULP energy -77970.193610 kJ/mol
# GULP energy per Si atom -5569.299544 kJ/mol
# Density = 2.342985 g / cm^3
# Si number density = 23.483297 Si / 1000 Ang^3
#
#
#
# Elastic Constant Matrix: (Units=GPa)
#
#
# Indices 1 2 3 4 5 6 
#
# 1 45.0670 28.1161 -0.4663 -0.0032 17.7987 -0.0013
# 2 28.1161 153.4857 35.3601 -0.0032 8.8928 0.0047
# 3 -0.4663 35.3601 86.3295 -0.0032 28.9162 0.0060
# 4 -0.0032 -0.0032 -0.0032 18.2320 0.0032 6.4052
# 5 17.7987 8.8928 28.9162 0.0032 23.6501 -0.0005
# 6 -0.0013 0.0047 0.0060 6.4052 -0.0005 22.9134
#
#
#
# Elastic Compliance Matrix: (Units=1/GPa)
#
#
# Indices 1 2 3 4 5 6 
#
# 1 0.068812 -0.015963 0.037675 0.000038 -0.091848 -0.000015
# 2 -0.015963 0.010930 -0.012211 -0.000008 0.022834 0.000003
# 3 0.037675 -0.012211 0.041912 0.000031 -0.075006 -0.000017
# 4 0.000038 -0.000008 0.000031 0.060822 -0.000072 -0.017002
# 5 -0.091848 0.022834 -0.075006 -0.000072 0.194528 0.000034
# 6 -0.000015 0.000003 -0.000017 -0.017002 0.000034 0.048395
#
#
# Mechanical properties :
#
#
# Convention : Reuss Voigt Hill
#
# Bulk Modulus (GPa) = 7.10961 45.65577 26.38269
# Shear Modulus (GPa) = 11.03062 27.75061 19.39061
#
# Velocity S-wave (km/s) = 2.16966 3.44134 2.87665
# Velocity P-wave (km/s) = 3.05134 5.93923 4.72150
#
# Compressibility (1/GPa) = 0.14065463
#
# Stress axis : x y z
#
# Youngs Moduli (GPa) = 14.53228 91.49334 23.85938
#
# Poissons Ratio (x) = 1.46054 -0.89890
# Poissons Ratio (y) = 0.23198 0.29136
# Poissons Ratio (z) = -0.54750 1.11726
#
# Static dielectric constant tensor:
#      x y z
#    x 1.918330 0.000000 -0.007220 
#    y 0.000000 1.971310 0.000000 
#    z -0.007220 0.000000 2.009780 
# 
# From -- ./inp_files/62594.got.cif
#   From: 2010.05.17/outbox.cif.g08.bks.cpg/sg5_32_cif.got.tgz:62594.got - 2010.06.03 18:56:24.
