data_PCOD9129571
_publ_section_title
;
Structure prediction by ZEFSAII (Michael W. Deem and Ramdas Pophale) SiO2 
 PCOD9129571
Probable space group: C 2
;
_chemical_formula_sum "Si O2"
_cell_formula_units_Z 28
_cell_length_a 14.324874
_cell_length_b 6.169027
_cell_length_c 13.973789
_cell_angle_alpha 90.000000
_cell_angle_beta 108.607890
_cell_angle_gamma 90.000000
_cell_volume 1170.317666
_symmetry_space_group_name_H-M "C 2"
_symmetry_group_IT_number 5
_symmetry_cell_setting 'monoclinic'
loop_
_space_group_symop_operation_xyz
x,y,z
-x,y,-z
1/2+x,1/2+y,z
1/2-x,1/2+y,-z
loop_
_atom_site_type_symbol
_atom_site_label
_atom_site_fract_x
_atom_site_fract_y
_atom_site_fract_z
Si Si1 0.785544 0.234900 0.472753
Si Si2 0.000000 0.419138 0.000000
Si Si3 0.000000 0.389612 0.500000
Si Si4 0.360862 0.318016 0.734679
Si Si5 0.818636 0.692378 0.925538
Si Si6 0.992830 0.156260 0.812504
Si Si7 0.952230 0.550412 0.283402
Si Si8 0.172472 0.853093 0.876568
O O1 0.748782 0.482729 0.504388
O O2 0.904269 0.254726 0.504414
O O3 0.736746 0.255267 0.351899
O O4 0.088693 0.570443 0.998043
O O5 0.035284 0.282644 0.101381
O O6 0.962193 0.537704 0.399898
O O7 0.401321 0.557409 0.725916
O O8 0.354595 0.327744 0.847566
O O9 0.448115 0.158707 0.727338
O O10 0.745550 0.522828 0.854160
O O11 0.774078 0.800469 0.005093
O O12 0.049726 0.311178 0.759300
O O13 0.070756 0.973778 0.868727
O O14 0.858345 0.671124 0.208233
#
# Coordination Sequence:
#
# PCOD9129571 Si02
#       8
#     4   2   2   4   4   4   4   4
#     4  12  29  55  84 121 162 217 275 347 415 494
#     4  12  20  40  72  92 140 192 244 298 390 452
#     4  12  28  50  86 112 164 208 274 348 408 484
#     4  11  25  46  75 107 153 196 264 319 403 474
#     4  12  24  44  67 107 145 199 242 316 381 474
#     4  11  22  43  71 101 141 194 243 318 379 472
#     4  11  24  50  70 110 144 199 256 323 395 469
#     4  11  26  42  68 105 153 187 254 307 390 472
#
# _framework density 23.925129999999999
#
# number of rings (size 3 to 8) (size 9 to 14) (size 15 to 20)
#    0.000    0.571    4.286    3.429    2.000    2.857 
#    2.571    0.000    0.000    0.000    0.000    0.000 
#    0.000    0.000    0.000    0.000    0.000    0.000 
#
# Total GULP energy -78120.231132 kJ/mol
# GULP energy per Si atom -5580.016509 kJ/mol
# Density = 2.387068 g / cm^3
# Si number density = 23.925130 Si / 1000 Ang^3
#
#
#
# Elastic Constant Matrix: (Units=GPa)
#
#
# Indices 1 2 3 4 5 6 
#
# 1 81.4287 28.4485 5.4937 0.0000 15.1489 0.0000
# 2 28.4485 92.4987 31.5322 0.0000 -12.1973 0.0000
# 3 5.4937 31.5322 130.7492 0.0000 -17.1090 0.0000
# 4 0.0000 0.0000 0.0000 27.9726 0.0000 1.3413
# 5 15.1489 -12.1973 -17.1090 0.0000 24.4981 0.0000
# 6 0.0000 0.0000 0.0000 1.3413 0.0000 32.2972
#
#
#
# Elastic Compliance Matrix: (Units=1/GPa)
#
#
# Indices 1 2 3 4 5 6 
#
# 1 0.017637 -0.007074 -0.001016 0.000000 -0.015138 0.000000
# 2 -0.007074 0.015037 -0.001956 0.000000 0.010495 0.000000
# 3 -0.001016 -0.001956 0.008934 0.000000 0.005894 0.000000
# 4 0.000000 0.000000 0.000000 0.035821 0.000000 -0.001488
# 5 -0.015138 0.010495 0.005894 0.000000 0.059522 0.000000
# 6 0.000000 0.000000 0.000000 -0.001488 0.000000 0.031024
#
#
# Mechanical properties :
#
#
# Convention : Reuss Voigt Hill
#
# Bulk Modulus (GPa) = 46.47639 48.40281 47.43960
# Shear Modulus (GPa) = 25.60972 32.90040 29.25506
#
# Velocity S-wave (km/s) = 3.27526 3.71231 3.50061
# Velocity P-wave (km/s) = 5.81129 6.21690 6.01751
#
# Compressibility (1/GPa) = 0.02151630
#
# Stress axis : x y z
#
# Youngs Moduli (GPa) = 56.69928 66.50090 111.93446
#
# Poissons Ratio (x) = 0.47044 0.11371
# Poissons Ratio (y) = 0.40110 0.21893
# Poissons Ratio (z) = 0.05760 0.13007
#
# Static dielectric constant tensor:
#      x y z
#    x 1.923440 0.000000 0.041130 
#    y 0.000000 2.045820 0.000000 
#    z 0.041130 0.000000 1.928440 
# 
# From -- ./inp_files/55261.got.cif
#   From: 2010.05.17/outbox.cif.g08.bks.cpg/sg5_28_cif.got.tgz:55261.got - 2010.06.03 18:56:24.
