data_PCOD9129360
_publ_section_title
;
Structure prediction by ZEFSAII (Michael W. Deem and Ramdas Pophale) SiO2 
 PCOD9129360
Probable space group: C 2
;
_chemical_formula_sum "Si O2"
_cell_formula_units_Z 26
_cell_length_a 18.017075
_cell_length_b 6.495180
_cell_length_c 10.930126
_cell_angle_alpha 90.000000
_cell_angle_beta 111.275675
_cell_angle_gamma 90.000000
_cell_volume 1191.912829
_symmetry_space_group_name_H-M "C 2"
_symmetry_group_IT_number 5
_symmetry_cell_setting 'monoclinic'
loop_
_space_group_symop_operation_xyz
x,y,z
-x,y,-z
1/2+x,1/2+y,z
1/2-x,1/2+y,-z
loop_
_atom_site_type_symbol
_atom_site_label
_atom_site_fract_x
_atom_site_fract_y
_atom_site_fract_z
Si Si1 0.931966 0.023140 0.287669
Si Si2 0.129802 0.256309 0.963064
Si Si3 0.350103 0.048200 0.812739
Si Si4 0.000000 0.356314 0.500000
Si Si5 0.924287 0.705612 0.619155
Si Si6 0.249414 0.434908 0.841862
Si Si7 0.202810 0.786816 0.652172
O O1 0.931220 0.120674 0.151896
O O2 0.942062 0.208901 0.388935
O O3 0.852609 0.897024 0.277215
O O4 0.005891 0.871689 0.348005
O O5 0.177524 0.385598 0.889746
O O6 0.107146 0.410841 0.058191
O O7 0.191981 0.096371 0.058617
O O8 0.407436 0.148674 0.748235
O O9 0.297631 0.228285 0.842281
O O10 0.286609 0.904022 0.703037
O O11 0.953076 0.503849 0.564114
O O12 0.846470 0.790624 0.502512
O O13 0.217808 0.552970 0.703487
#
# Coordination Sequence:
#
# PCOD9129360 Si02
#       7
#     4   4   4   2   4   4   4
#     4  12  24  45  75 100 143 191 247 290 367 450
#     4  11  22  42  71 102 136 189 242 294 359 434
#     4  11  27  42  69 109 143 182 245 304 362 424
#     4  12  24  46  72  94 140 192 240 298 364 448
#     4  12  27  45  67 110 146 183 244 303 376 431
#     4  11  21  41  73 100 134 179 249 299 353 424
#     4  11  23  42  71 106 132 189 235 304 361 436
#
# _framework density 21.813675
#
# number of rings (size 3 to 8) (size 9 to 14) (size 15 to 20)
#    0.000    0.615    6.154    1.846    2.154    2.462 
#    0.000    4.615    0.000    0.000    0.000    0.000 
#    0.000    0.000    0.000    0.000    0.000    0.000 
#
# Total GULP energy -72760.597678 kJ/mol
# GULP energy per Si atom -5596.969052 kJ/mol
# Density = 2.176403 g / cm^3
# Si number density = 21.813675 Si / 1000 Ang^3
#
#
#
# Elastic Constant Matrix: (Units=GPa)
#
#
# Indices 1 2 3 4 5 6 
#
# 1 30.3993 11.7750 13.1150 0.0000 -13.0116 0.0000
# 2 11.7750 95.9420 31.7397 0.0000 4.0373 0.0000
# 3 13.1150 31.7397 83.6464 0.0000 0.1356 0.0000
# 4 0.0000 0.0000 0.0000 47.4014 0.0000 -9.3652
# 5 -13.0116 4.0373 0.1356 0.0000 31.1221 0.0000
# 6 0.0000 0.0000 0.0000 -9.3652 0.0000 11.5169
#
#
#
# Elastic Compliance Matrix: (Units=1/GPa)
#
#
# Indices 1 2 3 4 5 6 
#
# 1 0.045402 -0.004610 -0.005401 0.000000 0.019603 0.000000
# 2 -0.004610 0.012460 -0.003999 0.000000 -0.003527 0.000000
# 3 -0.005401 -0.003999 0.014322 0.000000 -0.001802 0.000000
# 4 0.000000 0.000000 0.000000 0.025135 0.000000 0.020439
# 5 0.019603 -0.003527 -0.001802 0.000000 0.040793 0.000000
# 6 0.000000 0.000000 0.000000 0.020439 0.000000 0.103449
#
#
# Mechanical properties :
#
#
# Convention : Reuss Voigt Hill
#
# Bulk Modulus (GPa) = 22.64331 35.91635 29.27983
# Shear Modulus (GPa) = 17.58683 28.23196 22.90939
#
# Velocity S-wave (km/s) = 2.84250 3.60145 3.24424
# Velocity P-wave (km/s) = 4.60173 5.81332 5.24264
#
# Compressibility (1/GPa) = 0.04416316
#
# Stress axis : x y z
#
# Youngs Moduli (GPa) = 22.02537 80.25477 69.82045
#
# Poissons Ratio (x) = 0.37001 0.37710
# Poissons Ratio (y) = 0.10155 0.27925
# Poissons Ratio (z) = 0.11896 0.32098
#
# Static dielectric constant tensor:
#      x y z
#    x 1.752800 0.000000 0.013530 
#    y 0.000000 1.776940 0.000000 
#    z 0.013530 0.000000 1.817890 
# 
# From -- ./inp_files/45540.got.cif
#   From: 2010.05.17/outbox.cif.g08.bks.cpg/sg5_23_cif.got.tgz:45540.got - 2010.06.03 18:56:24.
