data_PCOD9129928
_publ_section_title
;
Structure prediction by ZEFSAII (Michael W. Deem and Ramdas Pophale) SiO2 
 PCOD9129928
Probable space group: C 2
;
_chemical_formula_sum "Si O2"
_cell_formula_units_Z 26
_cell_length_a 30.374741
_cell_length_b 5.243890
_cell_length_c 20.839604
_cell_angle_alpha 90.000000
_cell_angle_beta 160.646740
_cell_angle_gamma 90.000000
_cell_volume 1100.011125
_symmetry_space_group_name_H-M "C 2"
_symmetry_group_IT_number 5
_symmetry_cell_setting 'monoclinic'
loop_
_space_group_symop_operation_xyz
x,y,z
-x,y,-z
1/2+x,1/2+y,z
1/2-x,1/2+y,-z
loop_
_atom_site_type_symbol
_atom_site_label
_atom_site_fract_x
_atom_site_fract_y
_atom_site_fract_z
Si Si1 0.333619 0.291410 0.041076
Si Si2 0.568525 0.965374 0.403042
Si Si3 0.435569 0.596148 0.297507
Si Si4 0.500000 0.210945 0.500000
Si Si5 0.103535 0.681580 0.015905
Si Si6 0.668527 0.972216 0.398100
Si Si7 0.738385 0.158650 0.738549
O O1 0.416707 0.056031 0.185290
O O2 0.373894 0.507957 0.145417
O O3 0.387062 0.298021 0.043065
O O4 0.176977 0.267816 0.825466
O O5 0.619115 0.904382 0.402109
O O6 0.656606 0.179413 0.559327
O O7 0.564087 0.746102 0.450573
O O8 0.456579 0.382485 0.379567
O O9 0.632049 0.089474 0.649294
O O10 0.953085 0.577598 0.812564
O O11 0.193338 0.427105 0.148306
O O12 0.156433 0.927309 0.127325
O O13 0.767354 0.213036 0.539892
#
# Coordination Sequence:
#
# PCOD9129928 Si02
#       7
#     4   4   4   2   4   4   4
#     4  11  24  38  65  98 143 195 245 292 348 434
#     4  11  27  43  72 100 149 192 246 310 369 441
#     4  12  24  43  62 108 146 209 246 298 357 441
#     4  12  26  40  66 102 166 210 244 278 356 456
#     4  11  27  45  74 103 145 186 245 308 366 436
#     4  11  27  53  81 107 135 187 254 326 393 438
#     4  12  26  45  66 109 151 198 238 287 362 439
#
# _framework density 23.636123000000001
#
# number of rings (size 3 to 8) (size 9 to 14) (size 15 to 20)
#    0.000    0.615    4.615    1.846   12.923    0.615 
#    0.000    4.615    0.000    0.000    0.000    0.000 
#    0.000    0.000    0.000    0.000    0.000    0.000 
#
# Total GULP energy -72582.786142 kJ/mol
# GULP energy per Si atom -5583.291242 kJ/mol
# Density = 2.358233 g / cm^3
# Si number density = 23.636123 Si / 1000 Ang^3
#
#
#
# Elastic Constant Matrix: (Units=GPa)
#
#
# Indices 1 2 3 4 5 6 
#
# 1 32.7735 19.3675 15.9401 -0.0005 5.2659 0.0004
# 2 19.3675 85.9180 16.8814 -0.0011 3.3456 0.0006
# 3 15.9401 16.8814 69.5544 -0.0011 -0.3875 0.0007
# 4 -0.0005 -0.0011 -0.0011 24.0854 0.0003 19.5621
# 5 5.2659 3.3456 -0.3875 0.0003 34.2977 -0.0002
# 6 0.0004 0.0006 0.0007 19.5621 -0.0002 16.9779
#
#
#
# Elastic Compliance Matrix: (Units=1/GPa)
#
#
# Indices 1 2 3 4 5 6 
#
# 1 0.039159 -0.007191 -0.007259 0.000006 -0.005393 -0.000008
# 2 -0.007191 0.013594 -0.001653 0.000010 -0.000241 -0.000012
# 3 -0.007259 -0.001653 0.016450 0.000013 0.001462 -0.000016
# 4 0.000006 0.000010 0.000013 0.646895 -0.000013 -0.745357
# 5 -0.005393 -0.000241 0.001462 -0.000013 0.030024 0.000016
# 6 -0.000008 -0.000012 -0.000016 -0.745357 0.000016 0.917705
#
#
# Mechanical properties :
#
#
# Convention : Reuss Voigt Hill
#
# Bulk Modulus (GPa) = 27.02858 32.51378 29.77118
# Shear Modulus (GPa) = 2.92677 24.14265 13.53471
#
# Velocity S-wave (km/s) = 1.11398 3.19945 2.39556
# Velocity P-wave (km/s) = 3.62142 5.23779 4.50273
#
# Compressibility (1/GPa) = 0.03699787
#
# Stress axis : x y z
#
# Youngs Moduli (GPa) = 25.53688 73.56145 60.78991
#
# Poissons Ratio (x) = 0.52897 0.44127
# Poissons Ratio (y) = 0.18363 0.10047
# Poissons Ratio (z) = 0.18537 0.12158
#
# Static dielectric constant tensor:
#      x y z
#    x 1.836710 0.000000 0.003070 
#    y 0.000000 1.984640 0.000000 
#    z 0.003070 0.000000 2.018910 
# 
# From -- ./inp_files/67690.got.cif
#   From: 2010.05.17/outbox.cif.g08.bks.cpg/sg5_34_cif.got.tgz:67690.got - 2010.06.03 18:56:24.
