data_PCOD9129195
_publ_section_title
;
Structure prediction by ZEFSAII (Michael W. Deem and Ramdas Pophale) SiO2 
 PCOD9129195
Probable space group: C 2
;
_chemical_formula_sum "Si O2"
_cell_formula_units_Z 32
_cell_length_a 29.989336
_cell_length_b 8.259192
_cell_length_c 6.615566
_cell_angle_alpha 90.000000
_cell_angle_beta 78.254823
_cell_angle_gamma 90.000000
_cell_volume 1604.286336
_symmetry_space_group_name_H-M "C 2"
_symmetry_group_IT_number 5
_symmetry_cell_setting 'monoclinic'
loop_
_space_group_symop_operation_xyz
x,y,z
-x,y,-z
1/2+x,1/2+y,z
1/2-x,1/2+y,-z
loop_
_atom_site_type_symbol
_atom_site_label
_atom_site_fract_x
_atom_site_fract_y
_atom_site_fract_z
Si Si1 0.131852 0.366180 0.613044
Si Si2 0.876732 0.993716 0.472861
Si Si3 0.394770 0.265573 0.809711
Si Si4 0.789690 0.792360 0.430123
Si Si5 0.545598 0.061754 0.566322
Si Si6 0.285421 0.014670 0.700933
Si Si7 0.819723 0.536809 0.079159
Si Si8 0.045162 0.856738 0.861994
O O1 0.135400 0.180033 0.546693
O O2 0.080737 0.433055 0.628784
O O3 0.165357 0.465597 0.434424
O O4 0.151002 0.407091 0.819492
O O5 0.880048 0.924372 0.697037
O O6 0.837923 0.882339 0.406315
O O7 0.924932 0.963038 0.318185
O O8 0.425620 0.160819 0.628022
O O9 0.353544 0.156166 0.926679
O O10 0.422967 0.312559 0.980230
O O11 0.751864 0.912987 0.385307
O O12 0.778013 0.702877 0.651160
O O13 0.794281 0.647822 0.264983
O O14 0.500000 0.997563 0.500000
O O15 0.532684 0.193611 0.749599
O O16 0.286215 0.974092 0.936667
O O17 0.000000 0.932471 0.000000
#
# Coordination Sequence:
#
# PCOD9129195 Si02
#       8
#     4   4   4   4   4   4   4   4
#     4  11  24  42  60  94 131 163 209 264 320 381
#     4  11  24  40  61  92 131 164 204 267 323 372
#     4  11  19  41  66  86 120 166 209 255 312 371
#     4  11  23  40  63  92 124 162 211 261 315 383
#     4  11  21  37  65  91 119 164 211 258 317 376
#     4  11  23  42  65  90 127 166 205 262 318 380
#     4  11  21  42  68  88 122 168 215 257 315 382
#     4  11  21  39  65  91 119 164 216 256 304 385
#
# _framework density 19.946566000000001
#
# number of rings (size 3 to 8) (size 9 to 14) (size 15 to 20)
#    0.000    1.000    6.250    2.250    0.000    4.000 
#    4.500    0.625    0.000    0.000    0.000    0.000 
#    0.000    0.000    0.000    0.000    0.000    0.000 
#
# Total GULP energy -89354.878047 kJ/mol
# GULP energy per Si atom -5584.679878 kJ/mol
# Density = 1.990117 g / cm^3
# Si number density = 19.946566 Si / 1000 Ang^3
#
#
#
# Elastic Constant Matrix: (Units=GPa)
#
#
# Indices 1 2 3 4 5 6 
#
# 1 75.3459 6.8408 9.5717 0.0000 12.1189 0.0000
# 2 6.8408 69.5056 14.9481 0.0000 10.5531 0.0000
# 3 9.5717 14.9481 92.4065 0.0000 16.6241 0.0000
# 4 0.0000 0.0000 0.0000 20.4727 0.0000 6.9220
# 5 12.1189 10.5531 16.6241 0.0000 31.3874 0.0000
# 6 0.0000 0.0000 0.0000 6.9220 0.0000 25.2563
#
#
#
# Elastic Compliance Matrix: (Units=1/GPa)
#
#
# Indices 1 2 3 4 5 6 
#
# 1 0.014193 -0.000528 -0.000476 0.000000 -0.005050 0.000000
# 2 -0.000528 0.015426 -0.001707 0.000000 -0.004079 0.000000
# 3 -0.000476 -0.001707 0.012171 0.000000 -0.005688 0.000000
# 4 0.000000 0.000000 0.000000 0.053834 0.000000 -0.014754
# 5 -0.005050 -0.004079 -0.005688 0.000000 0.038194 0.000000
# 6 0.000000 0.000000 0.000000 -0.014754 0.000000 0.043638
#
#
# Mechanical properties :
#
#
# Convention : Reuss Voigt Hill
#
# Bulk Modulus (GPa) = 27.49716 33.33103 30.41410
# Shear Modulus (GPa) = 25.64114 29.14976 27.39545
#
# Velocity S-wave (km/s) = 3.58926 3.82696 3.71002
# Velocity P-wave (km/s) = 5.56708 6.02279 5.79941
#
# Compressibility (1/GPa) = 0.03636739
#
# Stress axis : x y z
#
# Youngs Moduli (GPa) = 70.45803 64.82720 82.16576
#
# Poissons Ratio (x) = 0.03421 0.03913
# Poissons Ratio (y) = 0.03718 0.14025
# Poissons Ratio (z) = 0.03355 0.11065
#
# Static dielectric constant tensor:
#      x y z
#    x 1.726730 0.000000 0.016700 
#    y 0.000000 1.685790 0.000000 
#    z 0.016700 0.000000 1.726760 
# 
# From -- ./inp_files/11233.got.cif
#   From: 2010.05.17/outbox.cif.g08.bks.cpg/sg5_6_cif.got.tgz:11233.got - 2010.06.03 18:56:24.
