data_PCOD9129907
_publ_section_title
;
Structure prediction by ZEFSAII (Michael W. Deem and Ramdas Pophale) SiO2 
 PCOD9129907
Probable space group: C 2
;
_chemical_formula_sum "Si O2"
_cell_formula_units_Z 28
_cell_length_a 18.282158
_cell_length_b 14.327836
_cell_length_c 6.696321
_cell_angle_alpha 90.000000
_cell_angle_beta 134.560044
_cell_angle_gamma 90.000000
_cell_volume 1249.794640
_symmetry_space_group_name_H-M "C 2"
_symmetry_group_IT_number 5
_symmetry_cell_setting 'monoclinic'
loop_
_space_group_symop_operation_xyz
x,y,z
-x,y,-z
1/2+x,1/2+y,z
1/2-x,1/2+y,-z
loop_
_atom_site_type_symbol
_atom_site_label
_atom_site_fract_x
_atom_site_fract_y
_atom_site_fract_z
Si Si1 0.073011 0.241760 0.984479
Si Si2 0.000000 0.565737 0.000000
Si Si3 0.275137 0.448851 0.000336
Si Si4 0.727304 0.669791 0.971655
Si Si5 0.097089 0.735571 0.399399
Si Si6 0.930383 0.428760 0.184485
Si Si7 0.748513 0.798365 0.626724
Si Si8 0.500000 0.370019 0.500000
O O1 0.123583 0.186973 0.899846
O O2 0.160945 0.284860 0.294135
O O3 0.017697 0.332031 0.785061
O O4 0.000000 0.188257 0.000000
O O5 0.942045 0.634524 0.739811
O O6 0.070267 0.500108 0.998998
O O7 0.393051 0.426283 0.282585
O O8 0.256644 0.558978 0.988129
O O9 0.184793 0.406587 0.965454
O O10 0.254149 0.398061 0.748205
O O11 0.818353 0.719339 0.268121
O O12 0.729716 0.718850 0.760334
O O13 0.149155 0.779472 0.304379
O O14 0.012423 0.802154 0.333657
O O15 0.000000 0.465798 0.500000
#
# Coordination Sequence:
#
# PCOD9129907 Si02
#       8
#     4   2   4   4   4   4   4   2
#     4  11  24  42  67 101 138 189 235 293 372 436
#     4  12  26  38  76 110 134 186 248 308 364 446
#     4  12  25  45  74 103 143 195 237 303 366 435
#     4  11  25  46  69  99 144 191 244 304 362 441
#     4  11  25  46  71 102 141 190 246 307 370 433
#     4  12  25  44  71 109 145 183 240 312 372 433
#     4  11  23  48  71  98 144 190 242 303 364 442
#     4  12  26  50  70 104 152 190 246 298 378 432
#
# _framework density 22.403682
#
# number of rings (size 3 to 8) (size 9 to 14) (size 15 to 20)
#    0.000    0.571    3.571    4.286    5.000    1.143 
#    7.714    0.000    0.000    0.000    0.000    0.000 
#    0.000    0.000    0.000    0.000    0.000    0.000 
#
# Total GULP energy -78288.213483 kJ/mol
# GULP energy per Si atom -5592.015249 kJ/mol
# Density = 2.235269 g / cm^3
# Si number density = 22.403682 Si / 1000 Ang^3
#
#
#
# Elastic Constant Matrix: (Units=GPa)
#
#
# Indices 1 2 3 4 5 6 
#
# 1 156.1438 19.2724 20.2896 0.0000 -19.1942 0.0000
# 2 19.2724 86.0142 14.9784 0.0000 -20.0132 0.0000
# 3 20.2896 14.9784 89.8330 0.0000 -8.4223 0.0000
# 4 0.0000 0.0000 0.0000 28.6023 0.0000 -2.4911
# 5 -19.1942 -20.0132 -8.4223 0.0000 40.1298 0.0000
# 6 0.0000 0.0000 0.0000 -2.4911 0.0000 34.7471
#
#
#
# Elastic Compliance Matrix: (Units=1/GPa)
#
#
# Indices 1 2 3 4 5 6 
#
# 1 0.006985 -0.000721 -0.001202 0.000000 0.002729 0.000000
# 2 -0.000721 0.013459 -0.001514 0.000000 0.006049 0.000000
# 3 -0.001202 -0.001514 0.011762 0.000000 0.001139 0.000000
# 4 0.000000 0.000000 0.000000 0.035182 0.000000 0.002522
# 5 0.002729 0.006049 0.001139 0.000000 0.029481 0.000000
# 6 0.000000 0.000000 0.000000 0.002522 0.000000 0.028960
#
#
# Mechanical properties :
#
#
# Convention : Reuss Voigt Hill
#
# Bulk Modulus (GPa) = 39.47391 49.00798 44.24094
# Shear Modulus (GPa) = 35.42431 39.19253 37.30842
#
# Velocity S-wave (km/s) = 3.98072 4.18710 4.08521
# Velocity P-wave (km/s) = 6.22783 6.73039 6.48398
#
# Compressibility (1/GPa) = 0.02533319
#
# Stress axis : x y z
#
# Youngs Moduli (GPa) = 143.16494 74.30134 85.01679
#
# Poissons Ratio (x) = 0.05356 0.10215
# Poissons Ratio (y) = 0.10319 0.12872
# Poissons Ratio (z) = 0.17202 0.11250
#
# Static dielectric constant tensor:
#      x y z
#    x 1.857010 0.000000 0.015590 
#    y 0.000000 1.805120 0.000000 
#    z 0.015590 0.000000 1.850550 
# 
# From -- ./inp_files/8720.got.cif
#   From: 2010.05.17/outbox.cif.g08.bks.cpg/sg5_5_cif.got.tgz:8720.got - 2010.06.03 18:56:24.
