data_PCOD9129261
_publ_section_title
;
Structure prediction by ZEFSAII (Michael W. Deem and Ramdas Pophale) SiO2 
 PCOD9129261
Probable space group: C 2
;
_chemical_formula_sum "Si O2"
_cell_formula_units_Z 30
_cell_length_a 10.771407
_cell_length_b 14.338513
_cell_length_c 8.896863
_cell_angle_alpha 90.000000
_cell_angle_beta 87.177149
_cell_angle_gamma 90.000000
_cell_volume 1372.417193
_symmetry_space_group_name_H-M "C 2"
_symmetry_group_IT_number 5
_symmetry_cell_setting 'monoclinic'
loop_
_space_group_symop_operation_xyz
x,y,z
-x,y,-z
1/2+x,1/2+y,z
1/2-x,1/2+y,-z
loop_
_atom_site_type_symbol
_atom_site_label
_atom_site_fract_x
_atom_site_fract_y
_atom_site_fract_z
Si Si1 0.034377 0.761060 0.263724
Si Si2 0.680203 0.153964 0.892451
Si Si3 0.656114 0.573639 0.357769
Si Si4 0.449828 0.670645 0.170468
Si Si5 0.500000 0.407295 0.500000
Si Si6 0.878903 0.487737 0.908662
Si Si7 0.776701 0.314871 0.066180
Si Si8 0.794222 0.595649 0.662213
O O1 0.146526 0.808432 0.162574
O O2 0.108607 0.680543 0.347217
O O3 0.933421 0.708376 0.171656
O O4 0.962590 0.835866 0.370632
O O5 0.741460 0.079127 0.778248
O O6 0.772890 0.234327 0.939832
O O7 0.640629 0.093397 0.035754
O O8 0.549211 0.642529 0.295020
O O9 0.593913 0.476265 0.408584
O O10 0.731992 0.596987 0.502785
O O11 0.393738 0.777025 0.160242
O O12 0.326968 0.613200 0.225053
O O13 0.500000 0.643763 0.000000
O O14 0.863717 0.504588 0.730067
O O15 0.785310 0.411592 0.978809
O O16 0.000000 0.460534 0.000000
#
# Coordination Sequence:
#
# PCOD9129261 Si02
#       8
#     4   4   4   4   2   4   4   4
#     4  11  24  46  68 103 147 191 243 300 368 437
#     4  12  23  46  73 103 146 195 241 304 368 437
#     4  12  25  42  69 105 145 190 242 297 374 430
#     4  11  20  42  68 102 143 188 234 300 367 427
#     4  12  26  44  66 108 144 188 254 296 370 442
#     4  12  23  44  72 107 145 186 254 301 366 447
#     4  11  24  40  77 109 140 189 252 306 366 432
#     4  11  23  44  68  98 146 192 233 300 369 438
#
# _framework density 21.859241000000001
#
# number of rings (size 3 to 8) (size 9 to 14) (size 15 to 20)
#    0.000    0.533    6.667    2.400    1.867    0.000 
#    0.000    0.000    0.000    0.000    0.000    0.000 
#    0.000    0.000    0.000    0.000    0.000    0.000 
#
# Total GULP energy -83521.229695 kJ/mol
# GULP energy per Si atom -5568.081980 kJ/mol
# Density = 2.180949 g / cm^3
# Si number density = 21.859241 Si / 1000 Ang^3
#
#
#
# Elastic Constant Matrix: (Units=GPa)
#
#
# Indices 1 2 3 4 5 6 
#
# 1 71.0202 18.7960 37.6179 0.0000 28.0306 0.0000
# 2 18.7960 103.0365 32.3538 0.0000 11.5268 0.0000
# 3 37.6179 32.3538 97.3537 0.0000 17.2118 0.0000
# 4 0.0000 0.0000 0.0000 38.8560 0.0000 -11.0867
# 5 28.0306 11.5268 17.2118 0.0000 47.1304 0.0000
# 6 0.0000 0.0000 0.0000 -11.0867 0.0000 9.4148
#
#
#
# Elastic Compliance Matrix: (Units=1/GPa)
#
#
# Indices 1 2 3 4 5 6 
#
# 1 0.021747 -0.000827 -0.006283 0.000000 -0.010437 0.000000
# 2 -0.000827 0.010958 -0.003138 0.000000 -0.001042 0.000000
# 3 -0.006283 -0.003138 0.013840 0.000000 -0.000550 0.000000
# 4 0.000000 0.000000 0.000000 0.038759 0.000000 0.045642
# 5 -0.010437 -0.001042 -0.000550 0.000000 0.027881 0.000000
# 6 0.000000 0.000000 0.000000 0.045642 0.000000 0.159964
#
#
# Mechanical properties :
#
#
# Convention : Reuss Voigt Hill
#
# Bulk Modulus (GPa) = 38.38909 49.88287 44.13598
# Shear Modulus (GPa) = 16.53843 31.25642 23.89743
#
# Velocity S-wave (km/s) = 2.75360 3.78550 3.31001
# Velocity P-wave (km/s) = 5.26401 6.47891 5.90280
#
# Compressibility (1/GPa) = 0.02604906
#
# Stress axis : x y z
#
# Youngs Moduli (GPa) = 45.98430 91.25715 72.25584
#
# Poissons Ratio (x) = 0.07543 0.45399
# Poissons Ratio (y) = 0.03801 0.22674
# Poissons Ratio (z) = 0.28892 0.28637
#
# Static dielectric constant tensor:
#      x y z
#    x 1.922590 0.000000 0.022000 
#    y 0.000000 1.784610 0.000000 
#    z 0.022000 0.000000 1.871360 
# 
# From -- ./inp_files/20393.got.cif
#   From: 2010.05.17/outbox.cif.g08.bks.cpg/sg5_11_cif.got.tgz:20393.got - 2010.06.03 18:56:24.
