data_PCOD9129536
_publ_section_title
;
Structure prediction by ZEFSAII (Michael W. Deem and Ramdas Pophale) SiO2 
 PCOD9129536
Probable space group: C 2
;
_chemical_formula_sum "Si O2"
_cell_formula_units_Z 32
_cell_length_a 12.295379
_cell_length_b 10.984076
_cell_length_c 12.567658
_cell_angle_alpha 90.000000
_cell_angle_beta 116.822381
_cell_angle_gamma 90.000000
_cell_volume 1514.691018
_symmetry_space_group_name_H-M "C 2"
_symmetry_group_IT_number 5
_symmetry_cell_setting 'monoclinic'
loop_
_space_group_symop_operation_xyz
x,y,z
-x,y,-z
1/2+x,1/2+y,z
1/2-x,1/2+y,-z
loop_
_atom_site_type_symbol
_atom_site_label
_atom_site_fract_x
_atom_site_fract_y
_atom_site_fract_z
Si Si1 0.137023 0.428590 0.709269
Si Si2 0.727167 0.335334 0.435257
Si Si3 0.028724 0.031034 0.394472
Si Si4 0.585421 0.771014 0.326728
Si Si5 0.001212 0.690267 0.626881
Si Si6 0.123413 0.252800 0.109554
Si Si7 0.343778 0.402178 0.189367
Si Si8 0.644855 0.496460 0.041834
O O1 0.177188 0.363003 0.616937
O O2 0.068214 0.559056 0.663534
O O3 0.261406 0.441902 0.831312
O O4 0.036660 0.349055 0.726459
O O5 0.631232 0.445876 0.389232
O O6 0.797729 0.343084 0.578909
O O7 0.639072 0.215211 0.396422
O O8 0.073322 0.167537 0.410078
O O9 0.000000 0.991067 0.500000
O O10 0.906359 0.016615 0.272410
O O11 0.603379 0.707344 0.221079
O O12 0.080142 0.786087 0.731559
O O13 0.000000 0.719367 0.500000
O O14 0.207955 0.368713 0.159931
O O15 0.173895 0.141632 0.060674
O O16 0.000000 0.290832 0.000000
O O17 0.341410 0.428761 0.063641
O O18 0.500000 0.489469 0.000000
#
# Coordination Sequence:
#
# PCOD9129536 Si02
#       8
#     4   4   4   4   4   4   4   4
#     4  12  25  45  69 107 144 190 241 297 368 438
#     4  11  24  41  69 103 142 184 236 293 363 434
#     4  11  23  41  64  99 139 181 235 291 358 428
#     4  12  25  42  67 101 141 181 232 297 362 437
#     4  11  23  43  73 105 144 191 237 295 364 440
#     4  11  22  42  67  95 128 180 229 285 355 425
#     4  11  22  42  69  99 129 180 237 288 355 433
#     4  11  23  42  72  97 135 183 235 294 356 433
#
# _framework density 21.12642
#
# number of rings (size 3 to 8) (size 9 to 14) (size 15 to 20)
#    0.000    0.750    1.250    9.375    3.500    0.000 
#    2.250    0.000    2.750    0.000    0.000    0.000 
#    0.000    0.000    0.000    0.000    0.000    0.000 
#
# Total GULP energy -89290.324372 kJ/mol
# GULP energy per Si atom -5580.645273 kJ/mol
# Density = 2.107833 g / cm^3
# Si number density = 21.126420 Si / 1000 Ang^3
#
#
#
# Elastic Constant Matrix: (Units=GPa)
#
#
# Indices 1 2 3 4 5 6 
#
# 1 58.5216 18.1632 27.7345 0.0000 12.7085 0.0000
# 2 18.1632 66.3942 23.9465 0.0000 -5.1199 0.0000
# 3 27.7345 23.9465 124.7422 0.0000 9.0990 0.0000
# 4 0.0000 0.0000 0.0000 25.5391 0.0000 -0.6737
# 5 12.7085 -5.1199 9.0990 0.0000 43.9765 0.0000
# 6 0.0000 0.0000 0.0000 -0.6737 0.0000 25.5267
#
#
#
# Elastic Compliance Matrix: (Units=1/GPa)
#
#
# Indices 1 2 3 4 5 6 
#
# 1 0.021626 -0.005177 -0.003365 0.000000 -0.006156 0.000000
# 2 -0.005177 0.017711 -0.002547 0.000000 0.004085 0.000000
# 3 -0.003365 -0.002547 0.009345 0.000000 -0.001258 0.000000
# 4 0.000000 0.000000 0.000000 0.039183 0.000000 0.001034
# 5 -0.006156 0.004085 -0.001258 0.000000 0.025254 0.000000
# 6 0.000000 0.000000 0.000000 0.001034 0.000000 0.039202
#
#
# Mechanical properties :
#
#
# Convention : Reuss Voigt Hill
#
# Bulk Modulus (GPa) = 37.72979 43.26072 40.49525
# Shear Modulus (GPa) = 27.27232 30.99605 29.13419
#
# Velocity S-wave (km/s) = 3.59682 3.83452 3.71757
# Velocity P-wave (km/s) = 5.92852 6.33453 6.13488
#
# Compressibility (1/GPa) = 0.02650426
#
# Stress axis : x y z
#
# Youngs Moduli (GPa) = 46.23996 56.46056 107.00402
#
# Poissons Ratio (x) = 0.29230 0.36011
# Poissons Ratio (y) = 0.23939 0.27254
# Poissons Ratio (z) = 0.15562 0.14380
#
# Static dielectric constant tensor:
#      x y z
#    x 1.806460 0.000000 -0.004850 
#    y 0.000000 1.778690 0.000000 
#    z -0.004850 0.000000 1.765810 
# 
# From -- ./inp_files/39441.got.cif
#   From: 2010.05.17/outbox.cif.g08.bks.cpg/sg5_20_cif.got.tgz:39441.got - 2010.06.03 18:56:24.
