data_PCOD9129169
_publ_section_title
;
Structure prediction by ZEFSAII (Michael W. Deem and Ramdas Pophale) SiO2 
 PCOD9129169
Probable space group: C 2
;
_chemical_formula_sum "Si O2"
_cell_formula_units_Z 22
_cell_length_a 12.549786
_cell_length_b 14.196708
_cell_length_c 9.485279
_cell_angle_alpha 90.000000
_cell_angle_beta 36.778648
_cell_angle_gamma 90.000000
_cell_volume 1011.816097
_symmetry_space_group_name_H-M "C 2"
_symmetry_group_IT_number 5
_symmetry_cell_setting 'monoclinic'
loop_
_space_group_symop_operation_xyz
x,y,z
-x,y,-z
1/2+x,1/2+y,z
1/2-x,1/2+y,-z
loop_
_atom_site_type_symbol
_atom_site_label
_atom_site_fract_x
_atom_site_fract_y
_atom_site_fract_z
Si Si1 0.500000 0.425560 0.000000
Si Si2 0.146520 0.063366 0.620502
Si Si3 0.461756 0.011961 0.707130
Si Si4 0.648909 0.215109 0.223618
Si Si5 0.000000 0.159236 0.500000
Si Si6 0.267209 0.825041 0.875365
Si Si7 0.500000 0.708335 0.000000
O O1 0.525662 0.486320 0.830559
O O2 0.677235 0.366131 0.831147
O O3 0.093188 0.094663 0.520350
O O4 0.112816 0.149408 0.764765
O O5 0.352292 0.031881 0.412090
O O6 0.500000 0.004672 0.500000
O O7 0.371792 0.912114 0.835095
O O8 0.342481 0.107100 0.841752
O O9 0.500000 0.217036 0.500000
O O10 0.608738 0.285995 0.140507
O O11 0.838569 0.251126 0.082026
O O12 0.122075 0.233062 0.284020
#
# Coordination Sequence:
#
# PCOD9129169 Si02
#       7
#     2   4   4   4   2   4   2
#     4  11  24  44  70  97 146 202 237 290 380 447
#     4  11  22  43  73 101 145 193 242 296 379 432
#     4  11  20  44  73 100 138 198 240 297 371 445
#     4  11  24  43  73 105 146 193 254 298 371 436
#     4  12  26  42  74 114 146 182 254 314 356 442
#     4  12  25  43  71 112 144 188 254 305 364 445
#     4  11  18  40  74  97 134 198 235 296 360 445
#
# _framework density 21.743082000000001
#
# number of rings (size 3 to 8) (size 9 to 14) (size 15 to 20)
#    0.000    0.727    8.182    1.091    2.545    0.000 
#    4.909    0.000    0.000    0.000    0.000    0.000 
#    0.000    0.000    0.000    0.000    0.000    0.000 
#
# Total GULP energy -61337.495599 kJ/mol
# GULP energy per Si atom -5576.135964 kJ/mol
# Density = 2.169359 g / cm^3
# Si number density = 21.743082 Si / 1000 Ang^3
#
#
#
# Elastic Constant Matrix: (Units=GPa)
#
#
# Indices 1 2 3 4 5 6 
#
# 1 142.9863 61.5181 29.0576 0.0000 -3.8327 0.0000
# 2 61.5181 118.6478 54.7927 0.0000 8.4888 0.0000
# 3 29.0576 54.7927 69.4711 -0.0001 1.8767 0.0000
# 4 0.0000 0.0000 -0.0001 25.6861 0.0001 9.4549
# 5 -3.8327 8.4888 1.8767 0.0001 37.4224 0.0000
# 6 0.0000 0.0000 0.0000 9.4549 0.0000 -1.0043
#
#
#
# Elastic Compliance Matrix: (Units=1/GPa)
#
#
# Indices 1 2 3 4 5 6 
#
# 1 0.009154 -0.004874 -0.000040 0.000000 0.002045 0.000000
# 2 -0.004874 0.016087 -0.010552 0.000000 -0.003619 0.000000
# 3 -0.000040 -0.010552 0.022700 0.000000 0.001251 0.000000
# 4 0.000000 0.000000 0.000000 0.008719 0.000000 0.082080
# 5 0.002045 -0.003619 0.001251 0.000000 0.027690 0.000000
# 6 0.000000 0.000000 0.000000 0.082080 0.000000 -0.222987
#
#
# Mechanical properties :
#
#
# Convention : Reuss Voigt Hill
#
# Bulk Modulus (GPa) = 58.79103 69.09354 63.94228
# Shear Modulus (GPa) = -49.00150 24.80331 -12.09910
#
# Velocity S-wave (km/s) = -4.75242 3.38116 -2.36149
# Velocity P-wave (km/s) = 1.73677 6.86216 4.69430
#
# Compressibility (1/GPa) = 0.01700940
#
# Stress axis : x y z
#
# Youngs Moduli (GPa) = 109.24714 62.16059 44.05356
#
# Poissons Ratio (x) = 0.30297 0.00175
# Poissons Ratio (y) = 0.53248 0.46485
# Poissons Ratio (z) = 0.00433 0.65591
#
# Static dielectric constant tensor:
#      x y z
#    x 1.840330 0.000000 -0.015410 
#    y 0.000000 1.815160 0.000000 
#    z -0.015410 0.000000 1.830070 
# 
# From -- ./inp_files/19955.got.cif
#   From: 2010.05.17/outbox.cif.g08.bks.cpg/sg5_10_cif.got.tgz:19955.got - 2010.06.03 18:56:24.
