data_PCOD9129005
_publ_section_title
;
Structure prediction by ZEFSAII (Michael W. Deem and Ramdas Pophale) SiO2 
 PCOD9129005
Probable space group: C 2
;
_chemical_formula_sum "Si O2"
_cell_formula_units_Z 16
_cell_length_a 11.700433
_cell_length_b 10.939455
_cell_length_c 5.187166
_cell_angle_alpha 90.000000
_cell_angle_beta 93.960027
_cell_angle_gamma 90.000000
_cell_volume 662.353198
_symmetry_space_group_name_H-M "C 2"
_symmetry_group_IT_number 5
_symmetry_cell_setting 'monoclinic'
loop_
_space_group_symop_operation_xyz
x,y,z
-x,y,-z
1/2+x,1/2+y,z
1/2-x,1/2+y,-z
loop_
_atom_site_type_symbol
_atom_site_label
_atom_site_fract_x
_atom_site_fract_y
_atom_site_fract_z
Si Si1 0.873310 0.240740 0.392894
Si Si2 0.796659 0.826745 0.003069
Si Si3 0.139097 0.977034 0.486787
Si Si4 0.500000 0.969690 0.500000
Si Si5 0.500000 0.134812 0.000000
O O1 0.826221 0.267955 0.097286
O O2 0.890410 0.379479 0.495795
O O3 0.000000 0.200746 0.500000
O O4 0.811624 0.116123 0.474301
O O5 0.829341 0.924646 0.787404
O O6 0.888955 0.719913 0.988664
O O7 0.813179 0.890474 0.278346
O O8 0.000000 0.965415 0.500000
O O9 0.502781 0.050867 0.751041
#
# Coordination Sequence:
#
# PCOD9129005 Si02
#       5
#     4   4   4   2   2
#     4   9  26  45  66  96 133 176 212 267 321 388
#     4  12  25  42  71  97 129 172 216 270 322 379
#     4  11  23  47  66  98 128 171 222 265 319 385
#     4  10  26  44  62  98 132 170 214 262 328 384
#     4  12  24  42  68  96 132 166 216 270 324 380
#
# _framework density 24.156295
#
# number of rings (size 3 to 8) (size 9 to 14) (size 15 to 20)
#    0.750    0.500    2.500    1.500    7.000    4.000 
#    0.000    0.000    0.000    0.000    0.000    0.000 
#    0.000    0.000    0.000    0.000    0.000    0.000 
#
# Total GULP energy -44571.716130 kJ/mol
# GULP energy per Si atom -5571.464516 kJ/mol
# Density = 2.410131 g / cm^3
# Si number density = 24.156295 Si / 1000 Ang^3
#
#
#
# Elastic Constant Matrix: (Units=GPa)
#
#
# Indices 1 2 3 4 5 6 
#
# 1 94.6136 23.0128 46.9205 0.0000 21.3831 0.0000
# 2 23.0128 185.4700 67.9324 0.0000 3.2053 0.0000
# 3 46.9205 67.9324 128.9311 0.0000 11.2273 0.0000
# 4 0.0000 0.0000 0.0000 74.1144 0.0000 60.2549
# 5 21.3831 3.2053 11.2273 0.0000 48.5435 0.0000
# 6 0.0000 0.0000 0.0000 60.2549 0.0000 58.3230
#
#
#
# Elastic Compliance Matrix: (Units=1/GPa)
#
#
# Indices 1 2 3 4 5 6 
#
# 1 0.014036 0.000068 -0.004700 0.000000 -0.005100 0.000000
# 2 0.000068 0.006688 -0.003580 0.000000 0.000356 0.000000
# 3 -0.004700 -0.003580 0.011381 0.000000 -0.000326 0.000000
# 4 0.000000 0.000000 0.000000 0.084292 0.000000 -0.087084
# 5 -0.005100 0.000356 -0.000326 0.000000 0.022899 0.000000
# 6 0.000000 0.000000 0.000000 -0.087084 0.000000 0.107115
#
#
# Mechanical properties :
#
#
# Convention : Reuss Voigt Hill
#
# Bulk Modulus (GPa) = 63.76610 76.08289 69.92450
# Shear Modulus (GPa) = 18.65247 54.27277 36.46262
#
# Velocity S-wave (km/s) = 2.78179 4.74511 3.88937
# Velocity P-wave (km/s) = 6.06402 7.84767 7.01279
#
# Compressibility (1/GPa) = 0.01568231
#
# Stress axis : x y z
#
# Youngs Moduli (GPa) = 71.24466 149.51540 87.86686
#
# Poissons Ratio (x) = -0.01015 0.41295
# Poissons Ratio (y) = -0.00484 0.31454
# Poissons Ratio (z) = 0.33483 0.53522
#
# Static dielectric constant tensor:
#      x y z
#    x 1.883680 0.000000 -0.123740 
#    y 0.000000 1.947340 0.000000 
#    z -0.123740 0.000000 1.750540 
# 
# From -- ./inp_files/6400.got.cif
#   From: 2010.05.17/outbox.cif.g08.bks.cpg/sg5_4_cif.got.tgz:6400.got - 2010.06.03 18:56:24.
