data_PCOD9129123
_publ_section_title
;
Structure prediction by ZEFSAII (Michael W. Deem and Ramdas Pophale) SiO2 
 PCOD9129123
Probable space group: C 2
;
_chemical_formula_sum "Si O2"
_cell_formula_units_Z 26
_cell_length_a 8.686509
_cell_length_b 20.828892
_cell_length_c 7.972452
_cell_angle_alpha 90.000000
_cell_angle_beta 129.696181
_cell_angle_gamma 90.000000
_cell_volume 1109.888412
_symmetry_space_group_name_H-M "C 2"
_symmetry_group_IT_number 5
_symmetry_cell_setting 'monoclinic'
loop_
_space_group_symop_operation_xyz
x,y,z
-x,y,-z
1/2+x,1/2+y,z
1/2-x,1/2+y,-z
loop_
_atom_site_type_symbol
_atom_site_label
_atom_site_fract_x
_atom_site_fract_y
_atom_site_fract_z
Si Si1 0.000000 0.898430 0.500000
Si Si2 0.825066 0.208388 0.489689
Si Si3 0.618987 0.954175 0.368234
Si Si4 0.760196 0.017831 0.817204
Si Si5 0.044737 0.785663 0.797247
Si Si6 0.043274 0.323278 0.828999
Si Si7 0.768994 0.164240 0.787251
O O1 0.195615 0.943476 0.629572
O O2 0.987594 0.847039 0.643711
O O3 0.648512 0.246540 0.275268
O O4 0.741254 0.159778 0.567461
O O5 0.000000 0.179604 0.500000
O O6 0.934248 0.261166 0.681553
O O7 0.545511 0.881252 0.337910
O O8 0.703071 0.989497 0.592812
O O9 0.405454 0.986241 0.175386
O O10 0.718601 0.093381 0.813689
O O11 0.000000 0.006630 0.000000
O O12 0.155116 0.727541 0.772231
O O13 0.220518 0.815508 0.029983
O O14 0.000000 0.331954 0.000000
O O15 0.000000 0.172466 0.000000
#
# Coordination Sequence:
#
# PCOD9129123 Si02
#       7
#     2   4   4   4   4   4   4
#     4  12  22  40  66 102 140 180 234 284 354 414
#     4  12  25  39  67 110 139 175 229 301 358 410
#     4  11  25  42  65 101 139 186 243 281 345 419
#     4  10  27  47  69  98 136 197 242 298 341 418
#     4  12  21  41  75  98 133 188 222 289 363 418
#     4  12  22  42  68 102 141 183 230 280 350 433
#     4  11  21  48  76  97 134 186 249 277 363 438
#
# _framework density 23.425778999999999
#
# number of rings (size 3 to 8) (size 9 to 14) (size 15 to 20)
#    0.000    0.615    7.692    0.000    8.615    0.615 
#    1.385    0.000    0.000    3.692    0.000    0.000 
#    0.000    0.000    0.000    0.000    0.000    0.000 
#
# Total GULP energy -72503.235986 kJ/mol
# GULP energy per Si atom -5577.171999 kJ/mol
# Density = 2.337246 g / cm^3
# Si number density = 23.425779 Si / 1000 Ang^3
#
#
#
# Elastic Constant Matrix: (Units=GPa)
#
#
# Indices 1 2 3 4 5 6 
#
# 1 97.4609 21.4672 18.9421 0.0000 37.5018 0.0000
# 2 21.4672 83.6291 9.6684 0.0000 8.6866 0.0000
# 3 18.9421 9.6684 81.8046 0.0000 34.2281 0.0000
# 4 0.0000 0.0000 0.0000 150.5642 0.0000 23.6546
# 5 37.5018 8.6866 34.2281 0.0000 47.0435 0.0000
# 6 0.0000 0.0000 0.0000 23.6546 0.0000 13.2831
#
#
#
# Elastic Compliance Matrix: (Units=1/GPa)
#
#
# Indices 1 2 3 4 5 6 
#
# 1 0.015728 -0.002890 0.002476 0.000000 -0.013806 0.000000
# 2 -0.002890 0.012752 -0.001174 0.000000 0.000803 0.000000
# 3 0.002476 -0.001174 0.018007 0.000000 -0.014859 0.000000
# 4 0.000000 0.000000 0.000000 0.009222 0.000000 -0.016422
# 5 -0.013806 0.000803 -0.014859 0.000000 0.042926 0.000000
# 6 0.000000 0.000000 0.000000 -0.016422 0.000000 0.104527
#
#
# Mechanical properties :
#
#
# Convention : Reuss Voigt Hill
#
# Bulk Modulus (GPa) = 23.08831 40.33888 31.71360
# Shear Modulus (GPa) = 22.64768 56.36596 39.50682
#
# Velocity S-wave (km/s) = 3.11269 4.91057 4.11112
# Velocity P-wave (km/s) = 4.77449 7.02915 6.00852
#
# Compressibility (1/GPa) = 0.04331195
#
# Stress axis : x y z
#
# Youngs Moduli (GPa) = 63.57996 78.42142 55.53500
#
# Poissons Ratio (x) = 0.22661 -0.13752
# Poissons Ratio (y) = 0.18372 0.06520
# Poissons Ratio (z) = -0.15745 0.09207
#
# Static dielectric constant tensor:
#      x y z
#    x 1.974380 0.000000 -0.119040 
#    y 0.000000 1.851550 0.000000 
#    z -0.119040 0.000000 1.881250 
# 
# From -- ./inp_files/17075.got.cif
#   From: 2010.05.17/outbox.cif.g08.bks.cpg/sg5_9_cif.got.tgz:17075.got - 2010.06.03 18:56:24.
