data_PCOD9129657
_publ_section_title
;
Structure prediction by ZEFSAII (Michael W. Deem and Ramdas Pophale) SiO2 
 PCOD9129657
Probable space group: C 2
;
_chemical_formula_sum "Si O2"
_cell_formula_units_Z 22
_cell_length_a 7.695600
_cell_length_b 16.966408
_cell_length_c 9.001057
_cell_angle_alpha 90.000000
_cell_angle_beta 84.039487
_cell_angle_gamma 90.000000
_cell_volume 1168.884521
_symmetry_space_group_name_H-M "C 2"
_symmetry_group_IT_number 5
_symmetry_cell_setting 'monoclinic'
loop_
_space_group_symop_operation_xyz
x,y,z
-x,y,-z
1/2+x,1/2+y,z
1/2-x,1/2+y,-z
loop_
_atom_site_type_symbol
_atom_site_label
_atom_site_fract_x
_atom_site_fract_y
_atom_site_fract_z
Si Si1 0.322470 0.914040 0.419982
Si Si2 0.114940 0.960084 0.847488
Si Si3 0.143805 0.809478 0.676921
Si Si4 0.830439 0.067117 0.443333
Si Si5 0.059641 0.354972 0.151792
Si Si6 0.000000 0.677662 0.500000
O O1 0.500000 0.927451 0.500000
O O2 0.212305 0.849448 0.518916
O O3 0.392366 0.883200 0.258680
O O4 0.218486 0.995184 0.440336
O O5 0.133101 0.026045 0.719037
O O6 0.043789 0.879514 0.773663
O O7 0.309351 0.930241 0.876850
O O8 0.000000 0.980719 0.000000
O O9 0.318165 0.797101 0.761215
O O10 0.042370 0.732702 0.638006
O O11 0.667325 0.124615 0.451269
O O12 0.000000 0.106880 0.500000
O O13 0.000000 0.323207 0.000000
#
# Coordination Sequence:
#
# PCOD9129657 Si02
#       6
#     4   4   4   4   4   2
#     4   9  16  37  58  92 118 154 219 256 304 368
#     4   9  20  38  60  96 118 161 213 258 310 368
#     4   8  21  33  63  86 119 167 202 261 310 364
#     4  11  23  36  66  91 124 172 210 260 314 376
#     4   9  18  31  59  99 120 155 202 273 312 358
#     4  12  22  44  60  94 134 164 214 258 322 366
#
# _framework density 18.821363999999999
#
# number of rings (size 3 to 8) (size 9 to 14) (size 15 to 20)
#    1.091    1.455    2.727    0.000    7.636    2.182 
#    0.000    0.000    4.000    1.091    0.000    0.000 
#    0.000    0.000    0.000    0.000    0.000    0.000 
#
# Total GULP energy -61279.528155 kJ/mol
# GULP energy per Si atom -5570.866196 kJ/mol
# Density = 1.877853 g / cm^3
# Si number density = 18.821364 Si / 1000 Ang^3
#
#
#
# Elastic Constant Matrix: (Units=GPa)
#
#
# Indices 1 2 3 4 5 6 
#
# 1 110.7629 48.1719 48.8106 0.0000 1.9539 0.0000
# 2 48.1719 75.6910 46.1341 0.0000 8.2465 0.0000
# 3 48.8106 46.1341 109.2691 0.0000 0.4676 0.0000
# 4 0.0000 0.0000 0.0000 10.5709 0.0000 8.2746
# 5 1.9539 8.2465 0.4676 0.0000 22.7940 0.0000
# 6 0.0000 0.0000 0.0000 8.2746 0.0000 15.2706
#
#
#
# Elastic Compliance Matrix: (Units=1/GPa)
#
#
# Indices 1 2 3 4 5 6 
#
# 1 0.013294 -0.006713 -0.003110 0.000000 0.001353 0.000000
# 2 -0.006713 0.022126 -0.006312 0.000000 -0.007300 0.000000
# 3 -0.003110 -0.006312 0.013196 0.000000 0.002280 0.000000
# 4 0.000000 0.000000 0.000000 0.164279 0.000000 -0.089017
# 5 0.001353 -0.007300 0.002280 0.000000 0.046350 0.000000
# 6 0.000000 0.000000 0.000000 -0.089017 0.000000 0.113720
#
#
# Mechanical properties :
#
#
# Convention : Reuss Voigt Hill
#
# Bulk Modulus (GPa) = 61.17309 64.66181 62.91745
# Shear Modulus (GPa) = 12.17479 19.90088 16.03783
#
# Velocity S-wave (km/s) = 2.54610 3.25523 2.92226
# Velocity P-wave (km/s) = 6.41997 6.96841 6.69981
#
# Compressibility (1/GPa) = 0.01634706
#
# Stress axis : x y z
#
# Youngs Moduli (GPa) = 75.21940 45.19515 75.77848
#
# Poissons Ratio (x) = 0.30338 0.23570
# Poissons Ratio (y) = 0.50492 0.47832
# Poissons Ratio (z) = 0.23396 0.28528
#
# Static dielectric constant tensor:
#      x y z
#    x 1.725770 0.000000 0.029850 
#    y 0.000000 1.636270 0.000000 
#    z 0.029850 0.000000 1.660230 
# 
# From -- ./inp_files/15418.got.cif
#   From: 2010.05.17/outbox.cif.g08.bks.cpg/sg5_8_cif.got.tgz:15418.got - 2010.06.03 18:56:24.
