data_PCOD9129709
_publ_section_title
;
Structure prediction by ZEFSAII (Michael W. Deem and Ramdas Pophale) SiO2 
 PCOD9129709
Probable space group: C 2
;
_chemical_formula_sum "Si O2"
_cell_formula_units_Z 20
_cell_length_a 12.903632
_cell_length_b 7.052995
_cell_length_c 12.544622
_cell_angle_alpha 90.000000
_cell_angle_beta 134.843142
_cell_angle_gamma 90.000000
_cell_volume 809.494385
_symmetry_space_group_name_H-M "C 2"
_symmetry_group_IT_number 5
_symmetry_cell_setting 'monoclinic'
loop_
_space_group_symop_operation_xyz
x,y,z
-x,y,-z
1/2+x,1/2+y,z
1/2-x,1/2+y,-z
loop_
_atom_site_type_symbol
_atom_site_label
_atom_site_fract_x
_atom_site_fract_y
_atom_site_fract_z
Si Si1 0.744065 0.834230 0.957098
Si Si2 0.431283 0.863722 0.682551
Si Si3 0.710785 0.658580 0.605649
Si Si4 0.440891 0.466654 0.787383
Si Si5 0.152107 0.949371 0.771604
O O1 0.593870 0.940381 0.819813
O O2 0.712912 0.638068 0.875572
O O3 0.904465 0.914433 0.044364
O O4 0.749266 0.803337 0.090136
O O5 0.409512 0.766503 0.551727
O O6 0.408347 0.690900 0.751983
O O7 0.317668 0.032589 0.610285
O O8 0.661195 0.506125 0.657264
O O9 0.810955 0.828835 0.726377
O O10 0.490280 0.413781 0.700411
#
# Coordination Sequence:
#
# PCOD9129709 Si02
#       5
#     4   4   4   4   4
#     4   9  20  43  63  93 135 177 230 290 329 430
#     4  11  23  41  68 101 141 177 240 290 345 441
#     4  12  23  44  71  99 142 188 224 299 363 416
#     4   9  22  44  64  98 137 179 238 285 343 439
#     4   9  22  43  71  95 137 186 227 294 353 406
#
# _framework density 24.706782
#
# number of rings (size 3 to 8) (size 9 to 14) (size 15 to 20)
#    1.200    0.800    2.000    1.200    0.000    6.400 
#    3.600    2.000    8.800    0.000    0.000    0.000 
#    0.000    0.000    0.000    0.000    0.000    0.000 
#
# Total GULP energy -55670.043417 kJ/mol
# GULP energy per Si atom -5567.004342 kJ/mol
# Density = 2.465055 g / cm^3
# Si number density = 24.706782 Si / 1000 Ang^3
#
#
#
# Elastic Constant Matrix: (Units=GPa)
#
#
# Indices 1 2 3 4 5 6 
#
# 1 51.5321 17.7554 38.5848 0.0000 10.7763 0.0000
# 2 17.7554 76.7065 27.1683 0.0000 5.6146 0.0000
# 3 38.5848 27.1683 132.3869 0.0000 22.5616 0.0000
# 4 0.0000 0.0000 0.0000 46.0230 0.0000 0.1002
# 5 10.7763 5.6146 22.5616 0.0000 45.4586 0.0000
# 6 0.0000 0.0000 0.0000 0.1002 0.0000 41.7657
#
#
#
# Elastic Compliance Matrix: (Units=1/GPa)
#
#
# Indices 1 2 3 4 5 6 
#
# 1 0.025955 -0.003554 -0.006403 0.000000 -0.002536 0.000000
# 2 -0.003554 0.014550 -0.001952 0.000000 0.000015 0.000000
# 3 -0.006403 -0.001952 0.010400 0.000000 -0.003403 0.000000
# 4 0.000000 0.000000 0.000000 0.021728 0.000000 -0.000052
# 5 -0.002536 0.000015 -0.003403 0.000000 0.024286 0.000000
# 6 0.000000 0.000000 0.000000 -0.000052 0.000000 0.023943
#
#
# Mechanical properties :
#
#
# Convention : Reuss Voigt Hill
#
# Bulk Modulus (GPa) = 36.92042 47.51585 42.21814
# Shear Modulus (GPa) = 32.52864 38.45726 35.49295
#
# Velocity S-wave (km/s) = 3.63242 3.94959 3.79432
# Velocity P-wave (km/s) = 5.70688 6.33030 6.02666
#
# Compressibility (1/GPa) = 0.02708528
#
# Stress axis : x y z
#
# Youngs Moduli (GPa) = 38.52887 68.72899 96.15009
#
# Poissons Ratio (x) = 0.24428 0.61565
# Poissons Ratio (y) = 0.13694 0.18773
# Poissons Ratio (z) = 0.24670 0.13419
#
# Static dielectric constant tensor:
#      x y z
#    x 2.012140 0.000000 -0.046080 
#    y 0.000000 2.035420 0.000000 
#    z -0.046080 0.000000 2.094650 
# 
# From -- ./inp_files/44240.got.cif
#   From: 2010.05.17/outbox.cif.g08.bks.cpg/sg5_23_cif.got.tgz:44240.got - 2010.06.03 18:56:24.
