data_PCOD9129904
_publ_section_title
;
Structure prediction by ZEFSAII (Michael W. Deem and Ramdas Pophale) SiO2 
 PCOD9129904
Probable space group: C 2
;
_chemical_formula_sum "Si O2"
_cell_formula_units_Z 26
_cell_length_a 17.547075
_cell_length_b 5.246191
_cell_length_c 22.922482
_cell_angle_alpha 90.000000
_cell_angle_beta 148.519864
_cell_angle_gamma 90.000000
_cell_volume 1101.919262
_symmetry_space_group_name_H-M "C 2"
_symmetry_group_IT_number 5
_symmetry_cell_setting 'monoclinic'
loop_
_space_group_symop_operation_xyz
x,y,z
-x,y,-z
1/2+x,1/2+y,z
1/2-x,1/2+y,-z
loop_
_atom_site_type_symbol
_atom_site_label
_atom_site_fract_x
_atom_site_fract_y
_atom_site_fract_z
Si Si1 0.000000 0.621161 0.000000
Si Si2 0.637611 0.456321 0.991204
Si Si3 0.471839 0.404785 0.203743
Si Si4 0.168584 0.399490 0.314700
Si Si5 0.645211 0.768818 0.173006
Si Si6 0.679671 0.187752 0.478552
Si Si7 0.361306 0.117930 0.228188
O O1 0.868242 0.456240 0.889879
O O2 0.050673 0.763537 0.975639
O O3 0.637722 0.382753 0.923511
O O4 0.521897 0.690224 0.922135
O O5 0.788812 0.484552 0.124071
O O6 0.553983 0.670787 0.250320
O O7 0.394243 0.384669 0.215327
O O8 0.588112 0.169448 0.273103
O O9 0.211514 0.379746 0.274995
O O10 0.296572 0.318163 0.442641
O O11 0.750857 0.568793 0.209927
O O12 0.720429 0.434847 0.465104
O O13 0.521303 0.075366 0.359179
#
# Coordination Sequence:
#
# PCOD9129904 Si02
#       7
#     2   4   4   4   4   4   4
#     4  12  18  40  70  94 146 184 218 288 362 432
#     4  11  24  42  64 107 145 181 228 294 364 432
#     4  11  25  43  71 101 143 187 232 293 353 423
#     4  11  23  48  68  98 143 190 232 295 355 410
#     4  11  24  41  67 100 141 182 231 293 359 428
#     4  12  25  48  72 102 143 189 243 301 350 414
#     4  12  24  44  71 106 137 189 242 290 357 429
#
# _framework density 23.595193999999999
#
# number of rings (size 3 to 8) (size 9 to 14) (size 15 to 20)
#    0.000    0.615    7.692    0.000    0.000    6.769 
#    0.000    0.000    0.000    3.692    0.000    0.000 
#    0.000    0.000    0.000    0.000    0.000    0.000 
#
# Total GULP energy -72429.948596 kJ/mol
# GULP energy per Si atom -5571.534507 kJ/mol
# Density = 2.354149 g / cm^3
# Si number density = 23.595194 Si / 1000 Ang^3
#
#
#
# Elastic Constant Matrix: (Units=GPa)
#
#
# Indices 1 2 3 4 5 6 
#
# 1 94.5995 -5.1764 41.4549 0.0000 -18.6565 0.0002
# 2 -5.1764 80.5856 14.8429 -0.0006 7.0289 0.0017
# 3 41.4549 14.8429 173.4890 -0.0001 -18.7383 0.0001
# 4 0.0000 -0.0006 -0.0001 39.6748 -0.0002 -17.0753
# 5 -18.6565 7.0289 -18.7383 -0.0002 41.5375 0.0006
# 6 0.0002 0.0017 0.0001 -17.0753 0.0006 8.1959
#
#
#
# Elastic Compliance Matrix: (Units=1/GPa)
#
#
# Indices 1 2 3 4 5 6 
#
# 1 0.012627 0.000917 -0.002628 -0.000003 0.004331 -0.000007
# 2 0.000917 0.012982 -0.001601 -0.000009 -0.002507 -0.000021
# 3 -0.002628 -0.001601 0.006760 0.000001 0.002140 0.000002
# 4 -0.000003 -0.000009 0.000001 0.243885 -0.000005 0.508106
# 5 0.004331 -0.002507 0.002140 -0.000005 0.027409 -0.000012
# 6 -0.000007 -0.000021 0.000002 0.508106 -0.000012 1.180593
#
#
# Mechanical properties :
#
#
# Convention : Reuss Voigt Hill
#
# Bulk Modulus (GPa) = 38.84076 50.10187 44.47132
# Shear Modulus (GPa) = 3.33453 37.71849 20.52651
#
# Velocity S-wave (km/s) = 1.19008 4.00255 2.95268
# Velocity P-wave (km/s) = 4.28782 6.52997 5.52386
#
# Compressibility (1/GPa) = 0.02574615
#
# Stress axis : x y z
#
# Youngs Moduli (GPa) = 79.19721 77.03239 147.92732
#
# Poissons Ratio (x) = -0.07067 0.38874
# Poissons Ratio (y) = -0.07265 0.23677
# Poissons Ratio (z) = 0.20812 0.12330
#
# Static dielectric constant tensor:
#      x y z
#    x 1.922770 0.000000 -0.018210 
#    y 0.000000 2.031000 0.000000 
#    z -0.018210 0.000000 1.919620 
# 
# From -- ./inp_files/69023.got.cif
#   From: 2010.05.17/outbox.cif.g08.bks.cpg/sg5_35_cif.got.tgz:69023.got - 2010.06.03 18:56:24.
