data_PCOD9129171
_publ_section_title
;
Structure prediction by ZEFSAII (Michael W. Deem and Ramdas Pophale) SiO2 
 PCOD9129171
Probable space group: C 2
;
_chemical_formula_sum "Si O2"
_cell_formula_units_Z 20
_cell_length_a 11.310881
_cell_length_b 17.364417
_cell_length_c 5.363813
_cell_angle_alpha 90.000000
_cell_angle_beta 73.295031
_cell_angle_gamma 90.000000
_cell_volume 1009.029816
_symmetry_space_group_name_H-M "C 2"
_symmetry_group_IT_number 5
_symmetry_cell_setting 'monoclinic'
loop_
_space_group_symop_operation_xyz
x,y,z
-x,y,-z
1/2+x,1/2+y,z
1/2-x,1/2+y,-z
loop_
_atom_site_type_symbol
_atom_site_label
_atom_site_fract_x
_atom_site_fract_y
_atom_site_fract_z
Si Si1 0.322248 0.292830 0.650271
Si Si2 0.131198 0.700432 0.863429
Si Si3 0.500000 0.529697 0.000000
Si Si4 0.034810 0.315147 0.734100
Si Si5 0.500000 0.431768 0.500000
Si Si6 0.395701 0.651525 0.758943
O O1 0.385782 0.250429 0.376767
O O2 0.178112 0.295096 0.663641
O O3 0.383133 0.376694 0.624386
O O4 0.338479 0.251173 0.907080
O O5 0.257396 0.654193 0.742060
O O6 0.000000 0.660799 0.000000
O O7 0.476837 0.478568 0.258275
O O8 0.604886 0.591870 0.012749
O O9 0.000000 0.355356 0.500000
O O10 0.948160 0.237457 0.788411
O O11 0.000000 0.361185 0.000000
O O12 0.500000 0.624541 0.500000
#
# Coordination Sequence:
#
# PCOD9129171 Si02
#       6
#     4   4   2   4   2   4
#     4  12  21  38  56  90 131 155 200 247 314 369
#     4  12  22  36  63  97 127 150 190 272 329 357
#     4  12  24  42  60  86 118 180 210 248 274 384
#     4  11  19  33  61  93 115 147 194 265 310 349
#     4  12  26  38  60  86 130 170 208 238 298 372
#     4  11  21  39  66  95 119 152 211 255 317 349
#
# _framework density 19.821020999999998
#
# number of rings (size 3 to 8) (size 9 to 14) (size 15 to 20)
#    0.000    0.400   10.000    1.200    0.000    0.000 
#    0.000    0.000    0.000    3.600    0.000    0.000 
#    0.000    0.000    0.000    0.000    0.000    0.000 
#
# Total GULP energy -55712.477853 kJ/mol
# GULP energy per Si atom -5571.247785 kJ/mol
# Density = 1.977591 g / cm^3
# Si number density = 19.821021 Si / 1000 Ang^3
#
#
#
# Elastic Constant Matrix: (Units=GPa)
#
#
# Indices 1 2 3 4 5 6 
#
# 1 122.9477 22.6639 38.4901 0.0000 -18.8475 0.0000
# 2 22.6639 41.3985 15.7170 0.0000 6.8690 0.0000
# 3 38.4901 15.7170 142.7772 0.0000 20.4247 0.0000
# 4 0.0000 0.0000 0.0000 13.3459 0.0000 16.4548
# 5 -18.8475 6.8690 20.4247 0.0000 49.6143 0.0000
# 6 0.0000 0.0000 0.0000 16.4548 0.0000 7.9757
#
#
#
# Elastic Compliance Matrix: (Units=1/GPa)
#
#
# Indices 1 2 3 4 5 6 
#
# 1 0.011262 -0.005984 -0.003302 0.000000 0.006466 0.000000
# 2 -0.005984 0.028683 -0.000692 0.000000 -0.005960 0.000000
# 3 -0.003302 -0.000692 0.008645 0.000000 -0.004718 0.000000
# 4 0.000000 0.000000 0.000000 -0.048538 0.000000 0.100140
# 5 0.006466 -0.005960 -0.004718 0.000000 0.025379 0.000000
# 6 0.000000 0.000000 0.000000 0.100140 0.000000 -0.081220
#
#
# Mechanical properties :
#
#
# Convention : Reuss Voigt Hill
#
# Bulk Modulus (GPa) = 34.92412 51.20726 43.06569
# Shear Modulus (GPa) = -190.20520 29.53734 -80.33393
#
# Velocity S-wave (km/s) = -9.80661 3.86450 -6.37320
# Velocity P-wave (km/s) = 10.51514 6.76782 5.69056
#
# Compressibility (1/GPa) = 0.02863351
#
# Stress axis : x y z
#
# Youngs Moduli (GPa) = 88.79649 34.86367 115.67225
#
# Poissons Ratio (x) = 0.20864 0.38197
# Poissons Ratio (y) = 0.53140 0.08000
# Poissons Ratio (z) = 0.29322 0.02411
#
# Static dielectric constant tensor:
#      x y z
#    x 1.746780 0.000000 0.023550 
#    y 0.000000 1.688390 0.000000 
#    z 0.023550 0.000000 1.843230 
# 
# From -- ./inp_files/5026.got.cif
#   From: 2010.05.17/outbox.cif.g08.bks.cpg/sg5_3_cif.got.tgz:5026.got - 2010.06.03 18:56:24.
