data_PCOD9129712
_publ_section_title
;
Structure prediction by ZEFSAII (Michael W. Deem and Ramdas Pophale) SiO2 
 PCOD9129712
Probable space group: C 2
;
_chemical_formula_sum "Si O2"
_cell_formula_units_Z 32
_cell_length_a 21.477391
_cell_length_b 14.143446
_cell_length_c 5.015327
_cell_angle_alpha 90.000000
_cell_angle_beta 64.146158
_cell_angle_gamma 90.000000
_cell_volume 1370.991596
_symmetry_space_group_name_H-M "C 2"
_symmetry_group_IT_number 5
_symmetry_cell_setting 'monoclinic'
loop_
_space_group_symop_operation_xyz
x,y,z
-x,y,-z
1/2+x,1/2+y,z
1/2-x,1/2+y,-z
loop_
_atom_site_type_symbol
_atom_site_label
_atom_site_fract_x
_atom_site_fract_y
_atom_site_fract_z
Si Si1 0.068450 0.488040 0.213285
Si Si2 0.573933 0.316345 0.886077
Si Si3 0.632473 0.898443 0.565822
Si Si4 0.050039 0.202863 0.658313
Si Si5 0.750320 0.705397 0.885547
Si Si6 0.813821 0.112208 0.505084
Si Si7 0.721984 0.398201 0.429528
Si Si8 0.906269 0.691662 0.644217
O O1 0.128402 0.451599 0.294040
O O2 0.096738 0.297154 0.590108
O O3 0.065524 0.600392 0.253685
O O4 0.000000 0.450702 0.500000
O O5 0.645406 0.368508 0.676067
O O6 0.563964 0.231107 0.688514
O O7 0.500000 0.369675 0.000000
O O8 0.587400 0.276092 0.155294
O O9 0.587078 0.952337 0.882556
O O10 0.711707 0.893025 0.502582
O O11 0.725582 0.683095 0.225419
O O12 0.105441 0.118951 0.575687
O O13 0.000000 0.201818 0.500000
O O14 0.000000 0.201918 0.000000
O O15 0.701943 0.651220 0.762451
O O16 0.757609 0.816945 0.819490
O O17 0.827771 0.667371 0.714649
O O18 0.785434 0.008451 0.621298
#
# Coordination Sequence:
#
# PCOD9129712 Si02
#       8
#     4   4   4   4   4   4   4   4
#     4  12  24  40  64 102 142 186 236 291 362 441
#     4  11  24  44  69 102 142 189 235 300 370 445
#     4  12  25  42  68 101 141 188 243 306 359 429
#     4  12  26  47  72 102 148 199 245 300 368 439
#     4  11  24  46  71 108 143 183 239 309 363 432
#     4  12  26  47  74 106 146 192 248 305 370 434
#     4  11  27  47  77 107 142 192 250 304 375 430
#     4  11  23  41  70 100 144 184 231 288 371 440
#
# _framework density 23.340769000000002
#
# number of rings (size 3 to 8) (size 9 to 14) (size 15 to 20)
#    0.000    0.500    1.250    7.875    1.750    4.500 
#    0.000    2.500    0.000    0.000    0.000    0.000 
#    0.000    0.000    0.000    0.000    0.000    0.000 
#
# Total GULP energy -89493.038027 kJ/mol
# GULP energy per Si atom -5593.314877 kJ/mol
# Density = 2.328764 g / cm^3
# Si number density = 23.340769 Si / 1000 Ang^3
#
#
#
# Elastic Constant Matrix: (Units=GPa)
#
#
# Indices 1 2 3 4 5 6 
#
# 1 148.2000 35.6307 14.0707 0.0000 -12.7873 0.0000
# 2 35.6307 101.3333 7.7722 0.0000 1.7392 0.0000
# 3 14.0707 7.7722 61.7618 0.0000 18.0723 0.0000
# 4 0.0000 0.0000 0.0000 8.9924 0.0000 -10.6217
# 5 -12.7873 1.7392 18.0723 0.0000 39.2834 0.0000
# 6 0.0000 0.0000 0.0000 -10.6217 0.0000 23.9826
#
#
#
# Elastic Compliance Matrix: (Units=1/GPa)
#
#
# Indices 1 2 3 4 5 6 
#
# 1 0.007978 -0.002671 -0.002630 0.000000 0.003925 0.000000
# 2 -0.002671 0.010860 -0.000419 0.000000 -0.001157 0.000000
# 3 -0.002630 -0.000419 0.019746 0.000000 -0.009922 0.000000
# 4 0.000000 0.000000 0.000000 0.233201 0.000000 0.103283
# 5 0.003925 -0.001157 -0.009922 0.000000 0.031350 0.000000
# 6 0.000000 0.000000 0.000000 0.103283 0.000000 0.087440
#
#
# Mechanical properties :
#
#
# Convention : Reuss Voigt Hill
#
# Bulk Modulus (GPa) = 36.84144 47.36024 42.10084
# Shear Modulus (GPa) = 12.16357 31.37313 21.76835
#
# Velocity S-wave (km/s) = 2.28530 3.67022 3.05722
# Velocity P-wave (km/s) = 4.77304 6.18834 5.52618
#
# Compressibility (1/GPa) = 0.02714335
#
# Stress axis : x y z
#
# Youngs Moduli (GPa) = 125.34184 92.08435 50.64198
#
# Poissons Ratio (x) = 0.24595 0.13319
# Poissons Ratio (y) = 0.33478 0.02124
# Poissons Ratio (z) = 0.32966 0.03863
#
# Static dielectric constant tensor:
#      x y z
#    x 1.935530 0.000000 -0.059440 
#    y 0.000000 1.969140 0.000000 
#    z -0.059440 0.000000 1.871060 
# 
# From -- ./inp_files/10373.got.cif
#   From: 2010.05.17/outbox.cif.g08.bks.cpg/sg5_6_cif.got.tgz:10373.got - 2010.06.03 18:56:24.
