data_PCOD9129359
_publ_section_title
;
Structure prediction by ZEFSAII (Michael W. Deem and Ramdas Pophale) SiO2 
 PCOD9129359
Probable space group: C 2
;
_chemical_formula_sum "Si O2"
_cell_formula_units_Z 24
_cell_length_a 13.184636
_cell_length_b 8.810014
_cell_length_c 9.390325
_cell_angle_alpha 90.000000
_cell_angle_beta 112.956102
_cell_angle_gamma 90.000000
_cell_volume 1004.367241
_symmetry_space_group_name_H-M "C 2"
_symmetry_group_IT_number 5
_symmetry_cell_setting 'monoclinic'
loop_
_space_group_symop_operation_xyz
x,y,z
-x,y,-z
1/2+x,1/2+y,z
1/2-x,1/2+y,-z
loop_
_atom_site_type_symbol
_atom_site_label
_atom_site_fract_x
_atom_site_fract_y
_atom_site_fract_z
Si Si1 0.664522 0.179880 0.888114
Si Si2 0.849338 0.521095 0.674930
Si Si3 0.907851 0.775458 0.873340
Si Si4 0.041193 0.211694 0.185667
Si Si5 0.239364 0.511704 0.686973
Si Si6 0.337704 0.537579 0.181887
O O1 0.656149 0.357433 0.846910
O O2 0.647692 0.080855 0.740209
O O3 0.596900 0.160019 0.995767
O O4 0.780116 0.122192 0.016555
O O5 0.913021 0.682041 0.730268
O O6 0.930243 0.385339 0.761545
O O7 0.806362 0.488035 0.494370
O O8 0.742648 0.539945 0.722958
O O9 0.795220 0.867139 0.791960
O O10 0.000000 0.882278 0.000000
O O11 0.955551 0.123335 0.244164
O O12 0.158999 0.128716 0.265927
O O13 0.000000 0.210980 0.000000
#
# Coordination Sequence:
#
# PCOD9129359 Si02
#       6
#     4   4   4   4   4   4
#     4  11  21  41  72 106 145 196 247 309 374 441
#     4  11  26  43  70 106 153 187 239 313 386 433
#     4  11  24  44  70 101 139 194 250 301 364 459
#     4  12  22  44  78 108 140 198 256 300 367 466
#     4  12  23  43  71 105 147 192 239 315 379 430
#     4  11  22  42  73 110 146 197 250 307 375 454
#
# _framework density 23.895641000000001
#
# number of rings (size 3 to 8) (size 9 to 14) (size 15 to 20)
#    0.000    0.667    5.000    3.000    0.000    2.000 
#    0.000    0.833    0.000    0.000    0.000    0.000 
#    0.000    0.000    0.000    0.000    0.000    0.000 
#
# Total GULP energy -66911.979930 kJ/mol
# GULP energy per Si atom -5575.998328 kJ/mol
# Density = 2.384125 g / cm^3
# Si number density = 23.895641 Si / 1000 Ang^3
#
#
#
# Elastic Constant Matrix: (Units=GPa)
#
#
# Indices 1 2 3 4 5 6 
#
# 1 95.7975 46.0527 55.0402 0.0000 -20.8189 0.0000
# 2 46.0527 144.8282 47.3664 0.0000 -1.1886 0.0000
# 3 55.0402 47.3664 162.3511 0.0000 -2.9592 0.0000
# 4 0.0000 0.0000 0.0000 27.3214 0.0000 1.2785
# 5 -20.8189 -1.1886 -2.9592 0.0000 37.6707 0.0000
# 6 0.0000 0.0000 0.0000 1.2785 0.0000 35.4114
#
#
#
# Elastic Compliance Matrix: (Units=1/GPa)
#
#
# Indices 1 2 3 4 5 6 
#
# 1 0.016692 -0.003800 -0.004391 0.000000 0.008760 0.000000
# 2 -0.003800 0.008498 -0.001226 0.000000 -0.001928 0.000000
# 3 -0.004391 -0.001226 0.007972 0.000000 -0.001839 0.000000
# 4 0.000000 0.000000 0.000000 0.036663 0.000000 -0.001324
# 5 0.008760 -0.001928 -0.001839 0.000000 0.031182 0.000000
# 6 0.000000 0.000000 0.000000 -0.001324 0.000000 0.028287
#
#
# Mechanical properties :
#
#
# Convention : Reuss Voigt Hill
#
# Bulk Modulus (GPa) = 69.78945 77.76615 73.77780
# Shear Modulus (GPa) = 32.70024 37.04853 34.87438
#
# Velocity S-wave (km/s) = 3.70328 3.94182 3.82441
# Velocity P-wave (km/s) = 6.89602 7.30288 7.10236
#
# Compressibility (1/GPa) = 0.01432881
#
# Stress axis : x y z
#
# Youngs Moduli (GPa) = 59.91016 117.67131 125.43539
#
# Poissons Ratio (x) = 0.44713 0.55073
# Poissons Ratio (y) = 0.22765 0.15382
# Poissons Ratio (z) = 0.26304 0.14430
#
# Static dielectric constant tensor:
#      x y z
#    x 2.358300 0.000000 0.065870 
#    y 0.000000 2.028760 0.000000 
#    z 0.065870 0.000000 1.849160 
# 
# From -- ./inp_files/22769.got.cif
#   From: 2010.05.17/outbox.cif.g08.bks.cpg/sg5_12_cif.got.tgz:22769.got - 2010.06.03 18:56:24.
