data_PCOD9129208
_publ_section_title
;
Structure prediction by ZEFSAII (Michael W. Deem and Ramdas Pophale) SiO2 
 PCOD9129208
Probable space group: C 2
;
_chemical_formula_sum "Si O2"
_cell_formula_units_Z 28
_cell_length_a 15.518704
_cell_length_b 16.503264
_cell_length_c 5.666028
_cell_angle_alpha 90.000000
_cell_angle_beta 64.214208
_cell_angle_gamma 90.000000
_cell_volume 1306.629212
_symmetry_space_group_name_H-M "C 2"
_symmetry_group_IT_number 5
_symmetry_cell_setting 'monoclinic'
loop_
_space_group_symop_operation_xyz
x,y,z
-x,y,-z
1/2+x,1/2+y,z
1/2-x,1/2+y,-z
loop_
_atom_site_type_symbol
_atom_site_label
_atom_site_fract_x
_atom_site_fract_y
_atom_site_fract_z
Si Si1 0.902154 0.048090 0.515184
Si Si2 0.737783 0.464177 0.935172
Si Si3 0.267443 0.107343 0.527544
Si Si4 0.885413 0.746373 0.626246
Si Si5 0.904142 0.885070 0.241295
Si Si6 0.908043 0.633937 0.975032
Si Si7 0.948839 0.459453 0.803724
O O1 0.838686 0.112126 0.448807
O O2 0.000000 0.081733 0.500000
O O3 0.927946 0.974460 0.309796
O O4 0.835461 0.005560 0.793193
O O5 0.766766 0.536390 0.720043
O O6 0.679989 0.398134 0.848707
O O7 0.836977 0.432562 0.928625
O O8 0.318053 0.187757 0.555904
O O9 0.335343 0.086377 0.229145
O O10 0.878826 0.831881 0.502359
O O11 0.858321 0.711474 0.916340
O O12 0.000000 0.728388 0.500000
O O13 0.000000 0.853412 0.000000
O O14 0.946686 0.557964 0.780444
O O15 0.000000 0.665834 0.000000
O O16 0.000000 0.429183 0.500000
O O17 0.000000 0.442713 0.000000
#
# Coordination Sequence:
#
# PCOD9129208 Si02
#       7
#     4   4   4   4   4   4   4
#     4  11  22  42  66  90 126 178 238 280 326 397
#     4  11  22  41  62  96 133 176 234 278 331 412
#     4  11  22  37  61  92 129 174 222 279 340 397
#     4  12  24  37  59  95 138 173 214 274 351 422
#     4  11  26  41  62  93 139 186 220 272 347 413
#     4  11  20  34  55  91 135 171 208 266 344 418
#     4  11  22  36  63  97 135 171 219 283 346 405
#
# _framework density 21.429185
#
# number of rings (size 3 to 8) (size 9 to 14) (size 15 to 20)
#    0.000    0.857    5.714    2.571    4.000    0.000 
#    0.000    0.000    0.000    0.857    0.000    0.000 
#    0.000    0.000    0.000    0.000    0.000    0.000 
#
# Total GULP energy -78047.438566 kJ/mol
# GULP energy per Si atom -5574.817040 kJ/mol
# Density = 2.138041 g / cm^3
# Si number density = 21.429185 Si / 1000 Ang^3
#
#
#
# Elastic Constant Matrix: (Units=GPa)
#
#
# Indices 1 2 3 4 5 6 
#
# 1 213.7242 27.9150 22.8335 0.0000 6.8226 0.0000
# 2 27.9150 52.0907 -2.1194 0.0000 0.4234 0.0000
# 3 22.8335 -2.1194 103.8976 0.0000 1.6447 0.0000
# 4 0.0000 0.0000 0.0000 19.0558 0.0000 9.7351
# 5 6.8226 0.4234 1.6447 0.0000 28.2642 0.0000
# 6 0.0000 0.0000 0.0000 9.7351 0.0000 28.5435
#
#
#
# Elastic Compliance Matrix: (Units=1/GPa)
#
#
# Indices 1 2 3 4 5 6 
#
# 1 0.005212 -0.002832 -0.001185 0.000000 -0.001147 0.000000
# 2 -0.002832 0.020755 0.001041 0.000000 0.000312 0.000000
# 3 -0.001185 0.001041 0.009911 0.000000 -0.000306 0.000000
# 4 0.000000 0.000000 0.000000 0.063550 0.000000 -0.021675
# 5 -0.001147 0.000312 -0.000306 0.000000 0.035670 0.000000
# 6 0.000000 0.000000 0.000000 -0.021675 0.000000 0.042427
#
#
# Mechanical properties :
#
#
# Convention : Reuss Voigt Hill
#
# Bulk Modulus (GPa) = 33.41608 51.88562 42.65085
# Shear Modulus (GPa) = 25.84603 36.57826 31.21214
#
# Velocity S-wave (km/s) = 3.47668 4.13599 3.82058
# Velocity P-wave (km/s) = 5.63418 6.86103 6.27765
#
# Compressibility (1/GPa) = 0.02992571
#
# Stress axis : x y z
#
# Youngs Moduli (GPa) = 191.86373 48.18176 100.89408
#
# Poissons Ratio (x) = 0.13645 0.11957
# Poissons Ratio (y) = 0.54336 -0.10501
# Poissons Ratio (z) = 0.22737 -0.05015
#
# Static dielectric constant tensor:
#      x y z
#    x 1.856850 0.000000 0.075490 
#    y 0.000000 1.751860 0.000000 
#    z 0.075490 0.000000 1.950510 
# 
# From -- ./inp_files/7258.got.cif
#   From: 2010.05.17/outbox.cif.g08.bks.cpg/sg5_4_cif.got.tgz:7258.got - 2010.06.03 18:56:24.
