data_PCOD9129519
_publ_section_title
;
Structure prediction by ZEFSAII (Michael W. Deem and Ramdas Pophale) SiO2 
 PCOD9129519
Probable space group: C 2
;
_chemical_formula_sum "Si O2"
_cell_formula_units_Z 22
_cell_length_a 13.545151
_cell_length_b 8.058201
_cell_length_c 8.955331
_cell_angle_alpha 90.000000
_cell_angle_beta 88.378129
_cell_angle_gamma 90.000000
_cell_volume 977.078752
_symmetry_space_group_name_H-M "C 2"
_symmetry_group_IT_number 5
_symmetry_cell_setting 'monoclinic'
loop_
_space_group_symop_operation_xyz
x,y,z
-x,y,-z
1/2+x,1/2+y,z
1/2-x,1/2+y,-z
loop_
_atom_site_type_symbol
_atom_site_label
_atom_site_fract_x
_atom_site_fract_y
_atom_site_fract_z
Si Si1 0.168122 0.383680 0.690082
Si Si2 0.755896 0.529878 0.586473
Si Si3 0.157581 0.919320 0.844991
Si Si4 0.500000 0.647969 0.000000
Si Si5 0.446321 0.907660 0.755347
Si Si6 0.345776 0.064926 0.001648
O O1 0.228195 0.518190 0.590742
O O2 0.222192 0.212795 0.641526
O O3 0.163774 0.429827 0.865005
O O4 0.049932 0.386684 0.667414
O O5 0.671507 0.416162 0.666184
O O6 0.857501 0.447284 0.646248
O O7 0.156778 0.740947 0.919403
O O8 0.067110 0.029667 0.898456
O O9 0.251353 0.020248 0.905505
O O10 0.558951 0.757071 0.122315
O O11 0.435414 0.056151 0.877703
#
# Coordination Sequence:
#
# PCOD9129519 Si02
#       6
#     4   4   4   2   4   4
#     4  12  23  44  67  99 134 184 215 282 338 403
#     4  11  24  42  68  96 140 175 226 269 348 395
#     4  11  23  40  65 101 132 177 223 282 327 410
#     4  12  22  40  70 100 134 170 234 274 342 386
#     4  11  22  43  68  98 131 179 219 283 328 405
#     4  11  22  41  69  96 134 175 228 274 341 387
#
# _framework density 22.516098
#
# number of rings (size 3 to 8) (size 9 to 14) (size 15 to 20)
#    0.000    0.727    3.636    6.000    2.545    0.000 
#    0.000    0.000    0.000    0.000    0.000    0.000 
#    0.000    0.000    0.000    0.000    0.000    0.000 
#
# Total GULP energy -61310.196892 kJ/mol
# GULP energy per Si atom -5573.654263 kJ/mol
# Density = 2.246485 g / cm^3
# Si number density = 22.516098 Si / 1000 Ang^3
#
#
#
# Elastic Constant Matrix: (Units=GPa)
#
#
# Indices 1 2 3 4 5 6 
#
# 1 84.7536 19.9687 29.5638 0.0000 -26.0881 0.0000
# 2 19.9687 120.1354 23.1541 0.0000 -27.7598 0.0000
# 3 29.5638 23.1541 121.5544 0.0000 -47.8599 0.0000
# 4 0.0000 0.0000 0.0000 36.1284 0.0000 -12.1501
# 5 -26.0881 -27.7598 -47.8599 0.0000 40.5033 0.0000
# 6 0.0000 0.0000 0.0000 -12.1501 0.0000 35.6859
#
#
#
# Elastic Compliance Matrix: (Units=1/GPa)
#
#
# Indices 1 2 3 4 5 6 
#
# 1 0.014730 -0.000281 0.000244 0.000000 0.009584 0.000000
# 2 -0.000281 0.010038 0.001484 0.000000 0.008453 0.000000
# 3 0.000244 0.001484 0.015609 0.000000 0.019619 0.000000
# 4 0.000000 0.000000 0.000000 0.031258 0.000000 0.010643
# 5 0.009584 0.008453 0.019619 0.000000 0.059838 0.000000
# 6 0.000000 0.000000 0.000000 0.010643 0.000000 0.031646
#
#
# Mechanical properties :
#
#
# Convention : Reuss Voigt Hill
#
# Bulk Modulus (GPa) = 23.10936 52.42408 37.76672
# Shear Modulus (GPa) = 28.62912 39.38063 34.00487
#
# Velocity S-wave (km/s) = 3.56967 4.18664 3.89041
# Velocity P-wave (km/s) = 5.22263 6.83404 6.08194
#
# Compressibility (1/GPa) = 0.04327251
#
# Stress axis : x y z
#
# Youngs Moduli (GPa) = 67.88950 99.62445 64.06441
#
# Poissons Ratio (x) = 0.02799 -0.01566
# Poissons Ratio (y) = 0.01907 -0.09509
# Poissons Ratio (z) = -0.01660 -0.14788
#
# Static dielectric constant tensor:
#      x y z
#    x 1.949200 0.000000 0.013710 
#    y 0.000000 1.861220 0.000000 
#    z 0.013710 0.000000 1.916260 
# 
# From -- ./inp_files/22644.got.cif
#   From: 2010.05.17/outbox.cif.g08.bks.cpg/sg5_12_cif.got.tgz:22644.got - 2010.06.03 18:56:24.
