data_PCOD9129444
_publ_section_title
;
Structure prediction by ZEFSAII (Michael W. Deem and Ramdas Pophale) SiO2 
 PCOD9129444
Probable space group: C 2
;
_chemical_formula_sum "Si O2"
_cell_formula_units_Z 26
_cell_length_a 10.110391
_cell_length_b 8.915477
_cell_length_c 18.669536
_cell_angle_alpha 90.000000
_cell_angle_beta 49.589487
_cell_angle_gamma 90.000000
_cell_volume 1281.356518
_symmetry_space_group_name_H-M "C 2"
_symmetry_group_IT_number 5
_symmetry_cell_setting 'monoclinic'
loop_
_space_group_symop_operation_xyz
x,y,z
-x,y,-z
1/2+x,1/2+y,z
1/2-x,1/2+y,-z
loop_
_atom_site_type_symbol
_atom_site_label
_atom_site_fract_x
_atom_site_fract_y
_atom_site_fract_z
Si Si1 0.500000 0.598800 0.000000
Si Si2 0.588093 0.387593 0.769341
Si Si3 0.691289 0.392757 0.464601
Si Si4 0.706244 0.742043 0.428397
Si Si5 0.221517 0.422892 0.153461
Si Si6 0.615392 0.737687 0.726705
Si Si7 0.273795 0.242149 0.812000
O O1 0.664589 0.487628 0.952612
O O2 0.581017 0.703971 0.910316
O O3 0.709426 0.284991 0.676812
O O4 0.645376 0.370088 0.831507
O O5 0.616165 0.559620 0.736293
O O6 0.390173 0.344708 0.821121
O O7 0.500000 0.365376 0.500000
O O8 0.731764 0.567909 0.439095
O O9 0.706293 0.343965 0.541358
O O10 0.823840 0.292423 0.371858
O O11 0.500000 0.771340 0.500000
O O12 0.139490 0.576273 0.215325
O O13 0.074193 0.304364 0.191163
O O14 0.748345 0.798602 0.740730
#
# Coordination Sequence:
#
# PCOD9129444 Si02
#       7
#     2   4   4   4   4   4   4
#     4   8  20  44  62  86 120 160 200 250 314 356
#     4  11  22  38  61  91 121 161 202 247 303 355
#     4  11  24  40  61  91 124 162 204 247 294 357
#     4  11  24  40  61  91 124 162 204 247 294 357
#     4   9  21  40  61  86 121 158 199 250 302 359
#     4  11  22  38  61  91 121 161 202 247 303 355
#     4   9  21  40  61  86 121 158 199 250 302 359
#
# _framework density 20.290994999999999
#
# number of rings (size 3 to 8) (size 9 to 14) (size 15 to 20)
#    0.923    0.923    0.000    3.692    0.000   11.077 
#    0.000    0.769    0.000    0.000    0.000    0.000 
#    0.000    0.000    0.000    0.000    0.000    0.000 
#
# Total GULP energy -72453.963880 kJ/mol
# GULP energy per Si atom -5573.381837 kJ/mol
# Density = 2.024481 g / cm^3
# Si number density = 20.290995 Si / 1000 Ang^3
#
#
#
# Elastic Constant Matrix: (Units=GPa)
#
#
# Indices 1 2 3 4 5 6 
#
# 1 89.1203 35.8409 7.0657 0.0000 -2.6087 0.0000
# 2 35.8409 53.6841 4.4822 0.0000 -8.1541 0.0000
# 3 7.0657 4.4822 72.2154 0.0000 -8.7373 0.0000
# 4 0.0000 0.0000 0.0000 28.9427 0.0000 -1.4335
# 5 -2.6087 -8.1541 -8.7373 0.0000 25.0956 0.0000
# 6 0.0000 0.0000 0.0000 -1.4335 0.0000 23.6018
#
#
#
# Elastic Compliance Matrix: (Units=1/GPa)
#
#
# Indices 1 2 3 4 5 6 
#
# 1 0.015507 -0.010596 -0.001129 0.000000 -0.002224 0.000000
# 2 -0.010596 0.026850 0.000305 0.000000 0.007729 0.000000
# 3 -0.001129 0.000305 0.014550 0.000000 0.005047 0.000000
# 4 0.000000 0.000000 0.000000 0.034655 0.000000 0.002105
# 5 -0.002224 0.007729 0.005047 0.000000 0.043885 0.000000
# 6 0.000000 0.000000 0.000000 0.002105 0.000000 0.042497
#
#
# Mechanical properties :
#
#
# Convention : Reuss Voigt Hill
#
# Bulk Modulus (GPa) = 29.35336 34.42193 31.88765
# Shear Modulus (GPa) = 23.56946 26.70341 25.13644
#
# Velocity S-wave (km/s) = 3.41188 3.63164 3.52347
# Velocity P-wave (km/s) = 5.47895 5.88099 5.68352
#
# Compressibility (1/GPa) = 0.03406765
#
# Stress axis : x y z
#
# Youngs Moduli (GPa) = 64.48887 37.24362 68.73028
#
# Poissons Ratio (x) = 0.39464 0.07757
# Poissons Ratio (y) = 0.68333 -0.02099
# Poissons Ratio (z) = 0.07278 -0.01137
#
# Static dielectric constant tensor:
#      x y z
#    x 1.710620 0.000000 -0.003310 
#    y 0.000000 1.708540 0.000000 
#    z -0.003310 0.000000 1.760610 
# 
# From -- ./inp_files/64374.got.cif
#   From: 2010.05.17/outbox.cif.g08.bks.cpg/sg5_33_cif.got.tgz:64374.got - 2010.06.03 18:56:24.
