data_PCOD9129767
_publ_section_title
;
Structure prediction by ZEFSAII (Michael W. Deem and Ramdas Pophale) SiO2 
 PCOD9129767
Probable space group: C 2
;
_chemical_formula_sum "Si O2"
_cell_formula_units_Z 22
_cell_length_a 13.766172
_cell_length_b 5.766972
_cell_length_c 22.076345
_cell_angle_alpha 90.000000
_cell_angle_beta 31.658467
_cell_angle_gamma 90.000000
_cell_volume 919.871907
_symmetry_space_group_name_H-M "C 2"
_symmetry_group_IT_number 5
_symmetry_cell_setting 'monoclinic'
loop_
_space_group_symop_operation_xyz
x,y,z
-x,y,-z
1/2+x,1/2+y,z
1/2-x,1/2+y,-z
loop_
_atom_site_type_symbol
_atom_site_label
_atom_site_fract_x
_atom_site_fract_y
_atom_site_fract_z
Si Si1 0.500000 0.960230 0.000000
Si Si2 0.290782 0.340657 0.174247
Si Si3 0.195741 0.904835 0.451656
Si Si4 0.867758 0.130487 0.966132
Si Si5 0.952848 0.411441 0.811924
Si Si6 0.453272 0.901865 0.435171
O O1 0.589606 0.825423 0.007534
O O2 0.334458 0.092717 0.122544
O O3 0.493529 0.437178 0.080855
O O4 0.170461 0.448149 0.183024
O O5 0.162919 0.376608 0.300291
O O6 0.336411 0.917964 0.320407
O O7 0.322188 0.901067 0.445138
O O8 0.088604 0.654796 0.512032
O O9 0.092938 0.154154 0.508821
O O10 0.922351 0.181560 0.868185
O O11 0.649269 0.085639 0.088024
#
# Coordination Sequence:
#
# PCOD9129767 Si02
#       6
#     2   4   4   4   4   4
#     4  12  22  42  68  98 144 180 232 292 364 426
#     4  11  23  44  67 102 134 187 232 296 355 428
#     4   9  20  39  64 100 129 187 233 290 350 429
#     4  12  25  43  67 106 138 186 236 292 369 425
#     4  11  23  43  69  98 143 176 241 291 356 428
#     4   9  20  38  68  94 135 180 239 286 356 418
#
# _framework density 23.916374999999999
#
# number of rings (size 3 to 8) (size 9 to 14) (size 15 to 20)
#    0.000    1.455    3.636    1.091    2.545    5.818 
#    0.000    0.909    0.000    0.000    0.000    0.000 
#    0.000    0.000    0.000    0.000    0.000    0.000 
#
# Total GULP energy -61285.452787 kJ/mol
# GULP energy per Si atom -5571.404799 kJ/mol
# Density = 2.386194 g / cm^3
# Si number density = 23.916375 Si / 1000 Ang^3
#
#
#
# Elastic Constant Matrix: (Units=GPa)
#
#
# Indices 1 2 3 4 5 6 
#
# 1 91.4194 35.1446 26.1293 -0.0001 16.2515 0.0005
# 2 35.1446 114.5533 74.8646 -0.0001 -2.0786 0.0017
# 3 26.1293 74.8646 197.4586 0.0001 16.2789 0.0001
# 4 -0.0001 -0.0001 0.0001 14.4281 -0.0002 33.7084
# 5 16.2515 -2.0786 16.2789 -0.0002 18.9051 0.0000
# 6 0.0005 0.0017 0.0001 33.7084 0.0000 -16.3202
#
#
#
# Elastic Compliance Matrix: (Units=1/GPa)
#
#
# Indices 1 2 3 4 5 6 
#
# 1 0.015549 -0.006020 0.001487 0.000000 -0.015309 0.000000
# 2 -0.006020 0.014482 -0.005654 0.000000 0.011636 0.000000
# 3 0.001487 -0.005654 0.007715 0.000000 -0.008543 0.000000
# 4 0.000000 0.000000 0.000000 0.011898 0.000000 0.024574
# 5 -0.015309 0.011636 -0.008543 0.000000 0.074692 0.000000
# 6 0.000000 0.000000 0.000000 0.024574 0.000000 -0.010518
#
#
# Mechanical properties :
#
#
# Convention : Reuss Voigt Hill
#
# Bulk Modulus (GPa) = 57.55744 75.07871 66.31808
# Shear Modulus (GPa) = 35.71854 21.22211 28.47033
#
# Velocity S-wave (km/s) = 3.86874 2.98207 3.45398
# Velocity P-wave (km/s) = 6.63887 6.58159 6.61029
#
# Compressibility (1/GPa) = 0.01737395
#
# Stress axis : x y z
#
# Youngs Moduli (GPa) = 64.31114 69.04930 129.61087
#
# Poissons Ratio (x) = 0.41568 -0.19272
# Poissons Ratio (y) = 0.38716 0.73276
# Poissons Ratio (z) = -0.09563 0.39037
#
# Static dielectric constant tensor:
#      x y z
#    x 1.983420 0.000000 0.020680 
#    y 0.000000 2.092250 0.000000 
#    z 0.020680 0.000000 1.879500 
# 
# From -- ./inp_files/41160.got.cif
#   From: 2010.05.17/outbox.cif.g08.bks.cpg/sg5_21_cif.got.tgz:41160.got - 2010.06.03 18:56:24.
