data_PCOD9129191
_publ_section_title
;
Structure prediction by ZEFSAII (Michael W. Deem and Ramdas Pophale) SiO2 
 PCOD9129191
Probable space group: C 2
;
_chemical_formula_sum "Si O2"
_cell_formula_units_Z 28
_cell_length_a 11.267983
_cell_length_b 13.825604
_cell_length_c 10.196293
_cell_angle_alpha 90.000000
_cell_angle_beta 137.018372
_cell_angle_gamma 90.000000
_cell_volume 1082.945374
_symmetry_space_group_name_H-M "C 2"
_symmetry_group_IT_number 5
_symmetry_cell_setting 'monoclinic'
loop_
_space_group_symop_operation_xyz
x,y,z
-x,y,-z
1/2+x,1/2+y,z
1/2-x,1/2+y,-z
loop_
_atom_site_type_symbol
_atom_site_label
_atom_site_fract_x
_atom_site_fract_y
_atom_site_fract_z
Si Si1 0.063820 0.388730 0.916752
Si Si2 0.341641 0.157972 0.792098
Si Si3 0.103327 0.016120 0.728886
Si Si4 0.267809 0.861259 0.211958
Si Si5 0.036827 0.654778 0.393831
Si Si6 0.654230 0.575329 0.039162
Si Si7 0.776014 0.461197 0.495373
O O1 0.113116 0.338928 0.819564
O O2 0.905946 0.450909 0.724457
O O3 0.237117 0.444519 0.105909
O O4 0.000000 0.339846 0.000000
O O5 0.176000 0.086363 0.672013
O O6 0.319454 0.258665 0.846390
O O7 0.384661 0.190113 0.678585
O O8 0.500000 0.108301 0.000000
O O9 0.079998 0.958661 0.396883
O O10 0.095030 0.088674 0.843614
O O11 0.173082 0.960652 0.090207
O O12 0.311444 0.889349 0.400272
O O13 0.845029 0.617466 0.204754
O O14 0.000000 0.711408 0.500000
O O15 0.164973 0.563244 0.522787
O O16 0.500000 0.616470 0.000000
#
# Coordination Sequence:
#
# PCOD9129191 Si02
#       7
#     4   4   4   4   4   4   4
#     4  11  24  44  73 103 144 193 251 305 353 434
#     4  12  26  45  72 111 155 187 236 318 374 430
#     4  11  23  40  73 109 140 194 247 294 361 428
#     4  11  24  42  76 104 145 196 238 296 377 428
#     4  12  22  43  72 102 145 189 243 306 359 425
#     4  11  19  39  72 104 131 193 251 284 343 445
#     4  12  22  44  76 106 143 194 253 294 349 457
#
# _framework density 25.855414
#
# number of rings (size 3 to 8) (size 9 to 14) (size 15 to 20)
#    0.000    0.571    7.143    2.143    2.000    2.286 
#    5.143    2.143    3.143    0.000    0.000    0.000 
#    0.000    0.000    0.000    0.000    0.000    0.000 
#
# Total GULP energy -77971.070868 kJ/mol
# GULP energy per Si atom -5569.362205 kJ/mol
# Density = 2.579657 g / cm^3
# Si number density = 25.855414 Si / 1000 Ang^3
#
#
#
# Elastic Constant Matrix: (Units=GPa)
#
#
# Indices 1 2 3 4 5 6 
#
# 1 225.2669 45.5771 74.5754 0.0000 -24.9156 0.0000
# 2 45.5771 33.6953 13.0183 0.0000 -7.2006 0.0000
# 3 74.5754 13.0183 114.4503 0.0000 -27.4014 0.0000
# 4 0.0000 0.0000 0.0000 47.5462 0.0000 -31.5415
# 5 -24.9156 -7.2006 -27.4014 0.0000 68.7970 0.0000
# 6 0.0000 0.0000 0.0000 -31.5415 0.0000 23.5391
#
#
#
# Elastic Compliance Matrix: (Units=1/GPa)
#
#
# Indices 1 2 3 4 5 6 
#
# 1 0.007470 -0.008565 -0.003825 0.000000 0.000285 0.000000
# 2 -0.008565 0.041124 0.001317 0.000000 0.001727 0.000000
# 3 -0.003825 0.001317 0.011918 0.000000 0.003499 0.000000
# 4 0.000000 0.000000 0.000000 0.189334 0.000000 0.253701
# 5 0.000285 0.001727 0.003499 0.000000 0.016213 0.000000
# 6 0.000000 0.000000 0.000000 0.253701 0.000000 0.382433
#
#
# Mechanical properties :
#
#
# Convention : Reuss Voigt Hill
#
# Bulk Modulus (GPa) = 26.06565 71.08379 48.57472
# Shear Modulus (GPa) = 7.31608 43.99258 25.65433
#
# Velocity S-wave (km/s) = 1.68397 4.12938 3.15337
# Velocity P-wave (km/s) = 3.72615 7.09142 5.66447
#
# Compressibility (1/GPa) = 0.03836467
#
# Stress axis : x y z
#
# Youngs Moduli (GPa) = 133.87033 24.31699 83.90930
#
# Poissons Ratio (x) = 0.20828 0.32093
# Poissons Ratio (y) = 1.14664 -0.11049
# Poissons Ratio (z) = 0.51202 -0.03202
#
# Static dielectric constant tensor:
#      x y z
#    x 2.094240 0.000000 0.159940 
#    y 0.000000 1.999710 0.000000 
#    z 0.159940 0.000000 1.348200 
# 
# From -- ./inp_files/20709.got.cif
#   From: 2010.05.17/outbox.cif.g08.bks.cpg/sg5_11_cif.got.tgz:20709.got - 2010.06.03 18:56:24.
