data_PCOD9129844
_publ_section_title
;
Structure prediction by ZEFSAII (Michael W. Deem and Ramdas Pophale) SiO2 
 PCOD9129844
Probable space group: C 2
;
_chemical_formula_sum "Si O2"
_cell_formula_units_Z 20
_cell_length_a 7.885699
_cell_length_b 21.803749
_cell_length_c 9.210802
_cell_angle_alpha 90.000000
_cell_angle_beta 148.888434
_cell_angle_gamma 90.000000
_cell_volume 818.299833
_symmetry_space_group_name_H-M "C 2"
_symmetry_group_IT_number 5
_symmetry_cell_setting 'monoclinic'
loop_
_space_group_symop_operation_xyz
x,y,z
-x,y,-z
1/2+x,1/2+y,z
1/2-x,1/2+y,-z
loop_
_atom_site_type_symbol
_atom_site_label
_atom_site_fract_x
_atom_site_fract_y
_atom_site_fract_z
Si Si1 0.843711 0.981950 0.730273
Si Si2 0.409307 0.606268 0.105632
Si Si3 0.866446 0.865843 0.558694
Si Si4 0.756993 0.791267 0.958467
Si Si5 0.684070 0.179966 0.367086
O O1 0.500000 0.016308 0.500000
O O2 0.747637 0.925305 0.557685
O O3 0.059661 0.035841 0.821629
O O4 0.000000 0.962949 0.000000
O O5 0.650181 0.654056 0.365146
O O6 0.500000 0.608325 0.000000
O O7 0.032004 0.624529 0.851753
O O8 0.000000 0.880870 0.500000
O O9 0.172458 0.845193 0.878831
O O10 0.608481 0.808596 0.362218
O O11 0.895806 0.731718 0.145934
O O12 0.000000 0.795808 0.000000
O O13 0.000000 0.197204 0.500000
#
# Coordination Sequence:
#
# PCOD9129844 Si02
#       5
#     4   4   4   4   4
#     4  11  23  45  73 101 139 190 235 278 345 430
#     4  11  24  44  72 105 141 184 233 285 347 416
#     4  12  26  44  70 104 136 174 233 299 349 392
#     4  12  25  46  70  95 136 189 233 276 344 426
#     4  12  25  45  71 103 142 185 234 288 347 414
#
# _framework density 24.440920999999999
#
# number of rings (size 3 to 8) (size 9 to 14) (size 15 to 20)
#    0.000    0.400    0.000   11.400    0.000    4.000 
#    0.000    9.000    0.000    0.000    0.000    0.000 
#    0.000    0.000    0.000    0.000    0.000    0.000 
#
# Total GULP energy -55822.411696 kJ/mol
# GULP energy per Si atom -5582.241170 kJ/mol
# Density = 2.438529 g / cm^3
# Si number density = 24.440921 Si / 1000 Ang^3
#
#
#
# Elastic Constant Matrix: (Units=GPa)
#
#
# Indices 1 2 3 4 5 6 
#
# 1 61.0313 18.1232 35.9708 0.0000 -11.5919 0.0000
# 2 18.1232 102.7105 45.9071 0.0000 0.5146 0.0000
# 3 35.9708 45.9071 161.0223 0.0000 3.0602 0.0000
# 4 0.0000 0.0000 0.0000 35.6092 0.0000 -4.3501
# 5 -11.5919 0.5146 3.0602 0.0000 53.6251 0.0000
# 6 0.0000 0.0000 0.0000 -4.3501 0.0000 21.5760
#
#
#
# Elastic Compliance Matrix: (Units=1/GPa)
#
#
# Indices 1 2 3 4 5 6 
#
# 1 0.020199 -0.001755 -0.004100 0.000000 0.004617 0.000000
# 2 -0.001755 0.011311 -0.002826 0.000000 -0.000327 0.000000
# 3 -0.004100 -0.002826 0.007957 0.000000 -0.001313 0.000000
# 4 0.000000 0.000000 0.000000 0.028792 0.000000 0.005805
# 5 0.004617 -0.000327 -0.001313 0.000000 0.019724 0.000000
# 6 0.000000 0.000000 0.000000 0.005805 0.000000 0.047518
#
#
# Mechanical properties :
#
#
# Convention : Reuss Voigt Hill
#
# Bulk Modulus (GPa) = 45.23888 58.30734 51.77311
# Shear Modulus (GPa) = 31.20486 37.14629 34.17557
#
# Velocity S-wave (km/s) = 3.57704 3.90274 3.74343
# Velocity P-wave (km/s) = 5.96740 6.64957 6.31770
#
# Compressibility (1/GPa) = 0.02210488
#
# Stress axis : x y z
#
# Youngs Moduli (GPa) = 49.50633 88.41206 125.67657
#
# Poissons Ratio (x) = 0.15515 0.51525
# Poissons Ratio (y) = 0.08688 0.35521
# Poissons Ratio (z) = 0.20297 0.24989
#
# Static dielectric constant tensor:
#      x y z
#    x 2.140810 0.000000 0.003180 
#    y 0.000000 2.010150 0.000000 
#    z 0.003180 0.000000 1.926530 
# 
# From -- ./inp_files/17327.got.cif
#   From: 2010.05.17/outbox.cif.g08.bks.cpg/sg5_9_cif.got.tgz:17327.got - 2010.06.03 18:56:24.
