data_PCOD9129670
_publ_section_title
;
Structure prediction by ZEFSAII (Michael W. Deem and Ramdas Pophale) SiO2 
 PCOD9129670
Probable space group: C 2
;
_chemical_formula_sum "Si O2"
_cell_formula_units_Z 32
_cell_length_a 23.300387
_cell_length_b 15.144685
_cell_length_c 8.653135
_cell_angle_alpha 90.000000
_cell_angle_beta 149.616608
_cell_angle_gamma 90.000000
_cell_volume 1544.406832
_symmetry_space_group_name_H-M "C 2"
_symmetry_group_IT_number 5
_symmetry_cell_setting 'monoclinic'
loop_
_space_group_symop_operation_xyz
x,y,z
-x,y,-z
1/2+x,1/2+y,z
1/2-x,1/2+y,-z
loop_
_atom_site_type_symbol
_atom_site_label
_atom_site_fract_x
_atom_site_fract_y
_atom_site_fract_z
Si Si1 0.292240 0.432680 0.905542
Si Si2 0.603068 0.054605 0.350527
Si Si3 0.712260 0.553314 0.797638
Si Si4 0.203610 0.173742 0.329662
Si Si5 0.792698 0.240344 0.312468
Si Si6 0.969745 0.010107 0.092957
Si Si7 0.033771 0.295288 0.761808
Si Si8 0.056793 0.494464 0.795704
O O1 0.186458 0.471687 0.563234
O O2 0.271668 0.329704 0.884343
O O3 0.288179 0.493835 0.049313
O O4 0.404521 0.451294 0.067156
O O5 0.681212 0.133726 0.473886
O O6 0.529028 0.066064 0.332586
O O7 0.500000 0.033586 0.000000
O O8 0.734547 0.657783 0.862542
O O9 0.587801 0.543193 0.437221
O O10 0.813065 0.521190 0.919597
O O11 0.226134 0.214037 0.551736
O O12 0.114491 0.092210 0.137452
O O13 0.143368 0.240415 0.070048
O O14 0.925856 0.258901 0.602407
O O15 0.000000 0.965402 0.000000
O O16 0.051414 0.396619 0.853093
O O17 0.000000 0.287510 0.500000
O O18 0.000000 0.479019 0.500000
#
# Coordination Sequence:
#
# PCOD9129670 Si02
#       8
#     4   4   4   4   4   4   4   4
#     4  11  26  45  72 108 139 191 240 294 363 421
#     4  11  24  42  66  98 140 185 233 289 356 420
#     4  12  24  46  73 100 150 182 236 298 349 435
#     4  11  24  43  68 107 139 184 242 293 353 420
#     4  12  24  45  71 104 143 184 243 294 354 428
#     4  11  23  44  71 106 141 184 235 291 366 414
#     4  11  23  38  70 109 139 178 243 299 347 424
#     4  11  23  44  65 105 142 185 235 289 357 415
#
# _framework density 20.719930000000002
#
# number of rings (size 3 to 8) (size 9 to 14) (size 15 to 20)
#    0.000    0.750    5.000    2.250    7.000    0.000 
#    0.000    5.625    0.000    0.000    0.000    0.000 
#    0.000    0.000    0.000    0.000    0.000    0.000 
#
# Total GULP energy -89321.184109 kJ/mol
# GULP energy per Si atom -5582.574007 kJ/mol
# Density = 2.067277 g / cm^3
# Si number density = 20.719930 Si / 1000 Ang^3
#
#
#
# Elastic Constant Matrix: (Units=GPa)
#
#
# Indices 1 2 3 4 5 6 
#
# 1 140.6177 71.7554 45.1369 0.0000 24.7713 0.0000
# 2 71.7554 140.3506 46.7250 0.0000 -1.0338 0.0000
# 3 45.1369 46.7250 84.5348 0.0000 12.5898 0.0000
# 4 0.0000 0.0000 0.0000 34.2850 0.0000 2.3122
# 5 24.7713 -1.0338 12.5898 0.0000 39.3514 0.0000
# 6 0.0000 0.0000 0.0000 2.3122 0.0000 33.0584
#
#
#
# Elastic Compliance Matrix: (Units=1/GPa)
#
#
# Indices 1 2 3 4 5 6 
#
# 1 0.011754 -0.005277 -0.002348 0.000000 -0.006786 0.000000
# 2 -0.005277 0.011233 -0.004126 0.000000 0.004937 0.000000
# 3 -0.002348 -0.004126 0.015919 0.000000 -0.003723 0.000000
# 4 0.000000 0.000000 0.000000 0.029306 0.000000 -0.002050
# 5 -0.006786 0.004937 -0.003723 0.000000 0.031005 0.000000
# 6 0.000000 0.000000 0.000000 -0.002050 0.000000 0.030393
#
#
# Mechanical properties :
#
#
# Convention : Reuss Voigt Hill
#
# Bulk Modulus (GPa) = 64.92899 76.97086 70.94992
# Shear Modulus (GPa) = 31.59629 34.79800 33.19715
#
# Velocity S-wave (km/s) = 3.90926 4.10255 4.00707
# Velocity P-wave (km/s) = 7.19590 7.72464 7.46495
#
# Compressibility (1/GPa) = 0.01540144
#
# Stress axis : x y z
#
# Youngs Moduli (GPa) = 85.07988 89.02139 62.81985
#
# Poissons Ratio (x) = 0.46980 0.14751
# Poissons Ratio (y) = 0.44900 0.25922
# Poissons Ratio (z) = 0.19978 0.36734
#
# Static dielectric constant tensor:
#      x y z
#    x 1.801350 0.000000 -0.037910 
#    y 0.000000 1.755440 0.000000 
#    z -0.037910 0.000000 1.749230 
# 
# From -- ./inp_files/31091.got.cif
#   From: 2010.05.17/outbox.cif.g08.bks.cpg/sg5_16_cif.got.tgz:31091.got - 2010.06.03 18:56:24.
