data_PCOD9129327
_publ_section_title
;
Structure prediction by ZEFSAII (Michael W. Deem and Ramdas Pophale) SiO2 
 PCOD9129327
Probable space group: C 2
;
_chemical_formula_sum "Si O2"
_cell_formula_units_Z 20
_cell_length_a 13.437243
_cell_length_b 13.111418
_cell_length_c 5.017929
_cell_angle_alpha 90.000000
_cell_angle_beta 78.591452
_cell_angle_gamma 90.000000
_cell_volume 866.597654
_symmetry_space_group_name_H-M "C 2"
_symmetry_group_IT_number 5
_symmetry_cell_setting 'monoclinic'
loop_
_space_group_symop_operation_xyz
x,y,z
-x,y,-z
1/2+x,1/2+y,z
1/2-x,1/2+y,-z
loop_
_atom_site_type_symbol
_atom_site_label
_atom_site_fract_x
_atom_site_fract_y
_atom_site_fract_z
Si Si1 0.935718 0.526990 0.276089
Si Si2 0.895963 0.748925 0.082654
Si Si3 0.880967 0.141926 0.122844
Si Si4 0.801893 0.017838 0.663015
Si Si5 0.214391 0.792709 0.345576
O O1 0.929662 0.647872 0.222964
O O2 0.816848 0.503035 0.348568
O O3 0.000000 0.503452 0.500000
O O4 0.000000 0.480179 0.000000
O O5 0.811735 0.792394 0.327959
O O6 0.852320 0.721773 0.816485
O O7 0.000000 0.812029 0.000000
O O8 0.826309 0.248481 0.233853
O O9 0.859923 0.064393 0.379027
O O10 0.000000 0.152864 0.000000
O O11 0.825634 0.093260 0.893944
O O12 0.824872 0.902364 0.733277
#
# Coordination Sequence:
#
# PCOD9129327 Si02
#       5
#     4   4   4   4   4
#     4  11  21  39  67  97 129 168 217 281 349 400
#     4  11  22  39  68  98 130 169 219 285 350 400
#     4  12  26  48  70  98 145 192 232 286 352 420
#     4  12  26  44  71 102 137 184 236 287 345 422
#     4  12  24  44  68 101 139 180 234 284 343 424
#
# _framework density 23.078759999999999
#
# number of rings (size 3 to 8) (size 9 to 14) (size 15 to 20)
#    0.000    0.400    4.000    6.000    0.000    5.600 
#    0.000    2.000    0.000    0.000    0.000    0.000 
#    0.000    0.000    0.000    0.000    0.000    0.000 
#
# Total GULP energy -55808.811333 kJ/mol
# GULP energy per Si atom -5580.881133 kJ/mol
# Density = 2.302623 g / cm^3
# Si number density = 23.078760 Si / 1000 Ang^3
#
#
#
# Elastic Constant Matrix: (Units=GPa)
#
#
# Indices 1 2 3 4 5 6 
#
# 1 102.2050 -4.2316 27.9523 0.0000 -15.8187 0.0000
# 2 -4.2316 40.8014 11.9540 0.0000 -12.6877 0.0000
# 3 27.9523 11.9540 146.2930 0.0000 -1.8616 0.0000
# 4 0.0000 0.0000 0.0000 10.7969 0.0000 1.8707
# 5 -15.8187 -12.6877 -1.8616 0.0000 49.1192 0.0000
# 6 0.0000 0.0000 0.0000 1.8707 0.0000 11.9612
#
#
#
# Elastic Compliance Matrix: (Units=1/GPa)
#
#
# Indices 1 2 3 4 5 6 
#
# 1 0.011235 0.003210 -0.002354 0.000000 0.004358 0.000000
# 2 0.003210 0.028222 -0.002815 0.000000 0.008217 0.000000
# 3 -0.002354 -0.002815 0.007500 0.000000 -0.001201 0.000000
# 4 0.000000 0.000000 0.000000 0.095198 0.000000 -0.014888
# 5 0.004358 0.008217 -0.001201 0.000000 0.023839 0.000000
# 6 0.000000 0.000000 0.000000 -0.014888 0.000000 0.085932
#
#
# Mechanical properties :
#
#
# Convention : Reuss Voigt Hill
#
# Bulk Modulus (GPa) = 23.23401 40.07210 31.65305
# Shear Modulus (GPa) = 18.50545 31.28376 24.89461
#
# Velocity S-wave (km/s) = 2.83475 3.68574 3.28789
# Velocity P-wave (km/s) = 4.56109 5.95934 5.30647
#
# Compressibility (1/GPa) = 0.04304036
#
# Stress axis : x y z
#
# Youngs Moduli (GPa) = 89.00435 35.43368 133.33271
#
# Poissons Ratio (x) = -0.11374 0.31381
# Poissons Ratio (y) = -0.28571 0.37531
# Poissons Ratio (z) = 0.20948 0.09974
#
# Static dielectric constant tensor:
#      x y z
#    x 2.033540 0.000000 -0.075740 
#    y 0.000000 1.995830 0.000000 
#    z -0.075740 0.000000 1.865900 
# 
# From -- ./inp_files/4740.got.cif
#   From: 2010.05.17/outbox.cif.g08.bks.cpg/sg5_3_cif.got.tgz:4740.got - 2010.06.03 18:56:24.
