data_PCOD9129158
_publ_section_title
;
Structure prediction by ZEFSAII (Michael W. Deem and Ramdas Pophale) SiO2 
 PCOD9129158
Probable space group: C 2
;
_chemical_formula_sum "Si O2"
_cell_formula_units_Z 22
_cell_length_a 8.099195
_cell_length_b 25.941123
_cell_length_c 7.835956
_cell_angle_alpha 90.000000
_cell_angle_beta 143.036190
_cell_angle_gamma 90.000000
_cell_volume 989.968495
_symmetry_space_group_name_H-M "C 2"
_symmetry_group_IT_number 5
_symmetry_cell_setting 'monoclinic'
loop_
_space_group_symop_operation_xyz
x,y,z
-x,y,-z
1/2+x,1/2+y,z
1/2-x,1/2+y,-z
loop_
_atom_site_type_symbol
_atom_site_label
_atom_site_fract_x
_atom_site_fract_y
_atom_site_fract_z
Si Si1 0.193341 0.292060 0.324230
Si Si2 0.783662 0.570986 0.471517
Si Si3 0.193849 0.180601 0.323609
Si Si4 0.000000 0.529715 0.000000
Si Si5 0.024828 0.401012 0.229079
Si Si6 0.532465 0.468001 0.781952
O O1 0.500000 0.301646 0.500000
O O2 0.173220 0.236249 0.398224
O O3 0.080770 0.342075 0.329524
O O4 0.000000 0.286674 0.000000
O O5 0.638494 0.626451 0.371582
O O6 0.609040 0.520841 0.272137
O O7 0.000000 0.576803 0.500000
O O8 0.934008 0.559848 0.773894
O O9 0.500000 0.181430 0.500000
O O10 0.000000 0.179195 0.000000
O O11 0.260398 0.493812 0.182268
O O12 0.289654 0.432461 0.510955
O O13 0.000000 0.397621 0.000000
O O14 0.750316 0.431502 0.063599
#
# Coordination Sequence:
#
# PCOD9129158 Si02
#       6
#     4   4   4   2   4   4
#     4   9  17  29  51  83 119 159 201 255 312 359
#     4  11  25  41  65  90 134 169 207 257 315 367
#     4   9  20  36  55  85 124 160 207 259 304 368
#     4  12  24  42  60  94 130 160 216 250 312 378
#     4  11  18  31  54  84 125 161 199 255 314 360
#     4  12  23  36  57  91 128 163 205 259 305 379
#
# _framework density 22.222929000000001
#
# number of rings (size 3 to 8) (size 9 to 14) (size 15 to 20)
#    0.000    1.455    2.727    4.364    5.091    0.000 
#    0.000    0.000    0.000    0.000    0.000    5.091 
#    0.000    0.000    0.000    0.000    0.000    0.000 
#
# Total GULP energy -61314.280686 kJ/mol
# GULP energy per Si atom -5574.025517 kJ/mol
# Density = 2.217235 g / cm^3
# Si number density = 22.222929 Si / 1000 Ang^3
#
#
#
# Elastic Constant Matrix: (Units=GPa)
#
#
# Indices 1 2 3 4 5 6 
#
# 1 36.4157 25.9078 24.3741 0.0000 -3.1682 0.0000
# 2 25.9078 271.6770 59.8047 0.0000 2.1860 0.0000
# 3 24.3741 59.8047 163.3028 0.0000 20.1290 0.0000
# 4 0.0000 0.0000 0.0000 -52.9547 0.0000 -15.4996
# 5 -3.1682 2.1860 20.1290 0.0000 31.1261 0.0000
# 6 0.0000 0.0000 0.0000 -15.4996 0.0000 18.5990
#
#
#
# Elastic Compliance Matrix: (Units=1/GPa)
#
#
# Indices 1 2 3 4 5 6 
#
# 1 0.032856 -0.002095 -0.004963 0.000000 0.006701 0.000000
# 2 -0.002095 0.004152 -0.001245 0.000000 0.000300 0.000000
# 3 -0.004963 -0.001245 0.008010 0.000000 -0.005598 0.000000
# 4 0.000000 0.000000 0.000000 -0.015181 0.000000 -0.012651
# 5 0.006701 0.000300 -0.005598 0.000000 0.036408 0.000000
# 6 0.000000 0.000000 0.000000 -0.012651 0.000000 0.043223
#
#
# Mechanical properties :
#
#
# Convention : Reuss Voigt Hill
#
# Bulk Modulus (GPa) = 35.19482 76.84095 56.01788
# Shear Modulus (GPa) = 36.88820 23.44134 30.16477
#
# Velocity S-wave (km/s) = 4.07863 3.25133 3.68825
# Velocity P-wave (km/s) = 6.16861 6.98193 6.58783
#
# Compressibility (1/GPa) = 0.02841327
#
# Stress axis : x y z
#
# Youngs Moduli (GPa) = 30.43621 240.83375 124.83970
#
# Poissons Ratio (x) = 0.50446 0.61955
# Poissons Ratio (y) = 0.06375 0.15543
# Poissons Ratio (z) = 0.15105 0.29984
#
# Static dielectric constant tensor:
#      x y z
#    x 1.852540 0.000000 0.016790 
#    y 0.000000 1.962190 0.000000 
#    z 0.016790 0.000000 1.969320 
# 
# From -- ./inp_files/17500.got.cif
#   From: 2010.05.17/outbox.cif.g08.bks.cpg/sg5_9_cif.got.tgz:17500.got - 2010.06.03 18:56:24.
