data_PCOD9129942
_publ_section_title
;
Structure prediction by ZEFSAII (Michael W. Deem and Ramdas Pophale) SiO2 
 PCOD9129942
Probable space group: C 2
;
_chemical_formula_sum "Si O2"
_cell_formula_units_Z 18
_cell_length_a 5.402406
_cell_length_b 22.722835
_cell_length_c 7.571768
_cell_angle_alpha 90.000000
_cell_angle_beta 112.885192
_cell_angle_gamma 90.000000
_cell_volume 856.330628
_symmetry_space_group_name_H-M "C 2"
_symmetry_group_IT_number 5
_symmetry_cell_setting 'monoclinic'
loop_
_space_group_symop_operation_xyz
x,y,z
-x,y,-z
1/2+x,1/2+y,z
1/2-x,1/2+y,-z
loop_
_atom_site_type_symbol
_atom_site_label
_atom_site_fract_x
_atom_site_fract_y
_atom_site_fract_z
Si Si1 0.825703 0.238430 0.791295
Si Si2 0.000000 0.300269 0.500000
Si Si3 0.000000 0.070973 0.500000
Si Si4 0.476273 0.357439 0.204930
Si Si5 0.000000 0.647349 0.500000
Si Si6 0.816748 0.987959 0.128195
O O1 0.709504 0.301961 0.808523
O O2 0.603264 0.191210 0.680545
O O3 0.985033 0.255847 0.660188
O O4 0.000000 0.215624 0.000000
O O5 0.253078 0.342155 0.612470
O O6 0.252649 0.109317 0.503452
O O7 0.090230 0.031943 0.692674
O O8 0.359943 0.421504 0.213588
O O9 0.500000 0.357775 0.000000
O O10 0.500000 0.995856 0.000000
O O11 0.000000 0.994437 0.000000
#
# Coordination Sequence:
#
# PCOD9129942 Si02
#       6
#     4   2   2   4   2   4
#     4  12  25  44  70 104 149 186 231 299 362 434
#     4  12  23  41  68 106 153 187 228 278 364 442
#     4  12  29  51  76 103 140 199 256 302 342 422
#     4  11  24  41  73 109 146 184 230 290 373 442
#     4  12  28  48  74 107 141 196 258 288 360 418
#     4  11  27  49  76 108 147 188 241 301 365 428
#
# _framework density 21.019917
#
# number of rings (size 3 to 8) (size 9 to 14) (size 15 to 20)
#    0.000    0.444    4.444    2.667    6.222    3.556 
#    0.000    2.222    0.000    0.000    0.000    0.000 
#    0.000    0.000    0.000    0.000    0.000    0.000 
#
# Total GULP energy -50330.141748 kJ/mol
# GULP energy per Si atom -5592.237972 kJ/mol
# Density = 2.097207 g / cm^3
# Si number density = 21.019917 Si / 1000 Ang^3
#
#
#
# Elastic Constant Matrix: (Units=GPa)
#
#
# Indices 1 2 3 4 5 6 
#
# 1 121.6515 65.9537 56.9387 0.0000 13.1556 0.0000
# 2 65.9537 144.9790 66.8220 0.0000 3.4389 0.0000
# 3 56.9387 66.8220 171.8297 0.0000 26.2929 0.0000
# 4 0.0000 0.0000 0.0000 66.0238 0.0000 40.4970
# 5 13.1556 3.4389 26.2929 0.0000 38.1358 0.0000
# 6 0.0000 0.0000 0.0000 40.4970 0.0000 27.1333
#
#
#
# Elastic Compliance Matrix: (Units=1/GPa)
#
#
# Indices 1 2 3 4 5 6 
#
# 1 0.011734 -0.004458 -0.001785 0.000000 -0.002415 0.000000
# 2 -0.004458 0.010194 -0.002886 0.000000 0.002608 0.000000
# 3 -0.001785 -0.002886 0.008272 0.000000 -0.004827 0.000000
# 4 0.000000 0.000000 0.000000 0.179177 0.000000 -0.267426
# 5 -0.002415 0.002608 -0.004827 0.000000 0.030148 0.000000
# 6 0.000000 0.000000 0.000000 -0.267426 0.000000 0.435995
#
#
# Mechanical properties :
#
#
# Convention : Reuss Voigt Hill
#
# Bulk Modulus (GPa) = 83.74018 90.87654 87.30836
# Shear Modulus (GPa) = 7.16579 42.84161 25.00370
#
# Velocity S-wave (km/s) = 1.84836 4.51948 3.45269
# Velocity P-wave (km/s) = 6.66935 8.40010 7.58426
#
# Compressibility (1/GPa) = 0.01194170
#
# Stress axis : x y z
#
# Youngs Moduli (GPa) = 85.22475 98.09766 120.88560
#
# Poissons Ratio (x) = 0.43731 0.21578
# Poissons Ratio (y) = 0.37992 0.34890
# Poissons Ratio (z) = 0.15213 0.28313
#
# Static dielectric constant tensor:
#      x y z
#    x 1.805000 0.000000 0.039250 
#    y 0.000000 1.738200 0.000000 
#    z 0.039250 0.000000 1.625340 
# 
# From -- ./inp_files/12025.got.cif
#   From: 2010.05.17/outbox.cif.g08.bks.cpg/sg5_7_cif.got.tgz:12025.got - 2010.06.03 18:56:24.
