data_PCOD9129397
_publ_section_title
;
Structure prediction by ZEFSAII (Michael W. Deem and Ramdas Pophale) SiO2 
 PCOD9129397
Probable space group: C 2
;
_chemical_formula_sum "Si O2"
_cell_formula_units_Z 32
_cell_length_a 15.747248
_cell_length_b 13.713307
_cell_length_c 20.734434
_cell_angle_alpha 90.000000
_cell_angle_beta 18.476240
_cell_angle_gamma 90.000000
_cell_volume 1418.981945
_symmetry_space_group_name_H-M "C 2"
_symmetry_group_IT_number 5
_symmetry_cell_setting 'monoclinic'
loop_
_space_group_symop_operation_xyz
x,y,z
-x,y,-z
1/2+x,1/2+y,z
1/2-x,1/2+y,-z
loop_
_atom_site_type_symbol
_atom_site_label
_atom_site_fract_x
_atom_site_fract_y
_atom_site_fract_z
Si Si1 0.422435 0.203360 0.364265
Si Si2 0.808077 0.876173 0.751335
Si Si3 0.211084 0.227329 0.722417
Si Si4 0.404448 0.581958 0.726511
Si Si5 0.197788 0.781902 0.036685
Si Si6 0.378023 0.569592 0.027880
Si Si7 0.200734 0.655606 0.741459
Si Si8 0.788605 0.508611 0.993484
O O1 0.518040 0.289723 0.341773
O O2 0.531456 0.239066 0.216744
O O3 0.122164 0.167005 0.577615
O O4 0.587609 0.104931 0.259000
O O5 0.762902 0.835419 0.712455
O O6 0.964651 0.975896 0.650745
O O7 0.500000 0.887572 0.000000
O O8 0.500000 0.182984 0.500000
O O9 0.063505 0.165593 0.884247
O O10 0.992854 0.233199 0.822976
O O11 0.219304 0.623565 0.802129
O O12 0.327378 0.548401 0.854806
O O13 0.006884 0.746112 0.116810
O O14 0.258740 0.892716 0.010882
O O15 0.352837 0.533441 0.972958
O O16 0.500000 0.510346 0.000000
O O17 0.500000 0.677141 0.500000
O O18 0.074122 0.564955 0.791439
#
# Coordination Sequence:
#
# PCOD9129397 Si02
#       8
#     4   4   4   4   4   4   4   4
#     4  11  21  44  69  96 148 191 228 298 378 425
#     4  12  21  43  73  98 139 194 237 299 366 434
#     4  11  22  38  70 104 135 175 246 304 350 420
#     4  12  26  40  72 112 142 187 255 296 354 435
#     4  11  23  47  71  99 154 197 230 295 392 432
#     4  11  22  44  69  95 141 192 234 300 372 429
#     4  12  24  46  75 106 149 199 237 299 373 440
#     4  12  25  44  74 106 143 192 250 306 350 451
#
# _framework density 22.551379000000001
#
# number of rings (size 3 to 8) (size 9 to 14) (size 15 to 20)
#    0.000    0.500    8.750    1.875    1.750    3.000 
#    0.000    4.375    0.000    0.000    0.000    0.000 
#    0.000    0.000    0.000    0.000    0.000    0.000 
#
# Total GULP energy -89159.115514 kJ/mol
# GULP energy per Si atom -5572.444720 kJ/mol
# Density = 2.250005 g / cm^3
# Si number density = 22.551379 Si / 1000 Ang^3
#
#
#
# Elastic Constant Matrix: (Units=GPa)
#
#
# Indices 1 2 3 4 5 6 
#
# 1 178.6360 47.6504 43.4453 0.6408 -29.1188 -0.0637
# 2 47.6504 95.4953 41.9461 0.0561 -22.8595 0.1809
# 3 43.4453 41.9461 96.9154 0.0928 -15.5936 -0.0763
# 4 0.6408 0.0561 0.0928 12.7258 -0.4331 -6.4392
# 5 -29.1188 -22.8595 -15.5936 -0.4331 26.2510 0.0512
# 6 -0.0637 0.1809 -0.0763 -6.4392 0.0512 42.4604
#
#
#
# Elastic Compliance Matrix: (Units=1/GPa)
#
#
# Indices 1 2 3 4 5 6 
#
# 1 0.007372 -0.001536 -0.001702 -0.000162 0.005826 -0.000017
# 2 -0.001536 0.015380 -0.004519 0.000331 0.009010 -0.000037
# 3 -0.001702 -0.004519 0.013379 0.000108 0.002126 0.000055
# 4 -0.000162 0.000331 0.000108 0.085174 0.001552 0.012913
# 5 0.005826 0.009010 0.002126 0.001552 0.053691 0.000145
# 6 -0.000017 -0.000037 0.000055 0.012913 0.000145 0.025510
#
#
# Mechanical properties :
#
#
# Convention : Reuss Voigt Hill
#
# Bulk Modulus (GPa) = 48.50392 70.79229 59.64810
# Shear Modulus (GPa) = 22.43252 32.15443 27.29348
#
# Velocity S-wave (km/s) = 3.15736 3.78011 3.48268
# Velocity P-wave (km/s) = 5.90311 7.10718 6.53295
#
# Compressibility (1/GPa) = 0.02061689
#
# Stress axis : x y z
#
# Youngs Moduli (GPa) = 135.64932 65.02095 74.74342
#
# Poissons Ratio (x) = 0.09987 0.12724
# Poissons Ratio (y) = 0.20836 0.33773
# Poissons Ratio (z) = 0.23093 0.29380
#
# Static dielectric constant tensor:
#      x y z
#    x 1.952310 0.000000 -0.038700 
#    y 0.000000 1.864210 -0.000030 
#    z -0.038700 -0.000030 1.958630 
# 
# From -- ./inp_files/66242.got.cif
#   From: 2010.05.17/outbox.cif.g08.bks.cpg/sg5_34_cif.got.tgz:66242.got - 2010.06.03 18:56:24.
