data_PCOD9129103
_publ_section_title
;
Structure prediction by ZEFSAII (Michael W. Deem and Ramdas Pophale) SiO2 
 PCOD9129103
Probable space group: C 2
;
_chemical_formula_sum "Si O2"
_cell_formula_units_Z 16
_cell_length_a 9.409871
_cell_length_b 5.201772
_cell_length_c 21.560593
_cell_angle_alpha 90.000000
_cell_angle_beta 147.081798
_cell_angle_gamma 90.000000
_cell_volume 573.519528
_symmetry_space_group_name_H-M "C 2"
_symmetry_group_IT_number 5
_symmetry_cell_setting 'monoclinic'
loop_
_space_group_symop_operation_xyz
x,y,z
-x,y,-z
1/2+x,1/2+y,z
1/2-x,1/2+y,-z
loop_
_atom_site_type_symbol
_atom_site_label
_atom_site_fract_x
_atom_site_fract_y
_atom_site_fract_z
Si Si1 0.699719 0.533120 0.655771
Si Si2 0.556386 0.449862 0.786657
Si Si3 0.897481 0.264018 0.075001
Si Si4 0.163917 0.730212 0.408743
O O1 0.433314 0.698096 0.543505
O O2 0.838139 0.498117 0.640219
O O3 0.577115 0.273544 0.635573
O O4 0.898724 0.718418 0.764544
O O5 0.588700 0.680636 0.846903
O O6 0.384673 0.455336 0.659916
O O7 0.834194 0.351488 0.861175
O O8 0.798279 0.000780 0.006921
#
# Coordination Sequence:
#
# PCOD9129103 Si02
#       4
#     4   4   4   4
#     4   9  21  43  73 115 150 201 247 320 389 498
#     4  10  26  50  80 110 160 210 264 332 416 466
#     4  12  30  56  80 120 158 216 282 348 398 474
#     4   9  21  43  73 115 150 201 247 320 389 498
#
# _framework density 27.897914
#
# number of rings (size 3 to 8) (size 9 to 14) (size 15 to 20)
#    1.500    0.500    0.000    0.750    7.000    4.000 
#    0.000   15.000    0.000    0.000    0.000    0.000 
#    0.000    0.000    0.000    0.000    0.000    0.000 
#
# Total GULP energy -44623.686629 kJ/mol
# GULP energy per Si atom -5577.960829 kJ/mol
# Density = 2.783442 g / cm^3
# Si number density = 27.897914 Si / 1000 Ang^3
#
#
#
# Elastic Constant Matrix: (Units=GPa)
#
#
# Indices 1 2 3 4 5 6 
#
# 1 148.6938 45.9501 24.6404 -0.0010 9.0210 0.0005
# 2 45.9501 158.4594 34.5216 -0.0026 4.2705 0.0028
# 3 24.6404 34.5216 114.0244 0.0013 -8.3108 0.0003
# 4 -0.0010 -0.0026 0.0013 18.0218 0.0004 -4.1471
# 5 9.0210 4.2705 -8.3108 0.0004 50.6035 -0.0005
# 6 0.0005 0.0028 0.0003 -4.1471 -0.0005 63.3834
#
#
#
# Elastic Compliance Matrix: (Units=1/GPa)
#
#
# Indices 1 2 3 4 5 6 
#
# 1 0.007592 -0.001911 -0.001163 0.000000 -0.001383 0.000000
# 2 -0.001911 0.007280 -0.001833 0.000001 -0.000575 0.000000
# 3 -0.001163 -0.001833 0.009719 -0.000001 0.001958 0.000000
# 4 0.000000 0.000001 -0.000001 0.056337 -0.000001 0.003686
# 5 -0.001383 -0.000575 0.001958 -0.000001 0.020378 0.000000
# 6 0.000000 0.000000 0.000000 0.003686 0.000000 0.016018
#
#
# Mechanical properties :
#
#
# Convention : Reuss Voigt Hill
#
# Bulk Modulus (GPa) = 67.67084 70.15575 68.91329
# Shear Modulus (GPa) = 37.86056 47.47277 42.66666
#
# Velocity S-wave (km/s) = 3.68789 4.12959 3.91498
# Velocity P-wave (km/s) = 6.51486 6.92387 6.72247
#
# Compressibility (1/GPa) = 0.01477741
#
# Stress axis : x y z
#
# Youngs Moduli (GPa) = 131.71042 137.36791 102.89119
#
# Poissons Ratio (x) = 0.26251 0.11966
# Poissons Ratio (y) = 0.25170 0.18859
# Poissons Ratio (z) = 0.15317 0.25178
#
# Static dielectric constant tensor:
#      x y z
#    x 2.248210 0.000000 -0.106080 
#    y 0.000000 2.206880 0.000000 
#    z -0.106080 0.000000 2.325330 
# 
# From -- ./inp_files/68115.got.cif
#   From: 2010.05.17/outbox.cif.g08.bks.cpg/sg5_35_cif.got.tgz:68115.got - 2010.06.03 18:56:24.
