data_PCOD9129018
_publ_section_title
;
Structure prediction by ZEFSAII (Michael W. Deem and Ramdas Pophale) SiO2 
 PCOD9129018
Probable space group: C 2
;
_chemical_formula_sum "Si O2"
_cell_formula_units_Z 28
_cell_length_a 19.137783
_cell_length_b 5.790323
_cell_length_c 11.014789
_cell_angle_alpha 90.000000
_cell_angle_beta 87.334578
_cell_angle_gamma 90.000000
_cell_volume 1219.271691
_symmetry_space_group_name_H-M "C 2"
_symmetry_group_IT_number 5
_symmetry_cell_setting 'monoclinic'
loop_
_space_group_symop_operation_xyz
x,y,z
-x,y,-z
1/2+x,1/2+y,z
1/2-x,1/2+y,-z
loop_
_atom_site_type_symbol
_atom_site_label
_atom_site_fract_x
_atom_site_fract_y
_atom_site_fract_z
Si Si1 0.000000 0.275501 0.500000
Si Si2 0.351394 0.767571 0.211973
Si Si3 0.510136 0.493216 0.737682
Si Si4 0.406464 0.126626 0.385782
Si Si5 0.766611 0.787819 0.439730
Si Si6 0.739169 0.909995 0.183959
Si Si7 0.000000 0.856720 0.000000
Si Si8 0.350273 0.106383 0.012902
O O1 0.065069 0.441490 0.523088
O O2 0.982557 0.128527 0.622189
O O3 0.415394 0.607917 0.240485
O O4 0.282462 0.625302 0.232750
O O5 0.360917 0.992866 0.290718
O O6 0.353536 0.857862 0.076348
O O7 0.527126 0.238002 0.686927
O O8 0.479890 0.488354 0.876044
O O9 0.351842 0.313473 0.436389
O O10 0.757509 0.532941 0.501007
O O11 0.729873 0.768574 0.309020
O O12 0.790623 0.767539 0.085147
O O13 0.675477 0.032238 0.118652
O O14 0.927557 0.714519 0.025146
#
# Coordination Sequence:
#
# PCOD9129018 Si02
#       8
#     2   4   4   4   4   4   2   4
#     4  10  26  44  76 104 136 216 246 308 370 490
#     4  11  19  42  75  99 135 206 246 304 379 482
#     4  11  23  45  75 101 151 193 251 311 393 465
#     4  11  22  47  72 101 146 200 253 301 393 470
#     4  12  27  47  76 109 152 201 258 322 379 449
#     4  12  24  46  74 109 142 206 254 312 389 480
#     4  12  24  48  72 122 146 196 246 346 388 448
#     4  12  25  44  78 106 153 186 259 313 391 462
#
# _framework density 22.96453
#
# number of rings (size 3 to 8) (size 9 to 14) (size 15 to 20)
#    0.000    0.571    7.143    1.286    2.000    0.571 
#    5.143    2.857    0.000    0.000    0.000    0.000 
#    0.000    0.000    0.000    0.000    0.000    0.000 
#
# Total GULP energy -78022.210162 kJ/mol
# GULP energy per Si atom -5573.015012 kJ/mol
# Density = 2.291226 g / cm^3
# Si number density = 22.964530 Si / 1000 Ang^3
#
#
#
# Elastic Constant Matrix: (Units=GPa)
#
#
# Indices 1 2 3 4 5 6 
#
# 1 32.3370 -0.6720 8.8714 0.0000 5.0773 0.0000
# 2 -0.6720 71.2241 25.1951 0.0000 -0.4747 0.0000
# 3 8.8714 25.1951 104.9074 0.0000 6.6902 0.0000
# 4 0.0000 0.0000 0.0000 45.9995 0.0000 14.0092
# 5 5.0773 -0.4747 6.6902 0.0000 36.3122 0.0000
# 6 0.0000 0.0000 0.0000 14.0092 0.0000 24.2092
#
#
#
# Elastic Compliance Matrix: (Units=1/GPa)
#
#
# Indices 1 2 3 4 5 6 
#
# 1 0.032341 0.001263 -0.002784 0.000000 -0.003993 0.000000
# 2 0.001263 0.015422 -0.003857 0.000000 0.000736 0.000000
# 3 -0.002784 -0.003857 0.010799 0.000000 -0.001651 0.000000
# 4 0.000000 0.000000 0.000000 0.026390 0.000000 -0.015271
# 5 -0.003993 0.000736 -0.001651 0.000000 0.028411 0.000000
# 6 0.000000 0.000000 0.000000 -0.015271 0.000000 0.050144
#
#
# Mechanical properties :
#
#
# Convention : Reuss Voigt Hill
#
# Bulk Modulus (GPa) = 20.91776 30.58417 25.75097
# Shear Modulus (GPa) = 26.28833 32.97577 29.63205
#
# Velocity S-wave (km/s) = 3.38707 3.79350 3.59603
# Velocity P-wave (km/s) = 4.94214 5.70389 5.33663
#
# Compressibility (1/GPa) = 0.04780626
#
# Stress axis : x y z
#
# Youngs Moduli (GPa) = 30.92035 64.84421 92.59840
#
# Poissons Ratio (x) = -0.08191 0.25776
# Poissons Ratio (y) = -0.03906 0.35720
# Poissons Ratio (z) = 0.08607 0.25013
#
# Static dielectric constant tensor:
#      x y z
#    x 1.875150 0.000000 -0.084010 
#    y 0.000000 1.909540 0.000000 
#    z -0.084010 0.000000 2.025580 
# 
# From -- ./inp_files/45481.got.cif
#   From: 2010.05.17/outbox.cif.g08.bks.cpg/sg5_23_cif.got.tgz:45481.got - 2010.06.03 18:56:24.
