data_PCOD9129868
_publ_section_title
;
Structure prediction by ZEFSAII (Michael W. Deem and Ramdas Pophale) SiO2 
 PCOD9129868
Probable space group: C 2
;
_chemical_formula_sum "Si O2"
_cell_formula_units_Z 28
_cell_length_a 25.220515
_cell_length_b 9.013334
_cell_length_c 8.703523
_cell_angle_alpha 90.000000
_cell_angle_beta 139.817621
_cell_angle_gamma 90.000000
_cell_volume 1276.568643
_symmetry_space_group_name_H-M "C 2"
_symmetry_group_IT_number 5
_symmetry_cell_setting 'monoclinic'
loop_
_space_group_symop_operation_xyz
x,y,z
-x,y,-z
1/2+x,1/2+y,z
1/2-x,1/2+y,-z
loop_
_atom_site_type_symbol
_atom_site_label
_atom_site_fract_x
_atom_site_fract_y
_atom_site_fract_z
Si Si1 0.599454 0.850260 0.606596
Si Si2 0.698519 0.674031 0.286418
Si Si3 0.074543 0.428400 0.896652
Si Si4 0.863086 0.722958 0.819503
Si Si5 0.718398 0.402802 0.101096
Si Si6 0.418756 0.502398 0.772835
Si Si7 0.918074 0.997566 0.413425
O O1 0.594751 0.938428 0.758129
O O2 0.521734 0.885485 0.325367
O O3 0.686341 0.883328 0.722281
O O4 0.592660 0.675168 0.629683
O O5 0.791769 0.711946 0.533679
O O6 0.700859 0.552384 0.157887
O O7 0.660192 0.596090 0.352496
O O8 0.638107 0.806237 0.103568
O O9 0.089282 0.574834 0.030072
O O10 0.816037 0.772728 0.869067
O O11 0.917736 0.858029 0.879463
O O12 0.661805 0.415069 0.826773
O O13 0.423882 0.467973 0.606255
O O14 0.500000 0.592156 0.000000
O O15 0.000000 0.954354 0.500000
#
# Coordination Sequence:
#
# PCOD9129868 Si02
#       7
#     4   4   4   4   4   4   4
#     4  11  24  42  73 108 134 191 239 299 362 414
#     4  11  23  46  72 100 139 189 237 286 349 444
#     4  11  23  46  71  99 152 182 237 298 352 436
#     4  11  26  44  65 107 142 182 230 297 366 413
#     4  11  25  42  70 105 137 185 246 290 359 427
#     4  11  25  44  69 100 135 183 237 286 358 421
#     4  12  23  47  74 101 140 188 251 295 350 443
#
# _framework density 21.933799
#
# number of rings (size 3 to 8) (size 9 to 14) (size 15 to 20)
#    0.000    0.857    2.857    5.143    6.000    1.143 
#    7.714    3.571    0.000    0.000    0.000    0.000 
#    0.000    0.000    0.000    0.000    0.000    0.000 
#
# Total GULP energy -78302.301003 kJ/mol
# GULP energy per Si atom -5593.021500 kJ/mol
# Density = 2.188388 g / cm^3
# Si number density = 21.933799 Si / 1000 Ang^3
#
#
#
# Elastic Constant Matrix: (Units=GPa)
#
#
# Indices 1 2 3 4 5 6 
#
# 1 108.9038 -5.6675 24.2430 0.0000 10.1703 0.0000
# 2 -5.6675 49.1735 14.5423 0.0000 5.2151 0.0000
# 3 24.2430 14.5423 138.6440 0.0000 1.3271 0.0000
# 4 0.0000 0.0000 0.0000 43.7442 0.0000 1.0736
# 5 10.1703 5.2151 1.3271 0.0000 43.0484 0.0000
# 6 0.0000 0.0000 0.0000 1.0736 0.0000 8.2962
#
#
#
# Elastic Compliance Matrix: (Units=1/GPa)
#
#
# Indices 1 2 3 4 5 6 
#
# 1 0.009950 0.001984 -0.001924 0.000000 -0.002532 0.000000
# 2 0.001984 0.021650 -0.002589 0.000000 -0.003012 0.000000
# 3 -0.001924 -0.002589 0.007816 0.000000 0.000527 0.000000
# 4 0.000000 0.000000 0.000000 0.022933 0.000000 -0.002968
# 5 -0.002532 -0.003012 0.000527 0.000000 0.024176 0.000000
# 6 0.000000 0.000000 0.000000 -0.002968 0.000000 0.120921
#
#
# Mechanical properties :
#
#
# Convention : Reuss Voigt Hill
#
# Bulk Modulus (GPa) = 29.10451 40.32853 34.71652
# Shear Modulus (GPa) = 22.32582 36.59134 29.45858
#
# Velocity S-wave (km/s) = 3.19387 4.08887 3.66876
# Velocity P-wave (km/s) = 5.18644 6.38108 5.81452
#
# Compressibility (1/GPa) = 0.03435894
#
# Stress axis : x y z
#
# Youngs Moduli (GPa) = 100.49861 46.18954 127.94890
#
# Poissons Ratio (x) = -0.09165 0.24615
# Poissons Ratio (y) = -0.19942 0.33126
# Poissons Ratio (z) = 0.19334 0.11958
#
# Static dielectric constant tensor:
#      x y z
#    x 1.771980 0.000000 0.018810 
#    y 0.000000 1.787490 0.000000 
#    z 0.018810 0.000000 1.707620 
# 
# From -- ./inp_files/31780.got.cif
#   From: 2010.05.17/outbox.cif.g08.bks.cpg/sg5_16_cif.got.tgz:31780.got - 2010.06.03 18:56:24.
