data_PCOD9129088
_publ_section_title
;
Structure prediction by ZEFSAII (Michael W. Deem and Ramdas Pophale) SiO2 
 PCOD9129088
Probable space group: C 2
;
_chemical_formula_sum "Si O2"
_cell_formula_units_Z 22
_cell_length_a 21.344691
_cell_length_b 8.506310
_cell_length_c 9.424301
_cell_angle_alpha 90.000000
_cell_angle_beta 148.575021
_cell_angle_gamma 90.000000
_cell_volume 892.146161
_symmetry_space_group_name_H-M "C 2"
_symmetry_group_IT_number 5
_symmetry_cell_setting 'monoclinic'
loop_
_space_group_symop_operation_xyz
x,y,z
-x,y,-z
1/2+x,1/2+y,z
1/2-x,1/2+y,-z
loop_
_atom_site_type_symbol
_atom_site_label
_atom_site_fract_x
_atom_site_fract_y
_atom_site_fract_z
Si Si1 0.841198 0.191120 0.036401
Si Si2 0.674861 0.219837 0.212001
Si Si3 0.881415 0.461267 0.342984
Si Si4 0.091897 0.173211 0.427516
Si Si5 0.000000 0.956318 0.000000
Si Si6 0.366648 0.870208 0.791548
O O1 0.842302 0.326624 0.156180
O O2 0.975292 0.113487 0.290607
O O3 0.076043 0.362209 0.435650
O O4 0.729909 0.073397 0.838464
O O5 0.566598 0.341957 0.015360
O O6 0.770868 0.312570 0.493115
O O7 0.764875 0.163965 0.259079
O O8 0.634472 0.055655 0.195535
O O9 0.000000 0.538673 0.500000
O O10 0.080198 0.064609 0.261167
O O11 0.834062 0.275318 0.869935
O O12 0.500000 0.829419 0.000000
#
# Coordination Sequence:
#
# PCOD9129088 Si02
#       6
#     4   4   4   4   2   4
#     4  11  25  49  76 103 143 194 246 303 367 433
#     4  12  25  41  70 107 149 191 239 293 367 437
#     4  10  26  49  72 104 143 191 247 304 362 432
#     4  11  23  45  70 102 150 185 236 306 360 429
#     4  12  24  42  72 116 146 196 238 290 374 444
#     4  12  26  46  72 109 152 190 238 309 370 429
#
# _framework density 24.659638000000001
#
# number of rings (size 3 to 8) (size 9 to 14) (size 15 to 20)
#    0.000    0.727    4.545    2.182    5.091    0.000 
#    3.273    0.000    0.000    0.000    0.000    0.000 
#    0.000    0.000    0.000    0.000    0.000    0.000 
#
# Total GULP energy -61260.425506 kJ/mol
# GULP energy per Si atom -5569.129591 kJ/mol
# Density = 2.460351 g / cm^3
# Si number density = 24.659638 Si / 1000 Ang^3
#
#
#
# Elastic Constant Matrix: (Units=GPa)
#
#
# Indices 1 2 3 4 5 6 
#
# 1 134.8574 57.1576 45.7513 0.0000 20.1078 0.0000
# 2 57.1576 133.3136 54.8379 0.0000 40.7611 0.0000
# 3 45.7513 54.8379 92.3937 0.0000 54.6030 0.0000
# 4 0.0000 0.0000 0.0000 80.6967 0.0000 13.7656
# 5 20.1078 40.7611 54.6030 0.0000 56.6289 0.0000
# 6 0.0000 0.0000 0.0000 13.7656 0.0000 48.2206
#
#
#
# Elastic Compliance Matrix: (Units=1/GPa)
#
#
# Indices 1 2 3 4 5 6 
#
# 1 0.010048 -0.003323 -0.005366 0.000000 0.003998 0.000000
# 2 -0.003323 0.011313 -0.002218 0.000000 -0.004825 0.000000
# 3 -0.005366 -0.002218 0.029587 0.000000 -0.025027 0.000000
# 4 0.000000 0.000000 0.000000 0.013026 0.000000 -0.003719
# 5 0.003998 -0.004825 -0.025027 0.000000 0.043844 0.000000
# 6 0.000000 0.000000 0.000000 -0.003719 0.000000 0.021800
#
#
# Mechanical properties :
#
#
# Convention : Reuss Voigt Hill
#
# Bulk Modulus (GPa) = 34.32352 75.11759 54.72056
# Shear Modulus (GPa) = 31.02810 50.63041 40.82925
#
# Velocity S-wave (km/s) = 3.55104 4.53611 4.07346
# Velocity P-wave (km/s) = 5.54637 7.61334 6.66052
#
# Compressibility (1/GPa) = 0.02913454
#
# Stress axis : x y z
#
# Youngs Moduli (GPa) = 99.52152 88.39050 33.79834
#
# Poissons Ratio (x) = 0.29374 0.18136
# Poissons Ratio (y) = 0.33073 0.07496
# Poissons Ratio (z) = 0.53404 0.19603
#
# Static dielectric constant tensor:
#      x y z
#    x 1.957020 0.000000 0.101550 
#    y 0.000000 1.950920 0.000000 
#    z 0.101550 0.000000 2.035510 
# 
# From -- ./inp_files/58364.got.cif
#   From: 2010.05.17/outbox.cif.g08.bks.cpg/sg5_30_cif.got.tgz:58364.got - 2010.06.03 18:56:24.
