data_PCOD9129168
_publ_section_title
;
Structure prediction by ZEFSAII (Michael W. Deem and Ramdas Pophale) SiO2 
 PCOD9129168
Probable space group: C 2
;
_chemical_formula_sum "Si O2"
_cell_formula_units_Z 24
_cell_length_a 9.866942
_cell_length_b 14.533801
_cell_length_c 14.401726
_cell_angle_alpha 90.000000
_cell_angle_beta 146.824507
_cell_angle_gamma 90.000000
_cell_volume 1130.125298
_symmetry_space_group_name_H-M "C 2"
_symmetry_group_IT_number 5
_symmetry_cell_setting 'monoclinic'
loop_
_space_group_symop_operation_xyz
x,y,z
-x,y,-z
1/2+x,1/2+y,z
1/2-x,1/2+y,-z
loop_
_atom_site_type_symbol
_atom_site_label
_atom_site_fract_x
_atom_site_fract_y
_atom_site_fract_z
Si Si1 0.081841 0.815080 0.649374
Si Si2 0.233981 0.202565 0.794019
Si Si3 0.119109 0.994593 0.968748
Si Si4 0.864275 0.500590 0.821757
Si Si5 0.561377 0.709142 0.892440
Si Si6 0.559700 0.319458 0.235720
O O1 0.167085 0.920912 0.697551
O O2 0.328588 0.755591 0.807180
O O3 0.900877 0.804680 0.632779
O O4 0.000000 0.789235 0.500000
O O5 0.047656 0.216064 0.772218
O O6 0.235109 0.278038 0.714694
O O7 0.241279 0.101234 0.752965
O O8 0.500000 0.209055 0.000000
O O9 0.998921 0.924379 0.826024
O O10 0.070673 0.101351 0.919950
O O11 0.416934 0.986706 0.128257
O O12 0.000000 0.970970 0.000000
O O13 0.000000 0.491163 0.000000
O O14 0.808719 0.762263 0.066468
#
# Coordination Sequence:
#
# PCOD9129168 Si02
#       6
#     4   4   4   4   4   4
#     4  12  25  39  56  84 122 163 194 232 288 350
#     4   9  18  34  62  93 113 139 191 253 293 334
#     4  12  21  32  64  97 116 141 191 256 295 330
#     4  11  18  39  63  88 114 149 197 242 289 344
#     4  11  20  37  63  88 117 148 194 244 290 343
#     4  11  20  37  60  88 115 149 199 244 288 338
#
# _framework density 21.236583
#
# number of rings (size 3 to 8) (size 9 to 14) (size 15 to 20)
#    0.000    1.000    8.333    3.000    0.000    0.000 
#    0.000    4.167    0.000    0.000    0.000    0.000 
#    0.000    0.000    0.000    0.000    0.000    0.000 
#
# Total GULP energy -67032.390705 kJ/mol
# GULP energy per Si atom -5586.032559 kJ/mol
# Density = 2.118825 g / cm^3
# Si number density = 21.236583 Si / 1000 Ang^3
#
#
#
# Elastic Constant Matrix: (Units=GPa)
#
#
# Indices 1 2 3 4 5 6 
#
# 1 157.9398 4.2423 8.2885 -0.0004 -11.8757 -0.0013
# 2 4.2423 81.5191 4.6103 -0.0004 -3.7086 -0.0009
# 3 8.2885 4.6103 28.1526 0.0009 -13.4656 0.0003
# 4 -0.0004 -0.0004 0.0009 -7.2417 0.0002 -22.1420
# 5 -11.8757 -3.7086 -13.4656 0.0002 24.0916 -0.0004
# 6 -0.0013 -0.0009 0.0003 -22.1420 -0.0004 -5.7916
#
#
#
# Elastic Compliance Matrix: (Units=1/GPa)
#
#
# Indices 1 2 3 4 5 6 
#
# 1 0.006584 -0.000181 -0.000505 0.000000 0.002935 0.000000
# 2 -0.000181 0.012406 -0.001512 0.000000 0.000976 0.000000
# 3 -0.000505 -0.001512 0.048708 0.000000 0.026743 0.000003
# 4 0.000000 0.000000 0.000000 0.012918 -0.000002 -0.049388
# 5 0.002935 0.000976 0.026743 -0.000002 0.058053 0.000002
# 6 0.000000 0.000000 0.000003 -0.049388 0.000002 0.016153
#
#
# Mechanical properties :
#
#
# Convention : Reuss Voigt Hill
#
# Bulk Modulus (GPa) = 15.79671 33.54375 24.67023
# Shear Modulus (GPa) = 27.72882 18.90970 23.31926
#
# Velocity S-wave (km/s) = 3.61738 2.98725 3.31731
# Velocity P-wave (km/s) = 4.99018 5.26571 5.12979
#
# Compressibility (1/GPa) = 0.06330432
#
# Stress axis : x y z
#
# Youngs Moduli (GPa) = 151.89299 80.60391 20.53034
#
# Poissons Ratio (x) = 0.01455 0.01036
# Poissons Ratio (y) = 0.02742 0.03104
# Poissons Ratio (z) = 0.07666 0.12186
#
# Static dielectric constant tensor:
#      x y z
#    x 1.807820 0.000000 -0.026970 
#    y 0.000000 1.738940 0.000000 
#    z -0.026970 0.000000 1.769550 
# 
# From -- ./inp_files/50814.got.cif
#   From: 2010.05.17/outbox.cif.g08.bks.cpg/sg5_26_cif.got.tgz:50814.got - 2010.06.03 18:56:24.
