data_PCOD9129264
_publ_section_title
;
Structure prediction by ZEFSAII (Michael W. Deem and Ramdas Pophale) SiO2 
 PCOD9129264
Probable space group: C 2
;
_chemical_formula_sum "Si O2"
_cell_formula_units_Z 24
_cell_length_a 12.020797
_cell_length_b 14.709546
_cell_length_c 18.493428
_cell_angle_alpha 90.000000
_cell_angle_beta 159.863547
_cell_angle_gamma 90.000000
_cell_volume 1125.726420
_symmetry_space_group_name_H-M "C 2"
_symmetry_group_IT_number 5
_symmetry_cell_setting 'monoclinic'
loop_
_space_group_symop_operation_xyz
x,y,z
-x,y,-z
1/2+x,1/2+y,z
1/2-x,1/2+y,-z
loop_
_atom_site_type_symbol
_atom_site_label
_atom_site_fract_x
_atom_site_fract_y
_atom_site_fract_z
Si Si1 0.138946 0.155080 0.766485
Si Si2 0.285978 0.343395 0.233276
Si Si3 0.189393 0.265895 0.546850
Si Si4 0.847130 0.177041 0.736135
Si Si5 0.718794 0.101815 0.887626
Si Si6 0.116719 0.012973 0.494943
O O1 0.098117 0.224437 0.676358
O O2 0.004450 0.202761 0.755938
O O3 0.940250 0.070141 0.613354
O O4 0.500000 0.124872 0.000000
O O5 0.604066 0.330314 0.378300
O O6 0.207898 0.257725 0.238718
O O7 0.387880 0.426228 0.346707
O O8 0.000000 0.356725 0.000000
O O9 0.461215 0.186321 0.728279
O O10 0.000000 0.303467 0.500000
O O11 0.500000 0.139757 0.500000
O O12 0.091332 0.106034 0.921461
O O13 0.502856 0.013096 0.740585
O O14 0.000000 0.113444 0.000000
O O15 0.000000 0.057181 0.500000
#
# Coordination Sequence:
#
# PCOD9129264 Si02
#       6
#     4   4   4   4   4   4
#     4  11  22  37  65 103 131 175 237 288 340 415
#     4  12  24  44  70 102 139 193 231 292 360 422
#     4  11  21  40  66  96 136 176 237 289 342 408
#     4  12  20  38  70 104 130 177 241 286 335 427
#     4  11  20  42  69  99 131 183 233 287 338 425
#     4  11  25  44  66  99 148 184 230 291 366 411
#
# _framework density 21.319566999999999
#
# number of rings (size 3 to 8) (size 9 to 14) (size 15 to 20)
#    0.000    0.667    5.000    6.000    0.000    0.000 
#    0.000    5.000    0.000    0.000    0.000    0.000 
#    0.000    0.000    0.000    0.000    0.000    0.000 
#
# Total GULP energy -66852.536328 kJ/mol
# GULP energy per Si atom -5571.044694 kJ/mol
# Density = 2.127104 g / cm^3
# Si number density = 21.319567 Si / 1000 Ang^3
#
#
#
# Elastic Constant Matrix: (Units=GPa)
#
#
# Indices 1 2 3 4 5 6 
#
# 1 133.7573 13.1506 23.8804 0.0000 1.6280 0.0163
# 2 13.1506 26.4939 30.7086 0.0125 -3.6096 -0.0024
# 3 23.8804 30.7086 161.1387 0.0009 -26.1828 -0.0393
# 4 0.0000 0.0125 0.0009 25.7716 -0.0098 -0.8876
# 5 1.6280 -3.6096 -26.1828 -0.0098 39.5012 -0.0088
# 6 0.0163 -0.0024 -0.0393 -0.8876 -0.0088 12.7564
#
#
#
# Elastic Compliance Matrix: (Units=1/GPa)
#
#
# Indices 1 2 3 4 5 6 
#
# 1 0.007940 -0.003233 -0.000742 0.000001 -0.001114 -0.000014
# 2 -0.003233 0.049890 -0.009264 -0.000025 -0.001448 -0.000018
# 3 -0.000742 -0.009264 0.008908 0.000007 0.005089 0.000031
# 4 0.000001 -0.000025 0.000007 0.038896 0.000013 0.002707
# 5 -0.001114 -0.001448 0.005089 0.000013 0.028602 0.000037
# 6 -0.000014 -0.000018 0.000031 0.002707 0.000037 0.078580
#
#
# Mechanical properties :
#
#
# Convention : Reuss Voigt Hill
#
# Bulk Modulus (GPa) = 24.83839 50.76324 37.80082
# Shear Modulus (GPa) = 19.78524 32.51586 26.15055
#
# Velocity S-wave (km/s) = 3.04967 3.90957 3.50608
# Velocity P-wave (km/s) = 4.90677 6.65147 5.84459
#
# Compressibility (1/GPa) = 0.04026026
#
# Stress axis : x y z
#
# Youngs Moduli (GPa) = 125.94315 20.04423 112.25906
#
# Poissons Ratio (x) = 0.06481 0.08324
# Poissons Ratio (y) = 0.40724 1.03994
# Poissons Ratio (z) = 0.09339 0.18568
#
# Static dielectric constant tensor:
#      x y z
#    x 1.795090 0.000020 -0.006310 
#    y 0.000020 1.841190 -0.000050 
#    z -0.006310 -0.000050 1.805990 
# 
# From -- ./inp_files/21716.got.cif
#   From: 2010.05.17/outbox.cif.g08.bks.cpg/sg5_11_cif.got.tgz:21716.got - 2010.06.03 18:56:24.
