data_PCOD9129202
_publ_section_title
;
Structure prediction by ZEFSAII (Michael W. Deem and Ramdas Pophale) SiO2 
 PCOD9129202
Probable space group: C 2
;
_chemical_formula_sum "Si O2"
_cell_formula_units_Z 24
_cell_length_a 26.491753
_cell_length_b 5.567193
_cell_length_c 19.785656
_cell_angle_alpha 90.000000
_cell_angle_beta 19.545332
_cell_angle_gamma 90.000000
_cell_volume 976.251678
_symmetry_space_group_name_H-M "C 2"
_symmetry_group_IT_number 5
_symmetry_cell_setting 'monoclinic'
loop_
_space_group_symop_operation_xyz
x,y,z
-x,y,-z
1/2+x,1/2+y,z
1/2-x,1/2+y,-z
loop_
_atom_site_type_symbol
_atom_site_label
_atom_site_fract_x
_atom_site_fract_y
_atom_site_fract_z
Si Si1 0.140076 0.021060 0.872399
Si Si2 0.197081 0.016512 0.326928
Si Si3 0.691686 0.248930 0.506677
Si Si4 0.360662 0.744456 0.436133
Si Si5 0.892615 0.981497 0.927200
Si Si6 0.600059 0.727925 0.316585
O O1 0.250405 0.249154 0.725188
O O2 0.199951 0.748906 0.788159
O O3 0.000000 0.061684 0.000000
O O4 0.096776 0.031650 0.006535
O O5 0.215788 0.001958 0.438819
O O6 0.181092 0.037733 0.264122
O O7 0.027389 0.091400 0.564740
O O8 0.800683 0.244485 0.433776
O O9 0.520116 0.280353 0.750204
O O10 0.693676 0.995782 0.467200
O O11 0.538820 0.700134 0.202907
O O12 0.724827 0.889785 0.124560
O O13 0.500000 0.872676 0.500000
#
# Coordination Sequence:
#
# PCOD9129202 Si02
#       6
#     4   4   4   4   4   4
#     4  11  20  31  44  62  90 128 158 181 207 265
#     4   8  19  32  42  61  88 115 155 190 216 251
#     4   8  15  26  38  62  87 117 138 183 218 277
#     4   8  15  25  41  58  91 113 142 177 226 271
#     4   9  18  27  47  65  92 122 148 174 236 262
#     4   7  16  30  46  65  88 121 148 185 224 272
#
# _framework density 24.583825000000001
#
# number of rings (size 3 to 8) (size 9 to 14) (size 15 to 20)
#    2.000    1.333    0.000    0.500    4.667    5.333 
#    0.000    0.000    0.000    0.000    0.000    0.000 
#    0.000    5.333    0.000    0.000    0.000    0.000 
#
# Total GULP energy -66849.875566 kJ/mol
# GULP energy per Si atom -5570.822964 kJ/mol
# Density = 2.452787 g / cm^3
# Si number density = 24.583825 Si / 1000 Ang^3
#
#
#
# Elastic Constant Matrix: (Units=GPa)
#
#
# Indices 1 2 3 4 5 6 
#
# 1 65.8137 27.8395 13.9402 -0.0014 -8.3515 0.0010
# 2 27.8395 174.3176 35.1955 -0.0150 3.4908 0.0105
# 3 13.9402 35.1955 70.9955 -0.0102 -13.3261 0.0041
# 4 -0.0014 -0.0150 -0.0102 30.9255 0.0033 0.4102
# 5 -8.3515 3.4908 -13.3261 0.0033 45.5326 -0.0003
# 6 0.0010 0.0105 0.0041 0.4102 -0.0003 19.0351
#
#
#
# Elastic Compliance Matrix: (Units=1/GPa)
#
#
# Indices 1 2 3 4 5 6 
#
# 1 0.016920 -0.002439 -0.001582 -0.000001 0.002827 0.000001
# 2 -0.002439 0.006824 -0.003266 0.000002 -0.001926 -0.000003
# 3 -0.001582 -0.003266 0.016938 0.000003 0.004917 -0.000002
# 4 -0.000001 0.000002 0.000003 0.032345 -0.000002 -0.000697
# 5 0.002827 -0.001926 0.004917 -0.000002 0.024068 0.000000
# 6 0.000001 -0.000003 -0.000002 -0.000697 0.000000 0.052550
#
#
# Mechanical properties :
#
#
# Convention : Reuss Voigt Hill
#
# Bulk Modulus (GPa) = 38.30286 51.67528 44.98907
# Shear Modulus (GPa) = 28.91477 34.70874 31.81176
#
# Velocity S-wave (km/s) = 3.43325 3.76154 3.60114
# Velocity P-wave (km/s) = 5.59738 6.31912 5.96917
#
# Compressibility (1/GPa) = 0.02610771
#
# Stress axis : x y z
#
# Youngs Moduli (GPa) = 59.10086 146.53805 59.03874
#
# Poissons Ratio (x) = 0.35747 0.09342
# Poissons Ratio (y) = 0.14417 0.19280
# Poissons Ratio (z) = 0.09352 0.47854
#
# Static dielectric constant tensor:
#      x y z
#    x 2.031700 0.000000 0.053320 
#    y 0.000000 1.991950 0.000010 
#    z 0.053320 0.000010 1.976640 
# 
# From -- ./inp_files/63564.got.cif
#   From: 2010.05.17/outbox.cif.g08.bks.cpg/sg5_32_cif.got.tgz:63564.got - 2010.06.03 18:56:24.
