data_PCOD9129688
_publ_section_title
;
Structure prediction by ZEFSAII (Michael W. Deem and Ramdas Pophale) SiO2 
 PCOD9129688
Probable space group: C 2
;
_chemical_formula_sum "Si O2"
_cell_formula_units_Z 20
_cell_length_a 6.641471
_cell_length_b 13.611380
_cell_length_c 11.214541
_cell_angle_alpha 90.000000
_cell_angle_beta 72.170550
_cell_angle_gamma 90.000000
_cell_volume 965.099701
_symmetry_space_group_name_H-M "C 2"
_symmetry_group_IT_number 5
_symmetry_cell_setting 'monoclinic'
loop_
_space_group_symop_operation_xyz
x,y,z
-x,y,-z
1/2+x,1/2+y,z
1/2-x,1/2+y,-z
loop_
_atom_site_type_symbol
_atom_site_label
_atom_site_fract_x
_atom_site_fract_y
_atom_site_fract_z
Si Si1 0.766177 0.171850 0.101612
Si Si2 0.187195 0.653992 0.383269
Si Si3 0.000000 0.061051 0.500000
Si Si4 0.000000 0.823702 0.000000
Si Si5 0.894430 0.448797 0.890877
Si Si6 0.433198 0.951308 0.388266
O O1 0.755961 0.195559 0.244138
O O2 0.657631 0.065201 0.100641
O O3 0.623882 0.253545 0.066255
O O4 0.000000 0.170526 0.000000
O O5 0.397808 0.631114 0.419142
O O6 0.000000 0.701855 0.500000
O O7 0.083088 0.547954 0.370839
O O8 0.194635 0.990867 0.431699
O O9 0.173814 0.894038 0.912423
O O10 0.027793 0.414041 0.751972
O O11 0.000000 0.425547 0.000000
O O12 0.500000 0.895939 0.500000
#
# Coordination Sequence:
#
# PCOD9129688 Si02
#       6
#     4   4   2   2   4   4
#     4  11  23  40  67  98 130 174 217 268 331 383
#     4   8  17  32  56  94 125 166 217 255 324 389
#     4   8  14  28  56  90 132 156 212 274 300 394
#     4  12  26  44  64  96 140 164 216 276 312 396
#     4  11  23  40  67  98 130 174 217 268 331 383
#     4   8  17  32  56  94 125 166 217 255 324 389
#
# _framework density 20.723246
#
# number of rings (size 3 to 8) (size 9 to 14) (size 15 to 20)
#    0.000    2.800    2.000    0.600    2.800    3.200 
#    0.000    0.000    8.800    0.000    0.000    0.000 
#    0.000    0.000    0.000    0.000    0.000    0.000 
#
# Total GULP energy -55695.735073 kJ/mol
# GULP energy per Si atom -5569.573507 kJ/mol
# Density = 2.067608 g / cm^3
# Si number density = 20.723246 Si / 1000 Ang^3
#
#
#
# Elastic Constant Matrix: (Units=GPa)
#
#
# Indices 1 2 3 4 5 6 
#
# 1 107.6545 -3.8193 47.5911 0.0000 13.5283 0.0000
# 2 -3.8193 48.0712 -8.5344 0.0000 -0.3032 0.0000
# 3 47.5911 -8.5344 179.8334 0.0000 4.4022 0.0000
# 4 0.0000 0.0000 0.0000 -18.6502 0.0000 6.0449
# 5 13.5283 -0.3032 4.4022 0.0000 18.0410 0.0000
# 6 0.0000 0.0000 0.0000 6.0449 0.0000 25.6887
#
#
#
# Elastic Compliance Matrix: (Units=1/GPa)
#
#
# Indices 1 2 3 4 5 6 
#
# 1 0.011562 0.000363 -0.002847 0.000000 -0.007969 0.000000
# 2 0.000363 0.020991 0.000904 0.000000 -0.000140 0.000000
# 3 -0.002847 0.000904 0.006342 0.000000 0.000603 0.000000
# 4 0.000000 0.000000 0.000000 -0.049819 0.000000 0.011723
# 5 -0.007969 -0.000140 0.000603 0.000000 0.061256 0.000000
# 6 0.000000 0.000000 0.000000 0.011723 0.000000 0.036169
#
#
# Mechanical properties :
#
#
# Convention : Reuss Voigt Hill
#
# Bulk Modulus (GPa) = 27.98527 45.11490 36.55009
# Shear Modulus (GPa) = 49.22510 25.03734 37.13122
#
# Velocity S-wave (km/s) = 4.87905 3.47965 4.23752
# Velocity P-wave (km/s) = 6.72858 6.16129 6.45117
#
# Compressibility (1/GPa) = 0.03573308
#
# Stress axis : x y z
#
# Youngs Moduli (GPa) = 86.48960 47.63983 157.66932
#
# Poissons Ratio (x) = -0.01728 0.44896
# Poissons Ratio (y) = -0.03138 -0.14247
# Poissons Ratio (z) = 0.24628 -0.04305
#
# Static dielectric constant tensor:
#      x y z
#    x 1.676770 0.000000 0.010290 
#    y 0.000000 1.743080 0.000000 
#    z 0.010290 0.000000 1.851600 
# 
# From -- ./inp_files/12345.got.cif
#   From: 2010.05.17/outbox.cif.g08.bks.cpg/sg5_7_cif.got.tgz:12345.got - 2010.06.03 18:56:24.
