data_PCOD9129706
_publ_section_title
;
Structure prediction by ZEFSAII (Michael W. Deem and Ramdas Pophale) SiO2 
 PCOD9129706
Probable space group: C 2
;
_chemical_formula_sum "Si O2"
_cell_formula_units_Z 20
_cell_length_a 8.619915
_cell_length_b 22.334398
_cell_length_c 8.081274
_cell_angle_alpha 90.000000
_cell_angle_beta 32.749498
_cell_angle_gamma 90.000000
_cell_volume 841.643012
_symmetry_space_group_name_H-M "C 2"
_symmetry_group_IT_number 5
_symmetry_cell_setting 'monoclinic'
loop_
_space_group_symop_operation_xyz
x,y,z
-x,y,-z
1/2+x,1/2+y,z
1/2-x,1/2+y,-z
loop_
_atom_site_type_symbol
_atom_site_label
_atom_site_fract_x
_atom_site_fract_y
_atom_site_fract_z
Si Si1 0.362070 0.276410 0.944851
Si Si2 0.208163 0.551481 0.180449
Si Si3 0.656711 0.840152 0.680265
Si Si4 0.787291 0.149392 0.843223
Si Si5 0.720732 0.973738 0.655311
O O1 0.593894 0.295167 0.599893
O O2 0.500000 0.270145 0.000000
O O3 0.231106 0.210605 0.035206
O O4 0.116823 0.325946 0.185937
O O5 0.000000 0.583902 0.500000
O O6 0.971684 0.507866 0.307637
O O7 0.500000 0.524338 0.000000
O O8 0.331080 0.595945 0.931841
O O9 0.788133 0.906115 0.538020
O O10 0.500000 0.832018 0.000000
O O11 0.000000 0.157880 0.500000
O O12 0.500000 0.134624 0.000000
O O13 0.000000 0.000603 0.500000
O O14 0.500000 0.964725 0.000000
#
# Coordination Sequence:
#
# PCOD9129706 Si02
#       5
#     4   4   4   4   4
#     4  11  23  41  66  99 135 178 227 281 341 408
#     4  12  27  44  68 106 139 175 232 300 350 389
#     4  11  23  41  67  99 135 178 230 280 338 405
#     4  11  24  46  70  96 135 187 231 271 340 430
#     4  11  24  46  70  96 137 192 235 272 339 428
#
# _framework density 23.763045000000002
#
# number of rings (size 3 to 8) (size 9 to 14) (size 15 to 20)
#    0.000    0.800    0.000    9.000    0.000    6.400 
#    0.000    0.000    0.000    0.000    0.000    0.000 
#    0.000    0.000    0.000    0.000    0.000    0.000 
#
# Total GULP energy -55820.955121 kJ/mol
# GULP energy per Si atom -5582.095512 kJ/mol
# Density = 2.370896 g / cm^3
# Si number density = 23.763045 Si / 1000 Ang^3
#
#
#
# Elastic Constant Matrix: (Units=GPa)
#
#
# Indices 1 2 3 4 5 6 
#
# 1 95.6797 50.5788 32.1961 0.0000 -25.5658 0.0000
# 2 50.5788 102.5085 45.5666 0.0000 11.7261 0.0000
# 3 32.1961 45.5666 150.7920 0.0000 3.9771 0.0000
# 4 0.0000 0.0000 0.0000 22.8731 0.0000 -4.7481
# 5 -25.5658 11.7261 3.9771 0.0000 53.7158 0.0000
# 6 0.0000 0.0000 0.0000 -4.7481 0.0000 0.2919
#
#
#
# Elastic Compliance Matrix: (Units=1/GPa)
#
#
# Indices 1 2 3 4 5 6 
#
# 1 0.019478 -0.010346 -0.001339 0.000000 0.011628 0.000000
# 2 -0.010346 0.017032 -0.002715 0.000000 -0.008441 0.000000
# 3 -0.001339 -0.002715 0.007754 0.000000 -0.000619 0.000000
# 4 0.000000 0.000000 0.000000 -0.018391 0.000000 -0.299207
# 5 0.011628 -0.008441 -0.000619 0.000000 0.026039 0.000000
# 6 0.000000 0.000000 0.000000 -0.299207 0.000000 -1.441370
#
#
# Mechanical properties :
#
#
# Convention : Reuss Voigt Hill
#
# Bulk Modulus (GPa) = 64.66340 67.29591 65.97965
# Shear Modulus (GPa) = -3.68867 30.08540 13.19836
#
# Velocity S-wave (km/s) = -1.24725 3.56203 2.35928
# Velocity P-wave (km/s) = 5.01962 6.73041 5.93696
#
# Compressibility (1/GPa) = 0.01546470
#
# Stress axis : x y z
#
# Youngs Moduli (GPa) = 51.33940 58.71129 128.95799
#
# Poissons Ratio (x) = 0.60740 0.17272
# Poissons Ratio (y) = 0.53114 0.35017
# Poissons Ratio (z) = 0.06876 0.15942
#
# Static dielectric constant tensor:
#      x y z
#    x 1.988680 0.000000 -0.012140 
#    y 0.000000 1.987510 0.000000 
#    z -0.012140 0.000000 1.868310 
# 
# From -- ./inp_files/17265.got.cif
#   From: 2010.05.17/outbox.cif.g08.bks.cpg/sg5_9_cif.got.tgz:17265.got - 2010.06.03 18:56:24.
