data_PCOD9129851
_publ_section_title
;
Structure prediction by ZEFSAII (Michael W. Deem and Ramdas Pophale) SiO2 
 PCOD9129851
Probable space group: C 2
;
_chemical_formula_sum "Si O2"
_cell_formula_units_Z 24
_cell_length_a 21.090702
_cell_length_b 9.233462
_cell_length_c 10.934446
_cell_angle_alpha 90.000000
_cell_angle_beta 150.339280
_cell_angle_gamma 90.000000
_cell_volume 1053.749573
_symmetry_space_group_name_H-M "C 2"
_symmetry_group_IT_number 5
_symmetry_cell_setting 'monoclinic'
loop_
_space_group_symop_operation_xyz
x,y,z
-x,y,-z
1/2+x,1/2+y,z
1/2-x,1/2+y,-z
loop_
_atom_site_type_symbol
_atom_site_label
_atom_site_fract_x
_atom_site_fract_y
_atom_site_fract_z
Si Si1 0.208949 0.720970 0.052374
Si Si2 0.254876 0.358652 0.381363
Si Si3 0.603342 0.939870 0.765111
Si Si4 0.999119 0.947199 0.639893
Si Si5 0.262617 0.177761 0.611652
Si Si6 0.032870 0.225241 0.852493
O O1 0.323351 0.814878 0.187085
O O2 0.214155 0.717330 0.208102
O O3 0.197310 0.561469 0.975705
O O4 0.083001 0.805845 0.800228
O O5 0.358392 0.409150 0.454491
O O6 0.323290 0.275682 0.607768
O O7 0.200032 0.510150 0.340426
O O8 0.146467 0.261193 0.136338
O O9 0.500000 0.006925 0.500000
O O10 0.534372 0.860350 0.762060
O O11 0.000000 0.989149 0.500000
O O12 0.055861 0.078167 0.815294
O O13 0.109690 0.202100 0.334954
#
# Coordination Sequence:
#
# PCOD9129851 Si02
#       6
#     4   4   4   4   4   4
#     4  12  26  44  70 109 144 184 245 294 357 430
#     4  11  26  49  72 104 145 190 241 294 358 429
#     4  12  24  44  73 107 146 188 231 299 363 419
#     4  11  26  46  73 109 144 185 236 301 361 426
#     4  11  26  47  71 105 141 191 243 290 360 426
#     4  11  23  45  76 101 140 188 236 297 356 424
#
# _framework density 22.77581
#
# number of rings (size 3 to 8) (size 9 to 14) (size 15 to 20)
#    0.000    0.667    3.333    3.500    7.000    3.333 
#    3.000    0.000    0.000    0.000    0.000    0.000 
#    0.000    0.000    0.000    0.000    0.000    0.000 
#
# Total GULP energy -67179.912264 kJ/mol
# GULP energy per Si atom -5598.326022 kJ/mol
# Density = 2.272397 g / cm^3
# Si number density = 22.775810 Si / 1000 Ang^3
#
#
#
# Elastic Constant Matrix: (Units=GPa)
#
#
# Indices 1 2 3 4 5 6 
#
# 1 86.7750 43.4155 33.5280 0.0000 -38.3274 0.0000
# 2 43.4155 127.8900 45.9778 0.0000 -23.5046 0.0000
# 3 33.5280 45.9778 106.1337 0.0000 -27.3578 0.0000
# 4 0.0000 0.0000 0.0000 49.0084 0.0000 -3.4404
# 5 -38.3274 -23.5046 -27.3578 0.0000 39.8300 0.0000
# 6 0.0000 0.0000 0.0000 -3.4404 0.0000 32.5180
#
#
#
# Elastic Compliance Matrix: (Units=1/GPa)
#
#
# Indices 1 2 3 4 5 6 
#
# 1 0.021710 -0.003834 -0.000481 0.000000 0.018298 0.000000
# 2 -0.003834 0.010308 -0.003205 0.000000 0.000192 0.000000
# 3 -0.000481 -0.003205 0.012583 0.000000 0.006289 0.000000
# 4 0.000000 0.000000 0.000000 0.020557 0.000000 0.002175
# 5 0.018298 0.000192 0.006289 0.000000 0.047148 0.000000
# 6 0.000000 0.000000 0.000000 0.002175 0.000000 0.030982
#
#
# Mechanical properties :
#
#
# Convention : Reuss Voigt Hill
#
# Bulk Modulus (GPa) = 33.82637 62.96013 48.39325
# Shear Modulus (GPa) = 29.72940 37.46311 33.59625
#
# Velocity S-wave (km/s) = 3.61682 4.06009 3.84485
# Velocity P-wave (km/s) = 5.68559 7.04859 6.40346
#
# Compressibility (1/GPa) = 0.02956273
#
# Stress axis : x y z
#
# Youngs Moduli (GPa) = 46.06106 97.00843 79.46941
#
# Poissons Ratio (x) = 0.37196 0.03819
# Poissons Ratio (y) = 0.17661 0.25469
# Poissons Ratio (z) = 0.02214 0.31089
#
# Static dielectric constant tensor:
#      x y z
#    x 1.877420 0.000000 0.024990 
#    y 0.000000 1.823230 0.000000 
#    z 0.024990 0.000000 1.854180 
# 
# From -- ./inp_files/47340.got.cif
#   From: 2010.05.17/outbox.cif.g08.bks.cpg/sg5_24_cif.got.tgz:47340.got - 2010.06.03 18:56:24.
