data_PCOD9129715
_publ_section_title
;
Structure prediction by ZEFSAII (Michael W. Deem and Ramdas Pophale) SiO2 
 PCOD9129715
Probable space group: C 2
;
_chemical_formula_sum "Si O2"
_cell_formula_units_Z 26
_cell_length_a 9.082543
_cell_length_b 19.770658
_cell_length_c 9.495818
_cell_angle_alpha 90.000000
_cell_angle_beta 132.059605
_cell_angle_gamma 90.000000
_cell_volume 1265.981036
_symmetry_space_group_name_H-M "C 2"
_symmetry_group_IT_number 5
_symmetry_cell_setting 'monoclinic'
loop_
_space_group_symop_operation_xyz
x,y,z
-x,y,-z
1/2+x,1/2+y,z
1/2-x,1/2+y,-z
loop_
_atom_site_type_symbol
_atom_site_label
_atom_site_fract_x
_atom_site_fract_y
_atom_site_fract_z
Si Si1 0.082091 0.241330 0.894192
Si Si2 0.682256 0.483301 0.834431
Si Si3 0.859634 0.338246 0.544864
Si Si4 0.943514 0.099918 0.803516
Si Si5 0.429906 0.986373 0.722279
Si Si6 0.049871 0.840480 0.868151
Si Si7 0.000000 0.582179 0.500000
O O1 0.932924 0.283494 0.702487
O O2 0.076894 0.163502 0.842100
O O3 0.290591 0.280317 0.024251
O O4 0.000000 0.241101 0.000000
O O5 0.501314 0.532800 0.755706
O O6 0.755547 0.497435 0.723608
O O7 0.630794 0.405754 0.836389
O O8 0.868665 0.494422 0.058164
O O9 0.889429 0.411401 0.635881
O O10 0.644860 0.322496 0.344549
O O11 0.000000 0.337446 0.500000
O O12 0.710908 0.119490 0.651769
O O13 0.000000 0.084034 0.000000
O O14 0.460373 0.035758 0.610814
O O15 0.000000 0.858584 0.000000
#
# Coordination Sequence:
#
# PCOD9129715 Si02
#       7
#     4   4   4   4   4   4   2
#     4  11  26  46  66 100 138 179 234 287 340 413
#     4  11  23  44  69 102 139 179 225 294 342 402
#     4  12  23  43  69 101 133 177 228 284 343 408
#     4  11  25  46  69  99 142 183 227 285 348 408
#     4  11  23  41  71 104 134 174 232 283 345 410
#     4  12  24  43  74  99 136 186 231 283 353 403
#     4  12  24  44  72 100 134 184 228 278 352 410
#
# _framework density 20.537431000000002
#
# number of rings (size 3 to 8) (size 9 to 14) (size 15 to 20)
#    0.000    0.615    5.385    2.308    0.000    6.769 
#    5.538    0.000    0.000    0.000    0.000    0.000 
#    0.000    0.000    0.000    0.000    0.000    0.000 
#
# Total GULP energy -72649.512476 kJ/mol
# GULP energy per Si atom -5588.424037 kJ/mol
# Density = 2.049069 g / cm^3
# Si number density = 20.537431 Si / 1000 Ang^3
#
#
#
# Elastic Constant Matrix: (Units=GPa)
#
#
# Indices 1 2 3 4 5 6 
#
# 1 86.7104 23.5615 36.6415 0.0000 10.9978 0.0000
# 2 23.5615 77.7505 14.1579 0.0000 6.9603 0.0000
# 3 36.6415 14.1579 112.9830 0.0000 4.7614 0.0000
# 4 0.0000 0.0000 0.0000 -43.3578 0.0000 -4.9512
# 5 10.9978 6.9603 4.7614 0.0000 42.5001 0.0000
# 6 0.0000 0.0000 0.0000 -4.9512 0.0000 29.2533
#
#
#
# Elastic Compliance Matrix: (Units=1/GPa)
#
#
# Indices 1 2 3 4 5 6 
#
# 1 0.014575 -0.003409 -0.004184 0.000000 -0.002745 0.000000
# 2 -0.003409 0.014127 -0.000607 0.000000 -0.001363 0.000000
# 3 -0.004184 -0.000607 0.010283 0.000000 0.000030 0.000000
# 4 0.000000 0.000000 0.000000 -0.022627 0.000000 -0.003830
# 5 -0.002745 -0.001363 0.000030 0.000000 0.024459 0.000000
# 6 0.000000 0.000000 0.000000 -0.003830 0.000000 0.033536
#
#
# Mechanical properties :
#
#
# Convention : Reuss Voigt Hill
#
# Bulk Modulus (GPa) = 44.27857 47.35176 45.81517
# Shear Modulus (GPa) = 50.87344 19.21800 35.04572
#
# Velocity S-wave (km/s) = 4.98245 3.06233 4.13538
# Velocity P-wave (km/s) = 7.39639 5.96743 6.72000
#
# Compressibility (1/GPa) = 0.02258429
#
# Stress axis : x y z
#
# Youngs Moduli (GPa) = 68.60977 70.78428 97.25146
#
# Poissons Ratio (x) = 0.24132 0.40690
# Poissons Ratio (y) = 0.23391 0.05905
# Poissons Ratio (z) = 0.28706 0.04298
#
# Static dielectric constant tensor:
#      x y z
#    x 1.759620 0.000000 0.053400 
#    y 0.000000 1.727070 0.000000 
#    z 0.053400 0.000000 1.693200 
# 
# From -- ./inp_files/16738.got.cif
#   From: 2010.05.17/outbox.cif.g08.bks.cpg/sg5_9_cif.got.tgz:16738.got - 2010.06.03 18:56:24.
