data_PCOD9129111
_publ_section_title
;
Structure prediction by ZEFSAII (Michael W. Deem and Ramdas Pophale) SiO2 
 PCOD9129111
Probable space group: C 2
;
_chemical_formula_sum "Si O2"
_cell_formula_units_Z 20
_cell_length_a 18.101080
_cell_length_b 5.220252
_cell_length_c 10.367082
_cell_angle_alpha 90.000000
_cell_angle_beta 63.369049
_cell_angle_gamma 90.000000
_cell_volume 875.683906
_symmetry_space_group_name_H-M "C 2"
_symmetry_group_IT_number 5
_symmetry_cell_setting 'monoclinic'
loop_
_space_group_symop_operation_xyz
x,y,z
-x,y,-z
1/2+x,1/2+y,z
1/2-x,1/2+y,-z
loop_
_atom_site_type_symbol
_atom_site_label
_atom_site_fract_x
_atom_site_fract_y
_atom_site_fract_z
Si Si1 0.000000 0.268160 0.500000
Si Si2 0.860003 0.809335 0.875517
Si Si3 0.000000 0.365076 0.000000
Si Si4 0.172157 0.326833 0.259248
Si Si5 0.023970 0.994423 0.749846
Si Si6 0.653751 0.239940 0.818103
O O1 0.086875 0.401466 0.398803
O O2 0.024722 0.106389 0.607231
O O3 0.815148 0.573224 0.842602
O O4 0.959004 0.761154 0.796335
O O5 0.844775 0.071822 0.811366
O O6 0.838856 0.838790 0.041149
O O7 0.985874 0.187072 0.886236
O O8 0.084739 0.516716 0.896852
O O9 0.248572 0.237448 0.289604
O O10 0.109689 0.911010 0.745053
#
# Coordination Sequence:
#
# PCOD9129111 Si02
#       6
#     2   4   2   4   4   4
#     4  10  26  52  62 102 140 200 222 286 354 426
#     4  11  22  45  70 106 141 180 232 296 356 410
#     4  12  22  44  74 106 144 176 242 302 348 410
#     4  11  27  43  72 101 146 186 233 287 351 426
#     4  11  24  44  74  98 147 186 234 290 358 419
#     4  12  23  41  71 110 131 189 233 299 346 417
#
# _framework density 22.839290999999999
#
# number of rings (size 3 to 8) (size 9 to 14) (size 15 to 20)
#    0.000    0.800    4.000    3.600    2.800    3.200 
#    3.600    0.000    0.000    0.000    0.000    0.000 
#    0.000    0.000    0.000    0.000    0.000    0.000 
#
# Total GULP energy -55738.334018 kJ/mol
# GULP energy per Si atom -5573.833402 kJ/mol
# Density = 2.278731 g / cm^3
# Si number density = 22.839291 Si / 1000 Ang^3
#
#
#
# Elastic Constant Matrix: (Units=GPa)
#
#
# Indices 1 2 3 4 5 6 
#
# 1 159.9917 48.4058 43.0043 0.0000 -15.0075 0.0000
# 2 48.4058 78.8276 6.9360 0.0000 9.0954 0.0000
# 3 43.0043 6.9360 81.7002 0.0000 15.7495 0.0000
# 4 0.0000 0.0000 0.0000 9.0382 0.0000 12.0411
# 5 -15.0075 9.0954 15.7495 0.0000 45.8391 0.0000
# 6 0.0000 0.0000 0.0000 12.0411 0.0000 32.4798
#
#
#
# Elastic Compliance Matrix: (Units=1/GPa)
#
#
# Indices 1 2 3 4 5 6 
#
# 1 0.010701 -0.006821 -0.006414 0.000000 0.007061 0.000000
# 2 -0.006821 0.017364 0.003439 0.000000 -0.006860 0.000000
# 3 -0.006414 0.003439 0.016986 0.000000 -0.008618 0.000000
# 4 0.000000 0.000000 0.000000 0.218615 0.000000 -0.081047
# 5 0.007061 -0.006860 -0.008618 0.000000 0.028449 0.000000
# 6 0.000000 0.000000 0.000000 -0.081047 0.000000 0.060835
#
#
# Mechanical properties :
#
#
# Convention : Reuss Voigt Hill
#
# Bulk Modulus (GPa) = 39.28331 57.46795 48.37563
# Shear Modulus (GPa) = 13.12241 32.28298 22.70270
#
# Velocity S-wave (km/s) = 2.39959 3.76371 3.15623
# Velocity P-wave (km/s) = 4.99145 6.64108 5.87446
#
# Compressibility (1/GPa) = 0.02545610
#
# Stress axis : x y z
#
# Youngs Moduli (GPa) = 93.45349 57.59188 58.87329
#
# Poissons Ratio (x) = 0.39284 0.37764
# Poissons Ratio (y) = 0.63746 -0.20245
# Poissons Ratio (z) = 0.59945 -0.19805
#
# Static dielectric constant tensor:
#      x y z
#    x 1.935010 0.000000 -0.128640 
#    y 0.000000 1.883930 0.000000 
#    z -0.128640 0.000000 1.997030 
# 
# From -- ./inp_files/43618.got.cif
#   From: 2010.05.17/outbox.cif.g08.bks.cpg/sg5_22_cif.got.tgz:43618.got - 2010.06.03 18:56:24.
