data_PCOD9129685
_publ_section_title
;
Structure prediction by ZEFSAII (Michael W. Deem and Ramdas Pophale) SiO2 
 PCOD9129685
Probable space group: C 2
;
_chemical_formula_sum "Si O2"
_cell_formula_units_Z 24
_cell_length_a 22.175513
_cell_length_b 10.081785
_cell_length_c 5.206708
_cell_angle_alpha 90.000000
_cell_angle_beta 88.747333
_cell_angle_gamma 90.000000
_cell_volume 1163.779024
_symmetry_space_group_name_H-M "C 2"
_symmetry_group_IT_number 5
_symmetry_cell_setting 'monoclinic'
loop_
_space_group_symop_operation_xyz
x,y,z
-x,y,-z
1/2+x,1/2+y,z
1/2-x,1/2+y,-z
loop_
_atom_site_type_symbol
_atom_site_label
_atom_site_fract_x
_atom_site_fract_y
_atom_site_fract_z
Si Si1 0.000000 0.943830 0.500000
Si Si2 0.121707 0.264603 0.082218
Si Si3 0.220676 0.611822 0.388645
Si Si4 0.186142 0.988217 0.944086
Si Si5 0.500000 0.626633 0.000000
Si Si6 0.634563 0.339263 0.437056
Si Si7 0.183852 0.351875 0.586663
O O1 0.937673 0.864012 0.562400
O O2 0.013553 0.033731 0.751392
O O3 0.141334 0.346902 0.834752
O O4 0.053158 0.221982 0.084582
O O5 0.154709 0.124075 0.032197
O O6 0.143893 0.333735 0.336853
O O7 0.245947 0.534472 0.134427
O O8 0.157252 0.687170 0.428937
O O9 0.218937 0.489545 0.581713
O O10 0.269987 0.727457 0.425930
O O11 0.159564 0.919747 0.685290
O O12 0.167567 0.892506 0.176746
#
# Coordination Sequence:
#
# PCOD9129685 Si02
#       7
#     2   4   4   4   2   4   4
#     4  12  22  42  66 104 134 184 228 284 322 412
#     4  11  23  41  64  98 129 169 224 283 326 403
#     4  11  26  44  68 102 139 182 216 289 340 420
#     4  11  23  40  64  98 132 170 218 284 328 401
#     4  12  22  40  70  94 132 174 238 278 332 388
#     4  12  24  42  67 100 139 174 232 277 341 392
#     4  11  26  41  67  97 137 171 225 271 355 395
#
# _framework density 20.622471999999998
#
# number of rings (size 3 to 8) (size 9 to 14) (size 15 to 20)
#    0.000    0.667    5.000    3.000    4.667    4.000 
#    0.000    1.667    0.000    0.000    0.000    0.000 
#    0.000    0.000    0.000    0.000    0.000    0.000 
#
# Total GULP energy -66948.302604 kJ/mol
# GULP energy per Si atom -5579.025217 kJ/mol
# Density = 2.057553 g / cm^3
# Si number density = 20.622472 Si / 1000 Ang^3
#
#
#
# Elastic Constant Matrix: (Units=GPa)
#
#
# Indices 1 2 3 4 5 6 
#
# 1 127.3174 34.8748 29.9497 0.0000 -2.8983 0.0000
# 2 34.8748 76.9919 26.7619 0.0000 -10.8301 0.0000
# 3 29.9497 26.7619 141.9265 0.0000 5.0780 0.0000
# 4 0.0000 0.0000 0.0000 10.6067 0.0000 -11.2783
# 5 -2.8983 -10.8301 5.0780 0.0000 18.2816 0.0000
# 6 0.0000 0.0000 0.0000 -11.2783 0.0000 31.1557
#
#
#
# Elastic Compliance Matrix: (Units=1/GPa)
#
#
# Indices 1 2 3 4 5 6 
#
# 1 0.009167 -0.003800 -0.001201 0.000000 -0.000464 0.000000
# 2 -0.003800 0.017135 -0.002799 0.000000 0.010326 0.000000
# 3 -0.001201 -0.002799 0.007972 0.000000 -0.004063 0.000000
# 4 0.000000 0.000000 0.000000 0.153281 0.000000 0.055487
# 5 -0.000464 0.010326 -0.004063 0.000000 0.061872 0.000000
# 6 0.000000 0.000000 0.000000 0.055487 0.000000 0.052183
#
#
# Mechanical properties :
#
#
# Convention : Reuss Voigt Hill
#
# Bulk Modulus (GPa) = 53.54855 58.82320 56.18587
# Shear Modulus (GPa) = 15.45905 28.98542 22.22223
#
# Velocity S-wave (km/s) = 2.74089 3.75310 3.28620
# Velocity P-wave (km/s) = 6.00326 6.88235 6.45778
#
# Compressibility (1/GPa) = 0.01867464
#
# Stress axis : x y z
#
# Youngs Moduli (GPa) = 109.08245 58.36018 125.43179
#
# Poissons Ratio (x) = 0.22178 0.15069
# Poissons Ratio (y) = 0.41454 0.35102
# Poissons Ratio (z) = 0.13104 0.16332
#
# Static dielectric constant tensor:
#      x y z
#    x 1.788800 0.000000 -0.007900 
#    y 0.000000 1.735440 0.000000 
#    z -0.007900 0.000000 1.794100 
# 
# From -- ./inp_files/10166.got.cif
#   From: 2010.05.17/outbox.cif.g08.bks.cpg/sg5_6_cif.got.tgz:10166.got - 2010.06.03 18:56:24.
