data_PCOD9129058
_publ_section_title
;
Structure prediction by ZEFSAII (Michael W. Deem and Ramdas Pophale) SiO2 
 PCOD9129058
Probable space group: C 2
;
_chemical_formula_sum "Si O2"
_cell_formula_units_Z 24
_cell_length_a 23.900369
_cell_length_b 4.893263
_cell_length_c 17.642765
_cell_angle_alpha 90.000000
_cell_angle_beta 150.156291
_cell_angle_gamma 90.000000
_cell_volume 1026.789537
_symmetry_space_group_name_H-M "C 2"
_symmetry_group_IT_number 5
_symmetry_cell_setting 'monoclinic'
loop_
_space_group_symop_operation_xyz
x,y,z
-x,y,-z
1/2+x,1/2+y,z
1/2-x,1/2+y,-z
loop_
_atom_site_type_symbol
_atom_site_label
_atom_site_fract_x
_atom_site_fract_y
_atom_site_fract_z
Si Si1 0.675276 0.482220 0.897198
Si Si2 0.901276 0.086676 0.832287
Si Si3 0.968260 0.738302 0.140716
Si Si4 0.872762 0.766872 0.326314
Si Si5 0.815974 0.427347 0.606307
Si Si6 0.731719 0.240465 0.202155
O O1 0.580614 0.403280 0.846494
O O2 0.635438 0.401326 0.766604
O O3 0.716790 0.791219 0.956122
O O4 0.825967 0.309689 0.702565
O O5 0.964110 0.928598 0.838534
O O6 0.000000 0.213092 0.000000
O O7 0.168113 0.876142 0.198163
O O8 0.058816 0.513478 0.271074
O O9 0.862469 0.632052 0.967701
O O10 0.815654 0.991410 0.314237
O O11 0.000000 0.712171 0.500000
O O12 0.799943 0.491232 0.244842
O O13 0.737097 0.689709 0.506621
#
# Coordination Sequence:
#
# PCOD9129058 Si02
#       6
#     4   4   4   4   4   4
#     4  12  25  46  76 106 141 194 253 303 354 444
#     4  10  26  47  78 112 145 198 252 306 373 449
#     4  11  25  47  79 105 148 199 253 300 370 448
#     4  12  26  49  73 112 151 191 249 309 375 427
#     4  12  27  48  71 111 158 187 243 311 380 442
#     4  11  26  47  80 107 147 197 250 306 361 456
#
# _framework density 23.373826000000001
#
# number of rings (size 3 to 8) (size 9 to 14) (size 15 to 20)
#    0.000    0.667    5.000    0.500    9.333    2.000 
#    3.000    0.000    0.000    0.000    0.000    0.000 
#    0.000    0.000    0.000    0.000    0.000    0.000 
#
# Total GULP energy -67257.062777 kJ/mol
# GULP energy per Si atom -5604.755231 kJ/mol
# Density = 2.332063 g / cm^3
# Si number density = 23.373826 Si / 1000 Ang^3
#
#
#
# Elastic Constant Matrix: (Units=GPa)
#
#
# Indices 1 2 3 4 5 6 
#
# 1 137.1220 14.5827 42.1517 -0.0001 10.1704 0.0000
# 2 14.5827 100.0545 42.9465 0.0021 13.6873 0.0003
# 3 42.1517 42.9465 143.3394 0.0002 8.8417 0.0000
# 4 -0.0001 0.0021 0.0002 7.0801 0.0000 -0.4007
# 5 10.1704 13.6873 8.8417 0.0000 28.6208 0.0000
# 6 0.0000 0.0003 0.0000 -0.4007 0.0000 34.4261
#
#
#
# Elastic Compliance Matrix: (Units=1/GPa)
#
#
# Indices 1 2 3 4 5 6 
#
# 1 0.008152 0.000101 -0.002289 0.000000 -0.002238 0.000000
# 2 0.000101 0.012072 -0.003352 -0.000003 -0.004773 0.000000
# 3 -0.002289 -0.003352 0.008670 0.000001 -0.000262 0.000000
# 4 0.000000 -0.000003 0.000001 0.141334 0.000001 0.001645
# 5 -0.002238 -0.004773 -0.000262 0.000001 0.038098 0.000000
# 6 0.000000 0.000000 0.000000 0.001645 0.000000 0.029067
#
#
# Mechanical properties :
#
#
# Convention : Reuss Voigt Hill
#
# Bulk Modulus (GPa) = 56.14126 64.43088 60.28607
# Shear Modulus (GPa) = 19.65316 32.74772 26.20044
#
# Velocity S-wave (km/s) = 2.90283 3.74711 3.35166
# Velocity P-wave (km/s) = 5.94191 6.80782 6.38955
#
# Compressibility (1/GPa) = 0.01781221
#
# Stress axis : x y z
#
# Youngs Moduli (GPa) = 122.67262 82.83876 115.33858
#
# Poissons Ratio (x) = -0.00834 0.26405
# Poissons Ratio (y) = -0.01235 0.38661
# Poissons Ratio (z) = 0.28084 0.27768
#
# Static dielectric constant tensor:
#      x y z
#    x 1.922310 0.000000 -0.007190 
#    y 0.000000 1.881450 0.000000 
#    z -0.007190 0.000000 1.882930 
# 
# From -- ./inp_files/67681.got.cif
#   From: 2010.05.17/outbox.cif.g08.bks.cpg/sg5_34_cif.got.tgz:67681.got - 2010.06.03 18:56:24.
