data_PCOD9129443
_publ_section_title
;
Structure prediction by ZEFSAII (Michael W. Deem and Ramdas Pophale) SiO2 
 PCOD9129443
Probable space group: C 2
;
_chemical_formula_sum "Si O2"
_cell_formula_units_Z 24
_cell_length_a 11.893048
_cell_length_b 19.546007
_cell_length_c 13.426020
_cell_angle_alpha 90.000000
_cell_angle_beta 158.914510
_cell_angle_gamma 90.000000
_cell_volume 1122.824872
_symmetry_space_group_name_H-M "C 2"
_symmetry_group_IT_number 5
_symmetry_cell_setting 'monoclinic'
loop_
_space_group_symop_operation_xyz
x,y,z
-x,y,-z
1/2+x,1/2+y,z
1/2-x,1/2+y,-z
loop_
_atom_site_type_symbol
_atom_site_label
_atom_site_fract_x
_atom_site_fract_y
_atom_site_fract_z
Si Si1 0.849354 0.218810 0.768528
Si Si2 0.923115 0.077914 0.546268
Si Si3 0.179714 0.304411 0.752066
Si Si4 0.333038 0.863865 0.644971
Si Si5 0.826772 0.670499 0.002504
Si Si6 0.263893 0.450541 0.137201
O O1 0.500000 0.193081 0.500000
O O2 0.846177 0.294431 0.718766
O O3 0.063973 0.175239 0.871037
O O4 0.000000 0.222695 0.000000
O O5 0.000000 0.051433 0.500000
O O6 0.199125 0.126637 0.806831
O O7 0.623238 0.128704 0.291808
O O8 0.987806 0.012648 0.671052
O O9 0.322292 0.245049 0.944785
O O10 0.000000 0.284079 0.500000
O O11 0.930556 0.344080 0.613583
O O12 0.500000 0.346291 0.000000
O O13 0.980895 0.890305 0.357180
O O14 0.570772 0.920635 0.884845
O O15 0.000000 0.469130 0.000000
#
# Coordination Sequence:
#
# PCOD9129443 Si02
#       6
#     4   4   4   4   4   4
#     4  11  22  38  61  89 122 159 198 247 306 368
#     4  12  23  38  60  88 121 158 201 251 306 362
#     4  11  22  39  63  92 127 164 203 252 309 370
#     4  11  23  38  62  93 126 160 199 251 308 368
#     4  11  23  38  60  89 122 159 200 251 305 361
#     4  12  23  39  62  91 124 160 201 252 310 367
#
# _framework density 21.374659000000001
#
# number of rings (size 3 to 8) (size 9 to 14) (size 15 to 20)
#    0.000    0.667    0.000   11.000    0.000    5.333 
#    0.000    0.000    0.000   15.000    0.000    0.000 
#    0.000    0.000    0.000    0.000    0.000    0.000 
#
# Total GULP energy -66906.043336 kJ/mol
# GULP energy per Si atom -5575.503611 kJ/mol
# Density = 2.132601 g / cm^3
# Si number density = 21.374659 Si / 1000 Ang^3
#
#
#
# Elastic Constant Matrix: (Units=GPa)
#
#
# Indices 1 2 3 4 5 6 
#
# 1 109.8993 14.1552 56.5060 -0.0030 13.6442 -0.0053
# 2 14.1552 56.6115 44.1718 -0.0089 14.2839 -0.0102
# 3 56.5060 44.1718 162.0783 -0.0009 12.2608 -0.0387
# 4 -0.0030 -0.0089 -0.0009 41.3529 0.0084 -6.6065
# 5 13.6442 14.2839 12.2608 0.0084 28.9908 -0.0056
# 6 -0.0053 -0.0102 -0.0387 -6.6065 -0.0056 -16.1855
#
#
#
# Elastic Compliance Matrix: (Units=1/GPa)
#
#
# Indices 1 2 3 4 5 6 
#
# 1 0.011564 0.001405 -0.004081 0.000003 -0.004409 0.000005
# 2 0.001405 0.024981 -0.006526 0.000007 -0.010210 0.000000
# 3 -0.004081 -0.006526 0.009279 -0.000004 0.001211 -0.000015
# 4 0.000003 0.000007 -0.000004 0.022702 -0.000012 -0.009266
# 5 -0.004409 -0.010210 0.001211 -0.000012 0.041087 -0.000004
# 6 0.000005 0.000000 -0.000015 -0.009266 -0.000004 -0.058002
#
#
# Mechanical properties :
#
#
# Convention : Reuss Voigt Hill
#
# Bulk Modulus (GPa) = 36.46828 62.02836 49.24832
# Shear Modulus (GPa) = 63.16790 25.08204 44.12497
#
# Velocity S-wave (km/s) = 5.44214 3.42928 4.54845
# Velocity P-wave (km/s) = 7.52248 6.69048 7.11864
#
# Compressibility (1/GPa) = 0.02742109
#
# Stress axis : x y z
#
# Youngs Moduli (GPa) = 86.47593 40.03104 107.76490
#
# Poissons Ratio (x) = -0.05625 0.43979
# Poissons Ratio (y) = -0.12152 0.70324
# Poissons Ratio (z) = 0.35291 0.26123
#
# Static dielectric constant tensor:
#      x y z
#    x 1.803500 0.000000 0.009910 
#    y 0.000000 2.003610 -0.000020 
#    z 0.009910 -0.000020 1.833320 
# 
# From -- ./inp_files/40789.got.cif
#   From: 2010.05.17/outbox.cif.g08.bks.cpg/sg5_21_cif.got.tgz:40789.got - 2010.06.03 18:56:24.
