data_PCOD9129975
_publ_section_title
;
Structure prediction by ZEFSAII (Michael W. Deem and Ramdas Pophale) SiO2 
 PCOD9129975
Probable space group: C 2
;
_chemical_formula_sum "Si O2"
_cell_formula_units_Z 26
_cell_length_a 22.464846
_cell_length_b 5.803485
_cell_length_c 9.558186
_cell_angle_alpha 90.000000
_cell_angle_beta 120.683485
_cell_angle_gamma 90.000000
_cell_volume 1071.681998
_symmetry_space_group_name_H-M "C 2"
_symmetry_group_IT_number 5
_symmetry_cell_setting 'monoclinic'
loop_
_space_group_symop_operation_xyz
x,y,z
-x,y,-z
1/2+x,1/2+y,z
1/2-x,1/2+y,-z
loop_
_atom_site_type_symbol
_atom_site_label
_atom_site_fract_x
_atom_site_fract_y
_atom_site_fract_z
Si Si1 0.181682 0.467470 0.875418
Si Si2 0.000000 0.872181 0.000000
Si Si3 0.440360 0.057603 0.684304
Si Si4 0.942474 0.169211 0.175844
Si Si5 0.592001 0.344398 0.623815
Si Si6 0.786746 0.454757 0.574244
Si Si7 0.228565 0.100513 0.767591
O O1 0.132206 0.284582 0.893085
O O2 0.130218 0.671963 0.776407
O O3 0.212316 0.369184 0.766483
O O4 0.245361 0.534339 0.047747
O O5 0.956889 0.718586 0.838031
O O6 0.048032 0.026462 0.955634
O O7 0.441790 0.199428 0.540971
O O8 0.363679 0.956178 0.607175
O O9 0.497854 0.860246 0.750804
O O10 0.949150 0.015219 0.323806
O O11 0.656650 0.485887 0.636568
O O12 0.752953 0.197223 0.518659
O O13 0.788190 0.511928 0.740249
#
# Coordination Sequence:
#
# PCOD9129975 Si02
#       7
#     4   2   4   4   4   4   4
#     4  11  24  45  77 116 155 207 271 331 407 489
#     4  12  30  50  74 116 160 218 260 350 414 494
#     4  12  29  53  79 117 165 212 283 336 424 495
#     4  11  29  48  78 114 159 216 269 339 407 494
#     4  11  25  52  78 113 155 213 273 331 409 489
#     4  12  29  51  83 120 164 217 275 346 423 500
#     4  11  24  43  77 115 156 206 266 336 408 490
#
# _framework density 24.260926999999999
#
# number of rings (size 3 to 8) (size 9 to 14) (size 15 to 20)
#    0.000    0.615    3.077    2.308    8.615    6.154 
#    0.000    0.000    0.000    0.000    0.000    0.000 
#    0.000    0.000    0.000    0.000    0.000    0.000 
#
# Total GULP energy -72714.133621 kJ/mol
# GULP energy per Si atom -5593.394894 kJ/mol
# Density = 2.420571 g / cm^3
# Si number density = 24.260927 Si / 1000 Ang^3
#
#
#
# Elastic Constant Matrix: (Units=GPa)
#
#
# Indices 1 2 3 4 5 6 
#
# 1 126.9186 53.0561 40.9095 0.0000 5.4892 0.0000
# 2 53.0561 125.1659 64.1521 0.0000 2.9238 0.0000
# 3 40.9095 64.1521 122.2887 0.0000 -11.3387 0.0000
# 4 0.0000 0.0000 0.0000 38.1563 0.0000 -10.1391
# 5 5.4892 2.9238 -11.3387 0.0000 41.6018 0.0000
# 6 0.0000 0.0000 0.0000 -10.1391 0.0000 49.5731
#
#
#
# Elastic Compliance Matrix: (Units=1/GPa)
#
#
# Indices 1 2 3 4 5 6 
#
# 1 0.009867 -0.003257 -0.001736 0.000000 -0.001546 0.000000
# 2 -0.003257 0.012239 -0.005510 0.000000 -0.001932 0.000000
# 3 -0.001736 -0.005510 0.012009 0.000000 0.003889 0.000000
# 4 0.000000 0.000000 0.000000 0.027714 0.000000 0.005668
# 5 -0.001546 -0.001932 0.003889 0.000000 0.025437 0.000000
# 6 0.000000 0.000000 0.000000 0.005668 0.000000 0.021332
#
#
# Mechanical properties :
#
#
# Convention : Reuss Voigt Hill
#
# Bulk Modulus (GPa) = 76.27782 76.73428 76.50605
# Shear Modulus (GPa) = 37.32068 40.28326 38.80197
#
# Velocity S-wave (km/s) = 3.92638 4.07924 4.00354
# Velocity P-wave (km/s) = 7.21555 7.34060 7.27834
#
# Compressibility (1/GPa) = 0.01310997
#
# Stress axis : x y z
#
# Youngs Moduli (GPa) = 101.35011 81.70427 83.26847
#
# Poissons Ratio (x) = 0.26609 0.14453
# Poissons Ratio (y) = 0.33007 0.45884
# Poissons Ratio (z) = 0.17591 0.45022
#
# Static dielectric constant tensor:
#      x y z
#    x 1.914280 0.000000 -0.019860 
#    y 0.000000 2.017360 0.000000 
#    z -0.019860 0.000000 1.931120 
# 
# From -- ./inp_files/45425.got.cif
#   From: 2010.05.17/outbox.cif.g08.bks.cpg/sg5_23_cif.got.tgz:45425.got - 2010.06.03 18:56:24.
