data_PCOD9129453
_publ_section_title
;
Structure prediction by ZEFSAII (Michael W. Deem and Ramdas Pophale) SiO2 
 PCOD9129453
Probable space group: C 2
;
_chemical_formula_sum "Si O2"
_cell_formula_units_Z 26
_cell_length_a 14.593881
_cell_length_b 15.249837
_cell_length_c 8.079594
_cell_angle_alpha 90.000000
_cell_angle_beta 139.280178
_cell_angle_gamma 90.000000
_cell_volume 1173.041281
_symmetry_space_group_name_H-M "C 2"
_symmetry_group_IT_number 5
_symmetry_cell_setting 'monoclinic'
loop_
_space_group_symop_operation_xyz
x,y,z
-x,y,-z
1/2+x,1/2+y,z
1/2-x,1/2+y,-z
loop_
_atom_site_type_symbol
_atom_site_label
_atom_site_fract_x
_atom_site_fract_y
_atom_site_fract_z
Si Si1 0.196597 0.868900 0.917188
Si Si2 0.000000 0.722956 0.500000
Si Si3 0.604867 0.203453 0.295428
Si Si4 0.495746 0.838951 0.189038
Si Si5 0.707805 0.386317 0.320553
Si Si6 0.000000 0.014369 0.500000
Si Si7 0.500000 0.541306 0.000000
Si Si8 0.411880 0.653580 0.607538
O O1 0.127516 0.785334 0.733583
O O2 0.091983 0.949795 0.739232
O O3 0.350273 0.880243 0.048431
O O4 0.206124 0.855654 0.126974
O O5 0.046550 0.676307 0.394593
O O6 0.631325 0.309861 0.322034
O O7 0.760241 0.166284 0.481356
O O8 0.500000 0.182316 0.000000
O O9 0.632661 0.897571 0.405722
O O10 0.526714 0.750168 0.335591
O O11 0.500000 0.815447 0.000000
O O12 0.625258 0.476527 0.217927
O O13 0.894870 0.083768 0.439392
O O14 0.477295 0.605465 0.121523
#
# Coordination Sequence:
#
# PCOD9129453 Si02
#       8
#     4   2   4   4   4   2   2   4
#     4  11  22  42  69 100 136 182 240 283 344 426
#     4  11  22  38  74 102 135 180 240 281 342 420
#     4  11  23  45  69 104 136 185 236 289 342 426
#     4  11  25  42  69 100 135 184 242 287 344 423
#     4  11  22  41  71  98 134 188 234 281 343 421
#     4  11  26  44  68 102 135 188 230 291 364 412
#     4  12  22  46  66  92 140 176 224 286 348 422
#     4  11  26  43  67 100 140 180 227 291 358 406
#
# _framework density 22.164608999999999
#
# number of rings (size 3 to 8) (size 9 to 14) (size 15 to 20)
#    0.000    0.923    4.615    2.308    8.615    0.000 
#    2.769    0.000    0.000    0.000    0.000    0.000 
#    0.000    0.000    0.000    0.000    0.000    0.000 
#
# Total GULP energy -72654.341154 kJ/mol
# GULP energy per Si atom -5588.795473 kJ/mol
# Density = 2.211416 g / cm^3
# Si number density = 22.164609 Si / 1000 Ang^3
#
#
#
# Elastic Constant Matrix: (Units=GPa)
#
#
# Indices 1 2 3 4 5 6 
#
# 1 110.9844 16.3506 31.7170 0.0000 -1.0985 0.0000
# 2 16.3506 64.6032 13.3643 0.0000 11.5541 0.0000
# 3 31.7170 13.3643 95.9969 0.0000 14.8513 0.0000
# 4 0.0000 0.0000 0.0000 12.8186 0.0000 -2.4288
# 5 -1.0985 11.5541 14.8513 0.0000 44.9653 0.0000
# 6 0.0000 0.0000 0.0000 -2.4288 0.0000 23.3581
#
#
#
# Elastic Compliance Matrix: (Units=1/GPa)
#
#
# Indices 1 2 3 4 5 6 
#
# 1 0.010335 -0.002262 -0.003403 0.000000 0.001958 0.000000
# 2 -0.002262 0.016988 -0.000984 0.000000 -0.004095 0.000000
# 3 -0.003403 -0.000984 0.012279 0.000000 -0.003886 0.000000
# 4 0.000000 0.000000 0.000000 0.079579 0.000000 0.008275
# 5 0.001958 -0.004095 -0.003886 0.000000 0.024623 0.000000
# 6 0.000000 0.000000 0.000000 0.008275 0.000000 0.043672
#
#
# Mechanical properties :
#
#
# Convention : Reuss Voigt Hill
#
# Bulk Modulus (GPa) = 38.01569 43.82757 40.92163
# Shear Modulus (GPa) = 23.86149 30.23857 27.05003
#
# Velocity S-wave (km/s) = 3.28465 3.69761 3.49723
# Velocity P-wave (km/s) = 5.61908 6.16818 5.90002
#
# Compressibility (1/GPa) = 0.02630493
#
# Stress axis : x y z
#
# Youngs Moduli (GPa) = 96.75567 58.86646 81.43721
#
# Poissons Ratio (x) = 0.13316 0.27710
# Poissons Ratio (y) = 0.21886 0.08014
# Poissons Ratio (z) = 0.32923 0.05793
#
# Static dielectric constant tensor:
#      x y z
#    x 1.893520 0.000000 -0.052320 
#    y 0.000000 1.775880 0.000000 
#    z -0.052320 0.000000 1.817620 
# 
# From -- ./inp_files/24805.got.cif
#   From: 2010.05.17/outbox.cif.g08.bks.cpg/sg5_13_cif.got.tgz:24805.got - 2010.06.03 18:56:24.
