data_PCOD9129436
_publ_section_title
;
Structure prediction by ZEFSAII (Michael W. Deem and Ramdas Pophale) SiO2 
 PCOD9129436
Probable space group: C 2
;
_chemical_formula_sum "Si O2"
_cell_formula_units_Z 26
_cell_length_a 15.617961
_cell_length_b 9.090055
_cell_length_c 14.334691
_cell_angle_alpha 90.000000
_cell_angle_beta 29.191074
_cell_angle_gamma 90.000000
_cell_volume 992.551402
_symmetry_space_group_name_H-M "C 2"
_symmetry_group_IT_number 5
_symmetry_cell_setting 'monoclinic'
loop_
_space_group_symop_operation_xyz
x,y,z
-x,y,-z
1/2+x,1/2+y,z
1/2-x,1/2+y,-z
loop_
_atom_site_type_symbol
_atom_site_label
_atom_site_fract_x
_atom_site_fract_y
_atom_site_fract_z
Si Si1 0.500000 0.051600 0.500000
Si Si2 0.544577 0.280723 0.172793
Si Si3 0.693217 0.093594 0.864179
Si Si4 0.848311 0.554463 0.463847
Si Si5 0.961069 0.113007 0.813311
Si Si6 0.204430 0.165635 0.427295
Si Si7 0.690446 0.756559 0.869591
O O1 0.442283 0.969420 0.459199
O O2 0.330973 0.151432 0.686235
O O3 0.483294 0.191264 0.321767
O O4 0.607660 0.446486 0.121700
O O5 0.344942 0.292606 0.318197
O O6 0.844020 0.210975 0.990248
O O7 0.749846 0.925118 0.817666
O O8 0.657519 0.183501 0.993098
O O9 0.804942 0.157293 0.673133
O O10 0.500000 0.091345 0.000000
O O11 0.655800 0.609536 0.674452
O O12 0.804774 0.528194 0.392306
O O13 0.020032 0.166498 0.655269
O O14 0.500000 0.748555 0.000000
#
# Coordination Sequence:
#
# PCOD9129436 Si02
#       7
#     2   4   4   4   4   4   4
#     4  12  22  40  56  92 138 162 198 274 302 368
#     4   8  17  32  60  90 122 158 204 256 312 359
#     4   9  17  33  59  92 118 155 206 253 302 373
#     4   8  20  33  55  90 126 163 203 253 312 368
#     4   9  18  35  59  89 118 154 209 252 301 368
#     4   7  17  31  56  88 117 158 203 245 302 374
#     4  11  22  36  63  92 117 160 216 246 308 368
#
# _framework density 26.195117
#
# number of rings (size 3 to 8) (size 9 to 14) (size 15 to 20)
#    1.846    0.923    1.538    0.000    2.154    8.000 
#    0.000    1.538    0.000    0.923    0.000    0.000 
#    0.000    0.000    0.000    0.000    0.000    0.000 
#
# Total GULP energy -72413.107273 kJ/mol
# GULP energy per Si atom -5570.239021 kJ/mol
# Density = 2.613550 g / cm^3
# Si number density = 26.195117 Si / 1000 Ang^3
#
#
#
# Elastic Constant Matrix: (Units=GPa)
#
#
# Indices 1 2 3 4 5 6 
#
# 1 126.9636 -0.0868 1.4138 0.0000 3.9348 0.0000
# 2 -0.0868 73.8136 12.5657 0.0000 22.0795 0.0000
# 3 1.4138 12.5657 115.0378 -0.0001 6.7036 0.0000
# 4 0.0000 0.0000 -0.0001 18.0875 0.0000 -3.8439
# 5 3.9348 22.0795 6.7036 0.0000 50.4253 0.0000
# 6 0.0000 0.0000 0.0000 -3.8439 0.0000 18.5346
#
#
#
# Elastic Compliance Matrix: (Units=1/GPa)
#
#
# Indices 1 2 3 4 5 6 
#
# 1 0.007899 0.000235 -0.000081 0.000000 -0.000708 0.000000
# 2 0.000235 0.015797 -0.001335 0.000000 -0.006758 0.000000
# 3 -0.000081 -0.001335 0.008874 0.000000 -0.000589 0.000000
# 4 0.000000 0.000000 0.000000 0.057836 0.000000 0.011995
# 5 -0.000708 -0.006758 -0.000589 0.000000 0.022924 0.000000
# 6 0.000000 0.000000 0.000000 0.011995 0.000000 0.056441
#
#
# Mechanical properties :
#
#
# Convention : Reuss Voigt Hill
#
# Bulk Modulus (GPa) = 33.10405 38.17783 35.64094
# Shear Modulus (GPa) = 27.44212 37.53761 32.48987
#
# Velocity S-wave (km/s) = 3.24018 3.78961 3.52561
# Velocity P-wave (km/s) = 5.16365 5.80984 5.49625
#
# Compressibility (1/GPa) = 0.03020779
#
# Stress axis : x y z
#
# Youngs Moduli (GPa) = 126.59354 63.30514 112.69011
#
# Poissons Ratio (x) = -0.01488 0.00918
# Poissons Ratio (y) = -0.02976 0.15039
# Poissons Ratio (z) = 0.01031 0.08448
#
# Static dielectric constant tensor:
#      x y z
#    x 2.241120 0.000000 -0.147710 
#    y 0.000000 2.009130 0.000000 
#    z -0.147710 0.000000 2.075550 
# 
# From -- ./inp_files/61561.got.cif
#   From: 2010.05.17/outbox.cif.g08.bks.cpg/sg5_31_cif.got.tgz:61561.got - 2010.06.03 18:56:24.
