data_PCOD9129381
_publ_section_title
;
Structure prediction by ZEFSAII (Michael W. Deem and Ramdas Pophale) SiO2 
 PCOD9129381
Probable space group: C 2
;
_chemical_formula_sum "Si O2"
_cell_formula_units_Z 26
_cell_length_a 20.655498
_cell_length_b 9.178737
_cell_length_c 9.129055
_cell_angle_alpha 90.000000
_cell_angle_beta 132.294191
_cell_angle_gamma 90.000000
_cell_volume 1280.264321
_symmetry_space_group_name_H-M "C 2"
_symmetry_group_IT_number 5
_symmetry_cell_setting 'monoclinic'
loop_
_space_group_symop_operation_xyz
x,y,z
-x,y,-z
1/2+x,1/2+y,z
1/2-x,1/2+y,-z
loop_
_atom_site_type_symbol
_atom_site_label
_atom_site_fract_x
_atom_site_fract_y
_atom_site_fract_z
Si Si1 0.200110 0.723360 0.820715
Si Si2 0.099906 0.007631 0.690900
Si Si3 0.671304 0.961125 0.594695
Si Si4 0.000000 0.386374 0.500000
Si Si5 0.110337 0.245308 0.922022
Si Si6 0.237545 0.661722 0.193984
Si Si7 0.600167 0.965404 0.159657
O O1 0.124518 0.840864 0.704685
O O2 0.209672 0.618960 0.695326
O O3 0.293588 0.804875 0.973512
O O4 0.194151 0.646459 0.967940
O O5 0.000000 0.028818 0.500000
O O6 0.115409 0.075572 0.877616
O O7 0.165822 0.092549 0.682174
O O8 0.586264 0.963286 0.571018
O O9 0.738886 0.829341 0.729938
O O10 0.634051 0.942597 0.375419
O O11 0.037397 0.303179 0.699076
O O12 0.095735 0.314411 0.058829
O O13 0.171689 0.576411 0.199572
O O14 0.500000 0.023634 0.000000
#
# Coordination Sequence:
#
# PCOD9129381 Si02
#       7
#     4   4   4   2   4   4   4
#     4  11  24  42  70 100 137 183 235 300 345 415
#     4  11  22  39  71 106 134 173 241 298 339 405
#     4  12  26  42  70 103 140 185 233 294 358 426
#     4  12  20  42  72 100 124 184 250 288 340 416
#     4  11  21  43  65 102 137 182 235 288 352 416
#     4  11  23  45  66 100 136 186 234 291 355 417
#     4  12  27  42  67 101 149 190 234 291 362 433
#
# _framework density 20.308306000000002
#
# number of rings (size 3 to 8) (size 9 to 14) (size 15 to 20)
#    0.000    0.615    6.923    2.769    3.231    0.000 
#    0.000    0.000    0.000    1.846    0.000    0.000 
#    0.000    0.000    0.000    0.000    0.000    0.000 
#
# Total GULP energy -72409.097527 kJ/mol
# GULP energy per Si atom -5569.930579 kJ/mol
# Density = 2.026208 g / cm^3
# Si number density = 20.308306 Si / 1000 Ang^3
#
#
#
# Elastic Constant Matrix: (Units=GPa)
#
#
# Indices 1 2 3 4 5 6 
#
# 1 104.0371 40.7382 37.8313 0.0000 9.3885 0.0000
# 2 40.7382 106.3380 51.6671 0.0000 -1.7452 0.0000
# 3 37.8313 51.6671 135.5904 0.0000 -10.3020 0.0000
# 4 0.0000 0.0000 0.0000 23.5468 0.0000 -4.0195
# 5 9.3885 -1.7452 -10.3020 0.0000 42.3045 0.0000
# 6 0.0000 0.0000 0.0000 -4.0195 0.0000 16.7933
#
#
#
# Elastic Compliance Matrix: (Units=1/GPa)
#
#
# Indices 1 2 3 4 5 6 
#
# 1 0.012159 -0.003608 -0.002276 0.000000 -0.003402 0.000000
# 2 -0.003608 0.012627 -0.003774 0.000000 0.000403 0.000000
# 3 -0.002276 -0.003774 0.009654 0.000000 0.002700 0.000000
# 4 0.000000 0.000000 0.000000 0.044278 0.000000 0.010598
# 5 -0.003402 0.000403 0.002700 0.000000 0.025067 0.000000
# 6 0.000000 0.000000 0.000000 0.010598 0.000000 0.062084
#
#
# Mechanical properties :
#
#
# Convention : Reuss Voigt Hill
#
# Bulk Modulus (GPa) = 66.12574 67.38206 66.75390
# Shear Modulus (GPa) = 26.28446 30.91086 28.59766
#
# Velocity S-wave (km/s) = 3.60150 3.90562 3.75664
# Velocity P-wave (km/s) = 7.06584 7.32052 7.19431
#
# Compressibility (1/GPa) = 0.01512270
#
# Stress axis : x y z
#
# Youngs Moduli (GPa) = 82.24024 79.19764 103.58908
#
# Poissons Ratio (x) = 0.28576 0.23579
# Poissons Ratio (y) = 0.29674 0.39096
# Poissons Ratio (z) = 0.18719 0.29890
#
# Static dielectric constant tensor:
#      x y z
#    x 1.738230 0.000000 0.000680 
#    y 0.000000 1.813420 0.000000 
#    z 0.000680 0.000000 1.732370 
# 
# From -- ./inp_files/29146.got.cif
#   From: 2010.05.17/outbox.cif.g08.bks.cpg/sg5_15_cif.got.tgz:29146.got - 2010.06.03 18:56:24.
