data_PCOD9129061
_publ_section_title
;
Structure prediction by ZEFSAII (Michael W. Deem and Ramdas Pophale) SiO2 
 PCOD9129061
Probable space group: C 2
;
_chemical_formula_sum "Si O2"
_cell_formula_units_Z 18
_cell_length_a 19.306192
_cell_length_b 5.205777
_cell_length_c 7.783816
_cell_angle_alpha 90.000000
_cell_angle_beta 65.462467
_cell_angle_gamma 90.000000
_cell_volume 711.652348
_symmetry_space_group_name_H-M "C 2"
_symmetry_group_IT_number 5
_symmetry_cell_setting 'monoclinic'
loop_
_space_group_symop_operation_xyz
x,y,z
-x,y,-z
1/2+x,1/2+y,z
1/2-x,1/2+y,-z
loop_
_atom_site_type_symbol
_atom_site_label
_atom_site_fract_x
_atom_site_fract_y
_atom_site_fract_z
Si Si1 0.000000 0.551890 0.500000
Si Si2 0.286559 0.335415 0.754714
Si Si3 0.651421 0.838248 0.474959
Si Si4 0.927076 0.833271 0.870782
Si Si5 0.115439 0.332695 0.909958
O O1 0.073874 0.376029 0.445785
O O2 0.008424 0.737482 0.326967
O O3 0.300311 0.602051 0.644070
O O4 0.349301 0.323532 0.838995
O O5 0.200120 0.318394 0.905168
O O6 0.303507 0.101408 0.607278
O O7 0.628259 0.795420 0.695085
O O8 0.917683 0.612791 0.021739
O O9 0.933122 0.111496 0.948319
#
# Coordination Sequence:
#
# PCOD9129061 Si02
#       5
#     2   4   4   4   4
#     4  10  26  48  62  92 132 186 218 250 332 386
#     4  11  22  42  67  98 131 168 206 265 337 385
#     4  11  24  42  68  93 134 171 211 265 318 393
#     4  11  24  41  66  92 133 169 214 268 314 389
#     4  12  23  41  68 102 124 163 220 275 321 370
#
# _framework density 25.29325
#
# number of rings (size 3 to 8) (size 9 to 14) (size 15 to 20)
#    0.000    0.889    0.000    8.000    0.000    8.889 
#    0.000    4.444    0.000    0.000    0.000    0.000 
#    0.000    0.000    0.000    0.000    0.000    0.000 
#
# Total GULP energy -50540.169161 kJ/mol
# GULP energy per Si atom -5615.574351 kJ/mol
# Density = 2.523568 g / cm^3
# Si number density = 25.293250 Si / 1000 Ang^3
#
#
#
# Elastic Constant Matrix: (Units=GPa)
#
#
# Indices 1 2 3 4 5 6 
#
# 1 87.7684 2.8734 -5.1163 0.0000 -1.3440 0.0000
# 2 2.8734 147.8789 35.8588 0.0000 4.1526 0.0000
# 3 -5.1163 35.8588 94.8793 0.0000 6.9785 0.0000
# 4 0.0000 0.0000 0.0000 28.1813 0.0000 -12.7353
# 5 -1.3440 4.1526 6.9785 0.0000 40.6875 0.0000
# 6 0.0000 0.0000 0.0000 -12.7353 0.0000 -12.5743
#
#
#
# Elastic Compliance Matrix: (Units=1/GPa)
#
#
# Indices 1 2 3 4 5 6 
#
# 1 0.011455 -0.000413 0.000752 0.000000 0.000292 0.000000
# 2 -0.000413 0.007463 -0.002821 0.000000 -0.000291 0.000000
# 3 0.000752 -0.002821 0.011772 0.000000 -0.001706 0.000000
# 4 0.000000 0.000000 0.000000 0.024343 0.000000 -0.024655
# 5 0.000292 -0.000291 -0.001706 0.000000 0.024910 0.000000
# 6 0.000000 0.000000 0.000000 -0.024655 0.000000 -0.054557
#
#
# Mechanical properties :
#
#
# Convention : Reuss Voigt Hill
#
# Bulk Modulus (GPa) = 38.87109 44.19536 41.53322
# Shear Modulus (GPa) = 128.45181 31.05296 79.75238
#
# Velocity S-wave (km/s) = 7.13409 3.50768 5.62135
# Velocity P-wave (km/s) = 9.12479 5.82376 7.65435
#
# Compressibility (1/GPa) = 0.02572606
#
# Stress axis : x y z
#
# Youngs Moduli (GPa) = 87.29448 134.00101 84.94690
#
# Poissons Ratio (x) = 0.05537 -0.06392
# Poissons Ratio (y) = 0.03607 0.23966
# Poissons Ratio (z) = -0.06569 0.37806
#
# Static dielectric constant tensor:
#      x y z
#    x 2.045450 0.000000 0.032030 
#    y 0.000000 1.929920 0.000000 
#    z 0.032030 0.000000 1.933980 
# 
# From -- ./inp_files/28131.got.cif
#   From: 2010.05.17/outbox.cif.g08.bks.cpg/sg5_15_cif.got.tgz:28131.got - 2010.06.03 18:56:24.
