data_PCOD9129856
_publ_section_title
;
Structure prediction by ZEFSAII (Michael W. Deem and Ramdas Pophale) SiO2 
 PCOD9129856
Probable space group: C 2
;
_chemical_formula_sum "Si O2"
_cell_formula_units_Z 16
_cell_length_a 5.173797
_cell_length_b 23.479377
_cell_length_c 5.700687
_cell_angle_alpha 90.000000
_cell_angle_beta 95.242729
_cell_angle_gamma 90.000000
_cell_volume 689.608303
_symmetry_space_group_name_H-M "C 2"
_symmetry_group_IT_number 5
_symmetry_cell_setting 'monoclinic'
loop_
_space_group_symop_operation_xyz
x,y,z
-x,y,-z
1/2+x,1/2+y,z
1/2-x,1/2+y,-z
loop_
_atom_site_type_symbol
_atom_site_label
_atom_site_fract_x
_atom_site_fract_y
_atom_site_fract_z
Si Si1 0.762291 0.756120 0.631818
Si Si2 0.150590 0.500869 0.747803
Si Si3 0.769709 0.376402 0.155233
Si Si4 0.000000 0.664631 0.000000
Si Si5 0.000000 0.083983 0.000000
O O1 0.500000 0.730504 0.500000
O O2 0.665761 0.814077 0.742654
O O3 0.000000 0.779506 0.500000
O O4 0.909405 0.707832 0.790191
O O5 0.233803 0.435307 0.702314
O O6 0.000000 0.520190 0.500000
O O7 0.406374 0.539741 0.793629
O O8 0.000000 0.505648 0.000000
O O9 0.500000 0.370995 0.000000
O O10 0.000000 0.388259 0.000000
O O11 0.749407 0.624896 0.007254
#
# Coordination Sequence:
#
# PCOD9129856 Si02
#       5
#     4   4   4   2   2
#     4  12  26  46  75 110 146 195 246 312 376 449
#     4  11  26  51  78 115 154 199 251 317 383 455
#     4  11  23  45  76 110 150 192 241 311 386 458
#     4  12  28  49  72 105 150 196 256 306 370 442
#     4  12  26  51  72 109 144 212 252 316 368 450
#
# _framework density 23.201574999999998
#
# number of rings (size 3 to 8) (size 9 to 14) (size 15 to 20)
#    0.000    0.500    3.750    3.750    1.750    6.000 
#    4.500    0.000    0.000    0.000    0.000    0.000 
#    0.000    0.000    0.000    0.000    0.000    0.000 
#
# Total GULP energy -44566.799444 kJ/mol
# GULP energy per Si atom -5570.849930 kJ/mol
# Density = 2.314877 g / cm^3
# Si number density = 23.201575 Si / 1000 Ang^3
#
#
#
# Elastic Constant Matrix: (Units=GPa)
#
#
# Indices 1 2 3 4 5 6 
#
# 1 138.5234 22.2799 38.0274 0.0000 38.0140 0.0000
# 2 22.2799 143.7982 14.7832 0.0000 11.3646 0.0000
# 3 38.0274 14.7832 87.7077 0.0000 40.4501 0.0000
# 4 0.0000 0.0000 0.0000 -39.2136 0.0000 22.4230
# 5 38.0140 11.3646 40.4501 0.0000 50.3593 0.0000
# 6 0.0000 0.0000 0.0000 22.4230 0.0000 52.2808
#
#
#
# Elastic Compliance Matrix: (Units=1/GPa)
#
#
# Indices 1 2 3 4 5 6 
#
# 1 0.009292 -0.000854 -0.001173 0.000000 -0.005879 0.000000
# 2 -0.000854 0.007188 -0.000620 0.000000 -0.000479 0.000000
# 3 -0.001173 -0.000620 0.018333 0.000000 -0.013700 0.000000
# 4 0.000000 0.000000 0.000000 -0.020479 0.000000 0.008783
# 5 -0.005879 -0.000479 -0.013700 0.000000 0.035407 0.000000
# 6 0.000000 0.000000 0.000000 0.008783 0.000000 0.015360
#
#
# Mechanical properties :
#
#
# Convention : Reuss Voigt Hill
#
# Bulk Modulus (GPa) = 33.87887 57.80114 45.84001
# Shear Modulus (GPa) = 62.31554 32.34789 47.33172
#
# Velocity S-wave (km/s) = 5.18812 3.73796 4.52156
# Velocity P-wave (km/s) = 7.10792 6.60277 6.85999
#
# Compressibility (1/GPa) = 0.02951692
#
# Stress axis : x y z
#
# Youngs Moduli (GPa) = 107.62210 139.11705 54.54603
#
# Poissons Ratio (x) = 0.11886 0.06401
# Poissons Ratio (y) = 0.09195 0.03383
# Poissons Ratio (z) = 0.12629 0.08628
#
# Static dielectric constant tensor:
#      x y z
#    x 1.818710 0.000000 -0.066030 
#    y 0.000000 1.897190 0.000000 
#    z -0.066030 0.000000 2.026270 
# 
# From -- ./inp_files/614.got.cif
#   From: 2010.05.17/outbox.cif.g08.bks.cpg/sg5_1_cif.got.tgz:614.got - 2010.06.03 18:56:24.
