data_PCOD9129374
_publ_section_title
;
Structure prediction by ZEFSAII (Michael W. Deem and Ramdas Pophale) SiO2 
 PCOD9129374
Probable space group: C 2
;
_chemical_formula_sum "Si O2"
_cell_formula_units_Z 28
_cell_length_a 17.322998
_cell_length_b 5.348703
_cell_length_c 15.008303
_cell_angle_alpha 90.000000
_cell_angle_beta 61.821047
_cell_angle_gamma 90.000000
_cell_volume 1225.784434
_symmetry_space_group_name_H-M "C 2"
_symmetry_group_IT_number 5
_symmetry_cell_setting 'monoclinic'
loop_
_space_group_symop_operation_xyz
x,y,z
-x,y,-z
1/2+x,1/2+y,z
1/2-x,1/2+y,-z
loop_
_atom_site_type_symbol
_atom_site_label
_atom_site_fract_x
_atom_site_fract_y
_atom_site_fract_z
Si Si1 0.263522 0.780430 0.108076
Si Si2 0.911235 0.280881 0.727351
Si Si3 0.995852 0.780982 0.395420
Si Si4 0.380276 0.512304 0.911814
Si Si5 0.219462 0.909439 0.760193
Si Si6 0.088301 0.665078 0.960590
Si Si7 0.204669 0.820739 0.559479
O O1 0.275782 0.689351 0.202176
O O2 0.164769 0.838255 0.137759
O O3 0.331139 0.999848 0.051058
O O4 0.299376 0.571010 0.021871
O O5 0.957684 0.535164 0.670812
O O6 0.915684 0.236258 0.832195
O O7 0.809185 0.291125 0.751819
O O8 0.958214 0.041317 0.657632
O O9 0.895985 0.792474 0.415453
O O10 0.000000 0.758387 0.500000
O O11 0.440054 0.364758 0.948116
O O12 0.132599 0.790131 0.850663
O O13 0.214979 0.885029 0.657956
O O14 0.000000 0.505371 0.000000
O O15 0.252745 0.557702 0.514267
#
# Coordination Sequence:
#
# PCOD9129374 Si02
#       7
#     4   4   4   4   4   4   4
#     4  11  21  42  69  99 146 194 250 295 357 443
#     4  12  25  44  78 106 146 191 254 304 359 444
#     4  12  27  49  76 113 144 192 248 311 368 445
#     4  11  22  40  69 103 137 198 244 296 361 432
#     4  11  26  45  70 106 146 197 243 308 378 429
#     4  11  26  43  68 104 153 194 248 305 365 444
#     4  12  28  51  79 110 152 193 241 307 382 447
#
# _framework density 22.842514999999999
#
# number of rings (size 3 to 8) (size 9 to 14) (size 15 to 20)
#    0.000    0.571    2.857    4.714    6.000    2.286 
#    0.000    0.000    0.000    0.000    0.000    0.000 
#    0.000    0.000    0.000    0.000    0.000    0.000 
#
# Total GULP energy -78233.934005 kJ/mol
# GULP energy per Si atom -5588.138143 kJ/mol
# Density = 2.279052 g / cm^3
# Si number density = 22.842515 Si / 1000 Ang^3
#
#
#
# Elastic Constant Matrix: (Units=GPa)
#
#
# Indices 1 2 3 4 5 6 
#
# 1 92.4911 29.3066 62.7051 -0.0004 -21.8894 -0.0011
# 2 29.3066 117.7415 50.6047 0.0037 -18.2357 0.0011
# 3 62.7051 50.6047 132.2484 0.0017 9.9267 0.0015
# 4 -0.0004 0.0037 0.0017 43.4895 0.0005 -3.8527
# 5 -21.8894 -18.2357 9.9267 0.0005 47.4171 0.0003
# 6 -0.0011 0.0011 0.0015 -3.8527 0.0003 18.1028
#
#
#
# Elastic Compliance Matrix: (Units=1/GPa)
#
#
# Indices 1 2 3 4 5 6 
#
# 1 0.021273 0.001752 -0.011729 0.000001 0.012949 0.000002
# 2 0.001752 0.011511 -0.005718 -0.000001 0.006433 0.000000
# 3 -0.011729 -0.005718 0.016136 0.000000 -0.010991 -0.000002
# 4 0.000001 -0.000001 0.000000 0.023436 0.000000 0.004988
# 5 0.012949 0.006433 -0.010991 0.000000 0.031842 0.000001
# 6 0.000002 0.000000 -0.000002 0.004988 0.000001 0.056302
#
#
# Mechanical properties :
#
#
# Convention : Reuss Voigt Hill
#
# Bulk Modulus (GPa) = 57.04704 69.74599 63.39651
# Shear Modulus (GPa) = 25.28656 35.12619 30.20637
#
# Velocity S-wave (km/s) = 3.33076 3.92568 3.64039
# Velocity P-wave (km/s) = 6.31033 7.15176 6.74418
#
# Compressibility (1/GPa) = 0.01752939
#
# Stress axis : x y z
#
# Youngs Moduli (GPa) = 47.00753 86.87296 61.97418
#
# Poissons Ratio (x) = -0.15217 0.72689
# Poissons Ratio (y) = -0.08234 0.35437
# Poissons Ratio (z) = 0.55134 0.49674
#
# Static dielectric constant tensor:
#      x y z
#    x 1.851040 0.000000 0.003510 
#    y 0.000000 1.942130 0.000000 
#    z 0.003510 0.000000 1.869380 
# 
# From -- ./inp_files/55408.got.cif
#   From: 2010.05.17/outbox.cif.g08.bks.cpg/sg5_28_cif.got.tgz:55408.got - 2010.06.03 18:56:24.
