data_PCOD9129114
_publ_section_title
;
Structure prediction by ZEFSAII (Michael W. Deem and Ramdas Pophale) SiO2 
 PCOD9129114
Probable space group: C 2
;
_chemical_formula_sum "Si O2"
_cell_formula_units_Z 28
_cell_length_a 14.015319
_cell_length_b 5.509863
_cell_length_c 17.215406
_cell_angle_alpha 90.000000
_cell_angle_beta 112.517884
_cell_angle_gamma 90.000000
_cell_volume 1228.061816
_symmetry_space_group_name_H-M "C 2"
_symmetry_group_IT_number 5
_symmetry_cell_setting 'monoclinic'
loop_
_space_group_symop_operation_xyz
x,y,z
-x,y,-z
1/2+x,1/2+y,z
1/2-x,1/2+y,-z
loop_
_atom_site_type_symbol
_atom_site_label
_atom_site_fract_x
_atom_site_fract_y
_atom_site_fract_z
Si Si1 0.661175 0.662730 0.963169
Si Si2 0.241839 0.484505 0.862396
Si Si3 0.066385 0.487107 0.679517
Si Si4 0.500000 0.769449 0.500000
Si Si5 0.500000 0.990469 0.000000
Si Si6 0.460099 0.377663 0.875408
Si Si7 0.692229 0.574937 0.467069
Si Si8 0.961057 0.977680 0.696824
O O1 0.703793 0.731615 0.891488
O O2 0.584488 0.860540 0.974500
O O3 0.575402 0.449376 0.937741
O O4 0.751837 0.635483 0.054701
O O5 0.167049 0.526603 0.765801
O O6 0.358645 0.524849 0.868820
O O7 0.061087 0.420717 0.585919
O O8 0.007548 0.744701 0.666667
O O9 0.014774 0.240906 0.700571
O O10 0.587379 0.612826 0.483978
O O11 0.438919 0.132808 0.914169
O O12 0.464739 0.390911 0.785679
O O13 0.747535 0.836401 0.486206
O O14 0.655098 0.516269 0.368705
#
# Coordination Sequence:
#
# PCOD9129114 Si02
#       8
#     4   4   4   2   2   4   4   4
#     4  12  25  46  68 105 145 190 247 307 369 439
#     4  12  25  44  72 106 138 200 249 302 369 458
#     4  11  26  48  77 108 150 199 247 308 380 446
#     4  10  26  52  76 114 158 192 246 326 372 438
#     4  12  22  46  72  92 150 192 236 308 378 418
#     4  12  25  46  67 103 147 190 240 316 368 432
#     4  11  25  48  80 111 144 199 248 307 382 452
#     4  11  26  49  72 109 152 190 246 315 370 444
#
# _framework density 22.800156000000001
#
# number of rings (size 3 to 8) (size 9 to 14) (size 15 to 20)
#    0.000    0.571    4.286    3.429    4.000    6.286 
#    0.000    0.000    0.000    0.000    0.000    0.000 
#    0.000    0.000    0.000    0.000    0.000    0.000 
#
# Total GULP energy -77974.841840 kJ/mol
# GULP energy per Si atom -5569.631560 kJ/mol
# Density = 2.274826 g / cm^3
# Si number density = 22.800156 Si / 1000 Ang^3
#
#
#
# Elastic Constant Matrix: (Units=GPa)
#
#
# Indices 1 2 3 4 5 6 
#
# 1 96.5541 38.7472 27.0722 0.0000 8.9562 0.0000
# 2 38.7472 88.5497 17.0931 0.0000 12.0261 0.0000
# 3 27.0722 17.0931 165.4208 0.0000 9.6726 0.0000
# 4 0.0000 0.0000 0.0000 2.5777 0.0000 12.4954
# 5 8.9562 12.0261 9.6726 0.0000 29.1326 0.0000
# 6 0.0000 0.0000 0.0000 12.4954 0.0000 25.9212
#
#
#
# Elastic Compliance Matrix: (Units=1/GPa)
#
#
# Indices 1 2 3 4 5 6 
#
# 1 0.012997 -0.005213 -0.001510 0.000000 -0.001342 0.000000
# 2 -0.005213 0.014208 -0.000373 0.000000 -0.004139 0.000000
# 3 -0.001510 -0.000373 0.006419 0.000000 -0.001513 0.000000
# 4 0.000000 0.000000 0.000000 -0.290220 0.000000 0.139901
# 5 -0.001342 -0.004139 -0.001513 0.000000 0.036949 0.000000
# 6 0.000000 0.000000 0.000000 0.139901 0.000000 -0.028861
#
#
# Mechanical properties :
#
#
# Convention : Reuss Voigt Hill
#
# Bulk Modulus (GPa) = 51.46088 57.37218 54.41653
# Shear Modulus (GPa) = -21.94546 29.36713 3.71083
#
# Velocity S-wave (km/s) = -3.10581 3.59280 1.27714
# Velocity P-wave (km/s) = 3.12378 6.51372 5.10816
#
# Compressibility (1/GPa) = 0.01943224
#
# Stress axis : x y z
#
# Youngs Moduli (GPa) = 76.94178 70.38080 155.78011
#
# Poissons Ratio (x) = 0.36692 0.23520
# Poissons Ratio (y) = 0.40113 0.05810
# Poissons Ratio (z) = 0.11617 0.02625
#
# Static dielectric constant tensor:
#      x y z
#    x 2.188670 0.000000 0.000330 
#    y 0.000000 2.031820 0.000000 
#    z 0.000330 0.000000 1.903180 
# 
# From -- ./inp_files/61153.got.cif
#   From: 2010.05.17/outbox.cif.g08.bks.cpg/sg5_31_cif.got.tgz:61153.got - 2010.06.03 18:56:24.
