data_PCOD9129238
_publ_section_title
;
Structure prediction by ZEFSAII (Michael W. Deem and Ramdas Pophale) SiO2 
 PCOD9129238
Probable space group: C 2
;
_chemical_formula_sum "Si O2"
_cell_formula_units_Z 26
_cell_length_a 17.979445
_cell_length_b 8.983183
_cell_length_c 24.379308
_cell_angle_alpha 90.000000
_cell_angle_beta 19.832664
_cell_angle_gamma 90.000000
_cell_volume 1335.914948
_symmetry_space_group_name_H-M "C 2"
_symmetry_group_IT_number 5
_symmetry_cell_setting 'monoclinic'
loop_
_space_group_symop_operation_xyz
x,y,z
-x,y,-z
1/2+x,1/2+y,z
1/2-x,1/2+y,-z
loop_
_atom_site_type_symbol
_atom_site_label
_atom_site_fract_x
_atom_site_fract_y
_atom_site_fract_z
Si Si1 0.423881 0.234810 0.781160
Si Si2 0.581070 0.924916 0.720579
Si Si3 0.492688 0.247606 0.601439
Si Si4 0.747425 0.476744 0.555437
Si Si5 0.956154 0.234618 0.712844
Si Si6 0.500000 0.098148 0.000000
Si Si7 0.462232 0.860217 0.123848
O O1 0.520254 0.082522 0.737014
O O2 0.451313 0.245680 0.695968
O O3 0.563127 0.371804 0.709510
O O4 0.170210 0.254200 0.970777
O O5 0.891820 0.087873 0.387496
O O6 0.537467 0.921512 0.815026
O O7 0.831958 0.874843 0.535324
O O8 0.265137 0.276046 0.729748
O O9 0.610976 0.090655 0.506668
O O10 0.440779 0.800898 0.784918
O O11 0.913515 0.362465 0.410625
O O12 0.721490 0.193449 0.851667
O O13 0.483308 0.991399 0.064494
#
# Coordination Sequence:
#
# PCOD9129238 Si02
#       7
#     4   4   4   4   4   2   4
#     4  12  21  42  71  97 129 176 225 264 334 392
#     4  11  26  42  72  97 132 175 222 275 323 395
#     4  11  21  44  67  99 129 179 218 264 331 401
#     4  11  20  38  72  95 127 173 225 261 318 409
#     4  11  22  42  67 100 126 174 224 271 322 393
#     4  12  26  40  66  96 136 172 216 272 332 388
#     4  12  26  42  66 100 138 169 217 276 337 375
#
# _framework density 19.462318
#
# number of rings (size 3 to 8) (size 9 to 14) (size 15 to 20)
#    0.000    0.615    7.692    0.462    4.308    1.231 
#    0.000    0.000   13.538    0.000    0.000    0.000 
#    0.000    0.000    0.000    0.000    0.000    0.000 
#
# Total GULP energy -72624.963969 kJ/mol
# GULP energy per Si atom -5586.535690 kJ/mol
# Density = 1.941802 g / cm^3
# Si number density = 19.462318 Si / 1000 Ang^3
#
#
#
# Elastic Constant Matrix: (Units=GPa)
#
#
# Indices 1 2 3 4 5 6 
#
# 1 92.5730 45.4549 51.9400 -0.0061 2.9886 -0.0026
# 2 45.4549 139.9996 65.4870 -0.0141 -24.3296 -0.0054
# 3 51.9400 65.4870 121.0656 -0.0245 -34.3034 -0.0097
# 4 -0.0061 -0.0141 -0.0245 27.7551 -0.0077 -6.7891
# 5 2.9886 -24.3296 -34.3034 -0.0077 44.9331 -0.0043
# 6 -0.0026 -0.0054 -0.0097 -6.7891 -0.0043 16.3804
#
#
#
# Elastic Compliance Matrix: (Units=1/GPa)
#
#
# Indices 1 2 3 4 5 6 
#
# 1 0.017414 -0.003405 -0.008268 -0.000010 -0.009314 -0.000010
# 2 -0.003405 0.010316 -0.003155 0.000003 0.003404 0.000003
# 3 -0.008268 -0.003155 0.016825 0.000019 0.011687 0.000019
# 4 -0.000010 0.000003 0.000019 0.040094 0.000026 0.016618
# 5 -0.009314 0.003404 0.011687 0.000026 0.033640 0.000026
# 6 -0.000010 0.000003 0.000019 0.016618 0.000026 0.067936
#
#
# Mechanical properties :
#
#
# Convention : Reuss Voigt Hill
#
# Bulk Modulus (GPa) = 67.12037 75.48912 71.30474
# Shear Modulus (GPa) = 22.64014 30.53082 26.58548
#
# Velocity S-wave (km/s) = 3.41439 3.96500 3.69995
# Velocity P-wave (km/s) = 7.07858 7.73519 7.41416
#
# Compressibility (1/GPa) = 0.01489861
#
# Stress axis : x y z
#
# Youngs Moduli (GPa) = 57.42500 96.94113 59.43494
#
# Poissons Ratio (x) = 0.33008 0.49143
# Poissons Ratio (y) = 0.19553 0.18750
# Poissons Ratio (z) = 0.47481 0.30582
#
# Static dielectric constant tensor:
#      x y z
#    x 1.680070 0.000000 0.013940 
#    y 0.000000 1.685890 0.000000 
#    z 0.013940 0.000000 1.695930 
# 
# From -- ./inp_files/69150.got.cif
#   From: 2010.05.17/outbox.cif.g08.bks.cpg/sg5_35_cif.got.tgz:69150.got - 2010.06.03 18:56:24.
