data_PCOD9129866
_publ_section_title
;
Structure prediction by ZEFSAII (Michael W. Deem and Ramdas Pophale) SiO2 
 PCOD9129866
Probable space group: C 2
;
_chemical_formula_sum "Si O2"
_cell_formula_units_Z 28
_cell_length_a 7.343011
_cell_length_b 12.353963
_cell_length_c 14.916535
_cell_angle_alpha 90.000000
_cell_angle_beta 66.333583
_cell_angle_gamma 90.000000
_cell_volume 1239.354512
_symmetry_space_group_name_H-M "C 2"
_symmetry_group_IT_number 5
_symmetry_cell_setting 'monoclinic'
loop_
_space_group_symop_operation_xyz
x,y,z
-x,y,-z
1/2+x,1/2+y,z
1/2-x,1/2+y,-z
loop_
_atom_site_type_symbol
_atom_site_label
_atom_site_fract_x
_atom_site_fract_y
_atom_site_fract_z
Si Si1 0.496359 0.007890 0.700738
Si Si2 0.470475 0.492520 0.604729
Si Si3 0.071072 0.296558 0.769936
Si Si4 0.931416 0.656040 0.876181
Si Si5 0.583285 0.390696 0.195371
Si Si6 0.689255 0.147121 0.409150
Si Si7 0.677475 0.608240 0.090673
O O1 0.405069 0.087446 0.792173
O O2 0.408499 0.047068 0.625306
O O3 0.451769 0.884563 0.735819
O O4 0.736061 0.021759 0.655884
O O5 0.500000 0.442139 0.500000
O O6 0.508294 0.424508 0.689302
O O7 0.619780 0.595403 0.578963
O O8 0.188994 0.363638 0.821752
O O9 0.227403 0.238551 0.673266
O O10 0.949582 0.203164 0.840666
O O11 0.980225 0.779434 0.839136
O O12 0.118862 0.608777 0.892311
O O13 0.742231 0.639324 0.977726
O O14 0.576534 0.492768 0.130259
O O15 0.500000 0.190854 0.500000
#
# Coordination Sequence:
#
# PCOD9129866 Si02
#       7
#     4   4   4   4   4   4   4
#     4  11  24  46  68 102 147 185 236 301 351 429
#     4  11  23  46  71 102 147 187 233 303 358 418
#     4  11  24  44  69 100 138 185 232 293 353 426
#     4  11  24  44  68 102 139 190 232 296 356 422
#     4  11  24  45  71  97 141 185 229 302 344 427
#     4  12  24  45  71 105 139 187 247 287 366 433
#     4  11  25  43  69 103 141 185 239 287 367 423
#
# _framework density 22.592403999999998
#
# number of rings (size 3 to 8) (size 9 to 14) (size 15 to 20)
#    0.000    0.857    7.143    0.000    4.000    2.857 
#    0.000    0.714    0.000    0.000    0.000    0.000 
#    0.000    0.000    0.000    0.000    0.000    0.000 
#
# Total GULP energy -78253.517078 kJ/mol
# GULP energy per Si atom -5589.536934 kJ/mol
# Density = 2.254098 g / cm^3
# Si number density = 22.592404 Si / 1000 Ang^3
#
#
#
# Elastic Constant Matrix: (Units=GPa)
#
#
# Indices 1 2 3 4 5 6 
#
# 1 59.6191 23.2011 21.2866 0.0000 -7.9401 0.0000
# 2 23.2011 158.8488 65.3627 0.0000 -18.7086 0.0000
# 3 21.2866 65.3627 168.9288 0.0000 -27.1273 0.0000
# 4 0.0000 0.0000 0.0000 8.7259 0.0000 11.7666
# 5 -7.9401 -18.7086 -27.1273 0.0000 29.4157 0.0000
# 6 0.0000 0.0000 0.0000 11.7666 0.0000 22.4018
#
#
#
# Elastic Compliance Matrix: (Units=1/GPa)
#
#
# Indices 1 2 3 4 5 6 
#
# 1 0.018271 -0.001882 -0.001144 0.000000 0.002680 0.000000
# 2 -0.001882 0.007835 -0.002437 0.000000 0.002228 0.000000
# 3 -0.001144 -0.002437 0.007874 0.000000 0.005403 0.000000
# 4 0.000000 0.000000 0.000000 0.392859 0.000000 -0.206351
# 5 0.002680 0.002228 0.005403 0.000000 0.041119 0.000000
# 6 0.000000 0.000000 0.000000 -0.206351 0.000000 0.153026
#
#
# Mechanical properties :
#
#
# Convention : Reuss Voigt Hill
#
# Bulk Modulus (GPa) = 43.37432 67.45527 55.41479
# Shear Modulus (GPa) = 7.81744 30.61176 19.21460
#
# Velocity S-wave (km/s) = 1.86218 3.68497 2.91948
# Velocity P-wave (km/s) = 4.88507 6.93020 5.99548
#
# Compressibility (1/GPa) = 0.02305512
#
# Stress axis : x y z
#
# Youngs Moduli (GPa) = 54.73171 127.62784 126.99641
#
# Poissons Ratio (x) = 0.24025 0.14523
# Poissons Ratio (y) = 0.10303 0.30945
# Poissons Ratio (z) = 0.06259 0.31099
#
# Static dielectric constant tensor:
#      x y z
#    x 1.882460 0.000000 -0.007460 
#    y 0.000000 1.830160 0.000000 
#    z -0.007460 0.000000 1.876820 
# 
# From -- ./inp_files/50408.got.cif
#   From: 2010.05.17/outbox.cif.g08.bks.cpg/sg5_26_cif.got.tgz:50408.got - 2010.06.03 18:56:24.
