data_PCOD9129099
_publ_section_title
;
Structure prediction by ZEFSAII (Michael W. Deem and Ramdas Pophale) SiO2 
 PCOD9129099
Probable space group: C 2
;
_chemical_formula_sum "Si O2"
_cell_formula_units_Z 28
_cell_length_a 28.393434
_cell_length_b 5.006376
_cell_length_c 9.330418
_cell_angle_alpha 90.000000
_cell_angle_beta 55.984474
_cell_angle_gamma 90.000000
_cell_volume 1099.353329
_symmetry_space_group_name_H-M "C 2"
_symmetry_group_IT_number 5
_symmetry_cell_setting 'monoclinic'
loop_
_space_group_symop_operation_xyz
x,y,z
-x,y,-z
1/2+x,1/2+y,z
1/2-x,1/2+y,-z
loop_
_atom_site_type_symbol
_atom_site_label
_atom_site_fract_x
_atom_site_fract_y
_atom_site_fract_z
Si Si1 0.000000 0.945091 0.000000
Si Si2 0.289570 0.704556 0.408209
Si Si3 0.675113 0.808776 0.972335
Si Si4 0.375259 0.901344 0.476997
Si Si5 0.991431 0.475411 0.204238
Si Si6 0.000000 0.645821 0.500000
Si Si7 0.698007 0.199962 0.178634
Si Si8 0.101328 0.064723 0.306406
O O1 0.974025 0.707564 0.939160
O O2 0.011646 0.177423 0.858025
O O3 0.258312 0.419344 0.461356
O O4 0.314832 0.805085 0.213393
O O5 0.343492 0.706134 0.422516
O O6 0.734967 0.687256 0.926568
O O7 0.675657 0.079014 0.066124
O O8 0.617434 0.663021 0.120129
O O9 0.424624 0.068674 0.314998
O O10 0.325069 0.054029 0.641560
O O11 0.409198 0.782460 0.554715
O O12 0.010639 0.485137 0.335686
O O13 0.054756 0.841349 0.408491
O O14 0.664584 0.474123 0.248714
#
# Coordination Sequence:
#
# PCOD9129099 Si02
#       8
#     2   4   4   4   4   2   4   4
#     4  10  26  50  74 108 150 202 248 322 404 452
#     4  12  28  45  72 111 154 202 252 310 378 482
#     4  11  24  41  74 107 151 192 247 316 381 460
#     4  11  25  46  75 104 150 204 250 311 398 459
#     4  11  25  49  80 109 153 205 264 326 393 469
#     4  12  26  50  84 112 152 204 288 322 382 470
#     4  11  21  43  71 106 145 192 244 311 388 443
#     4  11  25  46  75 110 149 199 254 323 388 447
#
# _framework density 25.469517
#
# number of rings (size 3 to 8) (size 9 to 14) (size 15 to 20)
#    0.000    0.857    4.286    1.714    4.000    3.429 
#    5.143    0.000    0.000    0.000    0.000    0.000 
#    0.000    0.000    0.000    0.000    0.000    0.000 
#
# Total GULP energy -78002.155451 kJ/mol
# GULP energy per Si atom -5571.582532 kJ/mol
# Density = 2.541155 g / cm^3
# Si number density = 25.469517 Si / 1000 Ang^3
#
#
#
# Elastic Constant Matrix: (Units=GPa)
#
#
# Indices 1 2 3 4 5 6 
#
# 1 62.5066 -6.7078 36.3199 0.0000 -13.0774 0.0000
# 2 -6.7078 71.1283 28.9748 0.0000 -12.2348 0.0000
# 3 36.3199 28.9748 161.6617 0.0000 16.2664 0.0000
# 4 0.0000 0.0000 0.0000 20.0964 0.0000 -23.5897
# 5 -13.0774 -12.2348 16.2664 0.0000 47.6172 0.0000
# 6 0.0000 0.0000 0.0000 -23.5897 0.0000 20.6033
#
#
#
# Elastic Compliance Matrix: (Units=1/GPa)
#
#
# Indices 1 2 3 4 5 6 
#
# 1 0.023529 0.007231 -0.007683 0.000000 0.010945 0.000000
# 2 0.007231 0.018631 -0.005846 0.000000 0.008770 0.000000
# 3 -0.007683 -0.005846 0.009655 0.000000 -0.006911 0.000000
# 4 0.000000 0.000000 0.000000 -0.144662 0.000000 -0.165630
# 5 0.010945 0.008770 -0.006911 0.000000 0.028621 0.000000
# 6 0.000000 0.000000 0.000000 -0.165630 0.000000 -0.141102
#
#
# Mechanical properties :
#
#
# Convention : Reuss Voigt Hill
#
# Bulk Modulus (GPa) = 25.49841 45.83005 35.66423
# Shear Modulus (GPa) = -27.83059 33.44401 2.80671
#
# Velocity S-wave (km/s) = -3.30919 3.62760 1.05090
# Velocity P-wave (km/s) = 2.13727 5.96483 3.93772
#
# Compressibility (1/GPa) = 0.03921814
#
# Stress axis : x y z
#
# Youngs Moduli (GPa) = 42.50139 53.67328 103.57143
#
# Poissons Ratio (x) = -0.38813 0.79578
# Poissons Ratio (y) = -0.30734 0.60552
# Poissons Ratio (z) = 0.32656 0.31380
#
# Static dielectric constant tensor:
#      x y z
#    x 2.230640 0.000000 -0.127810 
#    y 0.000000 2.071700 0.000000 
#    z -0.127810 0.000000 2.443030 
# 
# From -- ./inp_files/32124.got.cif
#   From: 2010.05.17/outbox.cif.g08.bks.cpg/sg5_17_cif.got.tgz:32124.got - 2010.06.03 18:56:24.
