data_PCOD9129062
_publ_section_title
;
Structure prediction by ZEFSAII (Michael W. Deem and Ramdas Pophale) SiO2 
 PCOD9129062
Probable space group: C 2
;
_chemical_formula_sum "Si O2"
_cell_formula_units_Z 30
_cell_length_a 17.093332
_cell_length_b 8.079006
_cell_length_c 10.782058
_cell_angle_alpha 90.000000
_cell_angle_beta 91.764942
_cell_angle_gamma 90.000000
_cell_volume 1488.264906
_symmetry_space_group_name_H-M "C 2"
_symmetry_group_IT_number 5
_symmetry_cell_setting 'monoclinic'
loop_
_space_group_symop_operation_xyz
x,y,z
-x,y,-z
1/2+x,1/2+y,z
1/2-x,1/2+y,-z
loop_
_atom_site_type_symbol
_atom_site_label
_atom_site_fract_x
_atom_site_fract_y
_atom_site_fract_z
Si Si1 0.414668 0.996650 0.032575
Si Si2 0.317500 0.890264 0.806212
Si Si3 0.105185 0.299942 0.719990
Si Si4 0.000000 0.229916 0.500000
Si Si5 0.613279 0.561645 0.312618
Si Si6 0.287561 0.268672 0.742672
Si Si7 0.973560 0.038366 0.122453
Si Si8 0.670844 0.324097 0.972344
O O1 0.416928 0.917182 0.167203
O O2 0.347380 0.132213 0.040288
O O3 0.500000 0.062710 0.000000
O O4 0.383995 0.888526 0.916009
O O5 0.337285 0.726093 0.726378
O O6 0.235605 0.875892 0.875943
O O7 0.315638 0.075281 0.744033
O O8 0.196994 0.287018 0.702724
O O9 0.078166 0.126387 0.776448
O O10 0.052045 0.334094 0.598580
O O11 0.939380 0.119330 0.575018
O O12 0.664827 0.399127 0.337939
O O13 0.552967 0.504304 0.201025
O O14 0.297902 0.338520 0.885063
O O15 0.913041 0.907273 0.061005
O O16 0.000000 0.137328 0.000000
#
# Coordination Sequence:
#
# PCOD9129062 Si02
#       8
#     4   4   4   2   4   4   4   4
#     4  11  22  34  61 100 133 167 209 262 334 402
#     4  11  23  40  64 104 134 164 212 265 336 414
#     4  11  21  41  64  88 129 172 223 273 318 379
#     4  10  26  48  66  90 124 180 244 272 314 378
#     4  11  24  45  69  89 131 178 222 275 321 385
#     4  11  23  39  68 101 132 169 214 266 336 399
#     4  11  20  35  61  93 133 171 197 255 341 388
#     4  11  22  36  59 103 145 160 198 261 337 423
#
# _framework density 20.157700999999999
#
# number of rings (size 3 to 8) (size 9 to 14) (size 15 to 20)
#    0.000    1.067    4.000    4.000    3.733    0.000 
#    2.400    0.667    2.933    0.000    0.000    0.000 
#    0.000    0.000    0.000    0.000    0.000    0.000 
#
# Total GULP energy -83598.661253 kJ/mol
# GULP energy per Si atom -5573.244084 kJ/mol
# Density = 2.011182 g / cm^3
# Si number density = 20.157701 Si / 1000 Ang^3
#
#
#
# Elastic Constant Matrix: (Units=GPa)
#
#
# Indices 1 2 3 4 5 6 
#
# 1 127.9758 39.0442 20.5784 0.0000 4.5478 0.0000
# 2 39.0442 78.5206 10.0249 0.0000 -5.8716 0.0000
# 3 20.5784 10.0249 55.2470 0.0000 10.4088 0.0000
# 4 0.0000 0.0000 0.0000 13.3474 0.0000 -4.0017
# 5 4.5478 -5.8716 10.4088 0.0000 34.6233 0.0000
# 6 0.0000 0.0000 0.0000 -4.0017 0.0000 30.9696
#
#
#
# Elastic Compliance Matrix: (Units=1/GPa)
#
#
# Indices 1 2 3 4 5 6 
#
# 1 0.009663 -0.004578 -0.002526 0.000000 -0.001286 0.000000
# 2 -0.004578 0.015528 -0.001825 0.000000 0.003783 0.000000
# 3 -0.002526 -0.001825 0.020531 0.000000 -0.006150 0.000000
# 4 0.000000 0.000000 0.000000 0.077940 0.000000 0.010071
# 5 -0.001286 0.003783 -0.006150 0.000000 0.031542 0.000000
# 6 0.000000 0.000000 0.000000 0.010071 0.000000 0.033591
#
#
# Mechanical properties :
#
#
# Convention : Reuss Voigt Hill
#
# Bulk Modulus (GPa) = 35.88998 44.55980 40.22489
# Shear Modulus (GPa) = 23.15440 28.59445 25.87442
#
# Velocity S-wave (km/s) = 3.39287 3.77043 3.58662
# Velocity P-wave (km/s) = 5.76125 6.41159 6.09510
#
# Compressibility (1/GPa) = 0.02786293
#
# Stress axis : x y z
#
# Youngs Moduli (GPa) = 103.49060 64.39951 48.70610
#
# Poissons Ratio (x) = 0.29485 0.12303
# Poissons Ratio (y) = 0.47383 0.08889
# Poissons Ratio (z) = 0.26142 0.11754
#
# Static dielectric constant tensor:
#      x y z
#    x 1.751590 0.000000 0.031560 
#    y 0.000000 1.775710 0.000000 
#    z 0.031560 0.000000 1.734210 
# 
# From -- ./inp_files/44183.got.cif
#   From: 2010.05.17/outbox.cif.g08.bks.cpg/sg5_23_cif.got.tgz:44183.got - 2010.06.03 18:56:24.
