data_PCOD9129484
_publ_section_title
;
Structure prediction by ZEFSAII (Michael W. Deem and Ramdas Pophale) SiO2 
 PCOD9129484
Probable space group: C 2
;
_chemical_formula_sum "Si O2"
_cell_formula_units_Z 32
_cell_length_a 30.074860
_cell_length_b 8.957338
_cell_length_c 5.169699
_cell_angle_alpha 90.000000
_cell_angle_beta 87.572616
_cell_angle_gamma 90.000000
_cell_volume 1391.419123
_symmetry_space_group_name_H-M "C 2"
_symmetry_group_IT_number 5
_symmetry_cell_setting 'monoclinic'
loop_
_space_group_symop_operation_xyz
x,y,z
-x,y,-z
1/2+x,1/2+y,z
1/2-x,1/2+y,-z
loop_
_atom_site_type_symbol
_atom_site_label
_atom_site_fract_x
_atom_site_fract_y
_atom_site_fract_z
Si Si1 0.714742 0.108200 0.294973
Si Si2 0.759751 0.960979 0.785376
Si Si3 0.603259 0.658676 0.764192
Si Si4 0.049246 0.388635 0.538583
Si Si5 0.374097 0.975363 0.839901
Si Si6 0.473578 0.454131 0.244778
Si Si7 0.451839 0.129887 0.118073
Si Si8 0.653207 0.663988 0.232871
O O1 0.731880 0.031668 0.554361
O O2 0.729851 0.283123 0.258097
O O3 0.661128 0.083621 0.293477
O O4 0.735708 0.011733 0.055456
O O5 0.805277 0.055210 0.785496
O O6 0.572768 0.807500 0.773923
O O7 0.568550 0.545341 0.650755
O O8 0.641565 0.678383 0.540275
O O9 0.617281 0.599048 0.039129
O O10 0.086893 0.383167 0.316431
O O11 0.047222 0.564012 0.595008
O O12 0.000000 0.329284 0.500000
O O13 0.343222 0.828650 0.906087
O O14 0.404735 0.078706 0.012804
O O15 0.500000 0.420553 0.500000
O O16 0.456110 0.304639 0.115737
O O17 0.500000 0.533171 0.000000
O O18 0.500000 0.068387 0.000000
#
# Coordination Sequence:
#
# PCOD9129484 Si02
#       8
#     4   4   4   4   4   4   4   4
#     4  12  28  49  81 111 148 193 243 301 374 453
#     4  12  27  52  79 113 151 190 238 306 381 442
#     4  11  24  41  67  99 137 187 238 294 349 426
#     4  11  22  40  66  97 141 185 242 291 348 409
#     4  11  25  42  68 106 139 189 241 295 353 434
#     4  11  25  42  61  92 136 187 236 297 355 412
#     4  11  23  40  65  94 139 187 239 293 350 413
#     4  11  24  44  70 103 141 181 232 297 362 429
#
# _framework density 22.998104999999999
#
# number of rings (size 3 to 8) (size 9 to 14) (size 15 to 20)
#    0.000    0.750    2.500    4.500    5.250    3.500 
#    0.000    0.000    0.000    0.000    0.000    0.000 
#    0.000    0.000    0.000    0.000    0.000    0.000 
#
# Total GULP energy -89088.650417 kJ/mol
# GULP energy per Si atom -5568.040651 kJ/mol
# Density = 2.294576 g / cm^3
# Si number density = 22.998105 Si / 1000 Ang^3
#
#
#
# Elastic Constant Matrix: (Units=GPa)
#
#
# Indices 1 2 3 4 5 6 
#
# 1 113.7660 28.8409 18.7311 0.0000 30.7215 0.0000
# 2 28.8409 63.8019 -15.9010 0.0000 16.2471 0.0000
# 3 18.7311 -15.9010 85.6228 0.0000 20.3489 0.0000
# 4 0.0000 0.0000 0.0000 36.8269 0.0000 0.8328
# 5 30.7215 16.2471 20.3489 0.0000 39.6645 0.0000
# 6 0.0000 0.0000 0.0000 0.8328 0.0000 19.6088
#
#
#
# Elastic Compliance Matrix: (Units=1/GPa)
#
#
# Indices 1 2 3 4 5 6 
#
# 1 0.011926 -0.004162 -0.001813 0.000000 -0.006603 0.000000
# 2 -0.004162 0.021722 0.007167 0.000000 -0.009351 0.000000
# 3 -0.001813 0.007167 0.015683 0.000000 -0.009577 0.000000
# 4 0.000000 0.000000 0.000000 0.027180 0.000000 -0.001154
# 5 -0.006603 -0.009351 -0.009577 0.000000 0.039069 0.000000
# 6 0.000000 0.000000 0.000000 -0.001154 0.000000 0.051046
#
#
# Mechanical properties :
#
#
# Convention : Reuss Voigt Hill
#
# Bulk Modulus (GPa) = 19.33628 36.28140 27.80884
# Shear Modulus (GPa) = 27.55109 34.65469 31.10289
#
# Velocity S-wave (km/s) = 3.46493 3.88603 3.68150
# Velocity P-wave (km/s) = 4.94304 5.99542 5.49448
#
# Compressibility (1/GPa) = 0.05171625
#
# Stress axis : x y z
#
# Youngs Moduli (GPa) = 83.84703 46.03612 63.76446
#
# Poissons Ratio (x) = 0.19158 0.11559
# Poissons Ratio (y) = 0.34894 -0.45698
# Poissons Ratio (z) = 0.15199 -0.32993
#
# Static dielectric constant tensor:
#      x y z
#    x 2.035850 0.000000 -0.032460 
#    y 0.000000 1.940940 0.000000 
#    z -0.032460 0.000000 1.947160 
# 
# From -- ./inp_files/11255.got.cif
#   From: 2010.05.17/outbox.cif.g08.bks.cpg/sg5_6_cif.got.tgz:11255.got - 2010.06.03 18:56:24.
