data_PCOD9129495
_publ_section_title
;
Structure prediction by ZEFSAII (Michael W. Deem and Ramdas Pophale) SiO2 
 PCOD9129495
Probable space group: C 2
;
_chemical_formula_sum "Si O2"
_cell_formula_units_Z 18
_cell_length_a 8.740928
_cell_length_b 18.168156
_cell_length_c 5.335968
_cell_angle_alpha 90.000000
_cell_angle_beta 96.010059
_cell_angle_gamma 90.000000
_cell_volume 842.728998
_symmetry_space_group_name_H-M "C 2"
_symmetry_group_IT_number 5
_symmetry_cell_setting 'monoclinic'
loop_
_space_group_symop_operation_xyz
x,y,z
-x,y,-z
1/2+x,1/2+y,z
1/2-x,1/2+y,-z
loop_
_atom_site_type_symbol
_atom_site_label
_atom_site_fract_x
_atom_site_fract_y
_atom_site_fract_z
Si Si1 0.500000 0.625000 0.000000
Si Si2 0.500000 0.270787 0.500000
Si Si3 0.405643 0.907003 0.735214
Si Si4 0.000000 0.869539 0.000000
Si Si5 0.157108 0.240785 0.353600
Si Si6 0.372410 0.490700 0.271451
O O1 0.623444 0.678216 0.146120
O O2 0.415964 0.570203 0.178525
O O3 0.513916 0.320235 0.249098
O O4 0.333561 0.229882 0.476055
O O5 0.500000 0.897439 0.500000
O O6 0.338471 0.823793 0.756272
O O7 0.292378 0.974077 0.648760
O O8 0.500000 0.924271 0.000000
O O9 0.870369 0.930529 0.044155
O O10 0.000000 0.236445 0.500000
O O11 0.500000 0.470872 0.500000
#
# Coordination Sequence:
#
# PCOD9129495 Si02
#       6
#     2   2   4   2   4   4
#     4  11  26  46  74 100 159 194 240 293 382 434
#     4  12  26  42  80 110 148 186 254 302 372 422
#     4  11  25  42  75 109 144 179 250 311 358 423
#     4  11  22  40  72 110 137 182 244 307 350 438
#     4  11  25  46  72 111 149 191 243 311 363 437
#     4  11  24  45  73 103 146 198 238 292 372 441
#
# _framework density 21.359176999999999
#
# number of rings (size 3 to 8) (size 9 to 14) (size 15 to 20)
#    0.000    0.889    4.444    0.667   15.556    0.000 
#    0.000    4.444    0.000    0.000    0.000    0.000 
#    0.000    0.000    0.000    0.000    0.000    0.000 
#
# Total GULP energy -50115.921661 kJ/mol
# GULP energy per Si atom -5568.435740 kJ/mol
# Density = 2.131056 g / cm^3
# Si number density = 21.359177 Si / 1000 Ang^3
#
#
#
# Elastic Constant Matrix: (Units=GPa)
#
#
# Indices 1 2 3 4 5 6 
#
# 1 123.9085 59.4591 43.3564 0.0000 33.2622 0.0000
# 2 59.4591 104.6106 47.9085 0.0000 9.4251 0.0000
# 3 43.3564 47.9085 118.8618 0.0000 14.3839 0.0000
# 4 0.0000 0.0000 0.0000 16.0960 0.0000 4.4386
# 5 33.2622 9.4251 14.3839 0.0000 33.0243 0.0000
# 6 0.0000 0.0000 0.0000 4.4386 0.0000 19.2944
#
#
#
# Elastic Compliance Matrix: (Units=1/GPa)
#
#
# Indices 1 2 3 4 5 6 
#
# 1 0.015307 -0.006986 -0.001207 0.000000 -0.012898 0.000000
# 2 -0.006986 0.014969 -0.004032 0.000000 0.004520 0.000000
# 3 -0.001207 -0.004032 0.010759 0.000000 -0.002320 0.000000
# 4 0.000000 0.000000 0.000000 0.066335 0.000000 -0.015260
# 5 -0.012898 0.004520 -0.002320 0.000000 0.042992 0.000000
# 6 0.000000 0.000000 0.000000 -0.015260 0.000000 0.055339
#
#
# Mechanical properties :
#
#
# Convention : Reuss Voigt Hill
#
# Bulk Modulus (GPa) = 60.29218 72.09211 66.19215
# Shear Modulus (GPa) = 21.21506 26.79338 24.00422
#
# Velocity S-wave (km/s) = 3.15501 3.54562 3.35600
# Velocity P-wave (km/s) = 6.44680 7.11249 6.78781
#
# Compressibility (1/GPa) = 0.01658590
#
# Stress axis : x y z
#
# Youngs Moduli (GPa) = 65.32786 66.80355 92.94140
#
# Poissons Ratio (x) = 0.46666 0.11219
# Poissons Ratio (y) = 0.45635 0.37478
# Poissons Ratio (z) = 0.07886 0.26938
#
# Static dielectric constant tensor:
#      x y z
#    x 2.060110 0.000000 -0.122900 
#    y 0.000000 1.743200 0.000000 
#    z -0.122900 0.000000 1.865780 
# 
# From -- ./inp_files/2140.got.cif
#   From: 2010.05.17/outbox.cif.g08.bks.cpg/sg5_2_cif.got.tgz:2140.got - 2010.06.03 18:56:24.
