data_PCOD9129290
_publ_section_title
;
Structure prediction by ZEFSAII (Michael W. Deem and Ramdas Pophale) SiO2 
 PCOD9129290
Probable space group: C 2
;
_chemical_formula_sum "Si O2"
_cell_formula_units_Z 28
_cell_length_a 13.298200
_cell_length_b 8.071298
_cell_length_c 10.086145
_cell_angle_alpha 90.000000
_cell_angle_beta 111.194828
_cell_angle_gamma 90.000000
_cell_volume 1009.353806
_symmetry_space_group_name_H-M "C 2"
_symmetry_group_IT_number 5
_symmetry_cell_setting 'monoclinic'
loop_
_space_group_symop_operation_xyz
x,y,z
-x,y,-z
1/2+x,1/2+y,z
1/2-x,1/2+y,-z
loop_
_atom_site_type_symbol
_atom_site_label
_atom_site_fract_x
_atom_site_fract_y
_atom_site_fract_z
Si Si1 0.518798 0.844590 0.749323
Si Si2 0.854249 0.072487 0.653159
Si Si3 0.379268 0.040605 0.394577
Si Si4 0.046804 0.675564 0.157713
Si Si5 0.749157 0.576539 0.847269
Si Si6 0.347066 0.714902 0.943142
Si Si7 0.447515 0.384902 0.302366
O O1 0.422556 0.734385 0.643393
O O2 0.626365 0.899464 0.721704
O O3 0.467897 0.024802 0.750843
O O4 0.556929 0.759687 0.906258
O O5 0.727977 0.046938 0.567994
O O6 0.857973 0.098513 0.817706
O O7 0.927521 0.933263 0.613729
O O8 0.500000 0.998907 0.500000
O O9 0.395591 0.228491 0.348839
O O10 0.172787 0.697780 0.195796
O O11 0.969038 0.825146 0.161538
O O12 0.000000 0.611293 0.000000
O O13 0.802747 0.392730 0.873127
O O14 0.631186 0.539856 0.731054
O O15 0.736831 0.632123 0.993513
#
# Coordination Sequence:
#
# PCOD9129290 Si02
#       7
#     4   4   4   4   4   4   4
#     4  11  22  42  65  96 135 179 219 275 346 399
#     4  12  24  43  68 100 136 178 220 279 347 409
#     4  11  27  51  70  94 134 181 241 292 327 391
#     4  11  21  36  57  89 137 179 213 261 331 405
#     4  12  23  37  60  96 142 184 212 267 327 414
#     4  12  23  38  63 102 150 173 213 271 342 423
#     4  11  26  40  64 100 127 178 229 271 343 400
#
# _framework density 27.740521000000001
#
# number of rings (size 3 to 8) (size 9 to 14) (size 15 to 20)
#    0.000    0.571    5.714    2.143    6.000    1.143 
#    0.000    0.714    0.000    0.000    0.000    0.000 
#    0.000    0.000    0.000    0.000    0.000    0.000 
#
# Total GULP energy -78185.334793 kJ/mol
# GULP energy per Si atom -5584.666771 kJ/mol
# Density = 2.767738 g / cm^3
# Si number density = 27.740521 Si / 1000 Ang^3
#
#
#
# Elastic Constant Matrix: (Units=GPa)
#
#
# Indices 1 2 3 4 5 6 
#
# 1 181.3782 40.5669 16.1005 0.0000 47.4506 0.0000
# 2 40.5669 84.2527 0.0719 0.0000 2.5853 0.0000
# 3 16.1005 0.0719 59.4324 0.0000 18.3845 0.0000
# 4 0.0000 0.0000 0.0000 20.7500 0.0000 -0.6056
# 5 47.4506 2.5853 18.3845 0.0000 41.2979 0.0000
# 6 0.0000 0.0000 0.0000 -0.6056 0.0000 58.4765
#
#
#
# Elastic Compliance Matrix: (Units=1/GPa)
#
#
# Indices 1 2 3 4 5 6 
#
# 1 0.009120 -0.004067 0.000808 0.000000 -0.010584 0.000000
# 2 -0.004067 0.013709 -0.000110 0.000000 0.003864 0.000000
# 3 0.000808 -0.000110 0.019590 0.000000 -0.009643 0.000000
# 4 0.000000 0.000000 0.000000 0.048207 0.000000 0.000499
# 5 -0.010584 0.003864 -0.009643 0.000000 0.040426 0.000000
# 6 0.000000 0.000000 0.000000 0.000499 0.000000 0.017106
#
#
# Mechanical properties :
#
#
# Convention : Reuss Voigt Hill
#
# Bulk Modulus (GPa) = 28.02611 48.72687 38.37649
# Shear Modulus (GPa) = 29.97782 41.99314 35.98548
#
# Velocity S-wave (km/s) = 3.29089 3.89496 3.60560
# Velocity P-wave (km/s) = 4.95629 6.15069 5.58551
#
# Compressibility (1/GPa) = 0.03568101
#
# Stress axis : x y z
#
# Youngs Moduli (GPa) = 109.64661 72.94521 51.04697
#
# Poissons Ratio (x) = 0.29668 -0.04126
# Poissons Ratio (y) = 0.44596 0.00562
# Poissons Ratio (z) = -0.08862 0.00803
#
# Static dielectric constant tensor:
#      x y z
#    x 2.334230 0.000000 0.013480 
#    y 0.000000 2.170840 0.000000 
#    z 0.013480 0.000000 2.313230 
# 
# From -- ./inp_files/42029.got.cif
#   From: 2010.05.17/outbox.cif.g08.bks.cpg/sg5_22_cif.got.tgz:42029.got - 2010.06.03 18:56:24.
