data_PCOD9129409
_publ_section_title
;
Structure prediction by ZEFSAII (Michael W. Deem and Ramdas Pophale) SiO2 
 PCOD9129409
Probable space group: C 2
;
_chemical_formula_sum "Si O2"
_cell_formula_units_Z 28
_cell_length_a 18.028823
_cell_length_b 8.451175
_cell_length_c 14.231459
_cell_angle_alpha 90.000000
_cell_angle_beta 142.288990
_cell_angle_gamma 90.000000
_cell_volume 1326.348092
_symmetry_space_group_name_H-M "C 2"
_symmetry_group_IT_number 5
_symmetry_cell_setting 'monoclinic'
loop_
_space_group_symop_operation_xyz
x,y,z
-x,y,-z
1/2+x,1/2+y,z
1/2-x,1/2+y,-z
loop_
_atom_site_type_symbol
_atom_site_label
_atom_site_fract_x
_atom_site_fract_y
_atom_site_fract_z
Si Si1 0.910250 0.921160 0.098725
Si Si2 0.076951 0.426196 0.664409
Si Si3 0.906049 0.428645 0.978515
Si Si4 0.412398 0.904066 0.666026
Si Si5 0.189624 0.085412 0.177106
Si Si6 0.664498 0.551362 0.377472
Si Si7 0.262452 0.650077 0.085908
O O1 0.048534 0.936631 0.268194
O O2 0.830288 0.051389 0.074252
O O3 0.852270 0.752307 0.063667
O O4 0.890802 0.966353 0.968972
O O5 0.174652 0.553111 0.725566
O O6 0.149816 0.281668 0.783508
O O7 0.000000 0.366564 0.500000
O O8 0.980379 0.477947 0.644981
O O9 0.861112 0.259934 0.895115
O O10 0.790889 0.532615 0.889892
O O11 0.000000 0.505589 0.000000
O O12 0.988742 0.406314 0.152876
O O13 0.376084 0.719790 0.621391
O O14 0.285104 0.993011 0.550152
O O15 0.186773 0.062324 0.286602
#
# Coordination Sequence:
#
# PCOD9129409 Si02
#       7
#     4   4   4   4   4   4   4
#     4  11  22  43  69 100 135 185 239 287 350 432
#     4  11  23  45  70 101 144 184 236 293 357 422
#     4  12  24  45  71 103 139 184 245 297 347 427
#     4  12  26  45  68 101 147 184 234 301 357 417
#     4  11  21  44  75  97 132 192 238 283 350 425
#     4  12  25  44  70 101 143 189 230 293 365 421
#     4  11  25  41  70 100 137 185 234 299 354 417
#
# _framework density 21.110598
#
# number of rings (size 3 to 8) (size 9 to 14) (size 15 to 20)
#    0.000    0.571    5.714    3.000    2.000    3.429 
#    0.000    0.714    0.000    0.000    0.000    0.000 
#    0.000    0.000    0.000    0.000    0.000    0.000 
#
# Total GULP energy -78264.639087 kJ/mol
# GULP energy per Si atom -5590.331363 kJ/mol
# Density = 2.106255 g / cm^3
# Si number density = 21.110598 Si / 1000 Ang^3
#
#
#
# Elastic Constant Matrix: (Units=GPa)
#
#
# Indices 1 2 3 4 5 6 
#
# 1 100.0120 14.5453 9.3206 0.0000 16.4317 0.0000
# 2 14.5453 45.3113 9.3940 0.0000 10.3075 0.0000
# 3 9.3206 9.3940 44.8268 0.0000 15.0869 0.0000
# 4 0.0000 0.0000 0.0000 15.9774 0.0000 8.1949
# 5 16.4317 10.3075 15.0869 0.0000 36.1200 0.0000
# 6 0.0000 0.0000 0.0000 8.1949 0.0000 24.6678
#
#
#
# Elastic Compliance Matrix: (Units=1/GPa)
#
#
# Indices 1 2 3 4 5 6 
#
# 1 0.011086 -0.002534 -0.000372 0.000000 -0.004165 0.000000
# 2 -0.002534 0.024561 -0.003083 0.000000 -0.004569 0.000000
# 3 -0.000372 -0.003083 0.026388 0.000000 -0.009973 0.000000
# 4 0.000000 0.000000 0.000000 0.075444 0.000000 -0.025063
# 5 -0.004165 -0.004569 -0.009973 0.000000 0.035049 0.000000
# 6 0.000000 0.000000 0.000000 -0.025063 0.000000 0.048865
#
#
# Mechanical properties :
#
#
# Convention : Reuss Voigt Hill
#
# Bulk Modulus (GPa) = 19.97707 28.51885 24.24796
# Shear Modulus (GPa) = 19.99535 25.81238 22.90386
#
# Velocity S-wave (km/s) = 3.08095 3.50054 3.29743
# Velocity P-wave (km/s) = 4.70531 5.46598 5.09985
#
# Compressibility (1/GPa) = 0.05005740
#
# Stress axis : x y z
#
# Youngs Moduli (GPa) = 90.20128 40.71424 37.89600
#
# Poissons Ratio (x) = 0.10318 0.01411
# Poissons Ratio (y) = 0.22859 0.11682
# Poissons Ratio (z) = 0.03359 0.12551
#
# Static dielectric constant tensor:
#      x y z
#    x 1.815220 0.000000 -0.016970 
#    y 0.000000 1.741090 0.000000 
#    z -0.016970 0.000000 1.786990 
# 
# From -- ./inp_files/55767.got.cif
#   From: 2010.05.17/outbox.cif.g08.bks.cpg/sg5_28_cif.got.tgz:55767.got - 2010.06.03 18:56:24.
