data_PCOD9129867
_publ_section_title
;
Structure prediction by ZEFSAII (Michael W. Deem and Ramdas Pophale) SiO2 
 PCOD9129867
Probable space group: C 2
;
_chemical_formula_sum "Si O2"
_cell_formula_units_Z 20
_cell_length_a 11.703999
_cell_length_b 7.676562
_cell_length_c 13.252607
_cell_angle_alpha 90.000000
_cell_angle_beta 134.681151
_cell_angle_gamma 90.000000
_cell_volume 846.624424
_symmetry_space_group_name_H-M "C 2"
_symmetry_group_IT_number 5
_symmetry_cell_setting 'monoclinic'
loop_
_space_group_symop_operation_xyz
x,y,z
-x,y,-z
1/2+x,1/2+y,z
1/2-x,1/2+y,-z
loop_
_atom_site_type_symbol
_atom_site_label
_atom_site_fract_x
_atom_site_fract_y
_atom_site_fract_z
Si Si1 0.643383 0.593830 0.526315
Si Si2 0.995570 0.698542 0.246562
Si Si3 0.640898 0.087746 0.025744
Si Si4 0.749925 0.796930 0.253159
Si Si5 0.008922 0.082698 0.789045
O O1 0.500000 0.685372 0.500000
O O2 0.682716 0.418923 0.614868
O O3 0.574580 0.570551 0.372394
O O4 0.814075 0.686888 0.623330
O O5 0.895740 0.697749 0.287847
O O6 0.933533 0.553146 0.130438
O O7 0.959057 0.880470 0.167035
O O8 0.816326 0.168703 0.116127
O O9 0.679262 0.924801 0.123064
O O10 0.500000 0.184517 0.000000
O O11 0.611805 0.673520 0.209780
#
# Coordination Sequence:
#
# PCOD9129867 Si02
#       5
#     4   4   4   4   4
#     4  12  22  48  75 101 147 183 223 292 354 407
#     4  11  25  46  70 106 138 185 238 282 349 416
#     4  11  23  46  71  97 147 185 226 293 346 402
#     4  11  26  49  73 101 146 184 228 297 340 418
#     4  11  26  43  75 107 134 189 235 280 353 415
#
# _framework density 23.623225999999999
#
# number of rings (size 3 to 8) (size 9 to 14) (size 15 to 20)
#    0.000    0.800    6.000    1.200    5.600    0.000 
#   18.000    0.000    0.000    0.000    0.000    0.000 
#    0.000    0.000    0.000    0.000    0.000    0.000 
#
# Total GULP energy -55894.187241 kJ/mol
# GULP energy per Si atom -5589.418724 kJ/mol
# Density = 2.356946 g / cm^3
# Si number density = 23.623226 Si / 1000 Ang^3
#
#
#
# Elastic Constant Matrix: (Units=GPa)
#
#
# Indices 1 2 3 4 5 6 
#
# 1 270.0787 57.5733 56.2606 0.0000 40.6171 0.0000
# 2 57.5733 42.1871 7.2297 0.0000 8.8751 0.0000
# 3 56.2606 7.2297 123.1786 0.0000 27.5682 0.0000
# 4 0.0000 0.0000 0.0000 22.2171 0.0000 3.4261
# 5 40.6171 8.8751 27.5682 0.0000 49.0137 0.0000
# 6 0.0000 0.0000 0.0000 3.4261 0.0000 38.5975
#
#
#
# Elastic Compliance Matrix: (Units=1/GPa)
#
#
# Indices 1 2 3 4 5 6 
#
# 1 0.006041 -0.007381 -0.001721 0.000000 -0.002701 0.000000
# 2 -0.007381 0.033689 0.001590 0.000000 -0.000878 0.000000
# 3 -0.001721 0.001590 0.009789 0.000000 -0.004367 0.000000
# 4 0.000000 0.000000 0.000000 0.045635 0.000000 -0.004051
# 5 -0.002701 -0.000878 -0.004367 0.000000 0.025256 0.000000
# 6 0.000000 0.000000 0.000000 -0.004051 0.000000 0.026268
#
#
# Mechanical properties :
#
#
# Convention : Reuss Voigt Hill
#
# Bulk Modulus (GPa) = 28.98990 75.28574 52.13782
# Shear Modulus (GPa) = 28.86850 42.92437 35.89644
#
# Velocity S-wave (km/s) = 3.49956 4.26730 3.90236
# Velocity P-wave (km/s) = 5.35048 7.49789 6.51329
#
# Compressibility (1/GPa) = 0.03449477
#
# Stress axis : x y z
#
# Youngs Moduli (GPa) = 165.54088 29.68353 102.16020
#
# Poissons Ratio (x) = 0.21908 0.17585
# Poissons Ratio (y) = 1.22181 -0.16247
# Poissons Ratio (z) = 0.28495 -0.04721
#
# Static dielectric constant tensor:
#      x y z
#    x 1.913130 0.000000 0.030730 
#    y 0.000000 1.943310 0.000000 
#    z 0.030730 0.000000 1.912570 
# 
# From -- ./inp_files/52162.got.cif
#   From: 2010.05.17/outbox.cif.g08.bks.cpg/sg5_27_cif.got.tgz:52162.got - 2010.06.03 18:56:24.
