data_PCOD9129862
_publ_section_title
;
Structure prediction by ZEFSAII (Michael W. Deem and Ramdas Pophale) SiO2 
 PCOD9129862
Probable space group: C 2
;
_chemical_formula_sum "Si O2"
_cell_formula_units_Z 28
_cell_length_a 30.969105
_cell_length_b 8.157667
_cell_length_c 6.595331
_cell_angle_alpha 90.000000
_cell_angle_beta 51.264830
_cell_angle_gamma 90.000000
_cell_volume 1299.725674
_symmetry_space_group_name_H-M "C 2"
_symmetry_group_IT_number 5
_symmetry_cell_setting 'monoclinic'
loop_
_space_group_symop_operation_xyz
x,y,z
-x,y,-z
1/2+x,1/2+y,z
1/2-x,1/2+y,-z
loop_
_atom_site_type_symbol
_atom_site_label
_atom_site_fract_x
_atom_site_fract_y
_atom_site_fract_z
Si Si1 0.000000 0.351980 0.500000
Si Si2 0.075076 0.540336 0.595246
Si Si3 0.099151 0.304827 0.908122
Si Si4 0.293069 0.013332 0.331419
Si Si5 0.000000 0.819551 0.000000
Si Si6 0.798874 0.786351 0.590792
Si Si7 0.897429 0.935666 0.071017
Si Si8 0.661218 0.257677 0.111536
O O1 0.037459 0.456131 0.538993
O O2 0.046565 0.276228 0.212851
O O3 0.082995 0.409243 0.754611
O O4 0.128359 0.613477 0.326428
O O5 0.041348 0.698194 0.765854
O O6 0.149687 0.412056 0.846411
O O7 0.120096 0.119606 0.818856
O O8 0.284433 0.098060 0.576249
O O9 0.243929 0.901591 0.399089
O O10 0.299907 0.167687 0.162612
O O11 0.961235 0.915286 0.953687
O O12 0.803078 0.834663 0.813182
O O13 0.859816 0.816769 0.319042
O O14 0.880352 0.877080 0.893330
#
# Coordination Sequence:
#
# PCOD9129862 Si02
#       8
#     2   4   4   4   2   4   4   4
#     4  12  24  38  70  98 134 176 228 276 334 408
#     4  12  22  43  70  96 134 184 225 279 344 417
#     4  12  25  43  67 102 140 178 230 288 348 413
#     4  11  24  44  70  99 132 181 229 286 351 416
#     4  12  22  42  70  92 138 182 218 276 352 412
#     4  11  24  47  70  97 138 178 225 290 349 418
#     4  11  27  43  66 105 139 179 231 285 351 411
#     4  11  23  46  69  99 133 181 234 279 349 421
#
# _framework density 21.543008
#
# number of rings (size 3 to 8) (size 9 to 14) (size 15 to 20)
#    0.000    0.571    5.714    2.571    2.000    5.714 
#    2.571    0.000    0.000    0.000    0.000    0.000 
#    0.000    0.000    0.000    0.000    0.000    0.000 
#
# Total GULP energy -78090.422642 kJ/mol
# GULP energy per Si atom -5577.887332 kJ/mol
# Density = 2.149398 g / cm^3
# Si number density = 21.543008 Si / 1000 Ang^3
#
#
#
# Elastic Constant Matrix: (Units=GPa)
#
#
# Indices 1 2 3 4 5 6 
#
# 1 152.7417 55.0272 37.5238 0.0000 25.9887 0.0000
# 2 55.0272 93.8714 12.3531 0.0000 18.6743 0.0000
# 3 37.5238 12.3531 62.5983 0.0000 14.8258 0.0000
# 4 0.0000 0.0000 0.0000 13.9756 0.0000 -5.2132
# 5 25.9887 18.6743 14.8258 0.0000 34.3851 0.0000
# 6 0.0000 0.0000 0.0000 -5.2132 0.0000 28.2541
#
#
#
# Elastic Compliance Matrix: (Units=1/GPa)
#
#
# Indices 1 2 3 4 5 6 
#
# 1 0.009743 -0.004544 -0.004215 0.000000 -0.003079 0.000000
# 2 -0.004544 0.014110 0.001048 0.000000 -0.004680 0.000000
# 3 -0.004215 0.001048 0.019685 0.000000 -0.005871 0.000000
# 4 0.000000 0.000000 0.000000 0.076842 0.000000 0.014178
# 5 -0.003079 -0.004680 -0.005871 0.000000 0.036483 0.000000
# 6 0.000000 0.000000 0.000000 0.014178 0.000000 0.038009
#
#
# Mechanical properties :
#
#
# Convention : Reuss Voigt Hill
#
# Bulk Modulus (GPa) = 35.56619 57.66885 46.61752
# Shear Modulus (GPa) = 22.76177 28.94346 25.85261
#
# Velocity S-wave (km/s) = 3.25402 3.66938 3.46793
# Velocity P-wave (km/s) = 5.53746 6.69177 6.14179
#
# Compressibility (1/GPa) = 0.02811659
#
# Stress axis : x y z
#
# Youngs Moduli (GPa) = 102.63273 70.87193 50.80014
#
# Poissons Ratio (x) = 0.32208 0.21410
# Poissons Ratio (y) = 0.46641 -0.05325
# Poissons Ratio (z) = 0.43255 -0.07428
#
# Static dielectric constant tensor:
#      x y z
#    x 1.822970 0.000000 0.026580 
#    y 0.000000 1.768830 0.000000 
#    z 0.026580 0.000000 1.862440 
# 
# From -- ./inp_files/10803.got.cif
#   From: 2010.05.17/outbox.cif.g08.bks.cpg/sg5_6_cif.got.tgz:10803.got - 2010.06.03 18:56:24.
