data_PCOD9129650
_publ_section_title
;
Structure prediction by ZEFSAII (Michael W. Deem and Ramdas Pophale) SiO2 
 PCOD9129650
Probable space group: C 2
;
_chemical_formula_sum "Si O2"
_cell_formula_units_Z 24
_cell_length_a 18.202932
_cell_length_b 9.917194
_cell_length_c 14.790017
_cell_angle_alpha 90.000000
_cell_angle_beta 153.065319
_cell_angle_gamma 90.000000
_cell_volume 1209.407104
_symmetry_space_group_name_H-M "C 2"
_symmetry_group_IT_number 5
_symmetry_cell_setting 'monoclinic'
loop_
_space_group_symop_operation_xyz
x,y,z
-x,y,-z
1/2+x,1/2+y,z
1/2-x,1/2+y,-z
loop_
_atom_site_type_symbol
_atom_site_label
_atom_site_fract_x
_atom_site_fract_y
_atom_site_fract_z
Si Si1 0.574856 0.486750 0.270843
Si Si2 0.000000 0.017613 0.500000
Si Si3 0.116567 0.729383 0.869899
Si Si4 0.210116 0.326247 0.121760
Si Si5 0.000000 0.116394 0.000000
Si Si6 0.534465 0.695570 0.702770
Si Si7 0.554014 0.953343 0.297995
O O1 0.458902 0.363535 0.170708
O O2 0.517409 0.617635 0.263359
O O3 0.753682 0.447220 0.500698
O O4 0.564945 0.525966 0.154531
O O5 0.842460 0.925378 0.310198
O O6 0.041859 0.114846 0.462628
O O7 0.191159 0.760931 0.853599
O O8 0.993028 0.606380 0.731842
O O9 0.272938 0.684018 0.098293
O O10 0.139151 0.214214 0.111587
O O11 0.056168 0.403542 0.907274
O O12 0.491893 0.850976 0.671321
#
# Coordination Sequence:
#
# PCOD9129650 Si02
#       7
#     4   2   4   4   2   4   4
#     4  12  25  45  73 103 146 186 240 300 360 421
#     4  12  24  44  72 108 134 192 248 292 350 436
#     4  11  22  47  73  97 142 198 232 286 365 431
#     4  11  26  44  73 103 144 193 240 294 359 436
#     4  12  28  46  70 114 144 180 248 310 354 424
#     4  11  23  44  70 102 139 187 242 289 350 432
#     4  11  24  45  71 103 141 191 231 301 361 423
#
# _framework density 19.844434
#
# number of rings (size 3 to 8) (size 9 to 14) (size 15 to 20)
#    0.000    0.667    6.667    2.000    4.667    1.333 
#    0.000    0.000    0.000    0.000    0.000    0.000 
#    0.000    0.000    0.000    0.000    0.000    0.000 
#
# Total GULP energy -67043.524154 kJ/mol
# GULP energy per Si atom -5586.960346 kJ/mol
# Density = 1.979927 g / cm^3
# Si number density = 19.844434 Si / 1000 Ang^3
#
#
#
# Elastic Constant Matrix: (Units=GPa)
#
#
# Indices 1 2 3 4 5 6 
#
# 1 100.1694 41.1365 31.3074 0.0000 -9.2950 0.0000
# 2 41.1365 79.6965 11.1112 0.0000 -13.7236 0.0000
# 3 31.3074 11.1112 96.4252 0.0000 4.7808 0.0000
# 4 0.0000 0.0000 0.0000 33.5629 0.0000 -5.3517
# 5 -9.2950 -13.7236 4.7808 0.0000 29.1209 0.0000
# 6 0.0000 0.0000 0.0000 -5.3517 0.0000 29.5962
#
#
#
# Elastic Compliance Matrix: (Units=1/GPa)
#
#
# Indices 1 2 3 4 5 6 
#
# 1 0.014000 -0.006311 -0.003924 0.000000 0.002139 0.000000
# 2 -0.006311 0.016858 -0.000189 0.000000 0.005961 0.000000
# 3 -0.003924 -0.000189 0.011829 0.000000 -0.003284 0.000000
# 4 0.000000 0.000000 0.000000 0.030679 0.000000 0.005548
# 5 0.002139 0.005961 -0.003284 0.000000 0.038371 0.000000
# 6 0.000000 0.000000 0.000000 0.005548 0.000000 0.034791
#
#
# Mechanical properties :
#
#
# Convention : Reuss Voigt Hill
#
# Bulk Modulus (GPa) = 45.79024 49.26684 47.52854
# Shear Modulus (GPa) = 28.62765 31.30504 29.96635
#
# Velocity S-wave (km/s) = 3.80228 3.97611 3.89017
# Velocity P-wave (km/s) = 6.51162 6.77936 6.64684
#
# Compressibility (1/GPa) = 0.02183871
#
# Stress axis : x y z
#
# Youngs Moduli (GPa) = 71.43016 59.31952 84.53462
#
# Poissons Ratio (x) = 0.37435 0.33174
# Poissons Ratio (y) = 0.45078 0.01599
# Poissons Ratio (z) = 0.28031 0.01122
#
# Static dielectric constant tensor:
#      x y z
#    x 1.700540 0.000000 -0.011460 
#    y 0.000000 1.698490 0.000000 
#    z -0.011460 0.000000 1.727200 
# 
# From -- ./inp_files/26576.got.cif
#   From: 2010.05.17/outbox.cif.g08.bks.cpg/sg5_14_cif.got.tgz:26576.got - 2010.06.03 18:56:24.
