data_PCOD9129815
_publ_section_title
;
Structure prediction by ZEFSAII (Michael W. Deem and Ramdas Pophale) SiO2 
 PCOD9129815
Probable space group: C 2
;
_chemical_formula_sum "Si O2"
_cell_formula_units_Z 22
_cell_length_a 20.909230
_cell_length_b 8.124595
_cell_length_c 9.388859
_cell_angle_alpha 90.000000
_cell_angle_beta 38.304476
_cell_angle_gamma 90.000000
_cell_volume 988.626878
_symmetry_space_group_name_H-M "C 2"
_symmetry_group_IT_number 5
_symmetry_cell_setting 'monoclinic'
loop_
_space_group_symop_operation_xyz
x,y,z
-x,y,-z
1/2+x,1/2+y,z
1/2-x,1/2+y,-z
loop_
_atom_site_type_symbol
_atom_site_label
_atom_site_fract_x
_atom_site_fract_y
_atom_site_fract_z
Si Si1 0.203607 0.979230 0.145933
Si Si2 0.217460 0.622731 0.265593
Si Si3 0.034833 0.412171 0.705431
Si Si4 0.282488 0.782742 0.429962
Si Si5 0.000000 0.190585 0.500000
Si Si6 0.336075 0.086177 0.161797
O O1 0.204079 0.794663 0.205032
O O2 0.287455 0.080880 0.090985
O O3 0.097257 0.074081 0.354292
O O4 0.231976 0.994400 0.931115
O O5 0.109348 0.547557 0.504550
O O6 0.281991 0.660892 0.295379
O O7 0.111332 0.298986 0.666703
O O8 0.985103 0.304718 0.665544
O O9 0.948826 0.509303 0.945309
O O10 0.188836 0.747036 0.702864
O O11 0.270988 0.956256 0.370075
#
# Coordination Sequence:
#
# PCOD9129815 Si02
#       6
#     4   4   4   4   2   4
#     4  11  25  45  68 105 145 195 250 308 368 446
#     4  11  25  46  73 103 149 196 248 309 373 445
#     4  12  24  46  76 108 148 203 244 304 387 438
#     4  11  23  44  73 107 142 192 243 304 369 442
#     4  12  24  44  72 110 146 196 258 310 372 450
#     4  11  24  44  73 101 149 189 246 304 368 439
#
# _framework density 22.253088999999999
#
# number of rings (size 3 to 8) (size 9 to 14) (size 15 to 20)
#    0.000    0.727    3.636    4.909    0.000    2.182 
#    0.000    0.000    4.000    0.000    0.000    0.000 
#    0.000    0.000    0.000    0.000    0.000    0.000 
#
# Total GULP energy -61480.305612 kJ/mol
# GULP energy per Si atom -5589.118692 kJ/mol
# Density = 2.220244 g / cm^3
# Si number density = 22.253089 Si / 1000 Ang^3
#
#
#
# Elastic Constant Matrix: (Units=GPa)
#
#
# Indices 1 2 3 4 5 6 
#
# 1 113.0999 28.5042 40.5613 0.0000 12.9212 0.0000
# 2 28.5042 90.9885 57.7007 0.0000 6.0408 0.0000
# 3 40.5613 57.7007 152.2118 0.0000 3.4854 0.0000
# 4 0.0000 0.0000 0.0000 47.6318 0.0000 12.6862
# 5 12.9212 6.0408 3.4854 0.0000 37.1276 0.0000
# 6 0.0000 0.0000 0.0000 12.6862 0.0000 37.6383
#
#
#
# Elastic Compliance Matrix: (Units=1/GPa)
#
#
# Indices 1 2 3 4 5 6 
#
# 1 0.010369 -0.001756 -0.002026 0.000000 -0.003133 0.000000
# 2 -0.001756 0.014893 -0.005147 0.000000 -0.001329 0.000000
# 3 -0.002026 -0.005147 0.009045 0.000000 0.000693 0.000000
# 4 0.000000 0.000000 0.000000 0.023065 0.000000 -0.007774
# 5 -0.003133 -0.001329 0.000693 0.000000 0.028176 0.000000
# 6 0.000000 0.000000 0.000000 -0.007774 0.000000 0.029189
#
#
# Mechanical properties :
#
#
# Convention : Reuss Voigt Hill
#
# Bulk Modulus (GPa) = 60.79381 67.75920 64.27651
# Shear Modulus (GPa) = 36.21188 39.78181 37.99685
#
# Velocity S-wave (km/s) = 4.03833 4.23271 4.13666
# Velocity P-wave (km/s) = 7.00876 7.37585 7.19465
#
# Compressibility (1/GPa) = 0.01644904
#
# Stress axis : x y z
#
# Youngs Moduli (GPa) = 96.44502 67.14648 110.55823
#
# Poissons Ratio (x) = 0.11788 0.22397
# Poissons Ratio (y) = 0.16932 0.56908
# Poissons Ratio (z) = 0.19538 0.34563
#
# Static dielectric constant tensor:
#      x y z
#    x 1.842250 0.000000 0.023410 
#    y 0.000000 1.880070 0.000000 
#    z 0.023410 0.000000 1.821690 
# 
# From -- ./inp_files/22862.got.cif
#   From: 2010.05.17/outbox.cif.g08.bks.cpg/sg5_12_cif.got.tgz:22862.got - 2010.06.03 18:56:24.
