data_PCOD9129510
_publ_section_title
;
Structure prediction by ZEFSAII (Michael W. Deem and Ramdas Pophale) SiO2 
 PCOD9129510
Probable space group: C 2
;
_chemical_formula_sum "Si O2"
_cell_formula_units_Z 24
_cell_length_a 17.282144
_cell_length_b 9.334079
_cell_length_c 17.046177
_cell_angle_alpha 90.000000
_cell_angle_beta 158.544535
_cell_angle_gamma 90.000000
_cell_volume 1005.804490
_symmetry_space_group_name_H-M "C 2"
_symmetry_group_IT_number 5
_symmetry_cell_setting 'monoclinic'
loop_
_space_group_symop_operation_xyz
x,y,z
-x,y,-z
1/2+x,1/2+y,z
1/2-x,1/2+y,-z
loop_
_atom_site_type_symbol
_atom_site_label
_atom_site_fract_x
_atom_site_fract_y
_atom_site_fract_z
Si Si1 0.500000 0.805050 0.000000
Si Si2 0.331801 0.632564 0.408079
Si Si3 0.145864 0.319193 0.426789
Si Si4 0.524561 0.942687 0.870325
Si Si5 0.698883 0.071964 0.739215
Si Si6 0.482129 0.127105 0.268918
Si Si7 0.500000 0.321483 0.000000
O O1 0.321910 0.692593 0.804500
O O2 0.600691 0.902256 0.027575
O O3 0.500000 0.598152 0.500000
O O4 0.427158 0.729512 0.567285
O O5 0.214641 0.498029 0.336706
O O6 0.139987 0.724188 0.188924
O O7 0.997466 0.309635 0.209768
O O8 0.376026 0.260543 0.621527
O O9 0.134539 0.489105 0.432608
O O10 0.628729 0.065377 0.914824
O O11 0.500000 0.026348 0.500000
O O12 0.644952 0.142710 0.771560
O O13 0.839434 0.932620 0.889333
#
# Coordination Sequence:
#
# PCOD9129510 Si02
#       7
#     2   4   4   4   4   4   2
#     4  11  23  44  66  96 131 169 230 276 318 408
#     4  11  22  41  68  95 133 180 215 272 336 390
#     4   9  19  39  63  92 132 169 218 269 325 391
#     4   9  22  40  62  95 133 167 220 275 322 389
#     4  11  23  41  70  95 128 176 219 272 340 392
#     4   9  19  38  61  93 128 166 213 268 328 381
#     4  11  23  38  66 100 129 167 230 276 312 410
#
# _framework density 23.861495999999999
#
# number of rings (size 3 to 8) (size 9 to 14) (size 15 to 20)
#    1.000    1.000    0.000    4.000    0.000    3.333 
#    6.000    1.667    0.000    0.000    0.000    0.000 
#    0.000    0.000    0.000    0.000    0.000    0.000 
#
# Total GULP energy -66924.016835 kJ/mol
# GULP energy per Si atom -5577.001403 kJ/mol
# Density = 2.380719 g / cm^3
# Si number density = 23.861496 Si / 1000 Ang^3
#
#
#
# Elastic Constant Matrix: (Units=GPa)
#
#
# Indices 1 2 3 4 5 6 
#
# 1 125.4035 11.2726 12.6052 0.0010 -0.6599 0.0002
# 2 11.2726 70.3870 11.3001 -0.0049 2.9011 -0.0019
# 3 12.6052 11.3001 43.3161 -0.0039 -5.3885 -0.0015
# 4 0.0010 -0.0049 -0.0039 24.8753 -0.0012 0.1640
# 5 -0.6599 2.9011 -5.3885 -0.0012 32.4024 -0.0004
# 6 0.0002 -0.0019 -0.0015 0.1640 -0.0004 38.4594
#
#
#
# Elastic Compliance Matrix: (Units=1/GPa)
#
#
# Indices 1 2 3 4 5 6 
#
# 1 0.008279 -0.000973 -0.002168 -0.000001 -0.000105 0.000000
# 2 -0.000973 0.015072 -0.003900 0.000002 -0.002018 0.000001
# 3 -0.002168 -0.003900 0.025296 0.000004 0.004512 0.000001
# 4 -0.000001 0.000002 0.000004 0.040202 0.000002 -0.000171
# 5 -0.000105 -0.002018 0.004512 0.000002 0.031791 0.000000
# 6 0.000000 0.000001 0.000001 -0.000171 0.000000 0.026002
#
#
# Mechanical properties :
#
#
# Convention : Reuss Voigt Hill
#
# Bulk Modulus (GPa) = 28.93179 34.38470 31.65824
# Shear Modulus (GPa) = 29.02823 32.74268 30.88546
#
# Velocity S-wave (km/s) = 3.49166 3.70834 3.60163
# Velocity P-wave (km/s) = 5.32981 5.72513 5.53100
#
# Compressibility (1/GPa) = 0.03456405
#
# Stress axis : x y z
#
# Youngs Moduli (GPa) = 120.78497 66.34685 39.53242
#
# Poissons Ratio (x) = 0.06459 0.08572
# Poissons Ratio (y) = 0.11758 0.15416
# Poissons Ratio (z) = 0.26191 0.25873
#
# Static dielectric constant tensor:
#      x y z
#    x 1.953210 0.000000 -0.031630 
#    y 0.000000 1.901270 0.000000 
#    z -0.031630 0.000000 1.927520 
# 
# From -- ./inp_files/62411.got.cif
#   From: 2010.05.17/outbox.cif.g08.bks.cpg/sg5_32_cif.got.tgz:62411.got - 2010.06.03 18:56:24.
