data_PCOD9129046
_publ_section_title
;
Structure prediction by ZEFSAII (Michael W. Deem and Ramdas Pophale) SiO2 
 PCOD9129046
Probable space group: C 2
;
_chemical_formula_sum "Si O2"
_cell_formula_units_Z 20
_cell_length_a 19.853344
_cell_length_b 4.954891
_cell_length_c 8.677607
_cell_angle_alpha 90.000000
_cell_angle_beta 95.199603
_cell_angle_gamma 90.000000
_cell_volume 850.113578
_symmetry_space_group_name_H-M "C 2"
_symmetry_group_IT_number 5
_symmetry_cell_setting 'monoclinic'
loop_
_space_group_symop_operation_xyz
x,y,z
-x,y,-z
1/2+x,1/2+y,z
1/2-x,1/2+y,-z
loop_
_atom_site_type_symbol
_atom_site_label
_atom_site_fract_x
_atom_site_fract_y
_atom_site_fract_z
Si Si1 0.906839 0.472000 0.274376
Si Si2 0.485696 0.479051 0.172671
Si Si3 0.239824 0.496002 0.889354
Si Si4 0.572967 0.601220 0.447531
Si Si5 0.288469 0.333076 0.570460
O O1 0.960066 0.701890 0.243184
O O2 0.833079 0.555749 0.202367
O O3 0.911544 0.369677 0.452044
O O4 0.927683 0.200812 0.186964
O O5 0.552370 0.609210 0.265314
O O6 0.500000 0.425544 0.000000
O O7 0.283889 0.399038 0.751563
O O8 0.234948 0.257565 0.013962
O O9 0.500000 0.511743 0.500000
O O10 0.637643 0.411901 0.476385
O O11 0.263297 0.033088 0.529541
#
# Coordination Sequence:
#
# PCOD9129046 Si02
#       5
#     4   4   4   4   4
#     4  11  25  48  71 107 152 194 245 311 370 443
#     4  11  26  47  76 108 147 193 252 311 369 438
#     4  12  27  47  75 106 151 196 245 310 375 436
#     4  10  26  46  76 106 147 196 245 302 368 440
#     4  12  27  48  76 108 146 195 255 304 369 447
#
# _framework density 23.526267000000001
#
# number of rings (size 3 to 8) (size 9 to 14) (size 15 to 20)
#    0.000    0.800    2.000    3.000   11.200   10.400 
#    0.000    0.000    0.000    0.000    0.000    0.000 
#    0.000    0.000    0.000    0.000    0.000    0.000 
#
# Total GULP energy -55939.349233 kJ/mol
# GULP energy per Si atom -5593.934923 kJ/mol
# Density = 2.347272 g / cm^3
# Si number density = 23.526267 Si / 1000 Ang^3
#
#
#
# Elastic Constant Matrix: (Units=GPa)
#
#
# Indices 1 2 3 4 5 6 
#
# 1 95.6274 6.6548 31.4181 0.0000 10.8990 0.0000
# 2 6.6548 101.8617 42.9342 0.0000 -11.7603 0.0000
# 3 31.4181 42.9342 162.2259 0.0000 9.8267 0.0000
# 4 0.0000 0.0000 0.0000 22.4414 0.0000 -2.2387
# 5 10.8990 -11.7603 9.8267 0.0000 31.9277 0.0000
# 6 0.0000 0.0000 0.0000 -2.2387 0.0000 33.8783
#
#
#
# Elastic Compliance Matrix: (Units=1/GPa)
#
#
# Indices 1 2 3 4 5 6 
#
# 1 0.011509 -0.000338 -0.001930 0.000000 -0.003459 0.000000
# 2 -0.000338 0.011927 -0.003428 0.000000 0.005563 0.000000
# 3 -0.001930 -0.003428 0.007624 0.000000 -0.002950 0.000000
# 4 0.000000 0.000000 0.000000 0.044856 0.000000 0.002964
# 5 -0.003459 0.005563 -0.002950 0.000000 0.035459 0.000000
# 6 0.000000 0.000000 0.000000 0.002964 0.000000 0.029713
#
#
# Mechanical properties :
#
#
# Convention : Reuss Voigt Hill
#
# Bulk Modulus (GPa) = 50.84412 57.96992 54.40702
# Shear Modulus (GPa) = 31.43950 36.23002 33.83476
#
# Velocity S-wave (km/s) = 3.65959 3.92852 3.79643
# Velocity P-wave (km/s) = 6.28612 6.72842 6.51103
#
# Compressibility (1/GPa) = 0.01966796
#
# Stress axis : x y z
#
# Youngs Moduli (GPa) = 86.88765 83.84689 131.16497
#
# Poissons Ratio (x) = 0.02832 0.25315
# Poissons Ratio (y) = 0.02935 0.44963
# Poissons Ratio (z) = 0.16769 0.28743
#
# Static dielectric constant tensor:
#      x y z
#    x 1.898030 0.000000 -0.028830 
#    y 0.000000 1.840380 0.000000 
#    z -0.028830 0.000000 1.961730 
# 
# From -- ./inp_files/28373.got.cif
#   From: 2010.05.17/outbox.cif.g08.bks.cpg/sg5_15_cif.got.tgz:28373.got - 2010.06.03 18:56:24.
