data_PCOD9129925
_publ_section_title
;
Structure prediction by ZEFSAII (Michael W. Deem and Ramdas Pophale) SiO2 
 PCOD9129925
Probable space group: C 2
;
_chemical_formula_sum "Si O2"
_cell_formula_units_Z 20
_cell_length_a 10.200117
_cell_length_b 9.381866
_cell_length_c 14.512697
_cell_angle_alpha 90.000000
_cell_angle_beta 146.618849
_cell_angle_gamma 90.000000
_cell_volume 764.131108
_symmetry_space_group_name_H-M "C 2"
_symmetry_group_IT_number 5
_symmetry_cell_setting 'monoclinic'
loop_
_space_group_symop_operation_xyz
x,y,z
-x,y,-z
1/2+x,1/2+y,z
1/2-x,1/2+y,-z
loop_
_atom_site_type_symbol
_atom_site_label
_atom_site_fract_x
_atom_site_fract_y
_atom_site_fract_z
Si Si1 0.541686 0.765050 0.631588
Si Si2 0.003922 0.066020 0.899625
Si Si3 0.325544 0.328569 0.317898
Si Si4 0.680886 0.491967 0.402157
Si Si5 0.477005 0.081035 0.882996
O O1 0.500000 0.734220 0.500000
O O2 0.431707 0.922816 0.580200
O O3 0.867270 0.989661 0.735001
O O4 0.815573 0.720187 0.806229
O O5 0.861245 0.213192 0.822763
O O6 0.890556 0.148047 0.601790
O O7 0.000000 0.002545 0.000000
O O8 0.729525 0.095525 0.982113
O O9 0.500000 0.273570 0.500000
O O10 0.181471 0.467981 0.266688
O O11 0.490240 0.383588 0.333014
O O12 0.500000 0.018613 0.000000
#
# Coordination Sequence:
#
# PCOD9129925 Si02
#       5
#     4   4   4   4   4
#     4  11  26  48  84 114 161 207 267 327 398 476
#     4  12  28  50  80 121 160 213 266 331 399 477
#     4  11  25  50  84 110 163 211 263 329 406 469
#     4  11  25  52  79 121 155 212 266 329 393 482
#     4  11  23  51  79 119 160 210 264 335 397 468
#
# _framework density 26.173518000000001
#
# number of rings (size 3 to 8) (size 9 to 14) (size 15 to 20)
#    0.000    0.800    4.000    4.200    2.800    2.400 
#   10.800    2.000    0.000    0.000    5.200    0.000 
#    0.000    0.000    0.000    0.000    0.000    0.000 
#
# Total GULP energy -56020.491452 kJ/mol
# GULP energy per Si atom -5602.049145 kJ/mol
# Density = 2.611395 g / cm^3
# Si number density = 26.173518 Si / 1000 Ang^3
#
#
#
# Elastic Constant Matrix: (Units=GPa)
#
#
# Indices 1 2 3 4 5 6 
#
# 1 192.2990 37.7705 63.2602 0.0002 5.3645 0.0000
# 2 37.7705 86.1294 33.9426 0.0001 7.3330 0.0000
# 3 63.2602 33.9426 111.0966 0.0005 10.2643 0.0003
# 4 0.0002 0.0001 0.0005 55.4124 0.0004 5.4602
# 5 5.3645 7.3330 10.2643 0.0004 65.4738 0.0002
# 6 0.0000 0.0000 0.0003 5.4602 0.0002 42.1557
#
#
#
# Elastic Compliance Matrix: (Units=1/GPa)
#
#
# Indices 1 2 3 4 5 6 
#
# 1 0.006590 -0.001613 -0.003274 0.000000 0.000154 0.000000
# 2 -0.001613 0.013642 -0.003167 0.000000 -0.000899 0.000000
# 3 -0.003274 -0.003167 0.011948 0.000000 -0.001250 0.000000
# 4 0.000000 0.000000 0.000000 0.018280 0.000000 -0.002368
# 5 0.000154 -0.000899 -0.001250 0.000000 0.015557 0.000000
# 6 0.000000 0.000000 0.000000 -0.002368 0.000000 0.024028
#
#
# Mechanical properties :
#
#
# Convention : Reuss Voigt Hill
#
# Bulk Modulus (GPa) = 62.21248 73.27462 67.74355
# Shear Modulus (GPa) = 44.83913 49.57849 47.20881
#
# Velocity S-wave (km/s) = 4.14351 4.35699 4.25159
# Velocity P-wave (km/s) = 6.83465 7.30531 7.07390
#
# Compressibility (1/GPa) = 0.01607395
#
# Stress axis : x y z
#
# Youngs Moduli (GPa) = 151.75267 73.30217 83.69402
#
# Poissons Ratio (x) = 0.11822 0.27399
# Poissons Ratio (y) = 0.24474 0.26502
# Poissons Ratio (z) = 0.49680 0.23212
#
# Static dielectric constant tensor:
#      x y z
#    x 2.039760 0.000000 0.036820 
#    y 0.000000 2.091240 0.000000 
#    z 0.036820 0.000000 2.044110 
# 
# From -- ./inp_files/52900.got.cif
#   From: 2010.05.17/outbox.cif.g08.bks.cpg/sg5_27_cif.got.tgz:52900.got - 2010.06.03 18:56:24.
