data_PCOD9129480
_publ_section_title
;
Structure prediction by ZEFSAII (Michael W. Deem and Ramdas Pophale) SiO2 
 PCOD9129480
Probable space group: C 2
;
_chemical_formula_sum "Si O2"
_cell_formula_units_Z 32
_cell_length_a 8.155725
_cell_length_b 23.309816
_cell_length_c 14.137154
_cell_angle_alpha 90.000000
_cell_angle_beta 33.247680
_cell_angle_gamma 90.000000
_cell_volume 1473.497718
_symmetry_space_group_name_H-M "C 2"
_symmetry_group_IT_number 5
_symmetry_cell_setting 'monoclinic'
loop_
_space_group_symop_operation_xyz
x,y,z
-x,y,-z
1/2+x,1/2+y,z
1/2-x,1/2+y,-z
loop_
_atom_site_type_symbol
_atom_site_label
_atom_site_fract_x
_atom_site_fract_y
_atom_site_fract_z
Si Si1 0.527870 0.641400 0.382856
Si Si2 0.262646 0.036315 0.197613
Si Si3 0.415123 0.174386 0.653511
Si Si4 0.284474 0.465583 0.512475
Si Si5 0.836521 0.555416 0.805064
Si Si6 0.804773 0.783722 0.817134
Si Si7 0.677991 0.252028 0.818749
Si Si8 0.747001 0.335331 0.463692
O O1 0.500000 0.613028 0.500000
O O2 0.530988 0.589837 0.307074
O O3 0.764353 0.684493 0.225487
O O4 0.248330 0.683848 0.531645
O O5 0.464797 0.053198 0.193296
O O6 0.500000 0.031904 0.000000
O O7 0.034073 0.982934 0.314328
O O8 0.500000 0.170828 0.500000
O O9 0.236701 0.229431 0.778684
O O10 0.321556 0.115755 0.753073
O O11 0.500000 0.470385 0.500000
O O12 0.157894 0.401489 0.575125
O O13 0.012165 0.510136 0.654257
O O14 0.500000 0.540867 0.000000
O O15 0.970551 0.764965 0.830875
O O16 0.042640 0.823426 0.652175
O O17 0.500000 0.811493 0.000000
O O18 0.976070 0.291672 0.677188
O O19 0.500000 0.261983 0.000000
O O20 0.500000 0.327639 0.500000
#
# Coordination Sequence:
#
# PCOD9129480 Si02
#       8
#     4   4   4   4   4   4   4   4
#     4  12  20  41  66  90 128 171 206 257 315 381
#     4  11  22  40  66  93 126 171 210 253 315 381
#     4  12  25  39  66  94 133 168 209 257 323 374
#     4   9  21  43  67  90 125 169 210 260 318 374
#     4  11  23  41  63  95 130 163 211 262 309 372
#     4  12  25  43  64  95 132 169 214 265 317 382
#     4  12  25  41  67  97 127 170 216 261 322 381
#     4  11  23  44  69  94 127 167 214 270 324 377
#
# _framework density 21.717034999999999
#
# number of rings (size 3 to 8) (size 9 to 14) (size 15 to 20)
#    0.000    0.750    5.000    2.625    3.500    1.000 
#    0.000    6.250    0.000    0.000    0.000    0.000 
#    0.000    0.000    0.000    0.000    0.000    0.000 
#
# Total GULP energy -89081.021633 kJ/mol
# GULP energy per Si atom -5567.563852 kJ/mol
# Density = 2.166761 g / cm^3
# Si number density = 21.717035 Si / 1000 Ang^3
#
#
#
# Elastic Constant Matrix: (Units=GPa)
#
#
# Indices 1 2 3 4 5 6 
#
# 1 36.8254 16.0804 26.0442 0.0000 11.0515 0.0000
# 2 16.0804 82.1827 36.3965 0.0000 5.2925 0.0000
# 3 26.0442 36.3965 171.0705 0.0000 15.6758 0.0000
# 4 0.0000 0.0000 0.0000 -27.6896 0.0000 -30.8727
# 5 11.0515 5.2925 15.6758 0.0000 33.9108 0.0000
# 6 0.0000 0.0000 0.0000 -30.8727 0.0000 7.3728
#
#
#
# Elastic Compliance Matrix: (Units=1/GPa)
#
#
# Indices 1 2 3 4 5 6 
#
# 1 0.034249 -0.004616 -0.003420 0.000000 -0.008860 0.000000
# 2 -0.004616 0.014077 -0.002327 0.000000 0.000383 0.000000
# 3 -0.003420 -0.002327 0.007023 0.000000 -0.001769 0.000000
# 4 0.000000 0.000000 0.000000 -0.006371 0.000000 -0.026677
# 5 -0.008860 0.000383 -0.001769 0.000000 0.033135 0.000000
# 6 0.000000 0.000000 0.000000 -0.026677 0.000000 0.023927
#
#
# Mechanical properties :
#
#
# Convention : Reuss Voigt Hill
#
# Bulk Modulus (GPa) = 28.88313 49.68008 39.28160
# Shear Modulus (GPa) = 36.15132 16.82264 26.48698
#
# Velocity S-wave (km/s) = 4.08444 2.78623 3.49612
# Velocity P-wave (km/s) = 5.96424 5.76858 5.86723
#
# Compressibility (1/GPa) = 0.03462229
#
# Stress axis : x y z
#
# Youngs Moduli (GPa) = 29.19825 71.03644 142.37939
#
# Poissons Ratio (x) = 0.32791 0.48695
# Poissons Ratio (y) = 0.13478 0.33137
# Poissons Ratio (z) = 0.09986 0.16533
#
# Static dielectric constant tensor:
#      x y z
#    x 2.240620 0.000000 -0.000750 
#    y 0.000000 1.814600 0.000000 
#    z -0.000750 0.000000 1.734290 
# 
# From -- ./inp_files/25635.got.cif
#   From: 2010.05.17/outbox.cif.g08.bks.cpg/sg5_13_cif.got.tgz:25635.got - 2010.06.03 18:56:24.
