data_PCOD9129724
_publ_section_title
;
Structure prediction by ZEFSAII (Michael W. Deem and Ramdas Pophale) SiO2 
 PCOD9129724
Probable space group: C 2
;
_chemical_formula_sum "Si O2"
_cell_formula_units_Z 22
_cell_length_a 15.804878
_cell_length_b 8.768275
_cell_length_c 8.303232
_cell_angle_alpha 90.000000
_cell_angle_beta 69.672538
_cell_angle_gamma 90.000000
_cell_volume 1079.013399
_symmetry_space_group_name_H-M "C 2"
_symmetry_group_IT_number 5
_symmetry_cell_setting 'monoclinic'
loop_
_space_group_symop_operation_xyz
x,y,z
-x,y,-z
1/2+x,1/2+y,z
1/2-x,1/2+y,-z
loop_
_atom_site_type_symbol
_atom_site_label
_atom_site_fract_x
_atom_site_fract_y
_atom_site_fract_z
Si Si1 0.756677 0.594250 0.143146
Si Si2 0.837985 0.064361 0.124528
Si Si3 0.500000 0.338646 0.000000
Si Si4 0.448314 0.066105 0.831581
Si Si5 0.632539 0.881108 0.735154
Si Si6 0.171809 0.401345 0.345082
O O1 0.779229 0.482176 0.275514
O O2 0.717194 0.756737 0.223919
O O3 0.691501 0.544784 0.041956
O O4 0.855541 0.583444 0.995131
O O5 0.866874 0.234880 0.149611
O O6 0.752282 0.024386 0.291536
O O7 0.916718 0.945365 0.096653
O O8 0.514389 0.234574 0.150215
O O9 0.536233 0.965484 0.815803
O O10 0.409280 0.987204 0.695578
O O11 0.642340 0.847024 0.539854
#
# Coordination Sequence:
#
# PCOD9129724 Si02
#       6
#     4   4   2   4   4   4
#     4  11  23  42  66 100 133 179 233 270 338 417
#     4  11  25  40  70 102 130 184 233 278 335 421
#     4  12  24  42  68  98 132 178 242 280 318 404
#     4  11  23  43  68  96 133 184 230 277 329 413
#     4  12  24  42  71 100 142 176 222 294 349 397
#     4  11  24  44  67 101 140 178 221 287 354 399
#
# _framework density 20.388997
#
# number of rings (size 3 to 8) (size 9 to 14) (size 15 to 20)
#    0.000    0.727    3.636    3.818    7.636    0.000 
#    0.000    0.000    4.000    0.000    0.000    0.000 
#    0.000    0.000    0.000    0.000    0.000    0.000 
#
# Total GULP energy -61256.103387 kJ/mol
# GULP energy per Si atom -5568.736672 kJ/mol
# Density = 2.034259 g / cm^3
# Si number density = 20.388997 Si / 1000 Ang^3
#
#
#
# Elastic Constant Matrix: (Units=GPa)
#
#
# Indices 1 2 3 4 5 6 
#
# 1 136.0578 67.6212 25.9996 0.0000 21.5671 0.0000
# 2 67.6212 114.4309 12.4050 0.0000 13.4534 0.0000
# 3 25.9996 12.4050 77.4948 0.0000 13.4910 0.0000
# 4 0.0000 0.0000 0.0000 19.8214 0.0000 3.9064
# 5 21.5671 13.4534 13.4910 0.0000 30.0734 0.0000
# 6 0.0000 0.0000 0.0000 3.9064 0.0000 38.5015
#
#
#
# Elastic Compliance Matrix: (Units=1/GPa)
#
#
# Indices 1 2 3 4 5 6 
#
# 1 0.011462 -0.006007 -0.002084 0.000000 -0.004598 0.000000
# 2 -0.006007 0.012421 0.000265 0.000000 -0.001367 0.000000
# 3 -0.002084 0.000265 0.014450 0.000000 -0.005107 0.000000
# 4 0.000000 0.000000 0.000000 0.051480 0.000000 -0.005223
# 5 -0.004598 -0.001367 -0.005107 0.000000 0.039452 0.000000
# 6 0.000000 0.000000 0.000000 -0.005223 0.000000 0.026503
#
#
# Mechanical properties :
#
#
# Convention : Reuss Voigt Hill
#
# Bulk Modulus (GPa) = 44.08798 60.00392 52.04595
# Shear Modulus (GPa) = 27.93618 32.47643 30.20630
#
# Velocity S-wave (km/s) = 3.70558 3.99537 3.85320
# Velocity P-wave (km/s) = 6.32288 7.12583 6.73633
#
# Compressibility (1/GPa) = 0.02268192
#
# Stress axis : x y z
#
# Youngs Moduli (GPa) = 87.24183 80.51086 69.20567
#
# Poissons Ratio (x) = 0.48363 0.14419
# Poissons Ratio (y) = 0.52407 -0.01835
# Poissons Ratio (z) = 0.18177 -0.02135
#
# Static dielectric constant tensor:
#      x y z
#    x 1.752470 0.000000 0.029190 
#    y 0.000000 1.732360 0.000000 
#    z 0.029190 0.000000 1.778600 
# 
# From -- ./inp_files/22643.got.cif
#   From: 2010.05.17/outbox.cif.g08.bks.cpg/sg5_12_cif.got.tgz:22643.got - 2010.06.03 18:56:24.
