data_PCOD9129450
_publ_section_title
;
Structure prediction by ZEFSAII (Michael W. Deem and Ramdas Pophale) SiO2 
 PCOD9129450
Probable space group: C 2
;
_chemical_formula_sum "Si O2"
_cell_formula_units_Z 20
_cell_length_a 15.176488
_cell_length_b 8.870140
_cell_length_c 6.471080
_cell_angle_alpha 90.000000
_cell_angle_beta 95.859835
_cell_angle_gamma 90.000000
_cell_volume 866.569157
_symmetry_space_group_name_H-M "C 2"
_symmetry_group_IT_number 5
_symmetry_cell_setting 'monoclinic'
loop_
_space_group_symop_operation_xyz
x,y,z
-x,y,-z
1/2+x,1/2+y,z
1/2-x,1/2+y,-z
loop_
_atom_site_type_symbol
_atom_site_label
_atom_site_fract_x
_atom_site_fract_y
_atom_site_fract_z
Si Si1 0.327207 0.479710 0.816542
Si Si2 0.322809 0.139191 0.950994
Si Si3 0.299085 0.924145 0.552150
Si Si4 0.952112 0.506978 0.285801
Si Si5 0.558009 0.703683 0.313245
O O1 0.260392 0.584026 0.933038
O O2 0.296712 0.441435 0.571886
O O3 0.421585 0.563229 0.826635
O O4 0.322739 0.316775 0.919791
O O5 0.414613 0.100056 0.088084
O O6 0.315215 0.045530 0.735617
O O7 0.340212 0.764011 0.628930
O O8 0.362035 0.951249 0.370832
O O9 0.000000 0.579436 0.500000
O O10 0.008017 0.358401 0.237047
O O11 0.500000 0.658797 0.500000
#
# Coordination Sequence:
#
# PCOD9129450 Si02
#       5
#     4   4   4   4   4
#     4  11  22  38  66 102 131 172 223 271 324 392
#     4  11  22  38  68 101 133 171 219 272 328 388
#     4   9  19  38  65  93 128 169 215 273 328 384
#     4   8  19  39  66  94 128 174 214 264 330 388
#     4   9  19  40  67  93 130 172 212 270 334 384
#
# _framework density 23.079519999999999
#
# number of rings (size 3 to 8) (size 9 to 14) (size 15 to 20)
#    0.000    2.800    0.000    2.400    0.000    4.800 
#    0.000   12.000    0.000   48.000    0.000    0.000 
#    0.000    0.000    0.000    0.000    0.000    0.000 
#
# Total GULP energy -55699.070950 kJ/mol
# GULP energy per Si atom -5569.907095 kJ/mol
# Density = 2.302699 g / cm^3
# Si number density = 23.079520 Si / 1000 Ang^3
#
#
#
# Elastic Constant Matrix: (Units=GPa)
#
#
# Indices 1 2 3 4 5 6 
#
# 1 95.7713 68.7618 61.0682 0.0000 -8.0198 0.0000
# 2 68.7618 149.9856 79.4480 0.0000 -11.3592 0.0000
# 3 61.0682 79.4480 108.0419 0.0000 9.7257 0.0000
# 4 0.0000 0.0000 0.0000 18.6519 0.0000 -16.4167
# 5 -8.0198 -11.3592 9.7257 0.0000 49.4401 0.0000
# 6 0.0000 0.0000 0.0000 -16.4167 0.0000 33.3698
#
#
#
# Elastic Compliance Matrix: (Units=1/GPa)
#
#
# Indices 1 2 3 4 5 6 
#
# 1 0.018743 -0.004148 -0.007871 0.000000 0.003636 0.000000
# 2 -0.004148 0.012751 -0.007365 0.000000 0.003706 0.000000
# 3 -0.007871 -0.007365 0.019738 0.000000 -0.006852 0.000000
# 4 0.000000 0.000000 0.000000 0.094558 0.000000 0.046519
# 5 0.003636 0.003706 -0.006852 0.000000 0.023016 0.000000
# 6 0.000000 0.000000 0.000000 0.046519 0.000000 0.052853
#
#
# Mechanical properties :
#
#
# Convention : Reuss Voigt Hill
#
# Bulk Modulus (GPa) = 80.24064 85.81720 83.02892
# Shear Modulus (GPa) = 18.89770 29.92708 24.41239
#
# Velocity S-wave (km/s) = 2.86459 3.60487 3.25584
# Velocity P-wave (km/s) = 6.76636 7.38856 7.08429
#
# Compressibility (1/GPa) = 0.01246251
#
# Stress axis : x y z
#
# Youngs Moduli (GPa) = 53.35218 78.42359 50.66486
#
# Poissons Ratio (x) = 0.32532 0.39879
# Poissons Ratio (y) = 0.22132 0.37317
# Poissons Ratio (z) = 0.41994 0.57762
#
# Static dielectric constant tensor:
#      x y z
#    x 1.930140 0.000000 0.072810 
#    y 0.000000 1.879150 0.000000 
#    z 0.072810 0.000000 1.943400 
# 
# From -- ./inp_files/8026.got.cif
#   From: 2010.05.17/outbox.cif.g08.bks.cpg/sg5_5_cif.got.tgz:8026.got - 2010.06.03 18:56:24.
