data_PCOD9129412
_publ_section_title
;
Structure prediction by ZEFSAII (Michael W. Deem and Ramdas Pophale) SiO2 
 PCOD9129412
Probable space group: C 2
;
_chemical_formula_sum "Si O2"
_cell_formula_units_Z 20
_cell_length_a 17.889112
_cell_length_b 5.580081
_cell_length_c 17.934261
_cell_angle_alpha 90.000000
_cell_angle_beta 151.235412
_cell_angle_gamma 90.000000
_cell_volume 861.487933
_symmetry_space_group_name_H-M "C 2"
_symmetry_group_IT_number 5
_symmetry_cell_setting 'monoclinic'
loop_
_space_group_symop_operation_xyz
x,y,z
-x,y,-z
1/2+x,1/2+y,z
1/2-x,1/2+y,-z
loop_
_atom_site_type_symbol
_atom_site_label
_atom_site_fract_x
_atom_site_fract_y
_atom_site_fract_z
Si Si1 0.114282 0.619060 0.042184
Si Si2 0.957190 0.960724 0.139496
Si Si3 0.171364 0.728546 0.838178
Si Si4 0.568987 0.865676 0.642443
Si Si5 0.654972 0.733602 0.415822
O O1 0.204578 0.434137 0.069492
O O2 0.258754 0.753490 0.206962
O O3 0.007218 0.804248 0.901714
O O4 0.000000 0.492741 0.000000
O O5 0.952746 0.802067 0.209726
O O6 0.059712 0.183532 0.255488
O O7 0.777328 0.022412 0.966478
O O8 0.094010 0.635564 0.695075
O O9 0.500000 0.852553 0.500000
O O10 0.461353 0.748914 0.613862
O O11 0.759923 0.491833 0.514203
#
# Coordination Sequence:
#
# PCOD9129412 Si02
#       5
#     4   4   4   4   4
#     4  11  26  45  74 109 147 197 256 316 387 443
#     4  11  22  44  74 105 145 191 260 312 371 457
#     4  11  21  44  77 102 142 204 250 319 375 449
#     4  11  27  49  69 107 158 195 253 316 388 447
#     4  12  28  48  77 115 151 205 257 311 379 455
#
# _framework density 23.215648000000002
#
# number of rings (size 3 to 8) (size 9 to 14) (size 15 to 20)
#    0.000    0.800    4.000    2.400    5.600    4.000 
#    0.000    0.000    0.000    0.000    0.000    0.000 
#    0.000    0.000    0.000    0.000    0.000    0.000 
#
# Total GULP energy -55826.233511 kJ/mol
# GULP energy per Si atom -5582.623351 kJ/mol
# Density = 2.316281 g / cm^3
# Si number density = 23.215648 Si / 1000 Ang^3
#
#
#
# Elastic Constant Matrix: (Units=GPa)
#
#
# Indices 1 2 3 4 5 6 
#
# 1 93.2540 23.7026 57.3852 -0.0001 2.7732 0.0001
# 2 23.7026 77.0167 46.0319 0.0005 0.6779 0.0002
# 3 57.3852 46.0319 125.2908 0.0000 -24.3426 0.0000
# 4 -0.0001 0.0005 0.0000 38.8502 0.0000 6.5814
# 5 2.7732 0.6779 -24.3426 0.0000 41.7706 -0.0001
# 6 0.0001 0.0002 0.0000 6.5814 -0.0001 22.3272
#
#
#
# Elastic Compliance Matrix: (Units=1/GPa)
#
#
# Indices 1 2 3 4 5 6 
#
# 1 0.016202 0.000280 -0.008721 0.000000 -0.006163 0.000000
# 2 0.000280 0.017364 -0.007405 0.000000 -0.004616 0.000000
# 3 -0.008721 -0.007405 0.016726 0.000000 0.010447 0.000000
# 4 0.000000 0.000000 0.000000 0.027093 0.000000 -0.007986
# 5 -0.006163 -0.004616 0.010447 0.000000 0.030512 0.000000
# 6 0.000000 0.000000 0.000000 -0.007986 0.000000 0.047142
#
#
# Mechanical properties :
#
#
# Convention : Reuss Voigt Hill
#
# Bulk Modulus (GPa) = 53.75988 61.08900 57.42444
# Shear Modulus (GPa) = 25.91588 31.81906 28.86747
#
# Velocity S-wave (km/s) = 3.34475 3.70616 3.53008
# Velocity P-wave (km/s) = 6.17442 6.68468 6.43461
#
# Compressibility (1/GPa) = 0.01860123
#
# Stress axis : x y z
#
# Youngs Moduli (GPa) = 61.72041 57.58928 59.78674
#
# Poissons Ratio (x) = -0.01615 0.52141
# Poissons Ratio (y) = -0.01731 0.44272
# Poissons Ratio (z) = 0.53828 0.42644
#
# Static dielectric constant tensor:
#      x y z
#    x 1.842150 0.000000 -0.006760 
#    y 0.000000 1.968060 0.000000 
#    z -0.006760 0.000000 1.916000 
# 
# From -- ./inp_files/26014.got.cif
#   From: 2010.05.17/outbox.cif.g08.bks.cpg/sg5_14_cif.got.tgz:26014.got - 2010.06.03 18:56:24.
