data_PCOD9129902
_publ_section_title
;
Structure prediction by ZEFSAII (Michael W. Deem and Ramdas Pophale) SiO2 
 PCOD9129902
Probable space group: C 2
;
_chemical_formula_sum "Si O2"
_cell_formula_units_Z 18
_cell_length_a 5.474444
_cell_length_b 24.497468
_cell_length_c 5.432060
_cell_angle_alpha 90.000000
_cell_angle_beta 90.942101
_cell_angle_gamma 90.000000
_cell_volume 728.395180
_symmetry_space_group_name_H-M "C 2"
_symmetry_group_IT_number 5
_symmetry_cell_setting 'monoclinic'
loop_
_space_group_symop_operation_xyz
x,y,z
-x,y,-z
1/2+x,1/2+y,z
1/2-x,1/2+y,-z
loop_
_atom_site_type_symbol
_atom_site_label
_atom_site_fract_x
_atom_site_fract_y
_atom_site_fract_z
Si Si1 0.343699 0.703120 0.246296
Si Si2 0.000000 0.400798 0.000000
Si Si3 0.739176 0.321931 0.346355
Si Si4 0.132405 0.971392 0.748750
Si Si5 0.356702 0.082019 0.749986
O O1 0.500000 0.700504 0.500000
O O2 0.195392 0.759345 0.260866
O O3 0.207259 0.645566 0.235162
O O4 0.500000 0.706677 0.000000
O O5 0.799077 0.360988 0.118202
O O6 0.110420 0.440559 0.210870
O O7 0.500000 0.336873 0.500000
O O8 0.000000 0.322289 0.500000
O O9 0.000000 0.953744 0.500000
O O10 0.146468 0.037080 0.740080
O O11 0.000000 0.958069 0.000000
O O12 0.500000 0.073254 0.500000
O O13 0.500000 0.068000 0.000000
#
# Coordination Sequence:
#
# PCOD9129902 Si02
#       5
#     4   2   4   4   4
#     4  11  23  47  76 115 158 210 267 336 416 495
#     4  12  30  52  78 120 164 218 292 340 414 502
#     4  11  28  51  81 119 166 221 281 345 419 497
#     4  12  29  50  80 114 162 215 275 343 419 491
#     4  12  24  45  75 116 160 207 265 341 415 497
#
# _framework density 24.711860999999999
#
# number of rings (size 3 to 8) (size 9 to 14) (size 15 to 20)
#    0.000    0.444    2.222    4.667    6.222    1.778 
#    0.000    0.000    0.000    0.000    0.000    0.000 
#    0.000    0.000    0.000    0.000    0.000    0.000 
#
# Total GULP energy -50423.238699 kJ/mol
# GULP energy per Si atom -5602.582078 kJ/mol
# Density = 2.465562 g / cm^3
# Si number density = 24.711861 Si / 1000 Ang^3
#
#
#
# Elastic Constant Matrix: (Units=GPa)
#
#
# Indices 1 2 3 4 5 6 
#
# 1 89.4104 30.7706 65.1451 0.0000 -7.9276 0.0000
# 2 30.7706 167.4537 37.6515 0.0000 4.0763 0.0000
# 3 65.1451 37.6515 209.4523 0.0000 -3.9988 0.0000
# 4 0.0000 0.0000 0.0000 -54.2606 0.0000 92.9382
# 5 -7.9276 4.0763 -3.9988 0.0000 64.3880 0.0000
# 6 0.0000 0.0000 0.0000 92.9382 0.0000 -71.8701
#
#
#
# Elastic Compliance Matrix: (Units=1/GPa)
#
#
# Indices 1 2 3 4 5 6 
#
# 1 0.015136 -0.001846 -0.004343 0.000000 0.001711 0.000000
# 2 -0.001846 0.006462 -0.000600 0.000000 -0.000674 0.000000
# 3 -0.004343 -0.000600 0.006231 0.000000 -0.000110 0.000000
# 4 0.000000 0.000000 0.000000 0.015170 0.000000 0.019616
# 5 0.001711 -0.000674 -0.000110 0.000000 0.015777 0.000000
# 6 0.000000 0.000000 0.000000 0.019616 0.000000 0.011453
#
#
# Mechanical properties :
#
#
# Convention : Reuss Voigt Hill
#
# Bulk Modulus (GPa) = 70.17654 81.49454 75.83554
# Shear Modulus (GPa) = 56.45990 9.83474 33.14732
#
# Velocity S-wave (km/s) = 4.78507 1.99710 3.66642
# Velocity P-wave (km/s) = 7.68041 6.19414 6.97697
#
# Compressibility (1/GPa) = 0.01424978
#
# Stress axis : x y z
#
# Youngs Moduli (GPa) = 66.06803 154.73976 160.48835
#
# Poissons Ratio (x) = 0.28572 0.69701
# Poissons Ratio (y) = 0.12199 0.09634
# Poissons Ratio (z) = 0.28694 0.09289
#
# Static dielectric constant tensor:
#      x y z
#    x 2.126950 0.000000 -0.071360 
#    y 0.000000 1.954290 0.000000 
#    z -0.071360 0.000000 1.939590 
# 
# From -- ./inp_files/843.got.cif
#   From: 2010.05.17/outbox.cif.g08.bks.cpg/sg5_1_cif.got.tgz:843.got - 2010.06.03 18:56:24.
