data_PCOD9129351
_publ_section_title
;
Structure prediction by ZEFSAII (Michael W. Deem and Ramdas Pophale) SiO2 
 PCOD9129351
Probable space group: C 2
;
_chemical_formula_sum "Si O2"
_cell_formula_units_Z 32
_cell_length_a 9.740921
_cell_length_b 20.357316
_cell_length_c 15.914829
_cell_angle_alpha 90.000000
_cell_angle_beta 147.967487
_cell_angle_gamma 90.000000
_cell_volume 1673.887893
_symmetry_space_group_name_H-M "C 2"
_symmetry_group_IT_number 5
_symmetry_cell_setting 'monoclinic'
loop_
_space_group_symop_operation_xyz
x,y,z
-x,y,-z
1/2+x,1/2+y,z
1/2-x,1/2+y,-z
loop_
_atom_site_type_symbol
_atom_site_label
_atom_site_fract_x
_atom_site_fract_y
_atom_site_fract_z
Si Si1 0.794628 0.123560 0.667266
Si Si2 0.806611 0.493471 0.148607
Si Si3 0.531807 0.883283 0.372404
Si Si4 0.731392 0.128750 0.818759
Si Si5 0.468316 0.734524 0.626456
Si Si6 0.248807 0.015975 0.924665
Si Si7 0.587613 0.239081 0.267692
Si Si8 0.927420 0.886985 0.726752
O O1 0.500000 0.098615 0.500000
O O2 0.772813 0.156456 0.747819
O O3 0.878086 0.177305 0.641621
O O4 0.012231 0.067065 0.787151
O O5 0.978565 0.433487 0.270099
O O6 0.894280 0.556569 0.249638
O O7 0.500000 0.475956 0.000000
O O8 0.832482 0.513903 0.065370
O O9 0.542390 0.808642 0.344410
O O10 0.780702 0.894258 0.561203
O O11 0.291231 0.891267 0.313247
O O12 0.602989 0.180425 0.812981
O O13 0.000000 0.111599 0.000000
O O14 0.284396 0.735995 0.448970
O O15 0.753957 0.726601 0.735356
O O16 0.500000 0.032046 0.000000
O O17 0.135335 0.943903 0.845037
O O18 0.471931 0.312293 0.211013
#
# Coordination Sequence:
#
# PCOD9129351 Si02
#       8
#     4   4   4   4   4   4   4   4
#     4  12  24  41  67  93 120 169 214 253 308 377
#     4  11  21  41  61  87 126 165 206 253 312 374
#     4   9  18  38  68  92 116 161 212 248 300 378
#     4  11  22  39  61  90 123 165 204 255 315 370
#     4   9  20  38  62  95 122 155 206 264 297 359
#     4  12  27  43  60  93 132 160 206 270 313 360
#     4   9  19  39  63  92 125 159 203 255 312 363
#     4   9  19  38  67  91 119 162 210 251 302 373
#
# _framework density 19.117172
#
# number of rings (size 3 to 8) (size 9 to 14) (size 15 to 20)
#    0.000    1.750    5.000    1.500    5.250    0.500 
#    4.500    1.250    0.000    0.000    0.000    0.000 
#    0.000    0.000    0.000    0.000    0.000    0.000 
#
# Total GULP energy -89202.661117 kJ/mol
# GULP energy per Si atom -5575.166320 kJ/mol
# Density = 1.907366 g / cm^3
# Si number density = 19.117172 Si / 1000 Ang^3
#
#
#
# Elastic Constant Matrix: (Units=GPa)
#
#
# Indices 1 2 3 4 5 6 
#
# 1 88.6351 47.1318 29.9727 -0.0027 -7.6283 -0.0021
# 2 47.1318 126.9633 38.0357 -0.0024 2.5363 -0.0003
# 3 29.9727 38.0357 45.4524 -0.0200 -3.4936 -0.0011
# 4 -0.0027 -0.0024 -0.0200 14.7913 -0.0032 -2.0618
# 5 -7.6283 2.5363 -3.4936 -0.0032 27.3852 0.0005
# 6 -0.0021 -0.0003 -0.0011 -2.0618 0.0005 26.6736
#
#
#
# Elastic Compliance Matrix: (Units=1/GPa)
#
#
# Indices 1 2 3 4 5 6 
#
# 1 0.016093 -0.003957 -0.006997 -0.000006 0.003957 0.000000
# 2 -0.003957 0.011607 -0.007343 -0.000010 -0.003114 -0.000001
# 3 -0.006997 -0.007343 0.032986 0.000043 0.002939 0.000004
# 4 -0.000006 -0.000010 0.000043 0.068344 0.000012 0.005283
# 5 0.003957 -0.003114 0.002939 0.000012 0.038282 0.000001
# 6 0.000000 -0.000001 0.000004 0.005283 0.000001 0.037899
#
#
# Mechanical properties :
#
#
# Convention : Reuss Voigt Hill
#
# Bulk Modulus (GPa) = 41.50741 54.59236 48.04989
# Shear Modulus (GPa) = 20.01323 23.49740 21.75532
#
# Velocity S-wave (km/s) = 3.23905 3.50969 3.37708
# Velocity P-wave (km/s) = 5.97895 6.71138 6.35572
#
# Compressibility (1/GPa) = 0.02409208
#
# Stress axis : x y z
#
# Youngs Moduli (GPa) = 62.13921 86.15235 30.31600
#
# Poissons Ratio (x) = 0.34091 0.21211
# Poissons Ratio (y) = 0.24589 0.22262
# Poissons Ratio (z) = 0.43477 0.63264
#
# Static dielectric constant tensor:
#      x y z
#    x 1.630550 -0.000010 -0.024200 
#    y -0.000010 1.688480 -0.000010 
#    z -0.024200 -0.000010 1.666590 
# 
# From -- ./inp_files/51585.got.cif
#   From: 2010.05.17/outbox.cif.g08.bks.cpg/sg5_26_cif.got.tgz:51585.got - 2010.06.03 18:56:24.
