data_PCOD9129676
_publ_section_title
;
Structure prediction by ZEFSAII (Michael W. Deem and Ramdas Pophale) SiO2 
 PCOD9129676
Probable space group: C 2
;
_chemical_formula_sum "Si O2"
_cell_formula_units_Z 30
_cell_length_a 22.682088
_cell_length_b 5.187968
_cell_length_c 13.501614
_cell_angle_alpha 90.000000
_cell_angle_beta 106.548419
_cell_angle_gamma 90.000000
_cell_volume 1522.979613
_symmetry_space_group_name_H-M "C 2"
_symmetry_group_IT_number 5
_symmetry_cell_setting 'monoclinic'
loop_
_space_group_symop_operation_xyz
x,y,z
-x,y,-z
1/2+x,1/2+y,z
1/2-x,1/2+y,-z
loop_
_atom_site_type_symbol
_atom_site_label
_atom_site_fract_x
_atom_site_fract_y
_atom_site_fract_z
Si Si1 0.936371 0.813970 0.245365
Si Si2 0.120889 0.921923 0.588302
Si Si3 0.743580 0.671852 0.565568
Si Si4 0.547114 0.798061 0.875008
Si Si5 0.941908 0.646902 0.615901
Si Si6 0.643077 0.183337 0.238395
Si Si7 0.000000 0.254535 0.500000
Si Si8 0.407833 0.708013 0.880785
O O1 0.941212 0.573970 0.171538
O O2 0.003954 0.841691 0.328141
O O3 0.886044 0.785494 0.308563
O O4 0.926295 0.076379 0.182170
O O5 0.181400 0.079656 0.590196
O O6 0.061653 0.104909 0.554434
O O7 0.105953 0.729615 0.491225
O O8 0.763321 0.424084 0.507525
O O9 0.793597 0.734189 0.674069
O O10 0.473902 0.754897 0.858325
O O11 0.577362 0.752130 0.996786
O O12 0.903586 0.610384 0.695517
O O13 0.981572 0.422870 0.586093
O O14 0.617427 0.429472 0.165768
O O15 0.641193 0.927048 0.172033
#
# Coordination Sequence:
#
# PCOD9129676 Si02
#       8
#     4   4   4   4   4   4   2   4
#     4  12  22  38  63  96 132 170 207 264 339 389
#     4  12  26  39  63  95 139 179 215 264 324 400
#     4  12  27  45  65  95 135 184 228 264 307 389
#     4  11  23  39  64  98 131 160 215 281 330 395
#     4  12  22  36  59  96 131 174 204 257 327 401
#     4  12  24  41  67  91 135 177 212 270 319 392
#     4  12  22  38  60  90 142 174 214 262 320 398
#     4  11  23  41  65  96 129 170 218 271 339 381
#
# _framework density 19.698225999999998
#
# number of rings (size 3 to 8) (size 9 to 14) (size 15 to 20)
#    0.000    0.267    6.667    3.200    1.867    2.133 
#    0.000    0.000    0.000    3.200    0.000    0.000 
#    0.000    0.000    0.000    0.000    0.000    0.000 
#
# Total GULP energy -83771.264063 kJ/mol
# GULP energy per Si atom -5584.750938 kJ/mol
# Density = 1.965339 g / cm^3
# Si number density = 19.698226 Si / 1000 Ang^3
#
#
#
# Elastic Constant Matrix: (Units=GPa)
#
#
# Indices 1 2 3 4 5 6 
#
# 1 89.8984 11.0610 33.8179 0.0000 1.1587 0.0000
# 2 11.0610 89.1724 38.1743 0.0000 0.0021 0.0000
# 3 33.8179 38.1743 114.2095 0.0000 -1.7972 0.0000
# 4 0.0000 0.0000 0.0000 -47.7351 0.0000 7.0986
# 5 1.1587 0.0021 -1.7972 0.0000 25.4081 0.0000
# 6 0.0000 0.0000 0.0000 7.0986 0.0000 17.3020
#
#
#
# Elastic Compliance Matrix: (Units=1/GPa)
#
#
# Indices 1 2 3 4 5 6 
#
# 1 0.012536 0.000046 -0.003741 0.000000 -0.000836 0.000000
# 2 0.000046 0.013089 -0.004394 0.000000 -0.000314 0.000000
# 3 -0.003741 -0.004394 0.011347 0.000000 0.000974 0.000000
# 4 0.000000 0.000000 0.000000 -0.019744 0.000000 0.008101
# 5 -0.000836 -0.000314 0.000974 0.000000 0.039464 0.000000
# 6 0.000000 0.000000 0.000000 0.008101 0.000000 0.054473
#
#
# Mechanical properties :
#
#
# Convention : Reuss Voigt Hill
#
# Bulk Modulus (GPa) = 48.08453 51.04296 49.56375
# Shear Modulus (GPa) = 37.23716 13.01015 25.12365
#
# Velocity S-wave (km/s) = 4.35257 2.57275 3.57519
# Velocity P-wave (km/s) = 7.05148 5.89866 6.50067
#
# Compressibility (1/GPa) = 0.02079671
#
# Stress axis : x y z
#
# Youngs Moduli (GPa) = 79.77111 76.39739 88.12611
#
# Poissons Ratio (x) = -0.00354 0.32964
# Poissons Ratio (y) = -0.00370 0.38721
# Poissons Ratio (z) = 0.29839 0.33567
#
# Static dielectric constant tensor:
#      x y z
#    x 1.709600 0.000000 -0.056500 
#    y 0.000000 1.740380 0.000000 
#    z -0.056500 0.000000 1.831090 
# 
# From -- ./inp_files/46957.got.cif
#   From: 2010.05.17/outbox.cif.g08.bks.cpg/sg5_24_cif.got.tgz:46957.got - 2010.06.03 18:56:24.
