data_PCOD9129774
_publ_section_title
;
Structure prediction by ZEFSAII (Michael W. Deem and Ramdas Pophale) SiO2 
 PCOD9129774
Probable space group: C 2
;
_chemical_formula_sum "Si O2"
_cell_formula_units_Z 32
_cell_length_a 11.419664
_cell_length_b 7.932843
_cell_length_c 30.858518
_cell_angle_alpha 90.000000
_cell_angle_beta 28.636898
_cell_angle_gamma 90.000000
_cell_volume 1339.756495
_symmetry_space_group_name_H-M "C 2"
_symmetry_group_IT_number 5
_symmetry_cell_setting 'monoclinic'
loop_
_space_group_symop_operation_xyz
x,y,z
-x,y,-z
1/2+x,1/2+y,z
1/2-x,1/2+y,-z
loop_
_atom_site_type_symbol
_atom_site_label
_atom_site_fract_x
_atom_site_fract_y
_atom_site_fract_z
Si Si1 0.218365 0.640630 0.460617
Si Si2 0.701439 0.391001 0.025939
Si Si3 0.294259 0.856665 0.851707
Si Si4 0.029521 0.848634 0.726649
Si Si5 0.463874 0.728125 0.143228
Si Si6 0.623823 0.215141 0.133989
Si Si7 0.571550 0.760611 0.521789
Si Si8 0.415887 0.711112 0.727121
O O1 0.245557 0.681702 0.502482
O O2 0.442096 0.729618 0.363616
O O3 0.000000 0.697458 0.500000
O O4 0.198491 0.437110 0.466394
O O5 0.483608 0.304718 0.068515
O O6 0.578063 0.562980 0.083211
O O7 0.775809 0.291167 0.045047
O O8 0.928478 0.384849 0.919963
O O9 0.432949 0.744894 0.842006
O O10 0.427959 0.847424 0.761690
O O11 0.285249 0.041963 0.875096
O O12 0.933431 0.835155 0.806953
O O13 0.306773 0.788472 0.630212
O O14 0.827828 0.742777 0.764717
O O15 0.017209 0.039551 0.714659
O O16 0.362247 0.188720 0.196413
O O17 0.500000 0.668583 0.500000
#
# Coordination Sequence:
#
# PCOD9129774 Si02
#       8
#     4   4   4   4   4   4   4   4
#     4  11  24  46  70 103 141 185 233 295 362 427
#     4  11  26  45  66 102 144 188 240 294 353 414
#     4  11  24  44  69  99 136 185 237 289 352 420
#     4  12  23  45  72  97 139 184 233 290 356 421
#     4  12  25  44  71 102 142 192 237 294 355 414
#     4  11  23  45  69  98 139 181 240 292 347 425
#     4  11  25  48  71 105 142 182 236 298 362 434
#     4  11  23  43  71  98 135 181 231 292 353 428
#
# _framework density 23.884938999999999
#
# number of rings (size 3 to 8) (size 9 to 14) (size 15 to 20)
#    0.000    0.750    6.250    1.875    1.750    3.000 
#    6.750    0.000    0.000    0.000    0.000    0.000 
#    0.000    0.000    0.000    0.000    0.000    0.000 
#
# Total GULP energy -89424.227332 kJ/mol
# GULP energy per Si atom -5589.014208 kJ/mol
# Density = 2.383058 g / cm^3
# Si number density = 23.884939 Si / 1000 Ang^3
#
#
#
# Elastic Constant Matrix: (Units=GPa)
#
#
# Indices 1 2 3 4 5 6 
#
# 1 174.2077 29.6591 27.2832 0.1779 20.3970 0.0207
# 2 29.6591 56.4044 -5.7127 0.0712 5.0023 0.0122
# 3 27.2832 -5.7127 54.2142 0.2901 12.9242 0.0296
# 4 0.1779 0.0712 0.2901 21.5612 -0.0367 9.6194
# 5 20.3970 5.0023 12.9242 -0.0367 43.3816 -0.0044
# 6 0.0207 0.0122 0.0296 9.6194 -0.0044 36.6859
#
#
#
# Elastic Compliance Matrix: (Units=1/GPa)
#
#
# Indices 1 2 3 4 5 6 
#
# 1 0.007200 -0.003986 -0.003602 -0.000001 -0.001853 0.000000
# 2 -0.003986 0.020456 0.004605 -0.000109 -0.001856 0.000020
# 3 -0.003602 0.004605 0.022033 -0.000321 -0.005402 0.000066
# 4 -0.000001 -0.000109 -0.000321 0.052530 0.000152 -0.013773
# 5 -0.001853 -0.001856 -0.005402 0.000152 0.025746 -0.000031
# 6 0.000000 0.000020 0.000066 -0.013773 -0.000031 0.030870
#
#
# Mechanical properties :
#
#
# Convention : Reuss Voigt Hill
#
# Bulk Modulus (GPa) = 22.87171 43.03172 32.95171
# Shear Modulus (GPa) = 27.87456 35.89884 31.88670
#
# Velocity S-wave (km/s) = 3.41990 3.88105 3.65775
# Velocity P-wave (km/s) = 5.01905 6.17566 5.62715
#
# Compressibility (1/GPa) = 0.04372214
#
# Stress axis : x y z
#
# Youngs Moduli (GPa) = 138.88959 48.88436 45.38740
#
# Poissons Ratio (x) = 0.19487 0.16348
# Poissons Ratio (y) = 0.55368 -0.20900
# Poissons Ratio (z) = 0.50025 -0.22510
#
# Static dielectric constant tensor:
#      x y z
#    x 1.929390 -0.000010 -0.001900 
#    y -0.000010 1.964520 -0.000110 
#    z -0.001900 -0.000110 1.942960 
# 
# From -- ./inp_files/71735.got.cif
#   From: 2010.05.17/outbox.cif.g08.bks.cpg/sg5_36_cif.got.tgz:71735.got - 2010.06.03 18:56:24.
