data_PCOD9129535
_publ_section_title
;
Structure prediction by ZEFSAII (Michael W. Deem and Ramdas Pophale) SiO2 
 PCOD9129535
Probable space group: C 2
;
_chemical_formula_sum "Si O2"
_cell_formula_units_Z 28
_cell_length_a 21.819430
_cell_length_b 9.734331
_cell_length_c 16.325636
_cell_angle_alpha 90.000000
_cell_angle_beta 26.000423
_cell_angle_gamma 90.000000
_cell_volume 1520.085986
_symmetry_space_group_name_H-M "C 2"
_symmetry_group_IT_number 5
_symmetry_cell_setting 'monoclinic'
loop_
_space_group_symop_operation_xyz
x,y,z
-x,y,-z
1/2+x,1/2+y,z
1/2-x,1/2+y,-z
loop_
_atom_site_type_symbol
_atom_site_label
_atom_site_fract_x
_atom_site_fract_y
_atom_site_fract_z
Si Si1 0.800968 0.091490 0.296747
Si Si2 0.062052 0.509979 0.706684
Si Si3 0.847321 0.414268 0.227087
Si Si4 0.334016 0.506431 0.704874
Si Si5 0.819299 0.291804 0.993080
Si Si6 0.824116 0.736727 0.008206
Si Si7 0.610080 0.524807 0.987985
O O1 0.674920 0.031562 0.500656
O O2 0.800875 0.257258 0.296926
O O3 0.803293 0.043623 0.199909
O O4 0.948062 0.044516 0.158856
O O5 0.134579 0.488455 0.707787
O O6 0.962436 0.378295 0.812144
O O7 0.959998 0.641167 0.833010
O O8 0.740534 0.486326 0.293270
O O9 0.000000 0.410479 0.000000
O O10 0.500000 0.501912 0.500000
O O11 0.280496 0.646356 0.810806
O O12 0.276465 0.383636 0.831681
O O13 0.745730 0.269203 0.994926
O O14 0.849077 0.146739 0.999696
O O15 0.863330 0.877871 0.004715
#
# Coordination Sequence:
#
# PCOD9129535 Si02
#       7
#     4   4   4   4   4   4   4
#     4  11  23  40  67  99 126 163 227 272 327 383
#     4  11  25  41  69  97 125 177 224 271 325 395
#     4  12  20  48  71  93 133 176 220 268 327 408
#     4  11  25  44  69  96 129 180 215 263 334 395
#     4  11  22  45  65  91 133 177 217 265 332 393
#     4  11  26  41  62  99 134 167 220 272 332 379
#     4  11  22  42  67  92 133 173 210 280 327 384
#
# _framework density 18.420010999999999
#
# number of rings (size 3 to 8) (size 9 to 14) (size 15 to 20)
#    0.000    0.857    7.143    1.714    4.000    4.571 
#    0.000    2.143    0.000    0.000    0.000    0.000 
#    0.000    0.000    0.000    0.000    0.000    0.000 
#
# Total GULP energy -78289.432790 kJ/mol
# GULP energy per Si atom -5592.102342 kJ/mol
# Density = 1.837809 g / cm^3
# Si number density = 18.420011 Si / 1000 Ang^3
#
#
#
# Elastic Constant Matrix: (Units=GPa)
#
#
# Indices 1 2 3 4 5 6 
#
# 1 178.2914 63.4259 44.9244 0.0000 9.1584 0.0000
# 2 63.4259 113.2944 33.0998 0.0000 1.2179 0.0000
# 3 44.9244 33.0998 134.2232 0.0000 5.1534 0.0000
# 4 0.0000 0.0000 0.0000 2.4805 0.0000 5.8038
# 5 9.1584 1.2179 5.1534 0.0000 15.2465 0.0000
# 6 0.0000 0.0000 0.0000 5.8038 0.0000 20.4466
#
#
#
# Elastic Compliance Matrix: (Units=1/GPa)
#
#
# Indices 1 2 3 4 5 6 
#
# 1 0.007491 -0.003732 -0.001444 0.000000 -0.003713 0.000000
# 2 -0.003732 0.011371 -0.001627 0.000000 0.001883 0.000000
# 3 -0.001444 -0.001627 0.008406 0.000000 -0.001844 0.000000
# 4 0.000000 0.000000 0.000000 1.200414 0.000000 -0.340741
# 5 -0.003713 0.001883 -0.001844 0.000000 0.068292 0.000000
# 6 0.000000 0.000000 0.000000 -0.340741 0.000000 0.145628
#
#
# Mechanical properties :
#
#
# Convention : Reuss Voigt Hill
#
# Bulk Modulus (GPa) = 73.20309 78.74548 75.97428
# Shear Modulus (GPa) = 3.42521 26.59197 15.00859
#
# Velocity S-wave (km/s) = 1.36512 3.80366 2.85756
# Velocity P-wave (km/s) = 6.50477 7.88246 7.22652
#
# Compressibility (1/GPa) = 0.01366063
#
# Stress axis : x y z
#
# Youngs Moduli (GPa) = 133.49220 87.94322 118.96528
#
# Poissons Ratio (x) = 0.32819 0.17183
# Poissons Ratio (y) = 0.49817 0.19360
# Poissons Ratio (z) = 0.19282 0.14312
#
# Static dielectric constant tensor:
#      x y z
#    x 1.629710 0.000000 -0.008290 
#    y 0.000000 1.607220 0.000000 
#    z -0.008290 0.000000 1.622650 
# 
# From -- ./inp_files/29078.got.cif
#   From: 2010.05.17/outbox.cif.g08.bks.cpg/sg5_15_cif.got.tgz:29078.got - 2010.06.03 18:56:24.
