data_PCOD9129038
_publ_section_title
;
Structure prediction by ZEFSAII (Michael W. Deem and Ramdas Pophale) SiO2 
 PCOD9129038
Probable space group: C 2
;
_chemical_formula_sum "Si O2"
_cell_formula_units_Z 14
_cell_length_a 13.287603
_cell_length_b 5.144269
_cell_length_c 9.779771
_cell_angle_alpha 90.000000
_cell_angle_beta 58.548533
_cell_angle_gamma 90.000000
_cell_volume 570.282449
_symmetry_space_group_name_H-M "C 2"
_symmetry_group_IT_number 5
_symmetry_cell_setting 'monoclinic'
loop_
_space_group_symop_operation_xyz
x,y,z
-x,y,-z
1/2+x,1/2+y,z
1/2-x,1/2+y,-z
loop_
_atom_site_type_symbol
_atom_site_label
_atom_site_fract_x
_atom_site_fract_y
_atom_site_fract_z
Si Si1 0.022728 0.290340 0.287386
Si Si2 0.130585 0.791796 0.536558
Si Si3 0.000000 0.458668 0.000000
Si Si4 0.243373 0.650124 0.734314
O O1 0.949808 0.536930 0.395293
O O2 0.155716 0.281950 0.248011
O O3 0.957614 0.032982 0.383777
O O4 0.015372 0.300702 0.128812
O O5 0.215024 0.787341 0.609818
O O6 0.208064 0.866011 0.349330
O O7 0.119211 0.624217 0.897927
#
# Coordination Sequence:
#
# PCOD9129038 Si02
#       4
#     4   4   2   4
#     4  11  27  48  73 105 143 190 237 292 353 415
#     4  11  26  46  73 106 139 187 247 289 343 423
#     4  10  26  46  72 110 146 186 234 286 360 434
#     4  11  25  48  74 105 147 185 234 297 353 418
#
# _framework density 24.549237999999999
#
# number of rings (size 3 to 8) (size 9 to 14) (size 15 to 20)
#    0.000    1.143    0.000    4.286    0.000   25.143 
#    0.000    0.000    0.000    0.000    0.000    0.000 
#    0.000    0.000    0.000    0.000    0.000    0.000 
#
# Total GULP energy -39257.298621 kJ/mol
# GULP energy per Si atom -5608.185517 kJ/mol
# Density = 2.449336 g / cm^3
# Si number density = 24.549238 Si / 1000 Ang^3
#
#
#
# Elastic Constant Matrix: (Units=GPa)
#
#
# Indices 1 2 3 4 5 6 
#
# 1 259.0040 65.6462 69.4429 0.0001 -5.9153 0.0001
# 2 65.6462 147.2494 35.7914 -0.0002 -14.9514 0.0002
# 3 69.4429 35.7914 132.3165 -0.0002 -10.8876 0.0001
# 4 0.0001 -0.0002 -0.0002 11.8792 0.0001 8.4929
# 5 -5.9153 -14.9514 -10.8876 0.0001 64.0619 0.0002
# 6 0.0001 0.0002 0.0001 8.4929 0.0002 17.6819
#
#
#
# Elastic Compliance Matrix: (Units=1/GPa)
#
#
# Indices 1 2 3 4 5 6 
#
# 1 0.004846 -0.001677 -0.002115 0.000000 -0.000303 0.000000
# 2 -0.001677 0.007972 -0.001152 0.000000 0.001510 0.000000
# 3 -0.002115 -0.001152 0.009068 0.000000 0.001077 0.000000
# 4 0.000000 0.000000 0.000000 0.128207 0.000000 -0.061580
# 5 -0.000303 0.001510 0.001077 0.000000 0.016117 0.000000
# 6 0.000000 0.000000 0.000000 -0.061580 0.000000 0.086133
#
#
# Mechanical properties :
#
#
# Convention : Reuss Voigt Hill
#
# Bulk Modulus (GPa) = 83.34497 97.81454 90.57975
# Shear Modulus (GPa) = 18.78072 43.23722 31.00897
#
# Velocity S-wave (km/s) = 2.76890 4.20127 3.55791
# Velocity P-wave (km/s) = 6.65179 7.96649 7.33864
#
# Compressibility (1/GPa) = 0.01199833
#
# Stress axis : x y z
#
# Youngs Moduli (GPa) = 206.35187 125.43461 110.28206
#
# Poissons Ratio (x) = 0.21039 0.23320
# Poissons Ratio (y) = 0.34611 0.12704
# Poissons Ratio (z) = 0.43635 0.14450
#
# Static dielectric constant tensor:
#      x y z
#    x 1.970950 0.000000 0.011000 
#    y 0.000000 1.983080 0.000000 
#    z 0.011000 0.000000 1.945130 
# 
# From -- ./inp_files/22275.got.cif
#   From: 2010.05.17/outbox.cif.g08.bks.cpg/sg5_12_cif.got.tgz:22275.got - 2010.06.03 18:56:24.
