data_PCOD9129547
_publ_section_title
;
Structure prediction by ZEFSAII (Michael W. Deem and Ramdas Pophale) SiO2 
 PCOD9129547
Probable space group: C 2
;
_chemical_formula_sum "Si O2"
_cell_formula_units_Z 28
_cell_length_a 29.931951
_cell_length_b 8.396881
_cell_length_c 6.616206
_cell_angle_alpha 90.000000
_cell_angle_beta 124.947388
_cell_angle_gamma 90.000000
_cell_volume 1363.030352
_symmetry_space_group_name_H-M "C 2"
_symmetry_group_IT_number 5
_symmetry_cell_setting 'monoclinic'
loop_
_space_group_symop_operation_xyz
x,y,z
-x,y,-z
1/2+x,1/2+y,z
1/2-x,1/2+y,-z
loop_
_atom_site_type_symbol
_atom_site_label
_atom_site_fract_x
_atom_site_fract_y
_atom_site_fract_z
Si Si1 0.054277 0.949930 0.243826
Si Si2 0.159492 0.435156 0.688377
Si Si3 0.784026 0.248134 0.515636
Si Si4 0.243070 0.943191 0.764812
Si Si5 0.357396 0.303685 0.268572
Si Si6 0.056615 0.233348 0.553190
Si Si7 0.372480 0.524296 0.949832
O O1 0.083585 0.838599 0.482277
O O2 0.042580 0.114309 0.332200
O O3 0.096359 0.980545 0.173006
O O4 0.000000 0.885503 0.000000
O O5 0.179867 0.369732 0.524664
O O6 0.156755 0.624279 0.709843
O O7 0.101269 0.359547 0.593148
O O8 0.206605 0.386330 0.968828
O O9 0.745129 0.343084 0.564445
O O10 0.822397 0.134876 0.751722
O O11 0.753328 0.128231 0.285481
O O12 0.187245 0.915518 0.738414
O O13 0.357812 0.366588 0.040080
O O14 0.000000 0.295977 0.500000
O O15 0.088065 0.127856 0.803028
#
# Coordination Sequence:
#
# PCOD9129547 Si02
#       7
#     4   4   4   4   4   4   4
#     4  11  22  44  72  96 128 177 228 279 338 412
#     4  12  26  44  63 101 142 178 224 287 346 405
#     4  12  25  43  71  98 136 183 232 278 347 412
#     4  12  26  41  70  99 137 180 227 283 342 415
#     4  11  27  41  65 102 139 175 226 284 345 405
#     4  11  22  42  70  98 128 174 230 284 335 403
#     4  11  22  44  68  96 127 173 232 276 334 406
#
# _framework density 20.542462
#
# number of rings (size 3 to 8) (size 9 to 14) (size 15 to 20)
#    0.000    0.571    5.714    2.571    6.000    1.143 
#    2.571    0.714    0.000    0.000    0.000    0.000 
#    0.000    0.000    0.000    0.000    0.000    0.000 
#
# Total GULP energy -78272.304568 kJ/mol
# GULP energy per Si atom -5590.878898 kJ/mol
# Density = 2.049571 g / cm^3
# Si number density = 20.542462 Si / 1000 Ang^3
#
#
#
# Elastic Constant Matrix: (Units=GPa)
#
#
# Indices 1 2 3 4 5 6 
#
# 1 69.5905 -8.7458 23.4570 0.0000 -3.5306 0.0000
# 2 -8.7458 50.1405 16.4963 0.0000 -6.8097 0.0000
# 3 23.4570 16.4963 99.1642 0.0000 4.6591 0.0000
# 4 0.0000 0.0000 0.0000 23.6108 0.0000 -2.3799
# 5 -3.5306 -6.8097 4.6591 0.0000 40.0857 0.0000
# 6 0.0000 0.0000 0.0000 -2.3799 0.0000 31.4202
#
#
#
# Elastic Compliance Matrix: (Units=1/GPa)
#
#
# Indices 1 2 3 4 5 6 
#
# 1 0.016801 0.004946 -0.004933 0.000000 0.002893 0.000000
# 2 0.004946 0.023218 -0.005267 0.000000 0.004992 0.000000
# 3 -0.004933 -0.005267 0.012257 0.000000 -0.002754 0.000000
# 4 0.000000 0.000000 0.000000 0.042679 0.000000 0.003233
# 5 0.002893 0.004992 -0.002754 0.000000 0.026370 0.000000
# 6 0.000000 0.000000 0.000000 0.003233 0.000000 0.032072
#
#
# Mechanical properties :
#
#
# Convention : Reuss Voigt Hill
#
# Bulk Modulus (GPa) = 23.94162 31.25670 27.59916
# Shear Modulus (GPa) = 28.11748 31.53586 29.82667
#
# Velocity S-wave (km/s) = 3.70367 3.92236 3.81458
# Velocity P-wave (km/s) = 5.47445 5.98012 5.73286
#
# Compressibility (1/GPa) = 0.04176827
#
# Stress axis : x y z
#
# Youngs Moduli (GPa) = 59.52027 43.07088 81.58783
#
# Poissons Ratio (x) = -0.21305 0.40248
# Poissons Ratio (y) = -0.29441 0.42972
# Poissons Ratio (z) = 0.29362 0.22685
#
# Static dielectric constant tensor:
#      x y z
#    x 1.703130 0.000000 0.010830 
#    y 0.000000 1.718840 0.000000 
#    z 0.010830 0.000000 1.745880 
# 
# From -- ./inp_files/11174.got.cif
#   From: 2010.05.17/outbox.cif.g08.bks.cpg/sg5_6_cif.got.tgz:11174.got - 2010.06.03 18:56:24.
