data_PCOD9129955
_publ_section_title
;
Structure prediction by ZEFSAII (Michael W. Deem and Ramdas Pophale) SiO2 
 PCOD9129955
Probable space group: C 2
;
_chemical_formula_sum "Si O2"
_cell_formula_units_Z 32
_cell_length_a 23.300020
_cell_length_b 5.132168
_cell_length_c 12.235872
_cell_angle_alpha 90.000000
_cell_angle_beta 115.554605
_cell_angle_gamma 90.000000
_cell_volume 1320.026562
_symmetry_space_group_name_H-M "C 2"
_symmetry_group_IT_number 5
_symmetry_cell_setting 'monoclinic'
loop_
_space_group_symop_operation_xyz
x,y,z
-x,y,-z
1/2+x,1/2+y,z
1/2-x,1/2+y,-z
loop_
_atom_site_type_symbol
_atom_site_label
_atom_site_fract_x
_atom_site_fract_y
_atom_site_fract_z
Si Si1 0.934265 0.066050 0.381599
Si Si2 0.511855 0.565264 0.236281
Si Si3 0.147058 0.567183 0.696748
Si Si4 0.669516 0.915729 0.187620
Si Si5 0.651622 0.536734 0.375168
Si Si6 0.035125 0.581942 0.132371
Si Si7 0.206800 0.419987 0.973300
Si Si8 0.765303 0.268549 0.377936
O O1 0.905091 0.349393 0.377048
O O2 0.000000 0.027097 0.500000
O O3 0.954746 0.045270 0.272240
O O4 0.881470 0.845911 0.355882
O O5 0.579498 0.461287 0.339320
O O6 0.503546 0.358592 0.132722
O O7 0.524296 0.865867 0.216804
O O8 0.163109 0.521780 0.837836
O O9 0.210431 0.496518 0.681201
O O10 0.609500 0.104723 0.164096
O O11 0.735791 0.047395 0.276692
O O12 0.655243 0.681818 0.260516
O O13 0.672281 0.863683 0.060610
O O14 0.705880 0.321203 0.409423
O O15 0.676706 0.710663 0.494369
O O16 0.000000 0.462686 0.000000
O O17 0.242474 0.154340 0.968073
#
# Coordination Sequence:
#
# PCOD9129955 Si02
#       8
#     4   4   4   4   4   4   4   4
#     4  12  28  50  74 105 146 193 248 302 358 432
#     4  11  25  47  70 101 142 177 245 287 360 412
#     4  12  28  47  75 109 144 201 241 298 369 435
#     4  11  25  42  69 102 146 182 236 293 366 422
#     4  11  24  42  73 106 137 188 228 309 359 431
#     4  11  25  45  70 103 135 188 229 298 352 421
#     4  12  26  47  70 103 150 189 238 293 353 448
#     4  12  23  44  71 106 146 178 242 291 372 432
#
# _framework density 24.241935000000002
#
# number of rings (size 3 to 8) (size 9 to 14) (size 15 to 20)
#    0.000    0.500    3.750    3.750    5.250    3.000 
#    0.000    0.000    0.000    0.000    0.000    0.000 
#    0.000    0.000    0.000    0.000    0.000    0.000 
#
# Total GULP energy -89547.183615 kJ/mol
# GULP energy per Si atom -5596.698976 kJ/mol
# Density = 2.418676 g / cm^3
# Si number density = 24.241935 Si / 1000 Ang^3
#
#
#
# Elastic Constant Matrix: (Units=GPa)
#
#
# Indices 1 2 3 4 5 6 
#
# 1 73.4999 19.4072 -10.3622 0.0000 -9.4814 0.0000
# 2 19.4072 81.1955 2.0030 0.0000 -6.7493 0.0000
# 3 -10.3622 2.0030 80.9701 0.0000 -11.2703 0.0000
# 4 0.0000 0.0000 0.0000 25.6669 0.0000 7.7522
# 5 -9.4814 -6.7493 -11.2703 0.0000 33.7709 0.0000
# 6 0.0000 0.0000 0.0000 7.7522 0.0000 34.3495
#
#
#
# Elastic Compliance Matrix: (Units=1/GPa)
#
#
# Indices 1 2 3 4 5 6 
#
# 1 0.015469 -0.003384 0.002699 0.000000 0.004567 0.000000
# 2 -0.003384 0.013265 -0.000550 0.000000 0.001517 0.000000
# 3 0.002699 -0.000550 0.013423 0.000000 0.005127 0.000000
# 4 0.000000 0.000000 0.000000 0.041811 0.000000 -0.009436
# 5 0.004567 0.001517 0.005127 0.000000 0.032908 0.000000
# 6 0.000000 0.000000 0.000000 -0.009436 0.000000 0.031242
#
#
# Mechanical properties :
#
#
# Convention : Reuss Voigt Hill
#
# Bulk Modulus (GPa) = 25.19790 28.64016 26.91903
# Shear Modulus (GPa) = 30.52202 33.73195 32.12698
#
# Velocity S-wave (km/s) = 3.55217 3.73429 3.64437
# Velocity P-wave (km/s) = 5.21927 5.51663 5.37001
#
# Compressibility (1/GPa) = 0.03968584
#
# Stress axis : x y z
#
# Youngs Moduli (GPa) = 64.64641 75.38894 74.49927
#
# Poissons Ratio (x) = 0.25513 -0.20108
# Poissons Ratio (y) = 0.21878 0.04098
# Poissons Ratio (z) = -0.17449 0.04147
#
# Static dielectric constant tensor:
#      x y z
#    x 1.922230 0.000000 -0.006740 
#    y 0.000000 1.948140 0.000000 
#    z -0.006740 0.000000 1.978040 
# 
# From -- ./inp_files/47049.got.cif
#   From: 2010.05.17/outbox.cif.g08.bks.cpg/sg5_24_cif.got.tgz:47049.got - 2010.06.03 18:56:24.
