data_PCOD9129773
_publ_section_title
;
Structure prediction by ZEFSAII (Michael W. Deem and Ramdas Pophale) SiO2 
 PCOD9129773
Probable space group: C 2
;
_chemical_formula_sum "Si O2"
_cell_formula_units_Z 30
_cell_length_a 12.519953
_cell_length_b 19.706610
_cell_length_c 5.222210
_cell_angle_alpha 90.000000
_cell_angle_beta 90.809707
_cell_angle_gamma 90.000000
_cell_volume 1288.325442
_symmetry_space_group_name_H-M "C 2"
_symmetry_group_IT_number 5
_symmetry_cell_setting 'monoclinic'
loop_
_space_group_symop_operation_xyz
x,y,z
-x,y,-z
1/2+x,1/2+y,z
1/2-x,1/2+y,-z
loop_
_atom_site_type_symbol
_atom_site_label
_atom_site_fract_x
_atom_site_fract_y
_atom_site_fract_z
Si Si1 0.710005 0.373940 0.805259
Si Si2 0.926260 0.441190 0.748139
Si Si3 0.620240 0.627729 0.963095
Si Si4 0.118179 0.677653 0.606616
Si Si5 0.795321 0.737993 0.904167
Si Si6 0.858270 0.984180 0.814073
Si Si7 0.500000 0.393183 0.500000
Si Si8 0.226790 0.548472 0.417587
O O1 0.832281 0.384314 0.720656
O O2 0.711275 0.316488 0.024993
O O3 0.607886 0.358147 0.614883
O O4 0.683365 0.445268 0.941893
O O5 0.865774 0.514814 0.758632
O O6 0.000000 0.441063 0.500000
O O7 0.000000 0.431219 0.000000
O O8 0.677734 0.588354 0.725282
O O9 0.500000 0.652427 0.000000
O O10 0.692686 0.694199 0.988127
O O11 0.618805 0.563199 0.152739
O O12 0.119774 0.707972 0.889865
O O13 0.172391 0.603984 0.598733
O O14 0.000000 0.672216 0.500000
O O15 0.180068 0.721551 0.390038
O O16 0.958419 0.942478 0.719796
O O17 0.770696 0.986450 0.588269
#
# Coordination Sequence:
#
# PCOD9129773 Si02
#       8
#     4   4   4   4   4   4   2   4
#     4  12  28  46  72 110 149 198 257 307 387 441
#     4  12  27  46  74 104 149 198 245 308 372 458
#     4  11  23  44  73 106 145 192 246 311 374 444
#     4  11  25  45  71 100 143 188 238 294 371 441
#     4  11  28  47  70 105 147 191 242 305 361 453
#     4  12  21  44  72 112 142 188 245 319 375 442
#     4  12  26  42  78 106 152 192 248 328 376 444
#     4  11  23  43  71 109 142 185 248 310 370 445
#
# _framework density 23.286042999999999
#
# number of rings (size 3 to 8) (size 9 to 14) (size 15 to 20)
#    0.000    0.533    4.000    3.600    2.800    3.733 
#    0.000    1.333    0.000    0.000    0.000    0.000 
#    0.000    0.000    0.000    0.000    0.000    0.000 
#
# Total GULP energy -83732.984182 kJ/mol
# GULP energy per Si atom -5582.198945 kJ/mol
# Density = 2.323304 g / cm^3
# Si number density = 23.286043 Si / 1000 Ang^3
#
#
#
# Elastic Constant Matrix: (Units=GPa)
#
#
# Indices 1 2 3 4 5 6 
#
# 1 149.3089 33.7419 37.5739 0.0000 -3.5471 0.0000
# 2 33.7419 80.2211 5.2726 0.0000 8.2338 0.0000
# 3 37.5739 5.2726 82.5138 0.0000 6.2975 0.0000
# 4 0.0000 0.0000 0.0000 37.3464 0.0000 -2.7430
# 5 -3.5471 8.2338 6.2975 0.0000 38.9713 0.0000
# 6 0.0000 0.0000 0.0000 -2.7430 0.0000 -5.5918
#
#
#
# Elastic Compliance Matrix: (Units=1/GPa)
#
#
# Indices 1 2 3 4 5 6 
#
# 1 0.008509 -0.003548 -0.003811 0.000000 0.002140 0.000000
# 2 -0.003548 0.014252 0.000971 0.000000 -0.003491 0.000000
# 3 -0.003811 0.000971 0.014008 0.000000 -0.002816 0.000000
# 4 0.000000 0.000000 0.000000 0.025845 0.000000 -0.012678
# 5 0.002140 -0.003491 -0.002816 0.000000 0.027047 0.000000
# 6 0.000000 0.000000 0.000000 -0.012678 0.000000 -0.172614
#
#
# Mechanical properties :
#
#
# Convention : Reuss Voigt Hill
#
# Bulk Modulus (GPa) = 41.67896 51.69119 46.68508
# Shear Modulus (GPa) = -80.41465 29.84221 -25.28622
#
# Velocity S-wave (km/s) = -5.88289 3.58376 -3.29887
# Velocity P-wave (km/s) = 5.31102 6.27463 2.36263
#
# Compressibility (1/GPa) = 0.02399292
#
# Stress axis : x y z
#
# Youngs Moduli (GPa) = 117.51699 70.16319 71.38970
#
# Poissons Ratio (x) = 0.24896 0.27210
# Poissons Ratio (y) = 0.41699 -0.06935
# Poissons Ratio (z) = 0.44791 -0.06816
#
# Static dielectric constant tensor:
#      x y z
#    x 1.973280 0.000000 0.040000 
#    y 0.000000 1.875380 0.000000 
#    z 0.040000 0.000000 2.005670 
# 
# From -- ./inp_files/5660.got.cif
#   From: 2010.05.17/outbox.cif.g08.bks.cpg/sg5_3_cif.got.tgz:5660.got - 2010.06.03 18:56:24.
