data_PCOD9129666
_publ_section_title
;
Structure prediction by ZEFSAII (Michael W. Deem and Ramdas Pophale) SiO2 
 PCOD9129666
Probable space group: C 2
;
_chemical_formula_sum "Si O2"
_cell_formula_units_Z 14
_cell_length_a 16.733938
_cell_length_b 7.452589
_cell_length_c 16.139268
_cell_angle_alpha 90.000000
_cell_angle_beta 162.119616
_cell_angle_gamma 90.000000
_cell_volume 617.975299
_symmetry_space_group_name_H-M "C 2"
_symmetry_group_IT_number 5
_symmetry_cell_setting 'monoclinic'
loop_
_space_group_symop_operation_xyz
x,y,z
-x,y,-z
1/2+x,1/2+y,z
1/2-x,1/2+y,-z
loop_
_atom_site_type_symbol
_atom_site_label
_atom_site_fract_x
_atom_site_fract_y
_atom_site_fract_z
Si Si1 0.000000 0.409081 0.000000
Si Si2 0.630528 0.634253 0.361620
Si Si3 0.103084 0.517130 0.923938
Si Si4 0.258138 0.549435 0.711916
O O1 0.782832 0.264178 0.756063
O O2 0.091682 0.520392 0.011791
O O3 0.508238 0.823322 0.213247
O O4 0.712881 0.535398 0.357540
O O5 0.891246 0.648199 0.673287
O O6 0.393929 0.542675 0.177595
O O7 0.000000 0.480083 0.500000
O O8 0.500000 0.468221 0.000000
#
# Coordination Sequence:
#
# PCOD9129666 Si02
#       4
#     2   4   4   4
#     4   8  22  34  66  82 120 162 212 230 294 378
#     4  11  23  38  66  94 120 160 203 259 296 363
#     4  11  23  40  65  91 125 156 211 244 311 352
#     4   9  18  34  61  88 110 156 215 238 273 363
#
# _framework density 22.654627000000001
#
# number of rings (size 3 to 8) (size 9 to 14) (size 15 to 20)
#    0.857    1.143    0.000    3.429    8.000    0.000 
#    0.000    0.000   31.429    0.000    0.000    0.000 
#    0.000    0.000    0.000    0.000    0.000    0.000 
#
# Total GULP energy -39088.872028 kJ/mol
# GULP energy per Si atom -5584.124575 kJ/mol
# Density = 2.260306 g / cm^3
# Si number density = 22.654627 Si / 1000 Ang^3
#
#
#
# Elastic Constant Matrix: (Units=GPa)
#
#
# Indices 1 2 3 4 5 6 
#
# 1 222.9172 29.2322 84.5834 0.0077 5.2950 0.0027
# 2 29.2322 40.5901 -4.1023 0.0167 4.5387 0.0087
# 3 84.5834 -4.1023 126.2511 0.0171 33.5210 0.0084
# 4 0.0077 0.0167 0.0171 3.2165 0.0060 -11.9369
# 5 5.2950 4.5387 33.5210 0.0060 43.0255 0.0019
# 6 0.0027 0.0087 0.0084 -11.9369 0.0019 19.2798
#
#
#
# Elastic Compliance Matrix: (Units=1/GPa)
#
#
# Indices 1 2 3 4 5 6 
#
# 1 0.007876 -0.006936 -0.006858 -0.000047 0.005105 -0.000025
# 2 -0.006936 0.031407 0.007969 0.000179 -0.008668 0.000095
# 3 -0.006858 0.007969 0.016105 0.000091 -0.012544 0.000048
# 4 -0.000047 0.000179 0.000091 -0.239572 -0.000044 -0.148328
# 5 0.005105 -0.008668 -0.012544 -0.000044 0.033301 -0.000022
# 6 -0.000025 0.000095 0.000048 -0.148328 -0.000022 -0.039968
#
#
# Mechanical properties :
#
#
# Convention : Reuss Voigt Hill
#
# Bulk Modulus (GPa) = 22.86378 67.68723 45.27550
# Shear Modulus (GPa) = -30.37260 31.77403 0.70072
#
# Velocity S-wave (km/s) = -3.66550 3.74911 0.55675
# Velocity P-wave (km/s) = 2.79290 6.97738 4.52126
#
# Compressibility (1/GPa) = 0.04373731
#
# Stress axis : x y z
#
# Youngs Moduli (GPa) = 126.96152 31.84049 62.09422
#
# Poissons Ratio (x) = 0.22086 0.42583
# Poissons Ratio (y) = 0.88065 -0.49483
# Poissons Ratio (z) = 0.87067 -0.25374
#
# Static dielectric constant tensor:
#      x y z
#    x 1.799840 0.000000 -0.020870 
#    y 0.000000 1.918980 0.000000 
#    z -0.020870 0.000000 1.829130 
# 
# From -- ./inp_files/6260.got.cif
#   From: 2010.05.17/outbox.cif.g08.bks.cpg/sg5_4_cif.got.tgz:6260.got - 2010.06.03 18:56:24.
