data_PCOD9129789
_publ_section_title
;
Structure prediction by ZEFSAII (Michael W. Deem and Ramdas Pophale) SiO2 
 PCOD9129789
Probable space group: C 2
;
_chemical_formula_sum "Si O2"
_cell_formula_units_Z 24
_cell_length_a 10.294143
_cell_length_b 9.095279
_cell_length_c 12.461917
_cell_angle_alpha 90.000000
_cell_angle_beta 88.815079
_cell_angle_gamma 90.000000
_cell_volume 1166.536139
_symmetry_space_group_name_H-M "C 2"
_symmetry_group_IT_number 5
_symmetry_cell_setting 'monoclinic'
loop_
_space_group_symop_operation_xyz
x,y,z
-x,y,-z
1/2+x,1/2+y,z
1/2-x,1/2+y,-z
loop_
_atom_site_type_symbol
_atom_site_label
_atom_site_fract_x
_atom_site_fract_y
_atom_site_fract_z
Si Si1 0.618282 0.461470 0.569320
Si Si2 0.372340 0.772226 0.545914
Si Si3 0.244126 0.434298 0.077412
Si Si4 0.258708 0.774860 0.143648
Si Si5 0.501989 0.423554 0.807487
Si Si6 0.958415 0.244883 0.786692
O O1 0.500000 0.402688 0.500000
O O2 0.640961 0.627408 0.527297
O O3 0.746223 0.369698 0.546793
O O4 0.574968 0.449821 0.693286
O O5 0.500000 0.854289 0.500000
O O6 0.403405 0.728715 0.667828
O O7 0.248199 0.608404 0.099543
O O8 0.385536 0.373961 0.112985
O O9 0.130462 0.360788 0.149678
O O10 0.222789 0.385072 0.956348
O O11 0.388668 0.785448 0.213213
O O12 0.122311 0.819012 0.200140
O O13 0.450860 0.584957 0.842446
#
# Coordination Sequence:
#
# PCOD9129789 Si02
#       6
#     4   4   4   4   4   4
#     4  11  24  44  68  96 134 173 223 271 333 392
#     4  11  24  45  67  96 134 173 224 275 328 396
#     4  11  24  45  67  99 136 175 226 273 330 396
#     4  11  26  42  71  98 135 176 225 272 334 396
#     4  11  23  44  66  97 135 175 216 276 331 391
#     4  11  23  44  67  96 136 174 220 275 332 389
#
# _framework density 20.573730999999999
#
# number of rings (size 3 to 8) (size 9 to 14) (size 15 to 20)
#    0.000    1.000    5.000    2.000    2.333    7.333 
#    3.000    0.000    0.000    0.000    0.000    0.000 
#    0.000    0.000    0.000    0.000    0.000    0.000 
#
# Total GULP energy -67075.377027 kJ/mol
# GULP energy per Si atom -5589.614752 kJ/mol
# Density = 2.052690 g / cm^3
# Si number density = 20.573731 Si / 1000 Ang^3
#
#
#
# Elastic Constant Matrix: (Units=GPa)
#
#
# Indices 1 2 3 4 5 6 
#
# 1 161.2214 70.4493 14.8978 0.0000 -4.2254 0.0000
# 2 70.4493 73.1292 18.7546 0.0000 -9.7236 0.0000
# 3 14.8978 18.7546 61.0916 0.0000 -5.6254 0.0000
# 4 0.0000 0.0000 0.0000 20.2188 0.0000 -2.9588
# 5 -4.2254 -9.7236 -5.6254 0.0000 37.7930 0.0000
# 6 0.0000 0.0000 0.0000 -2.9588 0.0000 39.8388
#
#
#
# Elastic Compliance Matrix: (Units=1/GPa)
#
#
# Indices 1 2 3 4 5 6 
#
# 1 0.010811 -0.010747 0.000527 0.000000 -0.001478 0.000000
# 2 -0.010747 0.025913 -0.004898 0.000000 0.004737 0.000000
# 3 0.000527 -0.004898 0.017879 0.000000 0.001460 0.000000
# 4 0.000000 0.000000 0.000000 0.050002 0.000000 0.003714
# 5 -0.001478 0.004737 0.001460 0.000000 0.027731 0.000000
# 6 0.000000 0.000000 0.000000 0.003714 0.000000 0.025377
#
#
# Mechanical properties :
#
#
# Convention : Reuss Voigt Hill
#
# Bulk Modulus (GPa) = 41.04010 55.96061 48.50036
# Shear Modulus (GPa) = 25.50088 32.32615 28.91351
#
# Velocity S-wave (km/s) = 3.52445 3.96818 3.75288
# Velocity P-wave (km/s) = 6.04595 6.94654 6.51183
#
# Compressibility (1/GPa) = 0.02436641
#
# Stress axis : x y z
#
# Youngs Moduli (GPa) = 92.49666 38.59045 55.93280
#
# Poissons Ratio (x) = 0.41471 -0.02945
# Poissons Ratio (y) = 0.99402 0.27398
# Poissons Ratio (z) = -0.04871 0.18903
#
# Static dielectric constant tensor:
#      x y z
#    x 1.731840 0.000000 -0.000670 
#    y 0.000000 1.716110 0.000000 
#    z -0.000670 0.000000 1.761460 
# 
# From -- ./inp_files/38358.got.cif
#   From: 2010.05.17/outbox.cif.g08.bks.cpg/sg5_20_cif.got.tgz:38358.got - 2010.06.03 18:56:24.
