data_PCOD9129526
_publ_section_title
;
Structure prediction by ZEFSAII (Michael W. Deem and Ramdas Pophale) SiO2 
 PCOD9129526
Probable space group: C 2
;
_chemical_formula_sum "Si O2"
_cell_formula_units_Z 28
_cell_length_a 12.365313
_cell_length_b 7.385972
_cell_length_c 14.630101
_cell_angle_alpha 90.000000
_cell_angle_beta 123.492993
_cell_angle_gamma 90.000000
_cell_volume 1114.299241
_symmetry_space_group_name_H-M "C 2"
_symmetry_group_IT_number 5
_symmetry_cell_setting 'monoclinic'
loop_
_space_group_symop_operation_xyz
x,y,z
-x,y,-z
1/2+x,1/2+y,z
1/2-x,1/2+y,-z
loop_
_atom_site_type_symbol
_atom_site_label
_atom_site_fract_x
_atom_site_fract_y
_atom_site_fract_z
Si Si1 0.369713 0.529520 0.837141
Si Si2 0.107101 0.944410 0.621145
Si Si3 0.697505 0.132886 0.546461
Si Si4 0.157308 0.365559 0.067663
Si Si5 0.749448 0.773691 0.909036
Si Si6 0.997446 0.142832 0.263629
Si Si7 0.267569 0.266282 0.629607
O O1 0.304603 0.722696 0.834699
O O2 0.353870 0.417443 0.921980
O O3 0.495757 0.589803 0.839783
O O4 0.320991 0.384720 0.738453
O O5 0.224957 0.077698 0.652901
O O6 0.000000 0.019418 0.500000
O O7 0.057249 0.983681 0.698429
O O8 0.133306 0.745382 0.597080
O O9 0.854402 0.168061 0.632843
O O10 0.658819 0.209233 0.429353
O O11 0.670814 0.920351 0.543855
O O12 0.199772 0.574226 0.092372
O O13 0.220231 0.299612 0.001893
O O14 0.000000 0.360689 0.000000
O O15 0.612292 0.798165 0.789192
#
# Coordination Sequence:
#
# PCOD9129526 Si02
#       7
#     4   4   4   4   4   4   4
#     4  11  25  47  71 109 144 188 246 302 357 442
#     4  12  23  44  69 101 146 194 243 296 359 422
#     4  11  24  45  69 104 148 194 238 305 357 424
#     4  12  27  48  75 106 143 189 242 306 374 440
#     4  12  26  47  76 107 143 188 238 305 375 441
#     4  11  25  44  73 104 147 187 237 300 355 442
#     4  11  22  41  72 102 144 191 245 294 352 430
#
# _framework density 25.127897999999998
#
# number of rings (size 3 to 8) (size 9 to 14) (size 15 to 20)
#    0.000    0.571    7.143    0.857    4.000    2.286 
#    0.000    2.857    0.000    0.000    0.000    0.000 
#    0.000    0.000    0.000    0.000    0.000    0.000 
#
# Total GULP energy -78054.009456 kJ/mol
# GULP energy per Si atom -5575.286390 kJ/mol
# Density = 2.507071 g / cm^3
# Si number density = 25.127898 Si / 1000 Ang^3
#
#
#
# Elastic Constant Matrix: (Units=GPa)
#
#
# Indices 1 2 3 4 5 6 
#
# 1 121.1299 15.4995 44.4444 0.0000 -39.8641 0.0000
# 2 15.4995 109.0858 -1.8617 0.0000 -27.0313 0.0000
# 3 44.4444 -1.8617 83.5859 0.0000 -33.8001 0.0000
# 4 0.0000 0.0000 0.0000 12.8519 0.0000 12.2610
# 5 -39.8641 -27.0313 -33.8001 0.0000 59.8167 0.0000
# 6 0.0000 0.0000 0.0000 12.2610 0.0000 22.9582
#
#
#
# Elastic Compliance Matrix: (Units=1/GPa)
#
#
# Indices 1 2 3 4 5 6 
#
# 1 0.011495 -0.000412 -0.004017 0.000000 0.005205 0.000000
# 2 -0.000412 0.010847 0.003022 0.000000 0.006335 0.000000
# 3 -0.004017 0.003022 0.017675 0.000000 0.008677 0.000000
# 4 0.000000 0.000000 0.000000 0.158634 0.000000 -0.084719
# 5 0.005205 0.006335 0.008677 0.000000 0.027952 0.000000
# 6 0.000000 0.000000 0.000000 -0.084719 0.000000 0.088802
#
#
# Mechanical properties :
#
#
# Convention : Reuss Voigt Hill
#
# Bulk Modulus (GPa) = 26.87806 47.77399 37.32603
# Shear Modulus (GPa) = 15.12313 36.17334 25.64823
#
# Velocity S-wave (km/s) = 2.45592 3.79828 3.19832
# Velocity P-wave (km/s) = 4.33148 6.18785 5.34094
#
# Compressibility (1/GPa) = 0.03720506
#
# Stress axis : x y z
#
# Youngs Moduli (GPa) = 86.99432 92.19107 56.57568
#
# Poissons Ratio (x) = 0.03799 0.22724
# Poissons Ratio (y) = 0.03585 -0.17100
# Poissons Ratio (z) = 0.34942 -0.27864
#
# Static dielectric constant tensor:
#      x y z
#    x 2.124320 0.000000 0.038670 
#    y 0.000000 1.937940 0.000000 
#    z 0.038670 0.000000 2.096650 
# 
# From -- ./inp_files/52297.got.cif
#   From: 2010.05.17/outbox.cif.g08.bks.cpg/sg5_27_cif.got.tgz:52297.got - 2010.06.03 18:56:24.
