data_PCOD9129927
_publ_section_title
;
Structure prediction by ZEFSAII (Michael W. Deem and Ramdas Pophale) SiO2 
 PCOD9129927
Probable space group: C 2
;
_chemical_formula_sum "Si O2"
_cell_formula_units_Z 28
_cell_length_a 17.278370
_cell_length_b 7.805567
_cell_length_c 23.037634
_cell_angle_alpha 90.000000
_cell_angle_beta 23.458171
_cell_angle_gamma 90.000000
_cell_volume 1236.843836
_symmetry_space_group_name_H-M "C 2"
_symmetry_group_IT_number 5
_symmetry_cell_setting 'monoclinic'
loop_
_space_group_symop_operation_xyz
x,y,z
-x,y,-z
1/2+x,1/2+y,z
1/2-x,1/2+y,-z
loop_
_atom_site_type_symbol
_atom_site_label
_atom_site_fract_x
_atom_site_fract_y
_atom_site_fract_z
Si Si1 0.734382 0.615770 0.526510
Si Si2 0.931887 0.466270 0.166303
Si Si3 0.479423 0.969791 0.582276
Si Si4 0.573807 0.616879 0.883774
Si Si5 0.911355 0.446709 0.307534
Si Si6 0.170039 0.787405 0.969532
Si Si7 0.158887 0.132356 0.262720
O O1 0.883935 0.606880 0.369414
O O2 0.693737 0.799453 0.582936
O O3 0.525727 0.558385 0.644587
O O4 0.826971 0.509519 0.515105
O O5 0.997696 0.273259 0.107055
O O6 0.831030 0.473564 0.298553
O O7 0.787145 0.507336 0.212754
O O8 0.094167 0.616273 0.053332
O O9 0.500000 0.990729 0.500000
O O10 0.420254 0.778229 0.640060
O O11 0.306345 0.095048 0.722261
O O12 0.510201 0.435967 0.080857
O O13 0.500000 0.642868 0.000000
O O14 0.129819 0.376692 0.148451
O O15 0.213175 0.727044 0.874092
#
# Coordination Sequence:
#
# PCOD9129927 Si02
#       7
#     4   4   4   4   4   4   4
#     4  11  24  49  70 101 154 200 244 303 386 456
#     4  12  27  43  76 118 142 194 262 315 370 455
#     4  12  25  45  73 108 148 198 255 314 377 450
#     4  12  23  44  77 106 149 200 252 310 386 452
#     4  11  27  48  72 112 150 198 254 312 383 456
#     4  11  23  52  72 108 153 196 249 314 386 450
#     4  11  24  46  74 101 155 199 245 309 384 448
#
# _framework density 22.638265000000001
#
# number of rings (size 3 to 8) (size 9 to 14) (size 15 to 20)
#    0.000    0.571    5.714    2.143    6.000    0.000 
#    7.714    0.000    0.000    0.000    0.000    0.000 
#    0.000    0.000    0.000    0.000    0.000    0.000 
#
# Total GULP energy -78291.777637 kJ/mol
# GULP energy per Si atom -5592.269831 kJ/mol
# Density = 2.258674 g / cm^3
# Si number density = 22.638265 Si / 1000 Ang^3
#
#
#
# Elastic Constant Matrix: (Units=GPa)
#
#
# Indices 1 2 3 4 5 6 
#
# 1 110.8577 28.5855 39.1333 0.0010 20.9736 -0.0007
# 2 28.5855 83.9585 37.2539 0.0010 -7.2850 0.0001
# 3 39.1333 37.2539 76.5049 -0.0021 -1.9426 0.0002
# 4 0.0010 0.0010 -0.0021 29.5287 0.0013 -1.7736
# 5 20.9736 -7.2850 -1.9426 0.0013 41.1104 0.0001
# 6 -0.0007 0.0001 0.0002 -1.7736 0.0001 14.8161
#
#
#
# Elastic Compliance Matrix: (Units=1/GPa)
#
#
# Indices 1 2 3 4 5 6 
#
# 1 0.013070 -0.002604 -0.005605 0.000000 -0.007394 0.000001
# 2 -0.002604 0.015942 -0.006333 -0.000001 0.003854 0.000000
# 3 -0.005605 -0.006333 0.019089 0.000002 0.002639 0.000000
# 4 0.000000 -0.000001 0.000002 0.034111 -0.000001 0.004083
# 5 -0.007394 0.003854 0.002639 -0.000001 0.028905 -0.000001
# 6 0.000001 0.000000 0.000000 0.004083 -0.000001 0.067983
#
#
# Mechanical properties :
#
#
# Convention : Reuss Voigt Hill
#
# Bulk Modulus (GPa) = 52.58696 53.47406 53.03051
# Shear Modulus (GPa) = 23.30767 28.18091 25.74429
#
# Velocity S-wave (km/s) = 3.21217 3.53205 3.37590
# Velocity P-wave (km/s) = 6.08581 6.34872 6.21865
#
# Compressibility (1/GPa) = 0.01901612
#
# Stress axis : x y z
#
# Youngs Moduli (GPa) = 76.51323 62.72813 52.38688
#
# Poissons Ratio (x) = 0.16337 0.29362
# Poissons Ratio (y) = 0.19928 0.33175
# Poissons Ratio (z) = 0.42884 0.39724
#
# Static dielectric constant tensor:
#      x y z
#    x 1.843250 0.000000 -0.037110 
#    y 0.000000 1.906910 0.000000 
#    z -0.037110 0.000000 1.860040 
# 
# From -- ./inp_files/65950.got.cif
#   From: 2010.05.17/outbox.cif.g08.bks.cpg/sg5_33_cif.got.tgz:65950.got - 2010.06.03 18:56:24.
