data_PCOD9129116
_publ_section_title
;
Structure prediction by ZEFSAII (Michael W. Deem and Ramdas Pophale) SiO2 
 PCOD9129116
Probable space group: C 2
;
_chemical_formula_sum "Si O2"
_cell_formula_units_Z 20
_cell_length_a 19.929299
_cell_length_b 7.274939
_cell_length_c 5.484800
_cell_angle_alpha 90.000000
_cell_angle_beta 93.610525
_cell_angle_gamma 90.000000
_cell_volume 793.632274
_symmetry_space_group_name_H-M "C 2"
_symmetry_group_IT_number 5
_symmetry_cell_setting 'monoclinic'
loop_
_space_group_symop_operation_xyz
x,y,z
-x,y,-z
1/2+x,1/2+y,z
1/2-x,1/2+y,-z
loop_
_atom_site_type_symbol
_atom_site_label
_atom_site_fract_x
_atom_site_fract_y
_atom_site_fract_z
Si Si1 0.348220 0.926500 0.811396
Si Si2 0.506317 0.932422 0.261748
Si Si3 0.259462 0.291477 0.612898
Si Si4 0.171205 0.049569 0.965270
Si Si5 0.375052 0.188180 0.253377
O O1 0.293089 0.870195 0.597067
O O2 0.323108 0.215746 0.469919
O O3 0.362851 0.726810 0.928688
O O4 0.337193 0.063312 0.038128
O O5 0.500000 0.810129 0.500000
O O6 0.448875 0.090704 0.269352
O O7 0.500000 0.842846 0.000000
O O8 0.582597 0.001290 0.282987
O O9 0.217443 0.142967 0.764002
O O10 0.288692 0.439745 0.812201
O O11 0.122161 0.896459 0.844047
#
# Coordination Sequence:
#
# PCOD9129116 Si02
#       5
#     4   4   4   4   4
#     4  11  29  52  85 122 170 225 284 360 431 516
#     4  10  26  52  84 110 162 230 278 340 426 514
#     4  12  30  52  80 132 180 212 294 362 438 514
#     4  12  30  46  83 131 170 224 278 366 440 510
#     4  11  29  52  85 122 170 225 284 360 431 516
#
# _framework density 25.200589000000001
#
# number of rings (size 3 to 8) (size 9 to 14) (size 15 to 20)
#    0.000    0.800    0.000    2.400   28.000    0.000 
#    0.000    9.000    0.000    0.000    0.000    0.000 
#    0.000    0.000    0.000    0.000    0.000    0.000 
#
# Total GULP energy -55770.625238 kJ/mol
# GULP energy per Si atom -5577.062524 kJ/mol
# Density = 2.514323 g / cm^3
# Si number density = 25.200589 Si / 1000 Ang^3
#
#
#
# Elastic Constant Matrix: (Units=GPa)
#
#
# Indices 1 2 3 4 5 6 
#
# 1 185.3614 41.8151 84.0066 0.0000 9.6522 0.0000
# 2 41.8151 161.1505 49.5135 0.0000 -1.0231 0.0000
# 3 84.0066 49.5135 184.2798 0.0000 -26.8898 0.0000
# 4 0.0000 0.0000 0.0000 59.5284 0.0000 5.1285
# 5 9.6522 -1.0231 -26.8898 0.0000 40.6286 0.0000
# 6 0.0000 0.0000 0.0000 5.1285 0.0000 37.8540
#
#
#
# Elastic Compliance Matrix: (Units=1/GPa)
#
#
# Indices 1 2 3 4 5 6 
#
# 1 0.007556 -0.000800 -0.003868 0.000000 -0.004375 0.000000
# 2 -0.000800 0.006897 -0.001589 0.000000 -0.000688 0.000000
# 3 -0.003868 -0.001589 0.008573 0.000000 0.006553 0.000000
# 4 0.000000 0.000000 0.000000 0.016997 0.000000 -0.002303
# 5 -0.004375 -0.000688 0.006553 0.000000 0.029972 0.000000
# 6 0.000000 0.000000 0.000000 -0.002303 0.000000 0.026729
#
#
# Mechanical properties :
#
#
# Convention : Reuss Voigt Hill
#
# Bulk Modulus (GPa) = 95.12745 97.94025 96.53385
# Shear Modulus (GPa) = 44.34894 51.29930 47.82412
#
# Velocity S-wave (km/s) = 4.19959 4.51670 4.36103
# Velocity P-wave (km/s) = 7.83234 8.13323 7.98420
#
# Compressibility (1/GPa) = 0.01051221
#
# Stress axis : x y z
#
# Youngs Moduli (GPa) = 132.34155 144.99628 116.64644
#
# Poissons Ratio (x) = 0.11599 0.45120
# Poissons Ratio (y) = 0.10587 0.18532
# Poissons Ratio (z) = 0.51191 0.23036
#
# Static dielectric constant tensor:
#      x y z
#    x 2.032780 0.000000 -0.001380 
#    y 0.000000 2.035370 0.000000 
#    z -0.001380 0.000000 2.175840 
# 
# From -- ./inp_files/10579.got.cif
#   From: 2010.05.17/outbox.cif.g08.bks.cpg/sg5_6_cif.got.tgz:10579.got - 2010.06.03 18:56:24.
