data_PCOD9129119
_publ_section_title
;
Structure prediction by ZEFSAII (Michael W. Deem and Ramdas Pophale) SiO2 
 PCOD9129119
Probable space group: C 2
;
_chemical_formula_sum "Si O2"
_cell_formula_units_Z 20
_cell_length_a 17.336386
_cell_length_b 4.730774
_cell_length_c 29.526072
_cell_angle_alpha 90.000000
_cell_angle_beta 161.529100
_cell_angle_gamma 90.000000
_cell_volume 767.207970
_symmetry_space_group_name_H-M "C 2"
_symmetry_group_IT_number 5
_symmetry_cell_setting 'monoclinic'
loop_
_space_group_symop_operation_xyz
x,y,z
-x,y,-z
1/2+x,1/2+y,z
1/2-x,1/2+y,-z
loop_
_atom_site_type_symbol
_atom_site_label
_atom_site_fract_x
_atom_site_fract_y
_atom_site_fract_z
Si Si1 0.502816 0.946510 0.757728
Si Si2 0.201026 0.845658 0.503764
Si Si3 0.828179 0.548006 0.363545
Si Si4 0.154943 0.446935 0.046343
Si Si5 0.068279 0.668994 0.905348
O O1 0.357032 0.990037 0.630371
O O2 0.721576 0.734083 0.868586
O O3 0.620890 0.239454 0.838718
O O4 0.738721 0.923634 0.978674
O O5 0.342878 0.590846 0.557399
O O6 0.980981 0.701685 0.409074
O O7 0.663480 0.315317 0.246631
O O8 0.000000 0.428106 0.500000
O O9 0.668915 0.782259 0.302014
O O10 0.000000 0.319073 0.000000
O O11 0.005852 0.523982 0.918574
#
# Coordination Sequence:
#
# PCOD9129119 Si02
#       5
#     4   4   4   4   4
#     4  11  25  52  77 111 162 214 264 332 399 483
#     4  11  26  50  79 120 156 208 271 337 404 477
#     4  10  26  54  87 116 165 214 273 327 406 482
#     4  12  27  49  77 116 162 213 265 332 404 471
#     4  12  27  51  80 120 158 213 276 331 396 484
#
# _framework density 26.068553000000001
#
# number of rings (size 3 to 8) (size 9 to 14) (size 15 to 20)
#    0.000    0.800    2.000    3.000    2.800    3.200 
#    3.600    9.000    0.000    0.000    0.000    0.000 
#    0.000    0.000    0.000    0.000    0.000    0.000 
#
# Total GULP energy -56027.633899 kJ/mol
# GULP energy per Si atom -5602.763390 kJ/mol
# Density = 2.600922 g / cm^3
# Si number density = 26.068553 Si / 1000 Ang^3
#
#
#
# Elastic Constant Matrix: (Units=GPa)
#
#
# Indices 1 2 3 4 5 6 
#
# 1 171.9943 41.3730 50.0635 -0.0136 -10.4961 0.0108
# 2 41.3730 140.6465 48.7192 0.0091 -17.7963 -0.0293
# 3 50.0635 48.7192 156.9827 -0.0435 -28.9590 -0.0046
# 4 -0.0136 0.0091 -0.0435 46.3007 -0.0020 -0.4777
# 5 -10.4961 -17.7963 -28.9590 -0.0020 32.5518 -0.0059
# 6 0.0108 -0.0293 -0.0046 -0.4777 -0.0059 30.9486
#
#
#
# Elastic Compliance Matrix: (Units=1/GPa)
#
#
# Indices 1 2 3 4 5 6 
#
# 1 0.006636 -0.001375 -0.001715 0.000001 -0.000138 -0.000004
# 2 -0.001375 0.008437 -0.001688 -0.000003 0.002668 0.000009
# 3 -0.001715 -0.001688 0.008576 0.000008 0.006154 0.000002
# 4 0.000001 -0.000003 0.000008 0.021601 0.000007 0.000333
# 5 -0.000138 0.002668 0.006154 0.000007 0.037609 0.000011
# 6 -0.000004 0.000009 0.000002 0.000333 0.000011 0.032317
#
#
# Mechanical properties :
#
#
# Convention : Reuss Voigt Hill
#
# Bulk Modulus (GPa) = 70.95803 83.32610 77.14206
# Shear Modulus (GPa) = 38.63133 43.92476 41.27804
#
# Velocity S-wave (km/s) = 3.85374 4.10929 3.98357
# Velocity P-wave (km/s) = 6.86153 7.38571 7.12844
#
# Compressibility (1/GPa) = 0.01409284
#
# Stress axis : x y z
#
# Youngs Moduli (GPa) = 150.69953 118.52924 116.60518
#
# Poissons Ratio (x) = 0.16303 0.19995
# Poissons Ratio (y) = 0.20728 0.19678
# Poissons Ratio (z) = 0.25841 0.20003
#
# Static dielectric constant tensor:
#      x y z
#    x 2.134120 0.000030 -0.042530 
#    y 0.000030 1.999950 0.000020 
#    z -0.042530 0.000020 2.093740 
# 
# From -- ./inp_files/68564.got.cif
#   From: 2010.05.17/outbox.cif.g08.bks.cpg/sg5_35_cif.got.tgz:68564.got - 2010.06.03 18:56:24.
