data_PCOD9129295
_publ_section_title
;
Structure prediction by ZEFSAII (Michael W. Deem and Ramdas Pophale) SiO2 
 PCOD9129295
Probable space group: C 2
;
_chemical_formula_sum "Si O2"
_cell_formula_units_Z 24
_cell_length_a 11.249703
_cell_length_b 8.897384
_cell_length_c 22.665241
_cell_angle_alpha 90.000000
_cell_angle_beta 27.089657
_cell_angle_gamma 90.000000
_cell_volume 1033.098403
_symmetry_space_group_name_H-M "C 2"
_symmetry_group_IT_number 5
_symmetry_cell_setting 'monoclinic'
loop_
_space_group_symop_operation_xyz
x,y,z
-x,y,-z
1/2+x,1/2+y,z
1/2-x,1/2+y,-z
loop_
_atom_site_type_symbol
_atom_site_label
_atom_site_fract_x
_atom_site_fract_y
_atom_site_fract_z
Si Si1 0.780943 0.821480 0.379234
Si Si2 0.974941 0.712256 0.925654
Si Si3 0.412444 0.057812 0.240893
Si Si4 0.061362 0.100558 0.206089
Si Si5 0.377927 0.541082 0.112216
Si Si6 0.333228 0.259758 0.695707
O O1 0.500000 0.898041 0.500000
O O2 0.753303 0.676256 0.349790
O O3 0.994205 0.930632 0.254542
O O4 0.880681 0.775440 0.400711
O O5 0.966433 0.893416 0.935342
O O6 0.943447 0.651915 0.874045
O O7 0.267808 0.667806 0.816152
O O8 0.764648 0.634974 0.062273
O O9 0.258085 0.928127 0.276199
O O10 0.605513 0.984572 0.203746
O O11 0.783256 0.173824 0.310204
O O12 0.313721 0.665704 0.188157
O O13 0.500000 0.611656 0.000000
#
# Coordination Sequence:
#
# PCOD9129295 Si02
#       6
#     4   4   4   4   4   4
#     4  11  27  48  68  96 138 189 241 286 332 400
#     4  11  21  40  67 104 144 175 216 284 355 423
#     4  11  23  41  65  97 136 177 231 282 336 409
#     4  11  22  42  68 101 142 176 225 279 350 414
#     4  11  21  36  61  98 139 176 212 274 348 419
#     4  11  23  40  66  97 128 182 231 276 345 399
#
# _framework density 23.231088
#
# number of rings (size 3 to 8) (size 9 to 14) (size 15 to 20)
#    0.000    1.000    5.000    2.000    0.000    5.333 
#    0.000    0.833    0.000    0.000    0.000    0.000 
#    0.000    0.000    0.000    0.000    0.000    0.000 
#
# Total GULP energy -66899.025760 kJ/mol
# GULP energy per Si atom -5574.918813 kJ/mol
# Density = 2.317821 g / cm^3
# Si number density = 23.231088 Si / 1000 Ang^3
#
#
#
# Elastic Constant Matrix: (Units=GPa)
#
#
# Indices 1 2 3 4 5 6 
#
# 1 156.5375 50.4575 17.5322 -0.0025 -27.9650 0.0004
# 2 50.4575 105.4634 27.9497 -0.0021 -0.1961 0.0006
# 3 17.5322 27.9497 40.2461 -0.0106 -16.2730 0.0020
# 4 -0.0025 -0.0021 -0.0106 8.7251 0.0034 0.0708
# 5 -27.9650 -0.1961 -16.2730 0.0034 25.3031 -0.0009
# 6 0.0004 0.0006 0.0020 0.0708 -0.0009 43.0771
#
#
#
# Elastic Compliance Matrix: (Units=1/GPa)
#
#
# Indices 1 2 3 4 5 6 
#
# 1 0.010715 -0.006832 0.006546 0.000003 0.015999 0.000000
# 2 -0.006832 0.016939 -0.015930 -0.000010 -0.017664 0.000000
# 3 0.006546 -0.015930 0.048562 0.000042 0.038342 -0.000001
# 4 0.000003 -0.000010 0.000042 0.114614 0.000015 -0.000188
# 5 0.015999 -0.017664 0.038342 0.000015 0.081725 0.000000
# 6 0.000000 0.000000 -0.000001 -0.000188 0.000000 0.023214
#
#
# Mechanical properties :
#
#
# Convention : Reuss Voigt Hill
#
# Bulk Modulus (GPa) = 22.83931 54.90288 38.87110
# Shear Modulus (GPa) = 14.58592 29.17490 21.88041
#
# Velocity S-wave (km/s) = 2.50844 3.54765 3.07230
# Velocity P-wave (km/s) = 4.27111 6.36127 5.41794
#
# Compressibility (1/GPa) = 0.04378415
#
# Stress axis : x y z
#
# Youngs Moduli (GPa) = 93.32323 59.03411 20.59243
#
# Poissons Ratio (x) = 0.40330 -0.13479
# Poissons Ratio (y) = 0.63755 0.32804
# Poissons Ratio (z) = -0.61085 0.94042
#
# Static dielectric constant tensor:
#      x y z
#    x 1.936670 0.000000 -0.070780 
#    y 0.000000 1.878340 0.000000 
#    z -0.070780 0.000000 2.039700 
# 
# From -- ./inp_files/68241.got.cif
#   From: 2010.05.17/outbox.cif.g08.bks.cpg/sg5_35_cif.got.tgz:68241.got - 2010.06.03 18:56:24.
