data_PCOD9129293
_publ_section_title
;
Structure prediction by ZEFSAII (Michael W. Deem and Ramdas Pophale) SiO2 
 PCOD9129293
Probable space group: C 2
;
_chemical_formula_sum "Si O2"
_cell_formula_units_Z 26
_cell_length_a 9.207383
_cell_length_b 11.385695
_cell_length_c 11.954021
_cell_angle_alpha 90.000000
_cell_angle_beta 121.627758
_cell_angle_gamma 90.000000
_cell_volume 1067.039852
_symmetry_space_group_name_H-M "C 2"
_symmetry_group_IT_number 5
_symmetry_cell_setting 'monoclinic'
loop_
_space_group_symop_operation_xyz
x,y,z
-x,y,-z
1/2+x,1/2+y,z
1/2-x,1/2+y,-z
loop_
_atom_site_type_symbol
_atom_site_label
_atom_site_fract_x
_atom_site_fract_y
_atom_site_fract_z
Si Si1 0.347983 0.528510 0.347567
Si Si2 0.040766 0.883992 0.798283
Si Si3 0.396734 0.809119 0.699918
Si Si4 0.194091 0.188998 0.116981
Si Si5 0.201031 0.715290 0.424019
Si Si6 0.786119 0.440181 0.209688
Si Si7 0.500000 0.034833 0.500000
O O1 0.500000 0.520318 0.500000
O O2 0.403681 0.502409 0.243295
O O3 0.212577 0.426982 0.322627
O O4 0.262042 0.653328 0.335654
O O5 0.196562 0.797021 0.888105
O O6 0.935473 0.813855 0.660021
O O7 0.907947 0.906922 0.842756
O O8 0.322877 0.716085 0.757465
O O9 0.354449 0.765214 0.559213
O O10 0.592281 0.843758 0.796090
O O11 0.284339 0.063102 0.141834
O O12 0.000000 0.185725 0.000000
O O13 0.111535 0.616627 0.463705
O O14 0.876376 0.463685 0.367063
#
# Coordination Sequence:
#
# PCOD9129293 Si02
#       7
#     4   4   4   4   4   4   2
#     4  11  21  36  58  92 137 169 200 243 309 386
#     4  11  24  41  64  96 129 168 209 259 322 389
#     4  11  23  41  66  95 131 171 213 259 323 390
#     4  11  26  47  67  88 123 171 226 280 322 368
#     4  12  21  36  63  96 138 167 203 252 320 393
#     4  12  24  42  67  99 132 167 213 263 325 386
#     4  12  18  38  62 100 134 168 196 252 318 392
#
# _framework density 24.366477
#
# number of rings (size 3 to 8) (size 9 to 14) (size 15 to 20)
#    0.000    0.615    6.154    2.769    2.154    1.231 
#    0.000    0.000    0.000    0.000    0.000    0.000 
#    0.000    0.000    0.000    0.000    0.000    0.000 
#
# Total GULP energy -72845.750073 kJ/mol
# GULP energy per Si atom -5603.519236 kJ/mol
# Density = 2.431102 g / cm^3
# Si number density = 24.366477 Si / 1000 Ang^3
#
#
#
# Elastic Constant Matrix: (Units=GPa)
#
#
# Indices 1 2 3 4 5 6 
#
# 1 115.4751 29.2322 2.8272 0.0000 20.2516 0.0000
# 2 29.2322 48.8889 4.0015 0.0000 6.4669 0.0000
# 3 2.8272 4.0015 75.6466 0.0000 21.4221 0.0000
# 4 0.0000 0.0000 0.0000 10.0112 0.0000 17.3828
# 5 20.2516 6.4669 21.4221 0.0000 21.6926 0.0000
# 6 0.0000 0.0000 0.0000 17.3828 0.0000 39.1861
#
#
#
# Elastic Compliance Matrix: (Units=1/GPa)
#
#
# Indices 1 2 3 4 5 6 
#
# 1 0.012437 -0.005957 0.003658 0.000000 -0.013447 0.000000
# 2 -0.005957 0.024195 -0.000818 0.000000 -0.000844 0.000000
# 3 0.003658 -0.000818 0.019468 0.000000 -0.022397 0.000000
# 4 0.000000 0.000000 0.000000 0.434745 0.000000 -0.192851
# 5 -0.013447 -0.000844 -0.022397 0.000000 0.081022 0.000000
# 6 0.000000 0.000000 0.000000 -0.192851 0.000000 0.111067
#
#
# Mechanical properties :
#
#
# Convention : Reuss Voigt Hill
#
# Bulk Modulus (GPa) = 20.05357 34.68137 27.36747
# Shear Modulus (GPa) = 7.08426 27.77463 17.42944
#
# Velocity S-wave (km/s) = 1.70695 3.37986 2.67742
# Velocity P-wave (km/s) = 3.48321 5.43097 4.56225
#
# Compressibility (1/GPa) = 0.04986644
#
# Stress axis : x y z
#
# Youngs Moduli (GPa) = 80.40759 41.33102 51.36508
#
# Poissons Ratio (x) = 0.24620 -0.18792
# Poissons Ratio (y) = 0.47898 0.04203
# Poissons Ratio (z) = -0.29417 0.03382
#
# Static dielectric constant tensor:
#      x y z
#    x 1.954290 0.000000 -0.009340 
#    y 0.000000 1.923360 0.000000 
#    z -0.009340 0.000000 1.924900 
# 
# From -- ./inp_files/50209.got.cif
#   From: 2010.05.17/outbox.cif.g08.bks.cpg/sg5_26_cif.got.tgz:50209.got - 2010.06.03 18:56:24.
