data_PCOD9129423
_publ_section_title
;
Structure prediction by ZEFSAII (Michael W. Deem and Ramdas Pophale) SiO2 
 PCOD9129423
Probable space group: C 2
;
_chemical_formula_sum "Si O2"
_cell_formula_units_Z 32
_cell_length_a 12.086769
_cell_length_b 7.581127
_cell_length_c 14.452652
_cell_angle_alpha 90.000000
_cell_angle_beta 88.007802
_cell_angle_gamma 90.000000
_cell_volume 1323.515280
_symmetry_space_group_name_H-M "C 2"
_symmetry_group_IT_number 5
_symmetry_cell_setting 'monoclinic'
loop_
_space_group_symop_operation_xyz
x,y,z
-x,y,-z
1/2+x,1/2+y,z
1/2-x,1/2+y,-z
loop_
_atom_site_type_symbol
_atom_site_label
_atom_site_fract_x
_atom_site_fract_y
_atom_site_fract_z
Si Si1 0.744027 0.496560 0.397803
Si Si2 0.459327 0.449699 0.714694
Si Si3 0.187904 0.867598 0.767138
Si Si4 0.097815 0.038119 0.951530
Si Si5 0.971816 0.364016 0.303759
Si Si6 0.186167 0.410302 0.398246
Si Si7 0.542490 0.913476 0.899385
Si Si8 0.787936 0.042718 0.865732
O O1 0.627181 0.415019 0.365876
O O2 0.847477 0.419091 0.336277
O O3 0.772703 0.470543 0.504192
O O4 0.724610 0.705934 0.388969
O O5 0.568098 0.330699 0.724005
O O6 0.507644 0.651099 0.703273
O O7 0.383674 0.438326 0.809074
O O8 0.252008 0.990168 0.692729
O O9 0.261375 0.703956 0.798412
O O10 0.161067 0.954272 0.865835
O O11 0.033843 0.203846 0.910998
O O12 0.177330 0.094367 0.032015
O O13 0.000000 0.921632 0.000000
O O14 0.004664 0.446858 0.202153
O O15 0.056722 0.425113 0.380899
O O16 0.672347 0.946350 0.883649
O O17 0.500000 0.987353 0.000000
#
# Coordination Sequence:
#
# PCOD9129423 Si02
#       8
#     4   4   4   4   4   4   4   4
#     4  11  25  50  72 106 139 189 239 297 365 423
#     4  11  23  46  74  99 143 187 231 297 352 423
#     4  12  24  45  72 107 139 188 240 291 355 420
#     4  11  23  40  71  98 140 191 230 280 357 423
#     4  11  21  47  75  97 142 187 233 290 359 425
#     4  11  27  46  74 107 143 183 243 303 355 430
#     4  11  23  41  67 102 139 188 233 289 358 415
#     4  12  23  46  65 104 148 178 238 292 344 429
#
# _framework density 24.178032999999999
#
# number of rings (size 3 to 8) (size 9 to 14) (size 15 to 20)
#    0.000    0.750    6.250    1.875    3.500    1.000 
#    9.000    0.000    0.000    0.000    0.000    0.000 
#    0.000    0.000    0.000    0.000    0.000    0.000 
#
# Total GULP energy -89370.539297 kJ/mol
# GULP energy per Si atom -5585.658706 kJ/mol
# Density = 2.412300 g / cm^3
# Si number density = 24.178033 Si / 1000 Ang^3
#
#
#
# Elastic Constant Matrix: (Units=GPa)
#
#
# Indices 1 2 3 4 5 6 
#
# 1 129.6592 8.1748 30.0193 0.0000 22.8901 0.0000
# 2 8.1748 27.2780 -0.9496 0.0000 1.3449 0.0000
# 3 30.0193 -0.9496 148.5675 0.0000 33.3018 0.0000
# 4 0.0000 0.0000 0.0000 -15.0694 0.0000 -3.7079
# 5 22.8901 1.3449 33.3018 0.0000 57.6472 0.0000
# 6 0.0000 0.0000 0.0000 -3.7079 0.0000 35.4367
#
#
#
# Elastic Compliance Matrix: (Units=1/GPa)
#
#
# Indices 1 2 3 4 5 6 
#
# 1 0.008612 -0.002488 -0.001152 0.000000 -0.002696 0.000000
# 2 -0.002488 0.037452 0.000823 0.000000 -0.000361 0.000000
# 3 -0.001152 0.000823 0.007893 0.000000 -0.004121 0.000000
# 4 0.000000 0.000000 0.000000 -0.064694 0.000000 -0.006769
# 5 -0.002696 -0.000361 -0.004121 0.000000 0.020807 0.000000
# 6 0.000000 0.000000 0.000000 -0.006769 0.000000 0.027511
#
#
# Mechanical properties :
#
#
# Convention : Reuss Voigt Hill
#
# Bulk Modulus (GPa) = 20.69402 42.22154 31.45778
# Shear Modulus (GPa) = 84.28690 33.48690 58.88690
#
# Velocity S-wave (km/s) = 5.91072 3.72561 4.94049
# Velocity P-wave (km/s) = 7.42696 6.00063 6.75157
#
# Compressibility (1/GPa) = 0.04832314
#
# Stress axis : x y z
#
# Youngs Moduli (GPa) = 116.11660 26.70108 126.69877
#
# Poissons Ratio (x) = 0.06643 0.14591
# Poissons Ratio (y) = 0.28891 -0.10428
# Poissons Ratio (z) = 0.13373 -0.02198
#
# Static dielectric constant tensor:
#      x y z
#    x 2.125540 0.000000 -0.141830 
#    y 0.000000 2.002230 0.000000 
#    z -0.141830 0.000000 2.092990 
# 
# From -- ./inp_files/52456.got.cif
#   From: 2010.05.17/outbox.cif.g08.bks.cpg/sg5_27_cif.got.tgz:52456.got - 2010.06.03 18:56:24.
