data_PCOD9129580
_publ_section_title
;
Structure prediction by ZEFSAII (Michael W. Deem and Ramdas Pophale) SiO2 
 PCOD9129580
Probable space group: C 2
;
_chemical_formula_sum "Si O2"
_cell_formula_units_Z 24
_cell_length_a 23.412235
_cell_length_b 9.163817
_cell_length_c 12.424618
_cell_angle_alpha 90.000000
_cell_angle_beta 25.177392
_cell_angle_gamma 90.000000
_cell_volume 1134.024678
_symmetry_space_group_name_H-M "C 2"
_symmetry_group_IT_number 5
_symmetry_cell_setting 'monoclinic'
loop_
_space_group_symop_operation_xyz
x,y,z
-x,y,-z
1/2+x,1/2+y,z
1/2-x,1/2+y,-z
loop_
_atom_site_type_symbol
_atom_site_label
_atom_site_fract_x
_atom_site_fract_y
_atom_site_fract_z
Si Si1 0.869117 0.112710 0.289802
Si Si2 0.492222 0.911104 0.893208
Si Si3 0.358276 0.122189 0.504187
Si Si4 0.340847 0.630690 0.751710
Si Si5 0.838448 0.476606 0.759916
Si Si6 0.310589 0.429356 0.599375
O O1 0.910184 0.271276 0.267860
O O2 0.746167 0.122766 0.417115
O O3 0.835590 0.003551 0.442474
O O4 0.000000 0.064169 0.000000
O O5 0.525950 0.019882 0.740376
O O6 0.500000 0.980142 0.000000
O O7 0.339420 0.863670 0.138630
O O8 0.402818 0.286957 0.454449
O O9 0.302030 0.049469 0.707846
O O10 0.500000 0.614040 0.500000
O O11 0.312060 0.803405 0.801056
O O12 0.319136 0.551417 0.675194
O O13 0.248912 0.551749 0.997770
O O14 0.000000 0.497908 0.500000
#
# Coordination Sequence:
#
# PCOD9129580 Si02
#       6
#     4   4   4   4   4   4
#     4  11  23  43  65  97 137 176 215 267 335 392
#     4  11  22  44  63  94 140 174 215 267 332 393
#     4  12  23  41  71  97 132 176 220 273 326 397
#     4  11  27  47  72  98 133 179 228 282 337 399
#     4  11  26  49  69  99 137 178 226 281 341 394
#     4  12  25  43  68  99 134 175 221 276 330 397
#
# _framework density 21.16356
#
# number of rings (size 3 to 8) (size 9 to 14) (size 15 to 20)
#    0.000    0.667    5.000    3.000    2.333    7.333 
#    3.000    0.000    0.000    0.000    0.000    0.000 
#    0.000    0.000    0.000    0.000    0.000    0.000 
#
# Total GULP energy -67091.500137 kJ/mol
# GULP energy per Si atom -5590.958345 kJ/mol
# Density = 2.111539 g / cm^3
# Si number density = 21.163560 Si / 1000 Ang^3
#
#
#
# Elastic Constant Matrix: (Units=GPa)
#
#
# Indices 1 2 3 4 5 6 
#
# 1 68.3151 57.2674 21.1309 0.0000 22.7508 0.0000
# 2 57.2674 156.1076 75.9116 0.0000 25.8531 0.0000
# 3 21.1309 75.9116 103.1957 0.0000 28.9899 0.0000
# 4 0.0000 0.0000 0.0000 35.1711 0.0000 11.2087
# 5 22.7508 25.8531 28.9899 0.0000 34.5515 0.0000
# 6 0.0000 0.0000 0.0000 11.2087 0.0000 33.0587
#
#
#
# Elastic Compliance Matrix: (Units=1/GPa)
#
#
# Indices 1 2 3 4 5 6 
#
# 1 0.026234 -0.010242 0.006361 0.000000 -0.014948 0.000000
# 2 -0.010242 0.014049 -0.009393 0.000000 0.004112 0.000000
# 3 0.006361 -0.009393 0.018971 0.000000 -0.013078 0.000000
# 4 0.000000 0.000000 0.000000 0.031877 0.000000 -0.010808
# 5 -0.014948 0.004112 -0.013078 0.000000 0.046681 0.000000
# 6 0.000000 0.000000 0.000000 -0.010808 0.000000 0.033914
#
#
# Mechanical properties :
#
#
# Convention : Reuss Voigt Hill
#
# Bulk Modulus (GPa) = 30.57378 70.69315 50.63346
# Shear Modulus (GPa) = 23.90342 32.11014 28.00678
#
# Velocity S-wave (km/s) = 3.36439 3.89940 3.64173
# Velocity P-wave (km/s) = 5.43783 7.33141 6.45444
#
# Compressibility (1/GPa) = 0.03270777
#
# Stress axis : x y z
#
# Youngs Moduli (GPa) = 38.11874 71.17707 52.71156
#
# Poissons Ratio (x) = 0.72896 -0.33531
# Poissons Ratio (y) = 0.39039 0.49512
# Poissons Ratio (z) = -0.24248 0.66857
#
# Static dielectric constant tensor:
#      x y z
#    x 1.765550 0.000000 -0.030000 
#    y 0.000000 1.748450 0.000000 
#    z -0.030000 0.000000 1.764660 
# 
# From -- ./inp_files/47222.got.cif
#   From: 2010.05.17/outbox.cif.g08.bks.cpg/sg5_24_cif.got.tgz:47222.got - 2010.06.03 18:56:24.
