data_PCOD9129737
_publ_section_title
;
Structure prediction by ZEFSAII (Michael W. Deem and Ramdas Pophale) SiO2 
 PCOD9129737
Probable space group: C 2
;
_chemical_formula_sum "Si O2"
_cell_formula_units_Z 18
_cell_length_a 23.595744
_cell_length_b 7.971840
_cell_length_c 7.074539
_cell_angle_alpha 90.000000
_cell_angle_beta 40.407424
_cell_angle_gamma 90.000000
_cell_volume 862.604785
_symmetry_space_group_name_H-M "C 2"
_symmetry_group_IT_number 5
_symmetry_cell_setting 'monoclinic'
loop_
_space_group_symop_operation_xyz
x,y,z
-x,y,-z
1/2+x,1/2+y,z
1/2-x,1/2+y,-z
loop_
_atom_site_type_symbol
_atom_site_label
_atom_site_fract_x
_atom_site_fract_y
_atom_site_fract_z
Si Si1 0.000000 0.988720 0.500000
Si Si2 0.072491 0.671830 0.166792
Si Si3 0.748403 0.841033 0.184562
Si Si4 0.089961 0.360925 0.871679
Si Si5 0.841972 0.187253 0.925665
O O1 0.965835 0.861097 0.748688
O O2 0.076957 0.100363 0.386552
O O3 0.000000 0.595288 0.500000
O O4 0.170358 0.712033 0.994245
O O5 0.079674 0.555259 0.966328
O O6 0.669888 0.821111 0.530236
O O7 0.709920 0.814382 0.073587
O O8 0.781524 0.029954 0.128714
O O9 0.114516 0.269090 0.003265
O O10 0.000000 0.311714 0.000000
#
# Coordination Sequence:
#
# PCOD9129737 Si02
#       5
#     2   4   4   4   4
#     4   8  20  40  66  90 132 174 214 264 330 398
#     4   9  22  45  65  96 134 177 221 265 339 392
#     4  11  24  43  70  99 135 178 220 282 328 399
#     4  12  26  39  68 101 137 174 227 273 331 397
#     4  11  23  42  68  95 137 175 224 269 338 392
#
# _framework density 20.867028000000001
#
# number of rings (size 3 to 8) (size 9 to 14) (size 15 to 20)
#    0.667    0.889    0.000    4.000    7.778    0.000 
#    0.000    8.889    0.000    0.000    0.000    0.000 
#    0.000    0.000    0.000    0.000    0.000    0.000 
#
# Total GULP energy -50160.795817 kJ/mol
# GULP energy per Si atom -5573.421757 kJ/mol
# Density = 2.081953 g / cm^3
# Si number density = 20.867028 Si / 1000 Ang^3
#
#
#
# Elastic Constant Matrix: (Units=GPa)
#
#
# Indices 1 2 3 4 5 6 
#
# 1 165.5898 53.7471 63.9769 0.0000 -7.9024 0.0000
# 2 53.7471 67.0832 17.0565 0.0000 -2.1705 0.0000
# 3 63.9769 17.0565 116.1580 0.0000 -25.6839 0.0000
# 4 0.0000 0.0000 0.0000 11.8671 0.0000 4.7594
# 5 -7.9024 -2.1705 -25.6839 0.0000 32.9502 0.0000
# 6 0.0000 0.0000 0.0000 4.7594 0.0000 29.9709
#
#
#
# Elastic Compliance Matrix: (Units=1/GPa)
#
#
# Indices 1 2 3 4 5 6 
#
# 1 0.010109 -0.006896 -0.004978 0.000000 -0.001910 0.000000
# 2 -0.006896 0.020211 0.000917 0.000000 0.000392 0.000000
# 3 -0.004978 0.000917 0.013249 0.000000 0.009194 0.000000
# 4 0.000000 0.000000 0.000000 0.089999 0.000000 -0.014292
# 5 -0.001910 0.000392 0.009194 0.000000 0.037083 0.000000
# 6 0.000000 0.000000 0.000000 -0.014292 0.000000 0.035635
#
#
# Mechanical properties :
#
#
# Convention : Reuss Voigt Hill
#
# Bulk Modulus (GPa) = 46.17571 68.71022 57.44297
# Shear Modulus (GPa) = 21.23886 29.22767 25.23326
#
# Velocity S-wave (km/s) = 3.19379 3.74660 3.48119
# Velocity P-wave (km/s) = 5.98139 7.19133 6.61408
#
# Compressibility (1/GPa) = 0.02165641
#
# Stress axis : x y z
#
# Youngs Moduli (GPa) = 98.91943 49.47735 75.47916
#
# Poissons Ratio (x) = 0.34118 0.37571
# Poissons Ratio (y) = 0.68212 -0.06921
# Poissons Ratio (z) = 0.49238 -0.04537
#
# Static dielectric constant tensor:
#      x y z
#    x 1.727830 0.000000 -0.031360 
#    y 0.000000 1.771240 0.000000 
#    z -0.031360 0.000000 1.806400 
# 
# From -- ./inp_files/7972.got.cif
#   From: 2010.05.17/outbox.cif.g08.bks.cpg/sg5_4_cif.got.tgz:7972.got - 2010.06.03 18:56:24.
