data_PCOD9129977
_publ_section_title
;
Structure prediction by ZEFSAII (Michael W. Deem and Ramdas Pophale) SiO2 
 PCOD9129977
Probable space group: C 2
;
_chemical_formula_sum "Si O2"
_cell_formula_units_Z 20
_cell_length_a 8.022986
_cell_length_b 7.194443
_cell_length_c 20.510249
_cell_angle_alpha 90.000000
_cell_angle_beta 42.604150
_cell_angle_gamma 90.000000
_cell_volume 801.396508
_symmetry_space_group_name_H-M "C 2"
_symmetry_group_IT_number 5
_symmetry_cell_setting 'monoclinic'
loop_
_space_group_symop_operation_xyz
x,y,z
-x,y,-z
1/2+x,1/2+y,z
1/2-x,1/2+y,-z
loop_
_atom_site_type_symbol
_atom_site_label
_atom_site_fract_x
_atom_site_fract_y
_atom_site_fract_z
Si Si1 0.600358 0.709910 0.763448
Si Si2 0.755312 0.601915 0.303479
Si Si3 0.472432 0.639881 0.935928
Si Si4 0.759189 0.461404 0.612107
Si Si5 0.071412 0.713658 0.884467
O O1 0.613780 0.743163 0.836844
O O2 0.326165 0.629509 0.835966
O O3 0.777910 0.569394 0.675768
O O4 0.018963 0.044465 0.643914
O O5 0.878427 0.402997 0.280912
O O6 0.759013 0.745529 0.361771
O O7 0.906923 0.690369 0.199541
O O8 0.568980 0.429543 0.905333
O O9 0.500000 0.721422 0.000000
O O10 0.176972 0.631084 0.015314
O O11 0.000000 0.491581 0.500000
#
# Coordination Sequence:
#
# PCOD9129977 Si02
#       5
#     4   4   4   4   4
#     4  11  26  48  74 106 157 199 259 324 393 478
#     4  11  26  48  80 109 158 200 261 325 399 473
#     4  12  24  40  70 104 153 196 262 312 391 469
#     4  11  28  50  80 119 151 204 264 329 406 473
#     4  11  24  44  65 108 146 203 250 316 387 473
#
# _framework density 24.956436
#
# number of rings (size 3 to 8) (size 9 to 14) (size 15 to 20)
#    0.000    0.800    2.000    4.200    8.400    2.400 
#    0.000    1.000    0.000    0.000    0.000    0.000 
#    0.000    0.000    0.000    0.000    0.000    0.000 
#
# Total GULP energy -55996.379723 kJ/mol
# GULP energy per Si atom -5599.637972 kJ/mol
# Density = 2.489963 g / cm^3
# Si number density = 24.956436 Si / 1000 Ang^3
#
#
#
# Elastic Constant Matrix: (Units=GPa)
#
#
# Indices 1 2 3 4 5 6 
#
# 1 76.0824 24.1276 47.2749 0.0000 -2.6162 0.0000
# 2 24.1276 111.4445 53.4615 0.0000 7.3625 0.0000
# 3 47.2749 53.4615 212.0152 0.0000 7.1671 0.0000
# 4 0.0000 0.0000 0.0000 31.7679 0.0000 -1.0932
# 5 -2.6162 7.3625 7.1671 0.0000 27.0174 0.0000
# 6 0.0000 0.0000 0.0000 -1.0932 0.0000 30.8997
#
#
#
# Elastic Compliance Matrix: (Units=1/GPa)
#
#
# Indices 1 2 3 4 5 6 
#
# 1 0.015845 -0.002141 -0.003093 0.000000 0.002938 0.000000
# 2 -0.002141 0.010619 -0.002114 0.000000 -0.002540 0.000000
# 3 -0.003093 -0.002114 0.005984 0.000000 -0.001311 0.000000
# 4 0.000000 0.000000 0.000000 0.031517 0.000000 0.001115
# 5 0.002938 -0.002540 -0.001311 0.000000 0.038338 0.000000
# 6 0.000000 0.000000 0.000000 0.001115 0.000000 0.032402
#
#
# Mechanical properties :
#
#
# Convention : Reuss Voigt Hill
#
# Bulk Modulus (GPa) = 56.33252 72.14112 64.23682
# Shear Modulus (GPa) = 32.19215 36.24887 34.22051
#
# Velocity S-wave (km/s) = 3.59546 3.81528 3.70700
# Velocity P-wave (km/s) = 6.31330 6.95544 6.64213
#
# Compressibility (1/GPa) = 0.01775174
#
# Stress axis : x y z
#
# Youngs Moduli (GPa) = 63.11023 94.17360 167.12121
#
# Poissons Ratio (x) = 0.20163 0.51684
# Poissons Ratio (y) = 0.13512 0.35335
# Poissons Ratio (z) = 0.19518 0.19911
#
# Static dielectric constant tensor:
#      x y z
#    x 2.131340 0.000000 -0.024230 
#    y 0.000000 1.978090 0.000000 
#    z -0.024230 0.000000 1.894740 
# 
# From -- ./inp_files/67890.got.cif
#   From: 2010.05.17/outbox.cif.g08.bks.cpg/sg5_34_cif.got.tgz:67890.got - 2010.06.03 18:56:24.
