data_PCOD9129184
_publ_section_title
;
Structure prediction by ZEFSAII (Michael W. Deem and Ramdas Pophale) SiO2 
 PCOD9129184
Probable space group: C 2
;
_chemical_formula_sum "Si O2"
_cell_formula_units_Z 24
_cell_length_a 7.553021
_cell_length_b 15.330947
_cell_length_c 14.465012
_cell_angle_alpha 90.000000
_cell_angle_beta 142.936453
_cell_angle_gamma 90.000000
_cell_volume 1009.508474
_symmetry_space_group_name_H-M "C 2"
_symmetry_group_IT_number 5
_symmetry_cell_setting 'monoclinic'
loop_
_space_group_symop_operation_xyz
x,y,z
-x,y,-z
1/2+x,1/2+y,z
1/2-x,1/2+y,-z
loop_
_atom_site_type_symbol
_atom_site_label
_atom_site_fract_x
_atom_site_fract_y
_atom_site_fract_z
Si Si1 0.812284 0.395450 0.516142
Si Si2 0.490913 0.624727 0.155867
Si Si3 0.095110 0.930114 0.142786
Si Si4 0.025462 0.745741 0.897226
Si Si5 0.083086 0.719856 0.352396
Si Si6 0.321409 0.582768 0.581632
O O1 0.631616 0.306636 0.434100
O O2 0.622645 0.483924 0.427851
O O3 0.000000 0.393620 0.500000
O O4 0.063080 0.401781 0.699820
O O5 0.555614 0.522230 0.175651
O O6 0.461654 0.630466 0.255273
O O7 0.752377 0.686299 0.230164
O O8 0.225209 0.659279 0.984374
O O9 0.896006 0.848351 0.091611
O O10 0.000000 0.949392 0.000000
O O11 0.849374 0.732864 0.727465
O O12 0.000000 0.756420 0.000000
O O13 0.269521 0.642615 0.473143
O O14 0.000000 0.582370 0.500000
#
# Coordination Sequence:
#
# PCOD9129184 Si02
#       6
#     4   4   4   4   4   4
#     4  11  19  39  64  93 123 165 218 255 316 382
#     4  11  22  43  66  95 128 166 214 260 317 381
#     4  11  22  40  64  90 127 176 206 253 324 390
#     4  11  25  40  62  96 128 171 213 260 315 377
#     4  11  21  37  70  96 121 166 216 266 306 379
#     4   9  19  36  61  93 123 165 204 252 319 373
#
# _framework density 23.773948000000001
#
# number of rings (size 3 to 8) (size 9 to 14) (size 15 to 20)
#    0.000    1.333    6.667    1.500    4.667    0.000 
#    0.000    3.333    0.000   11.000    0.000    0.000 
#    0.000    0.000    0.000    0.000    0.000    0.000 
#
# Total GULP energy -66807.108323 kJ/mol
# GULP energy per Si atom -5567.259027 kJ/mol
# Density = 2.371984 g / cm^3
# Si number density = 23.773948 Si / 1000 Ang^3
#
#
#
# Elastic Constant Matrix: (Units=GPa)
#
#
# Indices 1 2 3 4 5 6 
#
# 1 43.7833 22.2339 19.5343 0.0038 -18.0895 0.0013
# 2 22.2339 170.2684 34.7878 0.0003 -11.3488 -0.0001
# 3 19.5343 34.7878 136.0779 0.0086 -30.5621 0.0060
# 4 0.0038 0.0003 0.0086 48.2935 0.0047 -3.4492
# 5 -18.0895 -11.3488 -30.5621 0.0047 32.7088 0.0034
# 6 0.0013 -0.0001 0.0060 -3.4492 0.0034 7.4282
#
#
#
# Elastic Compliance Matrix: (Units=1/GPa)
#
#
# Indices 1 2 3 4 5 6 
#
# 1 0.031011 -0.002962 -0.000093 -0.000005 0.016036 -0.000015
# 2 -0.002962 0.006498 -0.001389 0.000001 -0.000681 0.000002
# 3 -0.000093 -0.001389 0.009615 -0.000003 0.008451 -0.000013
# 4 -0.000005 0.000001 -0.000003 0.021417 -0.000010 0.009945
# 5 0.016036 -0.000681 0.008451 -0.000010 0.047101 -0.000036
# 6 -0.000015 0.000002 -0.000013 0.009945 -0.000036 0.139240
#
#
# Mechanical properties :
#
#
# Convention : Reuss Voigt Hill
#
# Bulk Modulus (GPa) = 26.15295 55.91573 41.03434
# Shear Modulus (GPa) = 18.08219 35.92433 27.00326
#
# Velocity S-wave (km/s) = 2.76087 3.89148 3.37387
# Velocity P-wave (km/s) = 4.60302 6.61531 5.69869
#
# Compressibility (1/GPa) = 0.03823660
#
# Stress axis : x y z
#
# Youngs Moduli (GPa) = 32.24712 153.88849 104.00236
#
# Poissons Ratio (x) = 0.45575 0.00967
# Poissons Ratio (y) = 0.09550 0.14447
# Poissons Ratio (z) = 0.00300 0.21376
#
# Static dielectric constant tensor:
#      x y z
#    x 1.996520 0.000000 0.079430 
#    y 0.000000 1.911830 -0.000010 
#    z 0.079430 -0.000010 2.067370 
# 
# From -- ./inp_files/60505.got.cif
#   From: 2010.05.17/outbox.cif.g08.bks.cpg/sg5_31_cif.got.tgz:60505.got - 2010.06.03 18:56:24.
