data_PCOD9129528
_publ_section_title
;
Structure prediction by ZEFSAII (Michael W. Deem and Ramdas Pophale) SiO2 
 PCOD9129528
Probable space group: C 2
;
_chemical_formula_sum "Si O2"
_cell_formula_units_Z 28
_cell_length_a 11.334989
_cell_length_b 9.404639
_cell_length_c 13.079051
_cell_angle_alpha 90.000000
_cell_angle_beta 124.891147
_cell_angle_gamma 90.000000
_cell_volume 1143.616871
_symmetry_space_group_name_H-M "C 2"
_symmetry_group_IT_number 5
_symmetry_cell_setting 'monoclinic'
loop_
_space_group_symop_operation_xyz
x,y,z
-x,y,-z
1/2+x,1/2+y,z
1/2-x,1/2+y,-z
loop_
_atom_site_type_symbol
_atom_site_label
_atom_site_fract_x
_atom_site_fract_y
_atom_site_fract_z
Si Si1 0.542323 0.094770 0.257913
Si Si2 0.762040 0.223167 0.215767
Si Si3 0.221757 0.776412 0.779807
Si Si4 0.327647 0.018197 0.987751
Si Si5 0.247315 0.370385 0.435191
Si Si6 0.561118 0.614193 0.416124
Si Si7 0.654757 0.505709 0.101077
O O1 0.422585 0.197034 0.249570
O O2 0.612687 0.979270 0.366749
O O3 0.210810 0.041057 0.016862
O O4 0.470837 0.008130 0.127077
O O5 0.670863 0.160033 0.077444
O O6 0.674980 0.179635 0.273523
O O7 0.759733 0.391570 0.204244
O O8 0.917888 0.151133 0.281930
O O9 0.339196 0.649606 0.831282
O O10 0.280759 0.889375 0.891588
O O11 0.205532 0.845259 0.659855
O O12 0.500000 0.444920 0.000000
O O13 0.186602 0.224454 0.449473
O O14 0.500000 0.638011 0.500000
O O15 0.626158 0.455501 0.444356
#
# Coordination Sequence:
#
# PCOD9129528 Si02
#       7
#     4   4   4   4   4   4   4
#     4  11  24  47  76 108 153 197 242 311 374 447
#     4  12  24  47  73 104 155 197 249 306 375 450
#     4  11  25  44  74 115 149 197 251 304 373 455
#     4  11  22  41  72 107 155 196 241 297 375 458
#     4  12  29  51  79 108 145 199 254 324 369 446
#     4  12  28  54  77 108 144 200 259 315 384 431
#     4  11  24  38  68 118 151 197 239 303 377 453
#
# _framework density 24.483723000000001
#
# number of rings (size 3 to 8) (size 9 to 14) (size 15 to 20)
#    0.000    0.571    2.857    5.571    4.000    4.571 
#    2.571    0.000    0.000    0.000    0.000    0.000 
#    0.000    0.000    0.000    0.000    0.000    0.000 
#
# Total GULP energy -78349.294967 kJ/mol
# GULP energy per Si atom -5596.378212 kJ/mol
# Density = 2.442800 g / cm^3
# Si number density = 24.483723 Si / 1000 Ang^3
#
#
#
# Elastic Constant Matrix: (Units=GPa)
#
#
# Indices 1 2 3 4 5 6 
#
# 1 120.6475 29.4239 21.5585 0.0000 13.1257 0.0000
# 2 29.4239 130.9748 31.0347 0.0000 12.4708 0.0000
# 3 21.5585 31.0347 61.0538 0.0000 20.7585 0.0000
# 4 0.0000 0.0000 0.0000 32.7494 0.0000 16.3398
# 5 13.1257 12.4708 20.7585 0.0000 35.5390 0.0000
# 6 0.0000 0.0000 0.0000 16.3398 0.0000 32.0316
#
#
#
# Elastic Compliance Matrix: (Units=1/GPa)
#
#
# Indices 1 2 3 4 5 6 
#
# 1 0.009173 -0.001441 -0.001905 0.000000 -0.001770 0.000000
# 2 -0.001441 0.008917 -0.003919 0.000000 -0.000308 0.000000
# 3 -0.001905 -0.003919 0.022881 0.000000 -0.011286 0.000000
# 4 0.000000 0.000000 0.000000 0.040960 0.000000 -0.020894
# 5 -0.001770 -0.000308 -0.011286 0.000000 0.035492 0.000000
# 6 0.000000 0.000000 0.000000 -0.020894 0.000000 0.041878
#
#
# Mechanical properties :
#
#
# Convention : Reuss Voigt Hill
#
# Bulk Modulus (GPa) = 37.82026 52.96780 45.39403
# Shear Modulus (GPa) = 27.37573 35.44126 31.40849
#
# Velocity S-wave (km/s) = 3.34746 3.80879 3.58555
# Velocity P-wave (km/s) = 5.51555 6.40495 5.97681
#
# Compressibility (1/GPa) = 0.02644085
#
# Stress axis : x y z
#
# Youngs Moduli (GPa) = 109.01657 112.14929 43.70402
#
# Poissons Ratio (x) = 0.16159 0.08325
# Poissons Ratio (y) = 0.15708 0.17128
# Poissons Ratio (z) = 0.20767 0.43953
#
# Static dielectric constant tensor:
#      x y z
#    x 2.024830 0.000000 0.062110 
#    y 0.000000 1.932620 0.000000 
#    z 0.062110 0.000000 1.986800 
# 
# From -- ./inp_files/52294.got.cif
#   From: 2010.05.17/outbox.cif.g08.bks.cpg/sg5_27_cif.got.tgz:52294.got - 2010.06.03 18:56:24.
