data_PCOD9129413
_publ_section_title
;
Structure prediction by ZEFSAII (Michael W. Deem and Ramdas Pophale) SiO2 
 PCOD9129413
Probable space group: C 2
;
_chemical_formula_sum "Si O2"
_cell_formula_units_Z 20
_cell_length_a 8.109060
_cell_length_b 17.339302
_cell_length_c 7.942062
_cell_angle_alpha 90.000000
_cell_angle_beta 124.478333
_cell_angle_gamma 90.000000
_cell_volume 920.538467
_symmetry_space_group_name_H-M "C 2"
_symmetry_group_IT_number 5
_symmetry_cell_setting 'monoclinic'
loop_
_space_group_symop_operation_xyz
x,y,z
-x,y,-z
1/2+x,1/2+y,z
1/2-x,1/2+y,-z
loop_
_atom_site_type_symbol
_atom_site_label
_atom_site_fract_x
_atom_site_fract_y
_atom_site_fract_z
Si Si1 0.419735 0.825500 0.135486
Si Si2 0.455045 0.990316 0.776405
Si Si3 0.000074 0.819140 0.819086
Si Si4 0.323408 0.706269 0.508370
Si Si5 0.000000 0.604932 0.500000
Si Si6 0.500000 0.432563 0.500000
O O1 0.430810 0.911686 0.217392
O O2 0.561279 0.771531 0.321926
O O3 0.500000 0.844945 0.000000
O O4 0.216917 0.781949 0.967765
O O5 0.213301 0.976850 0.622997
O O6 0.524537 0.054087 0.682750
O O7 0.500000 0.008797 0.000000
O O8 0.998776 0.877249 0.663346
O O9 0.832346 0.754845 0.696379
O O10 0.000000 0.861695 0.000000
O O11 0.500000 0.666812 0.500000
O O12 0.192352 0.656144 0.560497
#
# Coordination Sequence:
#
# PCOD9129413 Si02
#       6
#     4   4   4   4   2   2
#     4  11  21  44  77 109 137 187 251 314 363 433
#     4  11  26  48  75 108 151 196 252 307 372 445
#     4  12  23  40  77 115 141 182 249 313 373 425
#     4  12  26  49  73 109 152 197 249 307 369 448
#     4  12  31  50  72 105 162 208 240 302 381 446
#     4  12  23  42  76 113 150 180 246 316 369 440
#
# _framework density 21.726414999999999
#
# number of rings (size 3 to 8) (size 9 to 14) (size 15 to 20)
#    0.000    0.400    8.000    1.800    5.600    0.800 
#    3.600    2.000    0.000    0.000    0.000    0.000 
#    0.000    0.000    0.000    0.000    0.000    0.000 
#
# Total GULP energy -55730.893419 kJ/mol
# GULP energy per Si atom -5573.089342 kJ/mol
# Density = 2.167696 g / cm^3
# Si number density = 21.726415 Si / 1000 Ang^3
#
#
#
# Elastic Constant Matrix: (Units=GPa)
#
#
# Indices 1 2 3 4 5 6 
#
# 1 151.8557 66.7328 63.6883 0.0000 7.4359 0.0000
# 2 66.7328 84.2496 58.1178 0.0000 -4.3277 0.0000
# 3 63.6883 58.1178 158.8287 0.0000 4.7503 0.0000
# 4 0.0000 0.0000 0.0000 -85.1365 0.0000 -132.1675
# 5 7.4359 -4.3277 4.7503 0.0000 62.0291 0.0000
# 6 0.0000 0.0000 0.0000 -132.1675 0.0000 -13.5770
#
#
#
# Elastic Compliance Matrix: (Units=1/GPa)
#
#
# Indices 1 2 3 4 5 6 
#
# 1 0.010545 -0.007432 -0.001459 0.000000 -0.001671 0.000000
# 2 -0.007432 0.021266 -0.004884 0.000000 0.002749 0.000000
# 3 -0.001459 -0.004884 0.008693 0.000000 -0.000832 0.000000
# 4 0.000000 0.000000 0.000000 0.000832 0.000000 -0.008102
# 5 -0.001671 0.002749 -0.000832 0.000000 0.016577 0.000000
# 6 0.000000 0.000000 0.000000 -0.008102 0.000000 0.005219
#
#
# Mechanical properties :
#
#
# Convention : Reuss Voigt Hill
#
# Bulk Modulus (GPa) = 77.19008 85.77909 81.48458
# Shear Modulus (GPa) = 52.63154 6.42280 29.52717
#
# Velocity S-wave (km/s) = 4.92720 1.72123 3.69052
# Velocity P-wave (km/s) = 8.24470 6.59677 7.46634
#
# Compressibility (1/GPa) = 0.01295503
#
# Stress axis : x y z
#
# Youngs Moduli (GPa) = 94.83370 47.02291 115.03461
#
# Poissons Ratio (x) = 0.34946 0.16783
# Poissons Ratio (y) = 0.70478 0.56181
# Poissons Ratio (z) = 0.13836 0.22965
#
# Static dielectric constant tensor:
#      x y z
#    x 2.011270 0.000000 0.041460 
#    y 0.000000 1.828580 0.000000 
#    z 0.041460 0.000000 1.836670 
# 
# From -- ./inp_files/15533.got.cif
#   From: 2010.05.17/outbox.cif.g08.bks.cpg/sg5_8_cif.got.tgz:15533.got - 2010.06.03 18:56:24.
