data_PCOD9129117
_publ_section_title
;
Structure prediction by ZEFSAII (Michael W. Deem and Ramdas Pophale) SiO2 
 PCOD9129117
Probable space group: C 2
;
_chemical_formula_sum "Si O2"
_cell_formula_units_Z 32
_cell_length_a 17.718624
_cell_length_b 9.188561
_cell_length_c 16.308509
_cell_angle_alpha 90.000000
_cell_angle_beta 24.330656
_cell_angle_gamma 90.000000
_cell_volume 1093.933742
_symmetry_space_group_name_H-M "C 2"
_symmetry_group_IT_number 5
_symmetry_cell_setting 'monoclinic'
loop_
_space_group_symop_operation_xyz
x,y,z
-x,y,-z
1/2+x,1/2+y,z
1/2-x,1/2+y,-z
loop_
_atom_site_type_symbol
_atom_site_label
_atom_site_fract_x
_atom_site_fract_y
_atom_site_fract_z
Si Si1 0.843411 0.268840 0.419196
Si Si2 0.071724 0.938022 0.314061
Si Si3 0.235973 0.902307 0.689273
Si Si4 0.335894 0.964875 0.276040
Si Si5 0.660207 0.181117 0.913574
Si Si6 0.406291 0.219108 0.837611
Si Si7 0.904463 0.062950 0.935830
Si Si8 0.767268 0.703609 0.739495
O O1 0.855236 0.324806 0.500860
O O2 0.888121 0.402323 0.313013
O O3 0.972428 0.145407 0.253683
O O4 0.629141 0.218899 0.617766
O O5 0.081622 0.786284 0.353667
O O6 0.874353 0.008343 0.505696
O O7 0.199561 0.048718 0.234159
O O8 0.135204 0.875158 0.164301
O O9 0.034351 0.592915 0.884124
O O10 0.202946 0.803496 0.803241
O O11 0.043258 0.937699 0.833047
O O12 0.318811 0.827333 0.233020
O O13 0.686409 0.228964 0.981585
O O14 0.302983 0.086930 0.894025
O O15 0.310341 0.057628 0.645971
O O16 0.873996 0.150020 0.051127
#
# Coordination Sequence:
#
# PCOD9129117 Si02
#       8
#     4   4   4   4   4   4   4   4
#     4  11  27  51  84 124 174 241 299 361 450 549
#     4  10  26  52  89 128 180 245 306 374 463 566
#     4  12  30  53  90 140 185 229 310 396 457 546
#     4  11  25  53  90 125 177 247 304 362 461 554
#     4  12  30  53  90 137 184 238 306 390 463 540
#     4  10  27  49  84 129 174 238 302 364 451 554
#     4  11  26  56  87 117 175 239 289 367 454 542
#     4  11  25  53  92 122 171 242 298 373 458 549
#
# _framework density 29.252230000000001
#
# number of rings (size 3 to 8) (size 9 to 14) (size 15 to 20)
#    0.000    1.000    1.250    2.250   10.500    3.000 
#    2.250    6.875    0.000    0.000    0.000    0.000 
#    0.000    0.000    0.000    0.000    0.000    0.000 
#
# Total GULP energy -89647.210992 kJ/mol
# GULP energy per Si atom -5602.950687 kJ/mol
# Density = 2.918565 g / cm^3
# Si number density = 29.252230 Si / 1000 Ang^3
#
#
#
# Elastic Constant Matrix: (Units=GPa)
#
#
# Indices 1 2 3 4 5 6 
#
# 1 149.7236 86.4149 65.5009 -0.0002 21.3163 0.0000
# 2 86.4149 183.2211 47.6604 0.0000 26.6398 0.0000
# 3 65.5009 47.6604 139.2948 -0.0003 39.2249 0.0003
# 4 -0.0002 0.0000 -0.0003 54.8734 0.0002 17.0882
# 5 21.3163 26.6398 39.2249 0.0002 78.4427 -0.0001
# 6 0.0000 0.0000 0.0003 17.0882 -0.0001 62.2878
#
#
#
# Elastic Compliance Matrix: (Units=1/GPa)
#
#
# Indices 1 2 3 4 5 6 
#
# 1 0.010604 -0.004094 -0.003684 0.000000 0.000351 0.000000
# 2 -0.004094 0.007666 -0.000324 0.000000 -0.001329 0.000000
# 3 -0.003684 -0.000324 0.010137 0.000000 -0.003958 0.000000
# 4 0.000000 0.000000 0.000000 0.019926 0.000000 -0.005467
# 5 0.000351 -0.001329 -0.003958 0.000000 0.015083 0.000000
# 6 0.000000 0.000000 0.000000 -0.005467 0.000000 0.017554
#
#
# Mechanical properties :
#
#
# Convention : Reuss Voigt Hill
#
# Bulk Modulus (GPa) = 81.94792 96.82134 89.38463
# Shear Modulus (GPa) = 49.38705 57.29833 53.34269
#
# Velocity S-wave (km/s) = 4.11337 4.43060 4.27493
# Velocity P-wave (km/s) = 7.11582 7.70352 7.41549
#
# Compressibility (1/GPa) = 0.01220287
#
# Stress axis : x y z
#
# Youngs Moduli (GPa) = 94.30799 130.44374 98.65113
#
# Poissons Ratio (x) = 0.53401 0.36346
# Poissons Ratio (y) = 0.38607 0.03193
# Poissons Ratio (z) = 0.34746 0.04222
#
# Static dielectric constant tensor:
#      x y z
#    x 2.417410 0.000000 0.038410 
#    y 0.000000 2.361440 0.000000 
#    z 0.038410 0.000000 2.348190 
# 
# From -- ./inp_files/56116.got.cif
#   From: 2010.05.17/outbox.cif.g08.bks.cpg/sg5_29_cif.got.tgz:56116.got - 2010.06.03 18:56:24.
