data_PCOD9129836
_publ_section_title
;
Structure prediction by ZEFSAII (Michael W. Deem and Ramdas Pophale) SiO2 
 PCOD9129836
Probable space group: C 2
;
_chemical_formula_sum "Si O2"
_cell_formula_units_Z 24
_cell_length_a 5.787255
_cell_length_b 20.949761
_cell_length_c 11.529083
_cell_angle_alpha 90.000000
_cell_angle_beta 53.905578
_cell_angle_gamma 90.000000
_cell_volume 1129.492130
_symmetry_space_group_name_H-M "C 2"
_symmetry_group_IT_number 5
_symmetry_cell_setting 'monoclinic'
loop_
_space_group_symop_operation_xyz
x,y,z
-x,y,-z
1/2+x,1/2+y,z
1/2-x,1/2+y,-z
loop_
_atom_site_type_symbol
_atom_site_label
_atom_site_fract_x
_atom_site_fract_y
_atom_site_fract_z
Si Si1 0.563966 0.737470 0.845665
Si Si2 0.000000 0.229937 0.500000
Si Si3 0.703638 0.634910 0.643060
Si Si4 0.158785 0.906106 0.118566
Si Si5 0.500000 0.290627 0.000000
Si Si6 0.152794 0.052121 0.077663
Si Si7 0.502989 0.333956 0.635286
O O1 0.756824 0.682386 0.736050
O O2 0.248475 0.743187 0.887236
O O3 0.706211 0.802696 0.763589
O O4 0.500000 0.732578 0.000000
O O5 0.934531 0.182405 0.412067
O O6 0.740218 0.280368 0.592100
O O7 0.500803 0.583572 0.764601
O O8 0.000000 0.610872 0.500000
O O9 0.002950 0.898123 0.288686
O O10 0.086728 0.976609 0.096745
O O11 0.500000 0.904238 0.000000
O O12 0.059791 0.841609 0.083124
O O13 0.500000 0.061012 0.000000
O O14 0.000000 0.075917 0.000000
O O15 0.500000 0.345056 0.500000
#
# Coordination Sequence:
#
# PCOD9129836 Si02
#       7
#     4   2   4   4   2   4   4
#     4  12  23  38  66 101 133 176 234 285 356 426
#     4  12  24  42  68  96 148 182 220 292 364 436
#     4  12  27  46  69 100 145 187 236 299 360 429
#     4  11  23  45  69  98 136 179 233 294 348 423
#     4  12  20  36  72  96 132 172 224 288 360 412
#     4  11  28  52  76 104 141 194 253 301 349 422
#     4  12  23  42  63 104 143 180 222 290 363 432
#
# _framework density 21.248487000000001
#
# number of rings (size 3 to 8) (size 9 to 14) (size 15 to 20)
#    0.000    0.333    7.500    1.500    3.500    0.000 
#    3.000    0.000    0.000    0.000    0.000    0.000 
#    0.000    0.000    0.000    0.000    0.000    0.000 
#
# Total GULP energy -66813.743810 kJ/mol
# GULP energy per Si atom -5567.811984 kJ/mol
# Density = 2.120012 g / cm^3
# Si number density = 21.248487 Si / 1000 Ang^3
#
#
#
# Elastic Constant Matrix: (Units=GPa)
#
#
# Indices 1 2 3 4 5 6 
#
# 1 77.7423 19.9026 63.4627 0.0000 2.3384 0.0000
# 2 19.9026 69.7839 52.7823 0.0000 -1.5648 0.0000
# 3 63.4627 52.7823 181.0777 0.0000 10.0231 0.0000
# 4 0.0000 0.0000 0.0000 24.3805 0.0000 27.6893
# 5 2.3384 -1.5648 10.0231 0.0000 40.9593 0.0000
# 6 0.0000 0.0000 0.0000 27.6893 0.0000 -2.7887
#
#
#
# Elastic Compliance Matrix: (Units=1/GPa)
#
#
# Indices 1 2 3 4 5 6 
#
# 1 0.018039 -0.000426 -0.006224 0.000000 0.000477 0.000000
# 2 -0.000426 0.018563 -0.005375 0.000000 0.002049 0.000000
# 3 -0.006224 -0.005375 0.009390 0.000000 -0.002148 0.000000
# 4 0.000000 0.000000 0.000000 0.003341 0.000000 0.033173
# 5 0.000477 0.002049 -0.002148 0.000000 0.024991 0.000000
# 6 0.000000 0.000000 0.000000 0.033173 0.000000 -0.029209
#
#
# Mechanical properties :
#
#
# Convention : Reuss Voigt Hill
#
# Bulk Modulus (GPa) = 45.57800 66.76657 56.17228
# Shear Modulus (GPa) = 65.37811 25.34065 45.35938
#
# Velocity S-wave (km/s) = 5.55294 3.45713 4.62531
# Velocity P-wave (km/s) = 7.91265 6.88663 7.41740
#
# Compressibility (1/GPa) = 0.02194041
#
# Stress axis : x y z
#
# Youngs Moduli (GPa) = 55.43613 53.87105 106.50159
#
# Poissons Ratio (x) = 0.02296 0.66289
# Poissons Ratio (y) = 0.02363 0.57244
# Poissons Ratio (z) = 0.34505 0.28955
#
# Static dielectric constant tensor:
#      x y z
#    x 1.997560 0.000000 0.073540 
#    y 0.000000 1.760660 0.000000 
#    z 0.073540 0.000000 1.823380 
# 
# From -- ./inp_files/33858.got.cif
#   From: 2010.05.17/outbox.cif.g08.bks.cpg/sg5_17_cif.got.tgz:33858.got - 2010.06.03 18:56:24.
