data_PCOD9129730
_publ_section_title
;
Structure prediction by ZEFSAII (Michael W. Deem and Ramdas Pophale) SiO2 
 PCOD9129730
Probable space group: C 2
;
_chemical_formula_sum "Si O2"
_cell_formula_units_Z 32
_cell_length_a 14.890977
_cell_length_b 22.626417
_cell_length_c 9.358488
_cell_angle_alpha 90.000000
_cell_angle_beta 151.920595
_cell_angle_gamma 90.000000
_cell_volume 1484.171337
_symmetry_space_group_name_H-M "C 2"
_symmetry_group_IT_number 5
_symmetry_cell_setting 'monoclinic'
loop_
_space_group_symop_operation_xyz
x,y,z
-x,y,-z
1/2+x,1/2+y,z
1/2-x,1/2+y,-z
loop_
_atom_site_type_symbol
_atom_site_label
_atom_site_fract_x
_atom_site_fract_y
_atom_site_fract_z
Si Si1 0.184850 0.408630 0.866008
Si Si2 0.406016 0.987346 0.637805
Si Si3 0.424980 0.481704 0.636209
Si Si4 0.695184 0.565700 0.107459
Si Si5 0.060062 0.196948 0.929116
Si Si6 0.729643 0.058280 0.125768
Si Si7 0.699269 0.771868 0.868617
Si Si8 0.703357 0.181051 0.218597
O O1 0.240430 0.340196 0.956673
O O2 0.000000 0.410021 0.500000
O O3 0.078328 0.441980 0.845866
O O4 0.385601 0.441483 0.111426
O O5 0.248837 0.956102 0.515419
O O6 0.318473 0.020854 0.376613
O O7 0.513425 0.041801 0.861921
O O8 0.352814 0.511419 0.389191
O O9 0.483859 0.538657 0.813227
O O10 0.673608 0.634768 0.110608
O O11 0.755834 0.557729 0.026226
O O12 0.182137 0.238295 0.995085
O O13 0.863317 0.190230 0.563857
O O14 0.000000 0.220370 0.000000
O O15 0.777949 0.124258 0.237628
O O16 0.500000 0.770370 0.500000
O O17 0.825659 0.734929 0.934223
O O18 0.500000 0.168645 0.000000
#
# Coordination Sequence:
#
# PCOD9129730 Si02
#       8
#     4   4   4   4   4   4   4   4
#     4  11  23  44  70  99 137 185 234 279 335 402
#     4  12  25  43  67 105 135 181 226 279 341 412
#     4  12  24  41  68 100 140 174 224 283 337 406
#     4  12  23  40  66  98 140 174 215 277 352 402
#     4  11  23  42  69  99 134 175 222 282 348 401
#     4  12  24  42  68 100 141 178 219 280 350 416
#     4   9  22  46  70  91 132 185 231 277 333 399
#     4  11  23  42  67 102 132 174 229 278 338 416
#
# _framework density 21.560853000000002
#
# number of rings (size 3 to 8) (size 9 to 14) (size 15 to 20)
#    0.000    0.750    5.000    3.000    1.750    0.000 
#    6.750    1.875    2.750    0.000    0.000    0.000 
#    0.000    0.000    0.000    0.000    0.000    0.000 
#
# Total GULP energy -89185.900895 kJ/mol
# GULP energy per Si atom -5574.118806 kJ/mol
# Density = 2.151178 g / cm^3
# Si number density = 21.560853 Si / 1000 Ang^3
#
#
#
# Elastic Constant Matrix: (Units=GPa)
#
#
# Indices 1 2 3 4 5 6 
#
# 1 147.0378 51.6622 44.6207 0.0000 1.4424 0.0000
# 2 51.6622 125.3883 23.1375 0.0000 3.9050 0.0000
# 3 44.6207 23.1375 79.0972 0.0000 2.4938 0.0000
# 4 0.0000 0.0000 0.0000 20.4374 0.0000 2.1406
# 5 1.4424 3.9050 2.4938 0.0000 41.9180 0.0000
# 6 0.0000 0.0000 0.0000 2.1406 0.0000 13.2638
#
#
#
# Elastic Compliance Matrix: (Units=1/GPa)
#
#
# Indices 1 2 3 4 5 6 
#
# 1 0.009151 -0.002984 -0.004296 0.000000 0.000219 0.000000
# 2 -0.002984 0.009421 -0.001050 0.000000 -0.000712 0.000000
# 3 -0.004296 -0.001050 0.015395 0.000000 -0.000670 0.000000
# 4 0.000000 0.000000 0.000000 0.049771 0.000000 -0.008033
# 5 0.000219 -0.000712 -0.000670 0.000000 0.023955 0.000000
# 6 0.000000 0.000000 0.000000 -0.008033 0.000000 0.076689
#
#
# Mechanical properties :
#
#
# Convention : Reuss Voigt Hill
#
# Bulk Modulus (GPa) = 57.78490 65.59600 61.69045
# Shear Modulus (GPa) = 24.17662 30.59738 27.38700
#
# Velocity S-wave (km/s) = 3.35224 3.77120 3.56788
# Velocity P-wave (km/s) = 6.46857 7.03224 6.75628
#
# Compressibility (1/GPa) = 0.01730556
#
# Stress axis : x y z
#
# Youngs Moduli (GPa) = 109.27522 106.14844 64.95826
#
# Poissons Ratio (x) = 0.31680 0.27908
# Poissons Ratio (y) = 0.32613 0.06819
# Poissons Ratio (z) = 0.46948 0.11142
#
# Static dielectric constant tensor:
#      x y z
#    x 1.879440 0.000000 -0.014020 
#    y 0.000000 1.796590 0.000000 
#    z -0.014020 0.000000 1.865100 
# 
# From -- ./inp_files/25670.got.cif
#   From: 2010.05.17/outbox.cif.g08.bks.cpg/sg5_13_cif.got.tgz:25670.got - 2010.06.03 18:56:24.
