data_PCOD9129750
_publ_section_title
;
Structure prediction by ZEFSAII (Michael W. Deem and Ramdas Pophale) SiO2 
 PCOD9129750
Probable space group: C 2
;
_chemical_formula_sum "Si O2"
_cell_formula_units_Z 20
_cell_length_a 12.720789
_cell_length_b 13.167532
_cell_length_c 5.988188
_cell_angle_alpha 90.000000
_cell_angle_beta 107.214002
_cell_angle_gamma 90.000000
_cell_volume 958.100200
_symmetry_space_group_name_H-M "C 2"
_symmetry_group_IT_number 5
_symmetry_cell_setting 'monoclinic'
loop_
_space_group_symop_operation_xyz
x,y,z
-x,y,-z
1/2+x,1/2+y,z
1/2-x,1/2+y,-z
loop_
_atom_site_type_symbol
_atom_site_label
_atom_site_fract_x
_atom_site_fract_y
_atom_site_fract_z
Si Si1 0.115235 0.798710 0.172862
Si Si2 0.500000 0.535022 0.500000
Si Si3 0.774580 0.932983 0.411640
Si Si4 0.385922 0.101382 0.532320
Si Si5 0.500000 0.633150 0.000000
Si Si6 0.266567 0.727401 0.875309
O O1 0.182718 0.890099 0.324591
O O2 0.085243 0.706547 0.321921
O O3 0.196855 0.747525 0.050821
O O4 0.000000 0.835575 0.000000
O O5 0.387606 0.474490 0.377733
O O6 0.523459 0.585045 0.266789
O O7 0.735976 0.832433 0.261649
O O8 0.679682 0.017101 0.367737
O O9 0.500000 0.061955 0.500000
O O10 0.298130 0.138920 0.294918
O O11 0.609204 0.695655 0.014033
#
# Coordination Sequence:
#
# PCOD9129750 Si02
#       6
#     4   2   4   4   2   4
#     4  11  23  42  71  95 136 181 235 282 347 422
#     4  12  26  48  74 104 144 190 240 288 350 428
#     4  11  26  41  69 104 135 181 241 290 349 417
#     4  11  23  45  66  98 136 179 227 286 351 417
#     4  12  28  48  74 102 150 188 232 296 358 418
#     4  11  25  45  68 100 138 187 230 291 353 419
#
# _framework density 20.874645999999998
#
# number of rings (size 3 to 8) (size 9 to 14) (size 15 to 20)
#    0.000    0.800    4.000    2.400    9.800    3.200 
#    1.800    0.000    0.000    0.000    0.000    0.000 
#    0.000    0.000    0.000    0.000    0.000    0.000 
#
# Total GULP energy -55787.515407 kJ/mol
# GULP energy per Si atom -5578.751541 kJ/mol
# Density = 2.082713 g / cm^3
# Si number density = 20.874646 Si / 1000 Ang^3
#
#
#
# Elastic Constant Matrix: (Units=GPa)
#
#
# Indices 1 2 3 4 5 6 
#
# 1 75.1772 26.4857 -1.6135 0.0000 14.9041 0.0000
# 2 26.4857 63.4213 5.1780 0.0000 4.5218 0.0000
# 3 -1.6135 5.1780 56.7368 0.0000 0.1632 0.0000
# 4 0.0000 0.0000 0.0000 -2.3107 0.0000 10.2214
# 5 14.9041 4.5218 0.1632 0.0000 34.4845 0.0000
# 6 0.0000 0.0000 0.0000 10.2214 0.0000 50.0500
#
#
#
# Elastic Compliance Matrix: (Units=1/GPa)
#
#
# Indices 1 2 3 4 5 6 
#
# 1 0.016974 -0.006719 0.001114 0.000000 -0.006460 0.000000
# 2 -0.006719 0.018696 -0.001899 0.000000 0.000461 0.000000
# 3 0.001114 -0.001899 0.017831 0.000000 -0.000317 0.000000
# 4 0.000000 0.000000 0.000000 -0.227368 0.000000 0.046434
# 5 -0.006460 0.000461 -0.000317 0.000000 0.031732 0.000000
# 6 0.000000 0.000000 0.000000 0.046434 0.000000 0.010497
#
#
# Mechanical properties :
#
#
# Convention : Reuss Voigt Hill
#
# Bulk Modulus (GPa) = 25.97781 28.38175 27.17978
# Shear Modulus (GPa) = -48.16916 27.46375 -10.35270
#
# Velocity S-wave (km/s) = -4.80890 3.63113 -2.22940
# Velocity P-wave (km/s) = 4.28513 5.58622 2.53412
#
# Compressibility (1/GPa) = 0.03849439
#
# Stress axis : x y z
#
# Youngs Moduli (GPa) = 58.91456 53.48853 56.08171
#
# Poissons Ratio (x) = 0.35938 -0.06250
# Poissons Ratio (y) = 0.39584 0.10648
# Poissons Ratio (z) = -0.06566 0.10156
#
# Static dielectric constant tensor:
#      x y z
#    x 1.701770 0.000000 -0.033380 
#    y 0.000000 1.759700 0.000000 
#    z -0.033380 0.000000 1.828170 
# 
# From -- ./inp_files/4638.got.cif
#   From: 2010.05.17/outbox.cif.g08.bks.cpg/sg5_3_cif.got.tgz:4638.got - 2010.06.03 18:56:24.
