data_PCOD9129651
_publ_section_title
;
Structure prediction by ZEFSAII (Michael W. Deem and Ramdas Pophale) SiO2 
 PCOD9129651
Probable space group: C 2
;
_chemical_formula_sum "Si O2"
_cell_formula_units_Z 32
_cell_length_a 27.274883
_cell_length_b 11.737083
_cell_length_c 8.462880
_cell_angle_alpha 90.000000
_cell_angle_beta 33.867076
_cell_angle_gamma 90.000000
_cell_volume 1509.751295
_symmetry_space_group_name_H-M "C 2"
_symmetry_group_IT_number 5
_symmetry_cell_setting 'monoclinic'
loop_
_space_group_symop_operation_xyz
x,y,z
-x,y,-z
1/2+x,1/2+y,z
1/2-x,1/2+y,-z
loop_
_atom_site_type_symbol
_atom_site_label
_atom_site_fract_x
_atom_site_fract_y
_atom_site_fract_z
Si Si1 0.157749 0.505470 0.098742
Si Si2 0.755353 0.866608 0.300121
Si Si3 0.914403 0.722787 0.826521
Si Si4 0.598207 0.754470 0.196356
Si Si5 0.591451 0.242319 0.789752
Si Si6 0.230115 0.608694 0.216121
Si Si7 0.094980 0.216181 0.828847
Si Si8 0.671248 0.465533 0.565712
O O1 0.099767 0.587655 0.144610
O O2 0.114054 0.381294 0.224009
O O3 0.172033 0.582126 0.216777
O O4 0.252996 0.487413 0.764571
O O5 0.665815 0.795997 0.552115
O O6 0.783199 0.905719 0.403549
O O7 0.750078 0.983510 0.223176
O O8 0.825568 0.788724 0.019277
O O9 0.000000 0.756135 0.500000
O O10 0.917619 0.754704 0.999874
O O11 0.500000 0.713447 0.500000
O O12 0.678686 0.677505 0.045980
O O13 0.599847 0.751756 0.000417
O O14 0.672956 0.173220 0.502303
O O15 0.602869 0.369618 0.689364
O O16 0.500000 0.181592 0.000000
O O17 0.126835 0.084704 0.730292
O O18 0.000000 0.227580 0.000000
#
# Coordination Sequence:
#
# PCOD9129651 Si02
#       8
#     4   4   4   4   4   4   4   4
#     4  12  25  43  75  96 141 188 238 291 354 414
#     4  11  24  45  71  97 140 187 231 288 352 425
#     4  11  24  43  71 104 136 176 237 291 350 425
#     4  12  28  48  68 108 150 182 237 304 350 425
#     4  11  24  45  71 100 142 182 233 292 355 423
#     4  12  27  45  71 100 142 190 234 286 360 416
#     4  12  26  46  76 105 142 190 238 288 366 434
#     4  11  22  47  73  99 137 189 233 294 355 420
#
# _framework density 21.195544000000002
#
# number of rings (size 3 to 8) (size 9 to 14) (size 15 to 20)
#    0.000    0.500    5.000    3.000    5.250    2.000 
#    0.000    0.000    0.000    0.000    0.000    0.000 
#    0.000    0.000    0.000    0.000    0.000    0.000 
#
# Total GULP energy -89349.334692 kJ/mol
# GULP energy per Si atom -5584.333418 kJ/mol
# Density = 2.114730 g / cm^3
# Si number density = 21.195544 Si / 1000 Ang^3
#
#
#
# Elastic Constant Matrix: (Units=GPa)
#
#
# Indices 1 2 3 4 5 6 
#
# 1 36.4342 0.0787 8.5148 0.0000 -12.1144 0.0000
# 2 0.0787 116.9487 37.2775 0.0000 -19.2092 0.0000
# 3 8.5148 37.2775 138.8393 0.0000 -20.4814 0.0000
# 4 0.0000 0.0000 0.0000 8.5310 0.0000 -9.3900
# 5 -12.1144 -19.2092 -20.4814 0.0000 38.0927 0.0000
# 6 0.0000 0.0000 0.0000 -9.3900 0.0000 40.6484
#
#
#
# Elastic Compliance Matrix: (Units=1/GPa)
#
#
# Indices 1 2 3 4 5 6 
#
# 1 0.031113 0.001976 -0.000904 0.000000 0.010405 0.000000
# 2 0.001976 0.009970 -0.002133 0.000000 0.004509 0.000000
# 3 -0.000904 -0.002133 0.008287 0.000000 0.003093 0.000000
# 4 0.000000 0.000000 0.000000 0.157186 0.000000 0.036311
# 5 0.010405 0.004509 0.003093 0.000000 0.033498 0.000000
# 6 0.000000 0.000000 0.000000 0.036311 0.000000 0.032989
#
#
# Mechanical properties :
#
#
# Convention : Reuss Voigt Hill
#
# Bulk Modulus (GPa) = 21.16420 42.66270 31.91345
# Shear Modulus (GPa) = 17.18725 33.87784 25.53255
#
# Velocity S-wave (km/s) = 2.85070 4.00227 3.47453
# Velocity P-wave (km/s) = 4.56533 6.44433 5.58443
#
# Compressibility (1/GPa) = 0.04724959
#
# Stress axis : x y z
#
# Youngs Moduli (GPa) = 32.14042 100.30147 120.67260
#
# Poissons Ratio (x) = -0.19822 0.10906
# Poissons Ratio (y) = -0.06352 0.25738
# Poissons Ratio (z) = 0.02905 0.21393
#
# Static dielectric constant tensor:
#      x y z
#    x 1.903780 0.000000 -0.092890 
#    y 0.000000 1.731640 0.000000 
#    z -0.092890 0.000000 1.753500 
# 
# From -- ./inp_files/32630.got.cif
#   From: 2010.05.17/outbox.cif.g08.bks.cpg/sg5_17_cif.got.tgz:32630.got - 2010.06.03 18:56:24.
