data_PCOD9129244
_publ_section_title
;
Structure prediction by ZEFSAII (Michael W. Deem and Ramdas Pophale) SiO2 
 PCOD9129244
Probable space group: C 2
;
_chemical_formula_sum "Si O2"
_cell_formula_units_Z 30
_cell_length_a 14.011620
_cell_length_b 6.926819
_cell_length_c 24.227904
_cell_angle_alpha 90.000000
_cell_angle_beta 153.215643
_cell_angle_gamma 90.000000
_cell_volume 1059.648493
_symmetry_space_group_name_H-M "C 2"
_symmetry_group_IT_number 5
_symmetry_cell_setting 'monoclinic'
loop_
_space_group_symop_operation_xyz
x,y,z
-x,y,-z
1/2+x,1/2+y,z
1/2-x,1/2+y,-z
loop_
_atom_site_type_symbol
_atom_site_label
_atom_site_fract_x
_atom_site_fract_y
_atom_site_fract_z
Si Si1 0.603820 0.040980 0.654887
Si Si2 0.934070 0.547397 0.687105
Si Si3 0.000000 0.080117 0.500000
Si Si4 0.039116 0.037767 0.848817
Si Si5 0.423876 0.994354 0.022132
Si Si6 0.341175 0.580351 0.304259
Si Si7 0.664341 0.593803 0.373648
Si Si8 0.325078 0.420462 0.958907
O O1 0.407537 0.053873 0.512508
O O2 0.813278 0.149260 0.744311
O O3 0.531746 0.103098 0.678675
O O4 0.668157 0.812943 0.690671
O O5 0.722650 0.666342 0.592163
O O6 0.856113 0.326144 0.640558
O O7 0.120540 0.520005 0.827833
O O8 0.092634 0.990158 0.603705
O O9 0.232262 0.868538 0.941855
O O10 0.954298 0.003675 0.739741
O O11 0.068998 0.009236 0.933477
O O12 0.262363 0.191789 0.942075
O O13 0.500000 0.962832 0.000000
O O14 0.617443 0.028521 0.161370
O O15 0.524588 0.541235 0.355132
O O16 0.500000 0.397746 0.000000
#
# Coordination Sequence:
#
# PCOD9129244 Si02
#       8
#     4   4   2   4   4   4   4   4
#     4  11  23  41  66  97 126 168 215 266 310 373
#     4  11  23  44  63  90 136 167 211 261 317 386
#     4  12  26  40  62  92 128 184 202 250 336 376
#     4  12  22  36  70  92 120 162 222 256 316 376
#     4  11  20  40  64  89 120 165 210 253 315 382
#     4  11  23  44  63  90 136 167 211 261 317 386
#     4  11  23  41  66  97 126 168 215 266 310 373
#     4  11  20  40  64  89 120 165 210 253 315 382
#
# _framework density 28.311274999999998
#
# number of rings (size 3 to 8) (size 9 to 14) (size 15 to 20)
#    0.000    0.800    6.667    2.800    3.733    0.000 
#    0.000    0.000    0.000    4.000    0.000    0.000 
#    0.000    0.000    0.000    0.000    0.000    0.000 
#
# Total GULP energy -83727.699422 kJ/mol
# GULP energy per Si atom -5581.846628 kJ/mol
# Density = 2.824684 g / cm^3
# Si number density = 28.311275 Si / 1000 Ang^3
#
#
#
# Elastic Constant Matrix: (Units=GPa)
#
#
# Indices 1 2 3 4 5 6 
#
# 1 257.0055 5.3804 100.8689 0.0002 -3.6929 0.0000
# 2 5.3804 118.3139 45.6494 0.0001 -3.3225 0.0000
# 3 100.8689 45.6494 292.9137 0.0020 4.2183 0.0003
# 4 0.0002 0.0001 0.0020 12.0095 0.0002 -10.6391
# 5 -3.6929 -3.3225 4.2183 0.0002 74.4068 -0.0001
# 6 0.0000 0.0000 0.0003 -10.6391 -0.0001 4.3511
#
#
#
# Elastic Compliance Matrix: (Units=1/GPa)
#
#
# Indices 1 2 3 4 5 6 
#
# 1 0.004527 0.000433 -0.001631 0.000000 0.000336 0.000000
# 2 0.000433 0.009052 -0.001567 0.000000 0.000515 -0.000001
# 3 -0.001631 -0.001567 0.004226 0.000001 -0.000390 0.000002
# 4 0.000000 0.000000 0.000001 -0.071404 0.000000 -0.174596
# 5 0.000336 0.000515 -0.000390 0.000000 0.013501 0.000000
# 6 0.000000 -0.000001 0.000002 -0.174596 0.000000 -0.197086
#
#
# Mechanical properties :
#
#
# Convention : Reuss Voigt Hill
#
# Bulk Modulus (GPa) = 81.47832 108.00339 94.74085
# Shear Modulus (GPa) = -21.97196 52.57578 15.30191
#
# Velocity S-wave (km/s) = -2.78885 4.31404 2.32736
# Velocity P-wave (km/s) = 4.29787 7.94015 6.38426
#
# Compressibility (1/GPa) = 0.01227320
#
# Stress axis : x y z
#
# Youngs Moduli (GPa) = 220.89857 110.47876 236.65422
#
# Poissons Ratio (x) = -0.04783 0.38604
# Poissons Ratio (y) = -0.09564 0.37087
# Poissons Ratio (z) = 0.36034 0.17314
#
# Static dielectric constant tensor:
#      x y z
#    x 2.270540 0.000000 0.067140 
#    y 0.000000 2.564970 0.000000 
#    z 0.067140 0.000000 2.091120 
# 
# From -- ./inp_files/46490.got.cif
#   From: 2010.05.17/outbox.cif.g08.bks.cpg/sg5_24_cif.got.tgz:46490.got - 2010.06.03 18:56:24.
