data_PCOD9129265
_publ_section_title
;
Structure prediction by ZEFSAII (Michael W. Deem and Ramdas Pophale) SiO2 
 PCOD9129265
Probable space group: C 2
;
_chemical_formula_sum "Si O2"
_cell_formula_units_Z 32
_cell_length_a 17.650449
_cell_length_b 12.356964
_cell_length_c 15.332857
_cell_angle_alpha 90.000000
_cell_angle_beta 26.643374
_cell_angle_gamma 90.000000
_cell_volume 1499.653586
_symmetry_space_group_name_H-M "C 2"
_symmetry_group_IT_number 5
_symmetry_cell_setting 'monoclinic'
loop_
_space_group_symop_operation_xyz
x,y,z
-x,y,-z
1/2+x,1/2+y,z
1/2-x,1/2+y,-z
loop_
_atom_site_type_symbol
_atom_site_label
_atom_site_fract_x
_atom_site_fract_y
_atom_site_fract_z
Si Si1 0.114425 0.232890 0.791385
Si Si2 0.573206 0.848490 0.183247
Si Si3 0.701028 0.019641 0.453998
Si Si4 0.698301 0.300224 0.712783
Si Si5 0.707675 0.508936 0.152893
Si Si6 0.319550 0.237690 0.070358
Si Si7 0.650117 0.606464 0.522431
Si Si8 0.694321 0.953777 0.769898
O O1 0.250212 0.134478 0.643872
O O2 0.219479 0.342981 0.693725
O O3 0.004061 0.266857 0.815750
O O4 0.000000 0.219387 0.000000
O O5 0.682648 0.788911 0.145995
O O6 0.459635 0.947313 0.343655
O O7 0.714325 0.918408 0.987097
O O8 0.792269 0.051134 0.449055
O O9 0.777859 0.928077 0.313252
O O10 0.731020 0.257972 0.776805
O O11 0.821964 0.234655 0.519941
O O12 0.509555 0.281910 0.871719
O O13 0.831740 0.610861 0.037046
O O14 0.535919 0.564043 0.301417
O O15 0.688690 0.458099 0.267074
O O16 0.768825 0.555894 0.326573
O O17 0.500000 0.954757 0.000000
#
# Coordination Sequence:
#
# PCOD9129265 Si02
#       8
#     4   4   4   4   4   4   4   4
#     4  11  24  46  76 104 148 196 238 295 374 437
#     4  12  25  47  73 105 145 191 249 303 357 441
#     4  12  25  43  72 100 144 192 238 294 365 433
#     4  11  25  45  71 100 140 185 234 300 362 428
#     4  12  23  42  69 106 141 185 239 307 351 434
#     4  11  25  43  71 103 136 183 243 292 364 422
#     4  12  24  41  74 106 138 183 248 295 360 426
#     4  11  20  42  70 100 135 185 235 295 359 421
#
# _framework density 21.338260999999999
#
# number of rings (size 3 to 8) (size 9 to 14) (size 15 to 20)
#    0.000    0.500    5.000    4.875    1.750    1.500 
#    2.250    0.000    5.500    0.000    0.000    0.000 
#    0.000    0.000    0.000    0.000    0.000    0.000 
#
# Total GULP energy -89068.731822 kJ/mol
# GULP energy per Si atom -5566.795739 kJ/mol
# Density = 2.128969 g / cm^3
# Si number density = 21.338261 Si / 1000 Ang^3
#
#
#
# Elastic Constant Matrix: (Units=GPa)
#
#
# Indices 1 2 3 4 5 6 
#
# 1 116.5511 41.3598 25.7246 -0.0001 3.9032 0.0001
# 2 41.3598 143.4352 34.5925 -0.0001 -7.5873 0.0001
# 3 25.7246 34.5925 92.4778 -0.0003 -2.1567 0.0002
# 4 -0.0001 -0.0001 -0.0003 29.1605 0.0000 3.5001
# 5 3.9032 -7.5873 -2.1567 0.0000 24.0056 0.0000
# 6 0.0001 0.0001 0.0002 3.5001 0.0000 34.9788
#
#
#
# Elastic Compliance Matrix: (Units=1/GPa)
#
#
# Indices 1 2 3 4 5 6 
#
# 1 0.009993 -0.002566 -0.001881 0.000000 -0.002605 0.000000
# 2 -0.002566 0.008436 -0.002375 0.000000 0.002870 0.000000
# 3 -0.001881 -0.002375 0.012240 0.000000 0.000655 0.000000
# 4 0.000000 0.000000 0.000000 0.034710 0.000000 -0.003473
# 5 -0.002605 0.002870 0.000655 0.000000 0.043046 0.000000
# 6 0.000000 0.000000 0.000000 -0.003473 0.000000 0.028936
#
#
# Mechanical properties :
#
#
# Convention : Reuss Voigt Hill
#
# Bulk Modulus (GPa) = 58.73236 61.75755 60.24496
# Shear Modulus (GPa) = 31.91218 34.34812 33.13015
#
# Velocity S-wave (km/s) = 3.87141 4.01645 3.94460
# Velocity P-wave (km/s) = 6.89695 7.10733 7.00293
#
# Compressibility (1/GPa) = 0.01702639
#
# Stress axis : x y z
#
# Youngs Moduli (GPa) = 100.07296 118.53667 81.69758
#
# Poissons Ratio (x) = 0.30412 0.15365
# Poissons Ratio (y) = 0.25675 0.19404
# Poissons Ratio (z) = 0.18821 0.28153
#
# Static dielectric constant tensor:
#      x y z
#    x 1.783710 0.000000 0.042710 
#    y 0.000000 1.760690 0.000000 
#    z 0.042710 0.000000 1.848960 
# 
# From -- ./inp_files/56022.got.cif
#   From: 2010.05.17/outbox.cif.g08.bks.cpg/sg5_29_cif.got.tgz:56022.got - 2010.06.03 18:56:24.
