data_PCOD9129705
_publ_section_title
;
Structure prediction by ZEFSAII (Michael W. Deem and Ramdas Pophale) SiO2 
 PCOD9129705
Probable space group: C 2
;
_chemical_formula_sum "Si O2"
_cell_formula_units_Z 20
_cell_length_a 8.588454
_cell_length_b 21.354769
_cell_length_c 8.725824
_cell_angle_alpha 90.000000
_cell_angle_beta 32.048895
_cell_angle_gamma 90.000000
_cell_volume 849.216802
_symmetry_space_group_name_H-M "C 2"
_symmetry_group_IT_number 5
_symmetry_cell_setting 'monoclinic'
loop_
_space_group_symop_operation_xyz
x,y,z
-x,y,-z
1/2+x,1/2+y,z
1/2-x,1/2+y,-z
loop_
_atom_site_type_symbol
_atom_site_label
_atom_site_fract_x
_atom_site_fract_y
_atom_site_fract_z
Si Si1 0.234631 0.298030 0.104694
Si Si2 0.700806 0.568987 0.689341
Si Si3 0.877046 0.845297 0.451132
Si Si4 0.193548 0.158223 0.188686
Si Si5 0.705937 0.986286 0.678450
O O1 0.259504 0.224182 0.050451
O O2 0.890890 0.311682 0.412784
O O3 0.500000 0.309591 0.000000
O O4 0.331075 0.345667 0.892478
O O5 0.485041 0.614320 0.775899
O O6 0.832336 0.519799 0.454252
O O7 0.000000 0.601055 0.500000
O O8 0.500000 0.544538 0.000000
O O9 0.000000 0.811399 0.500000
O O10 0.770935 0.914281 0.582458
O O11 0.000000 0.173385 0.500000
O O12 0.500000 0.131955 0.000000
O O13 0.000000 0.017019 0.500000
O O14 0.500000 0.987926 0.000000
#
# Coordination Sequence:
#
# PCOD9129705 Si02
#       5
#     4   4   4   4   4
#     4  11  23  41  66  98 132 173 222 275 336 401
#     4  12  27  44  68 105 137 174 232 299 347 386
#     4  11  23  41  67  98 132 173 221 275 336 401
#     4  11  24  46  69  93 133 188 232 271 338 424
#     4  11  24  46  71  98 137 188 230 270 341 430
#
# _framework density 23.551110999999999
#
# number of rings (size 3 to 8) (size 9 to 14) (size 15 to 20)
#    0.000    0.800    0.000    9.000    0.000    6.400 
#    0.000    0.000    0.000    0.000    0.000    0.000 
#    0.000    0.000    0.000    0.000    0.000    0.000 
#
# Total GULP energy -55777.165419 kJ/mol
# GULP energy per Si atom -5577.716542 kJ/mol
# Density = 2.349751 g / cm^3
# Si number density = 23.551111 Si / 1000 Ang^3
#
#
#
# Elastic Constant Matrix: (Units=GPa)
#
#
# Indices 1 2 3 4 5 6 
#
# 1 130.0918 41.7220 44.5540 0.0000 -23.3250 0.0000
# 2 41.7220 67.9280 29.9718 0.0000 12.2025 0.0000
# 3 44.5540 29.9718 177.4013 0.0000 12.6579 0.0000
# 4 0.0000 0.0000 0.0000 27.4650 0.0000 -0.8167
# 5 -23.3250 12.2025 12.6579 0.0000 52.4793 0.0000
# 6 0.0000 0.0000 0.0000 -0.8167 0.0000 20.1690
#
#
#
# Elastic Compliance Matrix: (Units=1/GPa)
#
#
# Indices 1 2 3 4 5 6 
#
# 1 0.012526 -0.008097 -0.002350 0.000000 0.008017 0.000000
# 2 -0.008097 0.021654 -0.001027 0.000000 -0.008386 0.000000
# 3 -0.002350 -0.001027 0.006571 0.000000 -0.002391 0.000000
# 4 0.000000 0.000000 0.000000 0.036454 0.000000 0.001476
# 5 0.008017 -0.008386 -0.002391 0.000000 0.025145 0.000000
# 6 0.000000 0.000000 0.000000 0.001476 0.000000 0.049641
#
#
# Mechanical properties :
#
#
# Convention : Reuss Voigt Hill
#
# Bulk Modulus (GPa) = 56.16560 67.54629 61.85594
# Shear Modulus (GPa) = 27.64394 37.30087 32.47241
#
# Velocity S-wave (km/s) = 3.42977 3.98405 3.71726
# Velocity P-wave (km/s) = 6.29163 7.06445 6.68921
#
# Compressibility (1/GPa) = 0.01780449
#
# Stress axis : x y z
#
# Youngs Moduli (GPa) = 79.83564 46.18092 152.18088
#
# Poissons Ratio (x) = 0.37391 0.35761
# Poissons Ratio (y) = 0.64640 0.15623
# Poissons Ratio (z) = 0.18760 0.04741
#
# Static dielectric constant tensor:
#      x y z
#    x 2.050090 0.000000 0.208930 
#    y 0.000000 1.867960 0.000000 
#    z 0.208930 0.000000 2.209900 
# 
# From -- ./inp_files/17253.got.cif
#   From: 2010.05.17/outbox.cif.g08.bks.cpg/sg5_9_cif.got.tgz:17253.got - 2010.06.03 18:56:24.
