data_PCOD9129631
_publ_section_title
;
Structure prediction by ZEFSAII (Michael W. Deem and Ramdas Pophale) SiO2 
 PCOD9129631
Probable space group: C 2
;
_chemical_formula_sum "Si O2"
_cell_formula_units_Z 30
_cell_length_a 12.948772
_cell_length_b 13.253185
_cell_length_c 8.094285
_cell_angle_alpha 90.000000
_cell_angle_beta 108.846419
_cell_angle_gamma 90.000000
_cell_volume 1314.608686
_symmetry_space_group_name_H-M "C 2"
_symmetry_group_IT_number 5
_symmetry_cell_setting 'monoclinic'
loop_
_space_group_symop_operation_xyz
x,y,z
-x,y,-z
1/2+x,1/2+y,z
1/2-x,1/2+y,-z
loop_
_atom_site_type_symbol
_atom_site_label
_atom_site_fract_x
_atom_site_fract_y
_atom_site_fract_z
Si Si1 0.195054 0.736060 0.000359
Si Si2 0.871728 0.736720 0.416316
Si Si3 0.591061 0.439487 0.941210
Si Si4 0.687833 0.016131 0.095777
Si Si5 0.298033 0.033257 0.508057
Si Si6 0.420551 0.444565 0.589097
Si Si7 0.070476 0.321904 0.881250
Si Si8 0.000000 0.402955 0.500000
O O1 0.172283 0.733132 0.792410
O O2 0.138951 0.836926 0.044261
O O3 0.152373 0.630694 0.046718
O O4 0.323692 0.752721 0.093211
O O5 0.813480 0.652021 0.493895
O O6 0.860098 0.849337 0.477575
O O7 0.000000 0.712828 0.500000
O O8 0.691841 0.500677 0.920996
O O9 0.511811 0.401052 0.755882
O O10 0.500000 0.497487 0.000000
O O11 0.692529 0.002966 0.294857
O O12 0.614789 0.931285 0.969832
O O13 0.176264 0.008028 0.383902
O O14 0.392043 0.973141 0.458998
O O15 0.500000 0.501409 0.500000
O O16 0.010247 0.340002 0.675670
O O17 0.000000 0.283011 0.000000
#
# Coordination Sequence:
#
# PCOD9129631 Si02
#       8
#     4   4   4   4   4   4   4   2
#     4  11  25  45  66 105 139 178 237 290 353 420
#     4  11  23  43  71 101 136 183 235 291 350 417
#     4  11  25  43  69  98 134 183 227 285 357 412
#     4  11  25  45  67 101 141 182 233 296 348 415
#     4  12  25  43  73 105 141 184 241 289 351 422
#     4  11  22  46  70  95 135 179 230 290 347 407
#     4  11  25  48  71 100 142 188 232 295 354 418
#     4  12  26  44  74 104 138 196 240 286 354 430
#
# _framework density 22.820478999999999
#
# number of rings (size 3 to 8) (size 9 to 14) (size 15 to 20)
#    0.000    0.800    6.000    1.600    7.467    1.067 
#    0.000    0.000    1.467    0.000    0.000    0.000 
#    0.000    0.000    0.000    0.000    0.000    0.000 
#
# Total GULP energy -83817.944392 kJ/mol
# GULP energy per Si atom -5587.862959 kJ/mol
# Density = 2.276854 g / cm^3
# Si number density = 22.820479 Si / 1000 Ang^3
#
#
#
# Elastic Constant Matrix: (Units=GPa)
#
#
# Indices 1 2 3 4 5 6 
#
# 1 117.1449 5.6475 -6.5069 0.0000 -2.1992 0.0000
# 2 5.6475 57.7588 -12.2766 0.0000 8.9939 0.0000
# 3 -6.5069 -12.2766 71.8292 0.0000 2.8193 0.0000
# 4 0.0000 0.0000 0.0000 10.0464 0.0000 -4.8352
# 5 -2.1992 8.9939 2.8193 0.0000 34.2521 0.0000
# 6 0.0000 0.0000 0.0000 -4.8352 0.0000 18.3486
#
#
#
# Elastic Compliance Matrix: (Units=1/GPa)
#
#
# Indices 1 2 3 4 5 6 
#
# 1 0.008624 -0.000825 0.000612 0.000000 0.000720 0.000000
# 2 -0.000825 0.018936 0.003370 0.000000 -0.005303 0.000000
# 3 0.000612 0.003370 0.014634 0.000000 -0.002050 0.000000
# 4 0.000000 0.000000 0.000000 0.113996 0.000000 0.030040
# 5 0.000720 -0.005303 -0.002050 0.000000 0.030803 0.000000
# 6 0.000000 0.000000 0.000000 0.030040 0.000000 0.062416
#
#
# Mechanical properties :
#
#
# Convention : Reuss Voigt Hill
#
# Bulk Modulus (GPa) = 20.61586 24.49565 22.55576
# Shear Modulus (GPa) = 19.28532 29.85400 24.56966
#
# Velocity S-wave (km/s) = 2.91019 3.62084 3.28479
# Velocity P-wave (km/s) = 4.51064 5.31395 4.92869
#
# Compressibility (1/GPa) = 0.04850635
#
# Stress axis : x y z
#
# Youngs Moduli (GPa) = 115.95912 52.80947 68.33515
#
# Poissons Ratio (x) = 0.04358 -0.04181
# Poissons Ratio (y) = 0.09570 -0.23028
# Poissons Ratio (z) = -0.07096 -0.17796
#
# Static dielectric constant tensor:
#      x y z
#    x 1.874000 0.000000 -0.061900 
#    y 0.000000 1.827640 0.000000 
#    z -0.061900 0.000000 1.923040 
# 
# From -- ./inp_files/20702.got.cif
#   From: 2010.05.17/outbox.cif.g08.bks.cpg/sg5_11_cif.got.tgz:20702.got - 2010.06.03 18:56:24.
