data_PCOD9129473
_publ_section_title
;
Structure prediction by ZEFSAII (Michael W. Deem and Ramdas Pophale) SiO2 
 PCOD9129473
Probable space group: C 2
;
_chemical_formula_sum "Si O2"
_cell_formula_units_Z 32
_cell_length_a 19.291867
_cell_length_b 11.742129
_cell_length_c 19.759575
_cell_angle_alpha 90.000000
_cell_angle_beta 158.417169
_cell_angle_gamma 90.000000
_cell_volume 1646.511063
_symmetry_space_group_name_H-M "C 2"
_symmetry_group_IT_number 5
_symmetry_cell_setting 'monoclinic'
loop_
_space_group_symop_operation_xyz
x,y,z
-x,y,-z
1/2+x,1/2+y,z
1/2-x,1/2+y,-z
loop_
_atom_site_type_symbol
_atom_site_label
_atom_site_fract_x
_atom_site_fract_y
_atom_site_fract_z
Si Si1 0.951705 0.665330 0.879616
Si Si2 0.958730 0.112032 0.780034
Si Si3 0.071652 0.389810 0.747380
Si Si4 0.392127 0.673791 0.514038
Si Si5 0.300003 0.540423 0.135432
Si Si6 0.892754 0.625190 0.624453
Si Si7 0.745814 0.788812 0.043926
Si Si8 0.044485 0.932287 0.964100
O O1 0.000523 0.798878 0.915885
O O2 0.727329 0.660927 0.662471
O O3 0.094474 0.595646 0.960518
O O4 0.000000 0.631342 0.000000
O O5 0.091488 0.074718 0.836244
O O6 0.756962 0.152279 0.570648
O O7 0.939094 0.006769 0.812554
O O8 0.076536 0.213683 0.920176
O O9 0.961755 0.298757 0.601318
O O10 0.952011 0.493769 0.668610
O O11 0.173263 0.325456 0.902676
O O12 0.235339 0.445655 0.851573
O O13 0.567681 0.591150 0.685749
O O14 0.232367 0.640157 0.422976
O O15 0.283220 0.405271 0.117112
O O16 0.068795 0.710251 0.787503
O O17 0.000000 0.966065 0.000000
#
# Coordination Sequence:
#
# PCOD9129473 Si02
#       8
#     4   4   4   4   4   4   4   4
#     4  11  24  44  64  90 129 168 206 260 320 378
#     4  11  22  40  62  93 127 162 208 262 308 379
#     4  12  21  39  63  96 131 163 209 260 318 379
#     4  11  23  37  62  98 125 162 208 258 315 374
#     4  11  23  38  64  92 123 168 209 262 311 368
#     4  11  24  35  63  95 126 163 203 264 314 371
#     4  12  21  38  63  90 129 160 206 260 318 360
#     4  11  22  41  66  92 130 170 203 261 321 374
#
# _framework density 19.435036
#
# number of rings (size 3 to 8) (size 9 to 14) (size 15 to 20)
#    0.000    0.750    6.250    3.000    3.500    1.500 
#    0.000    2.500    0.000    1.500    0.000    0.000 
#    0.000    0.000    0.000    0.000    0.000    0.000 
#
# Total GULP energy -89351.206952 kJ/mol
# GULP energy per Si atom -5584.450434 kJ/mol
# Density = 1.939080 g / cm^3
# Si number density = 19.435036 Si / 1000 Ang^3
#
#
#
# Elastic Constant Matrix: (Units=GPa)
#
#
# Indices 1 2 3 4 5 6 
#
# 1 36.8506 1.0112 1.1021 0.0003 -8.6046 0.0004
# 2 1.0112 91.9004 37.7935 -0.0005 -6.3354 0.0004
# 3 1.1021 37.7935 131.4816 -0.0016 -1.9907 -0.0001
# 4 0.0003 -0.0005 -0.0016 30.8071 0.0006 8.8541
# 5 -8.6046 -6.3354 -1.9907 0.0006 18.1229 0.0002
# 6 0.0004 0.0004 -0.0001 8.8541 0.0002 18.2105
#
#
#
# Elastic Compliance Matrix: (Units=1/GPa)
#
#
# Indices 1 2 3 4 5 6 
#
# 1 0.030569 0.000788 -0.000259 0.000000 0.014761 -0.000001
# 2 0.000788 0.012646 -0.003575 0.000000 0.004402 0.000000
# 3 -0.000259 -0.003575 0.008629 0.000000 -0.000425 0.000000
# 4 0.000000 0.000000 0.000000 0.037733 -0.000001 -0.018346
# 5 0.014761 0.004402 -0.000425 -0.000001 0.063680 -0.000001
# 6 -0.000001 0.000000 0.000000 -0.018346 -0.000001 0.063833
#
#
# Mechanical properties :
#
#
# Convention : Reuss Voigt Hill
#
# Bulk Modulus (GPa) = 21.85704 37.78293 29.81998
# Shear Modulus (GPa) = 20.97018 28.11649 24.54333
#
# Velocity S-wave (km/s) = 3.28836 3.80767 3.55750
# Velocity P-wave (km/s) = 5.06837 6.23008 5.67901
#
# Compressibility (1/GPa) = 0.04575185
#
# Stress axis : x y z
#
# Youngs Moduli (GPa) = 32.71247 79.07395 115.88834
#
# Poissons Ratio (x) = -0.06230 0.03004
# Poissons Ratio (y) = -0.02577 0.41431
# Poissons Ratio (z) = 0.00848 0.28270
#
# Static dielectric constant tensor:
#      x y z
#    x 1.711260 0.000000 -0.041220 
#    y 0.000000 1.680830 0.000000 
#    z -0.041220 0.000000 1.756530 
# 
# From -- ./inp_files/67143.got.cif
#   From: 2010.05.17/outbox.cif.g08.bks.cpg/sg5_34_cif.got.tgz:67143.got - 2010.06.03 18:56:24.
