data_PCOD9129102
_publ_section_title
;
Structure prediction by ZEFSAII (Michael W. Deem and Ramdas Pophale) SiO2 
 PCOD9129102
Probable space group: C 2
;
_chemical_formula_sum "Si O2"
_cell_formula_units_Z 18
_cell_length_a 5.224407
_cell_length_b 16.103279
_cell_length_c 8.970441
_cell_angle_alpha 90.000000
_cell_angle_beta 112.633986
_cell_angle_gamma 90.000000
_cell_volume 696.559780
_symmetry_space_group_name_H-M "C 2"
_symmetry_group_IT_number 5
_symmetry_cell_setting 'monoclinic'
loop_
_space_group_symop_operation_xyz
x,y,z
-x,y,-z
1/2+x,1/2+y,z
1/2-x,1/2+y,-z
loop_
_atom_site_type_symbol
_atom_site_label
_atom_site_fract_x
_atom_site_fract_y
_atom_site_fract_z
Si Si1 0.500000 0.835940 0.500000
Si Si2 0.203366 0.596054 0.794460
Si Si3 0.000000 0.702428 0.000000
Si Si4 0.500000 0.223267 0.500000
Si Si5 0.141381 0.993233 0.695546
Si Si6 0.404821 0.366351 0.819411
O O1 0.248970 0.779708 0.498238
O O2 0.630830 0.887920 0.664310
O O3 0.933945 0.538168 0.756985
O O4 0.121930 0.664737 0.654739
O O5 0.446291 0.543072 0.770687
O O6 0.210326 0.645992 0.953472
O O7 0.127809 0.768812 0.145887
O O8 0.000000 0.994604 0.500000
O O9 0.142282 0.899652 0.761896
O O10 0.500000 0.402571 0.000000
#
# Coordination Sequence:
#
# PCOD9129102 Si02
#       6
#     2   4   2   2   4   4
#     4  12  26  47  84 109 162 212 266 332 390 473
#     4  12  26  47  77 114 157 205 268 330 398 473
#     4  10  26  50  76 118 158 212 264 338 394 472
#     4  12  22  47  76 119 146 204 274 328 382 473
#     4  12  27  49  78 115 159 212 263 330 407 478
#     4  10  27  51  76 121 157 212 265 325 402 481
#
# _framework density 25.841286
#
# number of rings (size 3 to 8) (size 9 to 14) (size 15 to 20)
#    0.667    0.000    4.444    1.333    7.778    0.000 
#    0.000    7.778    0.000    0.000    0.000    0.000 
#    0.000    0.000    0.000    0.000    0.000    0.000 
#
# Total GULP energy -50328.398164 kJ/mol
# GULP energy per Si atom -5592.044240 kJ/mol
# Density = 2.578247 g / cm^3
# Si number density = 25.841286 Si / 1000 Ang^3
#
#
#
# Elastic Constant Matrix: (Units=GPa)
#
#
# Indices 1 2 3 4 5 6 
#
# 1 175.0672 63.9015 52.1272 0.0000 -35.2776 0.0000
# 2 63.9015 128.6808 70.3608 0.0000 -24.7967 0.0000
# 3 52.1272 70.3608 184.3641 0.0000 -10.0593 0.0000
# 4 0.0000 0.0000 0.0000 28.4698 0.0000 -12.1915
# 5 -35.2776 -24.7967 -10.0593 0.0000 49.5786 0.0000
# 6 0.0000 0.0000 0.0000 -12.1915 0.0000 43.6920
#
#
#
# Elastic Compliance Matrix: (Units=1/GPa)
#
#
# Indices 1 2 3 4 5 6 
#
# 1 0.007747 -0.002514 -0.001010 0.000000 0.004050 0.000000
# 2 -0.002514 0.011584 -0.003531 0.000000 0.003288 0.000000
# 3 -0.001010 -0.003531 0.006999 0.000000 -0.001064 0.000000
# 4 0.000000 0.000000 0.000000 0.039892 0.000000 0.011131
# 5 0.004050 0.003288 -0.001064 0.000000 0.024480 0.000000
# 6 0.000000 0.000000 0.000000 0.011131 0.000000 0.025993
#
#
# Mechanical properties :
#
#
# Convention : Reuss Voigt Hill
#
# Bulk Modulus (GPa) = 81.83310 95.65457 88.74384
# Shear Modulus (GPa) = 37.07076 44.46290 40.76683
#
# Velocity S-wave (km/s) = 3.79166 4.15253 3.97619
# Velocity P-wave (km/s) = 7.13479 7.75164 7.44960
#
# Compressibility (1/GPa) = 0.01221999
#
# Stress axis : x y z
#
# Youngs Moduli (GPa) = 129.08959 86.32685 142.88022
#
# Poissons Ratio (x) = 0.21706 0.14427
# Poissons Ratio (y) = 0.32458 0.50444
# Poissons Ratio (z) = 0.13034 0.30478
#
# Static dielectric constant tensor:
#      x y z
#    x 2.054790 0.000000 -0.028040 
#    y 0.000000 2.058910 0.000000 
#    z -0.028040 0.000000 2.119200 
# 
# From -- ./inp_files/11963.got.cif
#   From: 2010.05.17/outbox.cif.g08.bks.cpg/sg5_6_cif.got.tgz:11963.got - 2010.06.03 18:56:24.
