data_PCOD9129654
_publ_section_title
;
Structure prediction by ZEFSAII (Michael W. Deem and Ramdas Pophale) SiO2 
 PCOD9129654
Probable space group: C 2
;
_chemical_formula_sum "Si O2"
_cell_formula_units_Z 20
_cell_length_a 25.208828
_cell_length_b 7.287397
_cell_length_c 8.506906
_cell_angle_alpha 90.000000
_cell_angle_beta 31.357979
_cell_angle_gamma 90.000000
_cell_volume 813.242807
_symmetry_space_group_name_H-M "C 2"
_symmetry_group_IT_number 5
_symmetry_cell_setting 'monoclinic'
loop_
_space_group_symop_operation_xyz
x,y,z
-x,y,-z
1/2+x,1/2+y,z
1/2-x,1/2+y,-z
loop_
_atom_site_type_symbol
_atom_site_label
_atom_site_fract_x
_atom_site_fract_y
_atom_site_fract_z
Si Si1 0.905394 0.626360 0.856000
Si Si2 0.603756 0.579195 0.336954
Si Si3 0.471207 0.791073 0.905506
Si Si4 0.259545 0.362469 0.806758
Si Si5 0.895208 0.900134 0.168032
O O1 0.930706 0.448991 0.898652
O O2 0.000000 0.650501 0.500000
O O3 0.805205 0.551706 0.022556
O O4 0.889898 0.791549 0.017604
O O5 0.500000 0.557630 0.500000
O O6 0.568962 0.702000 0.573320
O O7 0.651848 0.396128 0.288503
O O8 0.686459 0.693400 0.030529
O O9 0.500000 0.872800 0.000000
O O10 0.398119 0.617404 0.123331
O O11 0.307886 0.348526 0.511908
O O12 0.000000 0.863894 0.000000
#
# Coordination Sequence:
#
# PCOD9129654 Si02
#       5
#     4   4   4   4   4
#     4  12  27  48  76 115 152 201 266 322 382 475
#     4  12  26  51  78 115 162 197 265 331 380 469
#     4  11  22  49  78 104 164 202 239 337 386 440
#     4  12  27  48  79 115 148 215 258 306 419 452
#     4  11  27  48  73 114 154 201 261 320 392 467
#
# _framework density 24.592901000000001
#
# number of rings (size 3 to 8) (size 9 to 14) (size 15 to 20)
#    0.000    0.400    8.000    0.600    5.600    4.800 
#    0.000    0.000    0.000    0.000    0.000    0.000 
#    0.000    0.000    0.000    0.000    0.000    0.000 
#
# Total GULP energy -56068.461384 kJ/mol
# GULP energy per Si atom -5606.846138 kJ/mol
# Density = 2.453693 g / cm^3
# Si number density = 24.592901 Si / 1000 Ang^3
#
#
#
# Elastic Constant Matrix: (Units=GPa)
#
#
# Indices 1 2 3 4 5 6 
#
# 1 123.4284 40.0960 57.8105 0.0000 -0.0043 0.0000
# 2 40.0960 103.0074 36.8743 0.0000 8.1154 0.0000
# 3 57.8105 36.8743 188.9200 0.0000 26.2091 0.0000
# 4 0.0000 0.0000 0.0000 -33.9042 0.0000 46.9555
# 5 -0.0043 8.1154 26.2091 0.0000 46.1161 0.0000
# 6 0.0000 0.0000 0.0000 46.9555 0.0000 38.5031
#
#
#
# Elastic Compliance Matrix: (Units=1/GPa)
#
#
# Indices 1 2 3 4 5 6 
#
# 1 0.010505 -0.003228 -0.002891 0.000000 0.002212 0.000000
# 2 -0.003228 0.011453 -0.001051 0.000000 -0.001419 0.000000
# 3 -0.002891 -0.001051 0.006902 0.000000 -0.003738 0.000000
# 4 0.000000 0.000000 0.000000 -0.010969 0.000000 0.013377
# 5 0.002212 -0.001419 -0.003738 0.000000 0.024059 0.000000
# 6 0.000000 0.000000 0.000000 0.013377 0.000000 0.009659
#
#
# Mechanical properties :
#
#
# Convention : Reuss Voigt Hill
#
# Bulk Modulus (GPa) = 68.87824 76.10194 72.49009
# Shear Modulus (GPa) = 70.63374 28.84799 49.74087
#
# Velocity S-wave (km/s) = 5.36503 3.42866 4.50218
# Velocity P-wave (km/s) = 8.15146 6.83272 7.52105
#
# Compressibility (1/GPa) = 0.01451837
#
# Stress axis : x y z
#
# Youngs Moduli (GPa) = 95.19364 87.31669 144.89314
#
# Poissons Ratio (x) = 0.28189 0.41894
# Poissons Ratio (y) = 0.30732 0.15224
# Poissons Ratio (z) = 0.27524 0.09174
#
# Static dielectric constant tensor:
#      x y z
#    x 2.086900 0.000000 -0.105130 
#    y 0.000000 1.935230 0.000000 
#    z -0.105130 0.000000 1.981540 
# 
# From -- ./inp_files/31549.got.cif
#   From: 2010.05.17/outbox.cif.g08.bks.cpg/sg5_16_cif.got.tgz:31549.got - 2010.06.03 18:56:24.
