data_PCOD9129260
_publ_section_title
;
Structure prediction by ZEFSAII (Michael W. Deem and Ramdas Pophale) SiO2 
 PCOD9129260
Probable space group: C 2
;
_chemical_formula_sum "Si O2"
_cell_formula_units_Z 32
_cell_length_a 14.245052
_cell_length_b 5.065870
_cell_length_c 17.098814
_cell_angle_alpha 90.000000
_cell_angle_beta 79.337283
_cell_angle_gamma 90.000000
_cell_volume 1212.606205
_symmetry_space_group_name_H-M "C 2"
_symmetry_group_IT_number 5
_symmetry_cell_setting 'monoclinic'
loop_
_space_group_symop_operation_xyz
x,y,z
-x,y,-z
1/2+x,1/2+y,z
1/2-x,1/2+y,-z
loop_
_atom_site_type_symbol
_atom_site_label
_atom_site_fract_x
_atom_site_fract_y
_atom_site_fract_z
Si Si1 0.183831 0.589810 0.702601
Si Si2 0.681036 0.706322 0.580373
Si Si3 0.727338 0.714082 0.823976
Si Si4 0.282667 0.085452 0.041128
Si Si5 0.075524 0.812774 0.871623
Si Si6 0.006953 0.119547 0.319600
Si Si7 0.431784 0.112139 0.786376
Si Si8 0.346541 0.846326 0.590156
O O1 0.154784 0.490607 0.621045
O O2 0.209508 0.313937 0.740503
O O3 0.123876 0.724926 0.780579
O O4 0.280046 0.740407 0.669855
O O5 0.599948 0.536556 0.637748
O O6 0.663425 0.700096 0.491050
O O7 0.790831 0.620572 0.579466
O O8 0.627879 0.595308 0.871363
O O9 0.821084 0.537900 0.811191
O O10 0.757633 0.961615 0.872648
O O11 0.387258 0.167402 0.056693
O O12 0.230009 0.344007 0.016820
O O13 0.969376 0.737516 0.862516
O O14 0.013829 0.346428 0.251007
O O15 0.052017 0.273850 0.387516
O O16 0.055854 0.851237 0.279183
#
# Coordination Sequence:
#
# PCOD9129260 Si02
#       8
#     4   4   4   4   4   4   4   4
#     4  11  20  42  64  99 132 188 248 301 368 440
#     4  12  25  43  67  97 141 199 251 319 389 450
#     4  11  24  44  79 107 145 195 244 300 369 444
#     4  11  24  46  78 111 154 194 234 291 370 450
#     4  11  24  44  79 107 145 195 244 300 369 444
#     4  12  27  46  70 106 151 186 256 324 379 450
#     4  12  26  46  74 112 146 188 254 316 360 448
#     4  12  25  43  67  97 141 199 251 319 389 450
#
# _framework density 26.38944
#
# number of rings (size 3 to 8) (size 9 to 14) (size 15 to 20)
#    0.000    0.500    5.000    4.125    3.500    0.000 
#    0.000    1.875    5.500    0.000    0.000    0.000 
#    0.000    0.000    0.000    0.000    0.000    0.000 
#
# Total GULP energy -89256.131542 kJ/mol
# GULP energy per Si atom -5578.508221 kJ/mol
# Density = 2.632938 g / cm^3
# Si number density = 26.389440 Si / 1000 Ang^3
#
#
#
# Elastic Constant Matrix: (Units=GPa)
#
#
# Indices 1 2 3 4 5 6 
#
# 1 68.1972 8.6203 19.1945 0.0000 28.9782 0.0000
# 2 8.6203 134.6800 33.4140 0.0000 10.3715 0.0000
# 3 19.1945 33.4140 126.9605 0.0000 33.3100 0.0000
# 4 0.0000 0.0000 0.0000 52.2770 0.0000 3.7842
# 5 28.9782 10.3715 33.3100 0.0000 49.0558 0.0000
# 6 0.0000 0.0000 0.0000 3.7842 0.0000 25.9525
#
#
#
# Elastic Compliance Matrix: (Units=1/GPa)
#
#
# Indices 1 2 3 4 5 6 
#
# 1 0.019599 -0.000407 0.000194 0.000000 -0.011623 0.000000
# 2 -0.000407 0.007956 -0.002013 0.000000 -0.000075 0.000000
# 3 0.000194 -0.002013 0.010093 0.000000 -0.006542 0.000000
# 4 0.000000 0.000000 0.000000 0.019333 0.000000 -0.002819
# 5 -0.011623 -0.000075 -0.006542 0.000000 0.031709 0.000000
# 6 0.000000 0.000000 0.000000 -0.002819 0.000000 0.038943
#
#
# Mechanical properties :
#
#
# Convention : Reuss Voigt Hill
#
# Bulk Modulus (GPa) = 30.12446 50.25504 40.18975
# Shear Modulus (GPa) = 34.92788 43.36434 39.14611
#
# Velocity S-wave (km/s) = 3.64202 4.05809 3.85567
# Velocity P-wave (km/s) = 5.39684 6.40644 5.92319
#
# Compressibility (1/GPa) = 0.03319562
#
# Stress axis : x y z
#
# Youngs Moduli (GPa) = 51.02262 125.68820 99.07428
#
# Poissons Ratio (x) = 0.05121 -0.01918
# Poissons Ratio (y) = 0.02079 0.19941
# Poissons Ratio (z) = -0.00988 0.25298
#
# Static dielectric constant tensor:
#      x y z
#    x 2.339760 0.000000 0.053830 
#    y 0.000000 2.200710 0.000000 
#    z 0.053830 0.000000 2.036270 
# 
# From -- ./inp_files/61225.got.cif
#   From: 2010.05.17/outbox.cif.g08.bks.cpg/sg5_31_cif.got.tgz:61225.got - 2010.06.03 18:56:24.
