data_PCOD9129125
_publ_section_title
;
Structure prediction by ZEFSAII (Michael W. Deem and Ramdas Pophale) SiO2 
 PCOD9129125
Probable space group: C 2
;
_chemical_formula_sum "Si O2"
_cell_formula_units_Z 24
_cell_length_a 11.807127
_cell_length_b 8.764602
_cell_length_c 23.165579
_cell_angle_alpha 90.000000
_cell_angle_beta 152.810696
_cell_angle_gamma 90.000000
_cell_volume 1095.395760
_symmetry_space_group_name_H-M "C 2"
_symmetry_group_IT_number 5
_symmetry_cell_setting 'monoclinic'
loop_
_space_group_symop_operation_xyz
x,y,z
-x,y,-z
1/2+x,1/2+y,z
1/2-x,1/2+y,-z
loop_
_atom_site_type_symbol
_atom_site_label
_atom_site_fract_x
_atom_site_fract_y
_atom_site_fract_z
Si Si1 0.879569 0.794100 0.551020
Si Si2 0.500000 0.515139 0.500000
Si Si3 0.524992 0.171565 0.732420
Si Si4 0.373403 0.392104 0.885451
Si Si5 0.900636 0.894460 0.132536
Si Si6 0.000000 0.607459 0.000000
Si Si7 0.043519 0.464534 0.586578
O O1 0.975429 0.909924 0.545930
O O2 0.024389 0.788838 0.678126
O O3 0.912044 0.624052 0.541947
O O4 0.597709 0.837364 0.439522
O O5 0.744734 0.616915 0.615730
O O6 0.624012 0.251658 0.835138
O O7 0.667371 0.017213 0.778586
O O8 0.558180 0.364709 0.916243
O O9 0.500000 0.459721 0.000000
O O10 0.314444 0.221436 0.881176
O O11 0.163683 0.969199 0.270079
O O12 0.668524 0.003543 0.036422
O O13 0.000000 0.434122 0.500000
#
# Coordination Sequence:
#
# PCOD9129125 Si02
#       7
#     4   2   4   4   4   2   4
#     4  12  24  42  69 107 145 186 229 275 361 430
#     4  12  26  42  72 110 146 184 228 288 360 436
#     4  12  26  44  73 106 143 190 233 291 363 428
#     4  10  27  48  72 101 143 183 249 302 358 409
#     4  12  26  48  76 100 144 191 246 299 356 423
#     4  10  30  46  72 106 134 192 254 302 356 404
#     4  12  25  44  71 107 150 186 230 288 358 439
#
# _framework density 21.909889
#
# number of rings (size 3 to 8) (size 9 to 14) (size 15 to 20)
#    0.500    0.000    5.833    1.000    5.833    2.667 
#    0.000    0.000    0.000    0.000    0.000    0.000 
#    0.000    0.000    0.000    0.000    0.000    0.000 
#
# Total GULP energy -67023.779211 kJ/mol
# GULP energy per Si atom -5585.314934 kJ/mol
# Density = 2.186002 g / cm^3
# Si number density = 21.909889 Si / 1000 Ang^3
#
#
#
# Elastic Constant Matrix: (Units=GPa)
#
#
# Indices 1 2 3 4 5 6 
#
# 1 144.4464 40.0047 13.5273 -0.0002 -19.5196 -0.0001
# 2 40.0047 101.5170 11.9483 -0.0005 4.9466 0.0001
# 3 13.5273 11.9483 41.5274 -0.0036 -7.6927 0.0029
# 4 -0.0002 -0.0005 -0.0036 -45.9544 -0.0012 52.0838
# 5 -19.5196 4.9466 -7.6927 -0.0012 33.9768 0.0006
# 6 -0.0001 0.0001 0.0029 52.0838 0.0006 4.2505
#
#
#
# Elastic Compliance Matrix: (Units=1/GPa)
#
#
# Indices 1 2 3 4 5 6 
#
# 1 0.008719 -0.003601 -0.000813 0.000000 0.005349 0.000000
# 2 -0.003601 0.011849 -0.003068 0.000000 -0.004488 0.000000
# 3 -0.000813 -0.003068 0.026328 -0.000002 0.005940 0.000001
# 4 0.000000 0.000000 -0.000002 -0.001462 -0.000001 0.017910
# 5 0.005349 -0.004488 0.005940 -0.000001 0.034503 0.000001
# 6 0.000000 0.000000 0.000001 0.017910 0.000001 0.015802
#
#
# Mechanical properties :
#
#
# Convention : Reuss Voigt Hill
#
# Bulk Modulus (GPa) = 31.31540 46.49462 38.90501
# Shear Modulus (GPa) = 41.20318 13.25528 27.22923
#
# Velocity S-wave (km/s) = 4.34126 2.46232 3.52914
# Velocity P-wave (km/s) = 6.28113 5.41765 5.86530
#
# Compressibility (1/GPa) = 0.03193317
#
# Stress axis : x y z
#
# Youngs Moduli (GPa) = 114.68786 84.39268 37.98170
#
# Poissons Ratio (x) = 0.30389 0.03089
# Poissons Ratio (y) = 0.41299 0.11652
# Poissons Ratio (z) = 0.09327 0.25890
#
# Static dielectric constant tensor:
#      x y z
#    x 1.834060 0.000000 -0.128600 
#    y 0.000000 1.787830 0.000000 
#    z -0.128600 0.000000 2.033310 
# 
# From -- ./inp_files/68326.got.cif
#   From: 2010.05.17/outbox.cif.g08.bks.cpg/sg5_35_cif.got.tgz:68326.got - 2010.06.03 18:56:24.
