data_PCOD9129939
_publ_section_title
;
Structure prediction by ZEFSAII (Michael W. Deem and Ramdas Pophale) SiO2 
 PCOD9129939
Probable space group: C 2
;
_chemical_formula_sum "Si O2"
_cell_formula_units_Z 24
_cell_length_a 18.199888
_cell_length_b 7.333119
_cell_length_c 22.407695
_cell_angle_alpha 90.000000
_cell_angle_beta 24.053557
_cell_angle_gamma 90.000000
_cell_volume 1218.929470
_symmetry_space_group_name_H-M "C 2"
_symmetry_group_IT_number 5
_symmetry_cell_setting 'monoclinic'
loop_
_space_group_symop_operation_xyz
x,y,z
-x,y,-z
1/2+x,1/2+y,z
1/2-x,1/2+y,-z
loop_
_atom_site_type_symbol
_atom_site_label
_atom_site_fract_x
_atom_site_fract_y
_atom_site_fract_z
Si Si1 0.027745 0.216290 0.650229
Si Si2 0.304793 0.294757 0.017314
Si Si3 0.936240 0.933160 0.613264
Si Si4 0.748086 0.211993 0.081196
Si Si5 0.023342 0.510903 0.917715
Si Si6 0.578330 0.135469 0.590815
O O1 0.215584 0.170147 0.543505
O O2 0.044097 0.420512 0.612658
O O3 0.864051 0.215634 0.819311
O O4 0.990672 0.078622 0.623719
O O5 0.321626 0.505228 0.023703
O O6 0.268568 0.282877 0.973968
O O7 0.474104 0.166603 0.906878
O O8 0.721290 0.929868 0.767825
O O9 0.000000 0.981896 0.500000
O O10 0.022459 0.745155 0.573159
O O11 0.556381 0.206821 0.257060
O O12 0.881679 0.347286 0.015900
O O13 0.000000 0.598887 0.000000
#
# Coordination Sequence:
#
# PCOD9129939 Si02
#       6
#     4   4   4   4   4   4
#     4  11  24  43  68  96 133 176 221 268 324 397
#     4  11  24  41  69 100 129 174 223 267 327 394
#     4  12  28  46  66 100 138 174 216 279 337 380
#     4  11  24  41  69 100 129 174 223 267 327 394
#     4  12  24  46  68  96 140 168 218 284 329 384
#     4  11  24  43  68  96 133 176 221 268 324 397
#
# _framework density 19.689406999999999
#
# number of rings (size 3 to 8) (size 9 to 14) (size 15 to 20)
#    0.000    0.667    6.667    0.000    4.667    2.667 
#    0.000    0.000    0.000    0.000    0.000    0.000 
#    0.000    0.000    0.000    0.000    0.000    0.000 
#
# Total GULP energy -67096.802857 kJ/mol
# GULP energy per Si atom -5591.400238 kJ/mol
# Density = 1.964459 g / cm^3
# Si number density = 19.689407 Si / 1000 Ang^3
#
#
#
# Elastic Constant Matrix: (Units=GPa)
#
#
# Indices 1 2 3 4 5 6 
#
# 1 80.7541 15.2582 31.3966 0.0002 -5.9384 -0.0001
# 2 15.2582 80.8467 17.3328 0.0002 -14.6406 -0.0005
# 3 31.3966 17.3328 53.6832 -0.0008 -21.1674 -0.0005
# 4 0.0002 0.0002 -0.0008 19.1917 0.0000 1.3396
# 5 -5.9384 -14.6406 -21.1674 0.0000 36.6015 0.0001
# 6 -0.0001 -0.0005 -0.0005 1.3396 0.0001 27.8703
#
#
#
# Elastic Compliance Matrix: (Units=1/GPa)
#
#
# Indices 1 2 3 4 5 6 
#
# 1 0.016591 -0.001566 -0.010860 -0.000001 -0.004215 0.000000
# 2 -0.001566 0.013829 -0.001902 0.000000 0.004178 0.000000
# 3 -0.010860 -0.001902 0.031865 0.000001 0.015905 0.000000
# 4 -0.000001 0.000000 0.000001 0.052281 0.000001 -0.002513
# 5 -0.004215 0.004178 0.015905 0.000001 0.037507 0.000000
# 6 0.000000 0.000000 0.000000 -0.002513 0.000000 0.036001
#
#
# Mechanical properties :
#
#
# Convention : Reuss Voigt Hill
#
# Bulk Modulus (GPa) = 29.73581 38.13990 33.93786
# Shear Modulus (GPa) = 21.93561 26.81913 24.37737
#
# Velocity S-wave (km/s) = 3.34141 3.69468 3.52248
# Velocity P-wave (km/s) = 5.47922 6.13300 5.81531
#
# Compressibility (1/GPa) = 0.03362949
#
# Stress axis : x y z
#
# Youngs Moduli (GPa) = 60.27193 72.31212 31.38275
#
# Poissons Ratio (x) = 0.11327 0.34081
# Poissons Ratio (y) = 0.09441 0.05968
# Poissons Ratio (z) = 0.65454 0.13751
#
# Static dielectric constant tensor:
#      x y z
#    x 1.675970 0.000000 0.050960 
#    y 0.000000 1.688330 0.000000 
#    z 0.050960 0.000000 1.742460 
# 
# From -- ./inp_files/28883.got.cif
#   From: 2010.05.17/outbox.cif.g08.bks.cpg/sg5_15_cif.got.tgz:28883.got - 2010.06.03 18:56:24.
