data_PCOD9129675
_publ_section_title
;
Structure prediction by ZEFSAII (Michael W. Deem and Ramdas Pophale) SiO2 
 PCOD9129675
Probable space group: C 2
;
_chemical_formula_sum "Si O2"
_cell_formula_units_Z 30
_cell_length_a 5.032682
_cell_length_b 23.674010
_cell_length_c 12.583890
_cell_angle_alpha 90.000000
_cell_angle_beta 96.233436
_cell_angle_gamma 90.000000
_cell_volume 1490.427861
_symmetry_space_group_name_H-M "C 2"
_symmetry_group_IT_number 5
_symmetry_cell_setting 'monoclinic'
loop_
_space_group_symop_operation_xyz
x,y,z
-x,y,-z
1/2+x,1/2+y,z
1/2-x,1/2+y,-z
loop_
_atom_site_type_symbol
_atom_site_label
_atom_site_fract_x
_atom_site_fract_y
_atom_site_fract_z
Si Si1 0.612377 0.741660 0.884698
Si Si2 0.500000 0.161168 0.000000
Si Si3 0.272585 0.867654 0.078072
Si Si4 0.162650 0.066428 0.101422
Si Si5 0.914724 0.148656 0.733865
Si Si6 0.139664 0.989633 0.615247
Si Si7 0.160852 0.468779 0.757418
Si Si8 0.633889 0.116805 0.392968
O O1 0.671653 0.806693 0.866155
O O2 0.430310 0.708434 0.793629
O O3 0.500000 0.740117 0.000000
O O4 0.871791 0.702301 0.907294
O O5 0.298533 0.119208 0.049183
O O6 0.268873 0.915499 0.167028
O O7 0.500000 0.879342 0.000000
O O8 0.000000 0.863878 0.000000
O O9 0.984856 0.098085 0.183213
O O10 0.362650 0.022251 0.163881
O O11 0.000000 0.036182 0.000000
O O12 0.615322 0.128921 0.695099
O O13 0.108419 0.149604 0.640419
O O14 0.259817 0.052292 0.598830
O O15 0.000000 0.969754 0.500000
O O16 0.395887 0.958414 0.676510
O O17 0.904166 0.986322 0.691239
O O18 0.500000 0.130859 0.500000
#
# Coordination Sequence:
#
# PCOD9129675 Si02
#       8
#     4   2   4   4   4   4   4   4
#     4  11  23  39  64  94 130 182 224 261 308 396
#     4  12  20  36  58  86 142 164 218 250 308 384
#     4  11  25  45  67  94 136 182 227 272 320 397
#     4  12  24  34  58  97 139 172 205 261 330 400
#     4  12  22  39  63  93 129 170 216 268 325 392
#     4  12  24  44  67  93 127 170 223 277 332 409
#     4  12  26  42  65  97 133 171 220 272 343 390
#     4  12  24  41  62  94 130 169 216 274 337 400
#
# _framework density 20.128446
#
# number of rings (size 3 to 8) (size 9 to 14) (size 15 to 20)
#    0.000    0.267    6.000    4.400    2.800    0.000 
#    0.000    0.000    0.000    4.800    0.000    0.000 
#    0.000    0.000    0.000    0.000    0.000    0.000 
#
# Total GULP energy -83805.135267 kJ/mol
# GULP energy per Si atom -5587.009018 kJ/mol
# Density = 2.008263 g / cm^3
# Si number density = 20.128446 Si / 1000 Ang^3
#
#
#
# Elastic Constant Matrix: (Units=GPa)
#
#
# Indices 1 2 3 4 5 6 
#
# 1 104.9138 8.1688 29.8038 0.0000 2.2149 0.0000
# 2 8.1688 98.9549 45.7566 0.0000 7.5350 0.0000
# 3 29.8038 45.7566 92.1044 0.0000 8.0415 0.0000
# 4 0.0000 0.0000 0.0000 102.8758 0.0000 115.9407
# 5 2.2149 7.5350 8.0415 0.0000 40.4587 0.0000
# 6 0.0000 0.0000 0.0000 115.9407 0.0000 163.5012
#
#
#
# Elastic Compliance Matrix: (Units=1/GPa)
#
#
# Indices 1 2 3 4 5 6 
#
# 1 0.010561 0.000919 -0.003875 0.000000 0.000021 0.000000
# 2 0.000919 0.013254 -0.006779 0.000000 -0.001171 0.000000
# 3 -0.003875 -0.006779 0.015622 0.000000 -0.001630 0.000000
# 4 0.000000 0.000000 0.000000 0.048401 0.000000 -0.034322
# 5 0.000021 -0.001171 -0.001630 0.000000 0.025258 0.000000
# 6 0.000000 0.000000 0.000000 -0.034322 0.000000 0.030454
#
#
# Mechanical properties :
#
#
# Convention : Reuss Voigt Hill
#
# Bulk Modulus (GPa) = 50.09140 51.49238 50.79189
# Shear Modulus (GPa) = 29.46812 75.51673 52.49243
#
# Velocity S-wave (km/s) = 3.83038 6.13179 5.11227
# Velocity P-wave (km/s) = 6.67101 8.70455 7.75473
#
# Compressibility (1/GPa) = 0.01996350
#
# Stress axis : x y z
#
# Youngs Moduli (GPa) = 94.69158 75.45061 64.01431
#
# Poissons Ratio (x) = -0.06931 0.24809
# Poissons Ratio (y) = -0.08699 0.43397
# Poissons Ratio (z) = 0.36697 0.51150
#
# Static dielectric constant tensor:
#      x y z
#    x 1.100600 0.000000 -0.202290 
#    y 0.000000 1.683690 0.000000 
#    z -0.202290 0.000000 1.733720 
# 
# From -- ./inp_files/34236.got.cif
#   From: 2010.05.17/outbox.cif.g08.bks.cpg/sg5_18_cif.got.tgz:34236.got - 2010.06.03 18:56:24.
