data_PCOD9129731
_publ_section_title
;
Structure prediction by ZEFSAII (Michael W. Deem and Ramdas Pophale) SiO2 
 PCOD9129731
Probable space group: C 2
;
_chemical_formula_sum "Si O2"
_cell_formula_units_Z 28
_cell_length_a 27.792996
_cell_length_b 5.121928
_cell_length_c 8.946822
_cell_angle_alpha 90.000000
_cell_angle_beta 110.399010
_cell_angle_gamma 90.000000
_cell_volume 1193.742603
_symmetry_space_group_name_H-M "C 2"
_symmetry_group_IT_number 5
_symmetry_cell_setting 'monoclinic'
loop_
_space_group_symop_operation_xyz
x,y,z
-x,y,-z
1/2+x,1/2+y,z
1/2-x,1/2+y,-z
loop_
_atom_site_type_symbol
_atom_site_label
_atom_site_fract_x
_atom_site_fract_y
_atom_site_fract_z
Si Si1 0.104580 0.446720 0.326102
Si Si2 0.513199 0.628900 0.167550
Si Si3 0.947211 0.781530 0.526810
Si Si4 0.750778 0.627045 0.898333
Si Si5 0.855338 0.150610 0.368542
Si Si6 0.099481 0.312044 0.893313
Si Si7 0.140411 0.798116 0.105097
O O1 0.059689 0.323791 0.175956
O O2 0.069625 0.503344 0.434188
O O3 0.144879 0.268221 0.461330
O O4 0.127974 0.690247 0.259847
O O5 0.538525 0.438286 0.310102
O O6 0.461223 0.748477 0.178071
O O7 0.500000 0.484723 0.000000
O O8 0.000000 0.773834 0.500000
O O9 0.896497 0.915115 0.408221
O O10 0.702379 0.577083 0.738988
O O11 0.800471 0.731734 0.864648
O O12 0.762228 0.358804 0.998425
O O13 0.875193 0.309949 0.243895
O O14 0.108305 0.599063 0.967351
O O15 0.126498 0.088474 0.029270
#
# Coordination Sequence:
#
# PCOD9129731 Si02
#       7
#     4   4   4   4   4   4   4
#     4  11  28  43  68 107 155 190 243 304 380 439
#     4  11  23  42  67 104 140 193 237 297 355 441
#     4  11  25  42  67 101 147 191 238 293 371 445
#     4  12  25  49  80 108 136 190 255 309 365 441
#     4  11  26  46  69 106 142 189 246 308 360 444
#     4  12  25  44  78 104 145 189 248 299 364 431
#     4  12  26  50  73 110 144 193 245 313 365 438
#
# _framework density 23.455642000000001
#
# number of rings (size 3 to 8) (size 9 to 14) (size 15 to 20)
#    0.000    0.571    5.714    0.857   10.000    0.571 
#    2.571    0.000    0.000    0.000    0.000    0.000 
#    0.000    0.000    0.000    0.000    0.000    0.000 
#
# Total GULP energy -78154.057060 kJ/mol
# GULP energy per Si atom -5582.432647 kJ/mol
# Density = 2.340226 g / cm^3
# Si number density = 23.455642 Si / 1000 Ang^3
#
#
#
# Elastic Constant Matrix: (Units=GPa)
#
#
# Indices 1 2 3 4 5 6 
#
# 1 137.3603 2.2230 42.1770 0.0000 13.1068 0.0000
# 2 2.2230 61.5038 14.7124 0.0000 2.4272 0.0000
# 3 42.1770 14.7124 80.4620 0.0000 18.5382 0.0000
# 4 0.0000 0.0000 0.0000 26.4704 0.0000 -10.7647
# 5 13.1068 2.4272 18.5382 0.0000 49.7172 0.0000
# 6 0.0000 0.0000 0.0000 -10.7647 0.0000 27.0821
#
#
#
# Elastic Compliance Matrix: (Units=1/GPa)
#
#
# Indices 1 2 3 4 5 6 
#
# 1 0.008734 0.000805 -0.004579 0.000000 -0.000634 0.000000
# 2 0.000805 0.017083 -0.003615 0.000000 0.000302 0.000000
# 3 -0.004579 -0.003615 0.016596 0.000000 -0.004805 0.000000
# 4 0.000000 0.000000 0.000000 0.045062 0.000000 0.017911
# 5 -0.000634 0.000302 -0.004805 0.000000 0.022058 0.000000
# 6 0.000000 0.000000 0.000000 0.017911 0.000000 0.044044
#
#
# Mechanical properties :
#
#
# Convention : Reuss Voigt Hill
#
# Bulk Modulus (GPa) = 36.18668 44.17234 40.17951
# Shear Modulus (GPa) = 28.15835 35.33486 31.74661
#
# Velocity S-wave (km/s) = 3.46857 3.88552 3.68295
# Velocity P-wave (km/s) = 5.61271 6.24522 5.93740
#
# Compressibility (1/GPa) = 0.02763448
#
# Stress axis : x y z
#
# Youngs Moduli (GPa) = 114.49978 58.53811 60.25369
#
# Poissons Ratio (x) = -0.04711 0.27590
# Poissons Ratio (y) = -0.09214 0.21781
# Poissons Ratio (z) = 0.52430 0.21161
#
# Static dielectric constant tensor:
#      x y z
#    x 2.145180 0.000000 0.171870 
#    y 0.000000 1.945880 0.000000 
#    z 0.171870 0.000000 2.173120 
# 
# From -- ./inp_files/32173.got.cif
#   From: 2010.05.17/outbox.cif.g08.bks.cpg/sg5_17_cif.got.tgz:32173.got - 2010.06.03 18:56:24.
