data_PCOD9129003
_publ_section_title
;
Structure prediction by ZEFSAII (Michael W. Deem and Ramdas Pophale) SiO2 
 PCOD9129003
Probable space group: C 2
;
_chemical_formula_sum "Si O2"
_cell_formula_units_Z 20
_cell_length_a 9.640325
_cell_length_b 6.972363
_cell_length_c 20.881971
_cell_angle_alpha 90.000000
_cell_angle_beta 145.209492
_cell_angle_gamma 90.000000
_cell_volume 800.862230
_symmetry_space_group_name_H-M "C 2"
_symmetry_group_IT_number 5
_symmetry_cell_setting 'monoclinic'
loop_
_space_group_symop_operation_xyz
x,y,z
-x,y,-z
1/2+x,1/2+y,z
1/2-x,1/2+y,-z
loop_
_atom_site_type_symbol
_atom_site_label
_atom_site_fract_x
_atom_site_fract_y
_atom_site_fract_z
Si Si1 0.730543 0.941180 0.048683
Si Si2 0.618818 0.868987 0.861348
Si Si3 0.758931 0.357350 0.227301
Si Si4 0.089451 0.009800 0.650982
Si Si5 0.448883 0.899615 0.548119
O O1 0.988618 0.835366 0.152500
O O2 0.786791 0.153125 0.095179
O O3 0.500000 0.862051 0.000000
O O4 0.669990 0.954192 0.950532
O O5 0.747963 0.944470 0.845895
O O6 0.333254 0.890190 0.738311
O O7 0.882774 0.145574 0.274952
O O8 0.920743 0.477625 0.338650
O O9 0.065400 0.185567 0.591427
O O10 0.839568 0.896321 0.553075
O O11 0.500000 0.999203 0.500000
#
# Coordination Sequence:
#
# PCOD9129003 Si02
#       5
#     4   4   4   4   4
#     4  12  27  46  72 103 139 189 236 289 349 412
#     4  12  26  46  73 102 144 184 233 291 348 415
#     4  10  27  45  73 104 144 184 231 288 348 411
#     4  10  26  43  73 105 142 183 232 282 350 411
#     4  10  26  43  73 105 141 184 231 283 346 417
#
# _framework density 24.973085000000001
#
# number of rings (size 3 to 8) (size 9 to 14) (size 15 to 20)
#    1.200    0.000    0.000    4.200   11.200    3.200 
#    0.000    1.000    0.000    0.000    0.000    0.000 
#    0.000    0.000    0.000    0.000    0.000    0.000 
#
# Total GULP energy -55843.787827 kJ/mol
# GULP energy per Si atom -5584.378783 kJ/mol
# Density = 2.491625 g / cm^3
# Si number density = 24.973085 Si / 1000 Ang^3
#
#
#
# Elastic Constant Matrix: (Units=GPa)
#
#
# Indices 1 2 3 4 5 6 
#
# 1 145.3080 2.5250 95.9156 0.0000 -12.4137 0.0000
# 2 2.5250 46.1993 33.8134 0.0000 -3.3682 0.0000
# 3 95.9156 33.8134 184.5159 0.0000 18.3565 0.0000
# 4 0.0000 0.0000 0.0000 35.1589 0.0000 11.2973
# 5 -12.4137 -3.3682 18.3565 0.0000 62.9768 0.0000
# 6 0.0000 0.0000 0.0000 11.2973 0.0000 13.6195
#
#
#
# Elastic Compliance Matrix: (Units=1/GPa)
#
#
# Indices 1 2 3 4 5 6 
#
# 1 0.012532 0.005576 -0.008045 0.000000 0.005114 0.000000
# 2 0.005576 0.027951 -0.008526 0.000000 0.005079 0.000000
# 3 -0.008045 -0.008526 0.011707 0.000000 -0.005454 0.000000
# 4 0.000000 0.000000 0.000000 0.038778 0.000000 -0.032166
# 5 0.005114 0.005079 -0.005454 0.000000 0.018748 0.000000
# 6 0.000000 0.000000 0.000000 -0.032166 0.000000 0.100106
#
#
# Mechanical properties :
#
#
# Convention : Reuss Voigt Hill
#
# Bulk Modulus (GPa) = 33.11262 71.17013 52.14138
# Shear Modulus (GPa) = 20.67148 38.60233 29.63690
#
# Velocity S-wave (km/s) = 2.88019 3.93588 3.44867
# Velocity P-wave (km/s) = 4.93444 7.01537 6.06482
#
# Compressibility (1/GPa) = 0.03019997
#
# Stress axis : x y z
#
# Youngs Moduli (GPa) = 79.79307 35.77672 85.42100
#
# Poissons Ratio (x) = -0.19950 0.68723
# Poissons Ratio (y) = -0.44494 0.72831
# Poissons Ratio (z) = 0.64195 0.30504
#
# Static dielectric constant tensor:
#      x y z
#    x 2.015660 0.000000 -0.063230 
#    y 0.000000 2.014460 0.000000 
#    z -0.063230 0.000000 1.972010 
# 
# From -- ./inp_files/34768.got.cif
#   From: 2010.05.17/outbox.cif.g08.bks.cpg/sg5_18_cif.got.tgz:34768.got - 2010.06.03 18:56:24.
