data_PCOD9129500
_publ_section_title
;
Structure prediction by ZEFSAII (Michael W. Deem and Ramdas Pophale) SiO2 
 PCOD9129500
Probable space group: C 2
;
_chemical_formula_sum "Si O2"
_cell_formula_units_Z 28
_cell_length_a 23.069969
_cell_length_b 5.188788
_cell_length_c 12.596996
_cell_angle_alpha 90.000000
_cell_angle_beta 69.720878
_cell_angle_gamma 90.000000
_cell_volume 1414.457321
_symmetry_space_group_name_H-M "C 2"
_symmetry_group_IT_number 5
_symmetry_cell_setting 'monoclinic'
loop_
_space_group_symop_operation_xyz
x,y,z
-x,y,-z
1/2+x,1/2+y,z
1/2-x,1/2+y,-z
loop_
_atom_site_type_symbol
_atom_site_label
_atom_site_fract_x
_atom_site_fract_y
_atom_site_fract_z
Si Si1 0.299757 0.617430 0.836103
Si Si2 0.059761 0.821364 0.885405
Si Si3 0.331358 0.320504 0.031363
Si Si4 0.117741 0.835090 0.357882
Si Si5 0.903444 0.511301 0.816992
Si Si6 0.460156 0.820389 0.236146
Si Si7 0.931015 0.351083 0.499327
O O1 0.230862 0.720769 0.875229
O O2 0.316065 0.411567 0.734538
O O3 0.352637 0.833620 0.792228
O O4 0.310078 0.505377 0.948467
O O5 0.119251 0.912925 0.914657
O O6 0.066181 0.543477 0.824733
O O7 0.048829 0.038426 0.804910
O O8 0.000000 0.809949 0.000000
O O9 0.369855 0.102496 0.944426
O O10 0.082457 0.749399 0.271337
O O11 0.111843 0.587568 0.436262
O O12 0.089558 0.080239 0.435820
O O13 0.966469 0.370735 0.801700
O O14 0.433391 0.837747 0.371305
O O15 0.000000 0.407076 0.500000
#
# Coordination Sequence:
#
# PCOD9129500 Si02
#       7
#     4   4   4   4   4   4   4
#     4  11  22  41  68 102 130 172 222 283 326 391
#     4  12  26  43  64  96 140 182 207 262 332 414
#     4  11  24  39  69  99 140 172 224 268 337 394
#     4  11  23  39  63 101 128 167 219 281 337 377
#     4  11  22  41  63 102 133 169 216 274 336 395
#     4  12  26  42  65  97 138 172 221 263 335 407
#     4  12  23  39  67  95 133 173 221 282 333 380
#
# _framework density 19.795577000000002
#
# number of rings (size 3 to 8) (size 9 to 14) (size 15 to 20)
#    0.000    0.571    5.714    2.571    6.000    0.000 
#    0.000    0.000    0.000    3.429    0.000    0.000 
#    0.000    0.000    0.000    0.000    0.000    0.000 
#
# Total GULP energy -78230.867625 kJ/mol
# GULP energy per Si atom -5587.919116 kJ/mol
# Density = 1.975052 g / cm^3
# Si number density = 19.795577 Si / 1000 Ang^3
#
#
#
# Elastic Constant Matrix: (Units=GPa)
#
#
# Indices 1 2 3 4 5 6 
#
# 1 87.2851 6.7361 20.3649 0.0000 -9.8735 0.0000
# 2 6.7361 87.1461 32.1513 0.0000 -8.1565 0.0000
# 3 20.3649 32.1513 94.7889 0.0000 4.6190 0.0000
# 4 0.0000 0.0000 0.0000 47.7784 0.0000 8.6070
# 5 -9.8735 -8.1565 4.6190 0.0000 14.2703 0.0000
# 6 0.0000 0.0000 0.0000 8.6070 0.0000 12.7484
#
#
#
# Elastic Compliance Matrix: (Units=1/GPa)
#
#
# Indices 1 2 3 4 5 6 
#
# 1 0.013577 0.001503 -0.003989 0.000000 0.011544 0.000000
# 2 0.001503 0.014553 -0.005807 0.000000 0.011237 0.000000
# 3 -0.003989 -0.005807 0.013892 0.000000 -0.010575 0.000000
# 4 0.000000 0.000000 0.000000 0.023828 0.000000 -0.016087
# 5 0.011544 0.011237 -0.010575 0.000000 0.087909 0.000000
# 6 0.000000 0.000000 0.000000 -0.016087 0.000000 0.089302
#
#
# Mechanical properties :
#
#
# Convention : Reuss Voigt Hill
#
# Bulk Modulus (GPa) = 39.31483 43.08051 41.19767
# Shear Modulus (GPa) = 18.64798 28.95728 23.80263
#
# Velocity S-wave (km/s) = 3.07258 3.82883 3.47136
# Velocity P-wave (km/s) = 5.70010 6.43090 6.07650
#
# Compressibility (1/GPa) = 0.02543570
#
# Stress axis : x y z
#
# Youngs Moduli (GPa) = 73.65212 68.71511 71.98550
#
# Poissons Ratio (x) = -0.10326 0.28717
# Poissons Ratio (y) = -0.11068 0.41799
# Poissons Ratio (z) = 0.29382 0.39900
#
# Static dielectric constant tensor:
#      x y z
#    x 1.709100 0.000000 0.017710 
#    y 0.000000 1.758830 0.000000 
#    z 0.017710 0.000000 1.711720 
# 
# From -- ./inp_files/45630.got.cif
#   From: 2010.05.17/outbox.cif.g08.bks.cpg/sg5_23_cif.got.tgz:45630.got - 2010.06.03 18:56:24.
