data_PCOD9129788
_publ_section_title
;
Structure prediction by ZEFSAII (Michael W. Deem and Ramdas Pophale) SiO2 
 PCOD9129788
Probable space group: C 2
;
_chemical_formula_sum "Si O2"
_cell_formula_units_Z 14
_cell_length_a 9.452958
_cell_length_b 9.069729
_cell_length_c 17.496769
_cell_angle_alpha 90.000000
_cell_angle_beta 27.175137
_cell_angle_gamma 90.000000
_cell_volume 685.113070
_symmetry_space_group_name_H-M "C 2"
_symmetry_group_IT_number 5
_symmetry_cell_setting 'monoclinic'
loop_
_space_group_symop_operation_xyz
x,y,z
-x,y,-z
1/2+x,1/2+y,z
1/2-x,1/2+y,-z
loop_
_atom_site_type_symbol
_atom_site_label
_atom_site_fract_x
_atom_site_fract_y
_atom_site_fract_z
Si Si1 0.172355 0.476420 0.677559
Si Si2 0.094299 0.381695 0.041483
Si Si3 0.172894 0.064558 0.800330
Si Si4 0.500000 0.189407 0.500000
O O1 0.500000 0.551849 0.500000
O O2 0.222545 0.308365 0.621764
O O3 0.118077 0.464927 0.793828
O O4 0.879018 0.541256 0.776068
O O5 0.032925 0.210387 0.088143
O O6 0.443369 0.431890 0.890622
O O7 0.000000 0.415141 0.000000
O O8 0.407099 0.095547 0.617763
#
# Coordination Sequence:
#
# PCOD9129788 Si02
#       4
#     4   4   4   2
#     4   9  21  44  63  93 132 165 207 267 315 374
#     4  11  24  41  65  99 127 168 215 257 322 375
#     4  11  23  44  66  97 128 169 212 265 316 380
#     4   8  22  38  66  96 128 164 214 256 326 362
#
# _framework density 20.434583
#
# number of rings (size 3 to 8) (size 9 to 14) (size 15 to 20)
#    0.857    1.143    0.000    2.571    4.000    4.571 
#    5.143    0.000    0.000    0.000    0.000    0.000 
#    0.000    0.000    0.000    0.000    0.000    0.000 
#
# Total GULP energy -39040.601307 kJ/mol
# GULP energy per Si atom -5577.228758 kJ/mol
# Density = 2.038807 g / cm^3
# Si number density = 20.434583 Si / 1000 Ang^3
#
#
#
# Elastic Constant Matrix: (Units=GPa)
#
#
# Indices 1 2 3 4 5 6 
#
# 1 123.3453 46.7862 64.6802 -0.0023 9.1980 0.0008
# 2 46.7862 52.6199 36.4637 -0.0024 0.1274 -0.0002
# 3 64.6802 36.4637 109.6597 -0.0153 20.4086 0.0047
# 4 -0.0023 -0.0024 -0.0153 42.6478 0.0022 -3.8210
# 5 9.1980 0.1274 20.4086 0.0022 45.0166 -0.0007
# 6 0.0008 -0.0002 0.0047 -3.8210 -0.0007 26.9308
#
#
#
# Elastic Compliance Matrix: (Units=1/GPa)
#
#
# Indices 1 2 3 4 5 6 
#
# 1 0.014415 -0.009076 -0.005396 -0.000002 -0.000473 0.000000
# 2 -0.009076 0.031083 -0.005800 -0.000001 0.004396 0.000001
# 3 -0.005396 -0.005800 0.015315 0.000005 -0.005824 -0.000002
# 4 -0.000002 -0.000001 0.000005 0.023750 -0.000003 0.003370
# 5 -0.000473 0.004396 -0.005824 -0.000003 0.024939 0.000001
# 6 0.000000 0.000001 -0.000002 0.003370 0.000001 0.037610
#
#
# Mechanical properties :
#
#
# Convention : Reuss Voigt Hill
#
# Bulk Modulus (GPa) = 49.34176 64.60945 56.97561
# Shear Modulus (GPa) = 25.71842 32.09869 28.90856
#
# Velocity S-wave (km/s) = 3.55149 3.96763 3.76531
# Velocity P-wave (km/s) = 6.40438 7.25781 6.84441
#
# Compressibility (1/GPa) = 0.02026681
#
# Stress axis : x y z
#
# Youngs Moduli (GPa) = 69.37167 32.17177 65.29721
#
# Poissons Ratio (x) = 0.29200 0.35236
# Poissons Ratio (y) = 0.62965 0.37875
# Poissons Ratio (z) = 0.37435 0.18661
#
# Static dielectric constant tensor:
#      x y z
#    x 1.686240 0.000000 0.029070 
#    y 0.000000 1.746920 0.000000 
#    z 0.029070 0.000000 1.755540 
# 
# From -- ./inp_files/13500.got.cif
#   From: 2010.05.17/outbox.cif.g08.bks.cpg/sg5_7_cif.got.tgz:13500.got - 2010.06.03 18:56:24.
