data_PCOD9129093
_publ_section_title
;
Structure prediction by ZEFSAII (Michael W. Deem and Ramdas Pophale) SiO2 
 PCOD9129093
Probable space group: C 2
;
_chemical_formula_sum "Si O2"
_cell_formula_units_Z 26
_cell_length_a 14.746409
_cell_length_b 8.289443
_cell_length_c 14.838683
_cell_angle_alpha 90.000000
_cell_angle_beta 139.670536
_cell_angle_gamma 90.000000
_cell_volume 1173.906044
_symmetry_space_group_name_H-M "C 2"
_symmetry_group_IT_number 5
_symmetry_cell_setting 'monoclinic'
loop_
_space_group_symop_operation_xyz
x,y,z
-x,y,-z
1/2+x,1/2+y,z
1/2-x,1/2+y,-z
loop_
_atom_site_type_symbol
_atom_site_label
_atom_site_fract_x
_atom_site_fract_y
_atom_site_fract_z
Si Si1 0.460072 0.089700 0.271784
Si Si2 0.421977 0.270027 0.795362
Si Si3 0.433884 0.755969 0.182541
Si Si4 0.816894 0.135632 0.713890
Si Si5 0.685572 0.767865 0.094073
Si Si6 0.500000 0.084343 0.500000
Si Si7 0.312668 0.143500 0.896779
O O1 0.578080 0.169210 0.297863
O O2 0.350610 0.232213 0.207937
O O3 0.480047 0.007184 0.385606
O O4 0.398589 0.943706 0.167027
O O5 0.364682 0.450270 0.737346
O O6 0.330928 0.198259 0.807974
O O7 0.580232 0.246583 0.958022
O O8 0.600084 0.734346 0.299439
O O9 0.345490 0.665182 0.190113
O O10 0.378901 0.694373 0.044900
O O11 0.859823 0.188291 0.847196
O O12 0.649844 0.166250 0.590799
O O13 0.650643 0.955765 0.070429
#
# Coordination Sequence:
#
# PCOD9129093 Si02
#       7
#     4   4   4   4   4   2   4
#     4  11  23  43  70  95 142 176 231 269 344 389
#     4  11  23  39  62 102 134 185 208 280 328 422
#     4  12  22  38  65 104 133 179 212 286 340 414
#     4  11  26  41  70  94 139 182 235 268 344 382
#     4  11  21  39  62 102 139 175 209 286 335 421
#     4  10  26  50  66  96 128 192 238 290 302 410
#     4  11  23  36  62 102 145 166 215 259 359 410
#
# _framework density 22.148281999999998
#
# number of rings (size 3 to 8) (size 9 to 14) (size 15 to 20)
#    0.000    0.923    3.077    4.154    8.615    1.231 
#    0.000    0.000    0.000   16.615    0.000    0.000 
#    0.000    0.000    0.000    0.000    0.000    0.000 
#
# Total GULP energy -72452.953923 kJ/mol
# GULP energy per Si atom -5573.304148 kJ/mol
# Density = 2.209787 g / cm^3
# Si number density = 22.148282 Si / 1000 Ang^3
#
#
#
# Elastic Constant Matrix: (Units=GPa)
#
#
# Indices 1 2 3 4 5 6 
#
# 1 189.3402 25.1005 26.4664 0.0000 5.6705 0.0000
# 2 25.1005 75.2579 -2.5380 0.0000 3.9954 0.0000
# 3 26.4664 -2.5380 40.8244 0.0000 6.6745 0.0000
# 4 0.0000 0.0000 0.0000 1.0105 0.0000 -1.7813
# 5 5.6705 3.9954 6.6745 0.0000 43.1623 0.0000
# 6 0.0000 0.0000 0.0000 -1.7813 0.0000 30.7018
#
#
#
# Elastic Compliance Matrix: (Units=1/GPa)
#
#
# Indices 1 2 3 4 5 6 
#
# 1 0.006148 -0.002191 -0.004127 0.000000 0.000033 0.000000
# 2 -0.002191 0.014179 0.002534 0.000000 -0.001416 0.000000
# 3 -0.004127 0.002534 0.027986 0.000000 -0.004020 0.000000
# 4 0.000000 0.000000 0.000000 1.102296 0.000000 0.063953
# 5 0.000033 -0.001416 -0.004020 0.000000 0.023917 0.000000
# 6 0.000000 0.000000 0.000000 0.063953 0.000000 0.036282
#
#
# Mechanical properties :
#
#
# Convention : Reuss Voigt Hill
#
# Bulk Modulus (GPa) = 24.54430 44.83115 34.68773
# Shear Modulus (GPa) = 4.05858 32.06784 18.06321
#
# Velocity S-wave (km/s) = 1.35515 3.80922 2.85890
# Velocity P-wave (km/s) = 3.68164 6.29541 5.15687
#
# Compressibility (1/GPa) = 0.04074265
#
# Stress axis : x y z
#
# Youngs Moduli (GPa) = 162.65573 70.52588 35.73256
#
# Poissons Ratio (x) = 0.15456 0.14748
# Poissons Ratio (y) = 0.35645 -0.09054
# Poissons Ratio (z) = 0.67135 -0.17870
#
# Static dielectric constant tensor:
#      x y z
#    x 1.841090 0.000000 0.042820 
#    y 0.000000 1.765180 0.000000 
#    z 0.042820 0.000000 1.934100 
# 
# From -- ./inp_files/54318.got.cif
#   From: 2010.05.17/outbox.cif.g08.bks.cpg/sg5_28_cif.got.tgz:54318.got - 2010.06.03 18:56:24.
