data_PCOD9129054
_publ_section_title
;
Structure prediction by ZEFSAII (Michael W. Deem and Ramdas Pophale) SiO2 
 PCOD9129054
Probable space group: C 2
;
_chemical_formula_sum "Si O2"
_cell_formula_units_Z 30
_cell_length_a 8.092704
_cell_length_b 22.687888
_cell_length_c 11.047910
_cell_angle_alpha 90.000000
_cell_angle_beta 42.924517
_cell_angle_gamma 90.000000
_cell_volume 1381.455231
_symmetry_space_group_name_H-M "C 2"
_symmetry_group_IT_number 5
_symmetry_cell_setting 'monoclinic'
loop_
_space_group_symop_operation_xyz
x,y,z
-x,y,-z
1/2+x,1/2+y,z
1/2-x,1/2+y,-z
loop_
_atom_site_type_symbol
_atom_site_label
_atom_site_fract_x
_atom_site_fract_y
_atom_site_fract_z
Si Si1 0.000000 0.696770 0.000000
Si Si2 0.542515 0.526283 0.274406
Si Si3 0.764286 0.908850 0.898677
Si Si4 0.403787 0.018763 0.314388
Si Si5 0.431597 0.884502 0.744601
Si Si6 0.213594 0.113005 0.976754
Si Si7 0.057289 0.819778 0.591902
Si Si8 0.741453 0.781499 0.298631
O O1 0.790777 0.739846 0.161409
O O2 0.107748 0.659375 0.053211
O O3 0.566994 0.466030 0.183710
O O4 0.740143 0.521114 0.278469
O O5 0.283951 0.531741 0.477288
O O6 0.598253 0.578885 0.153704
O O7 0.870681 0.870063 0.732582
O O8 0.500000 0.930663 0.000000
O O9 0.704151 0.874527 0.054540
O O10 0.617296 0.065701 0.183768
O O11 0.513980 0.953911 0.282047
O O12 0.687269 0.851979 0.577344
O O13 0.266868 0.850671 0.734354
O O14 0.000000 0.133594 0.000000
O O15 0.059578 0.777297 0.704530
O O16 0.000000 0.787058 0.500000
O O17 0.500000 0.765608 0.500000
#
# Coordination Sequence:
#
# PCOD9129054 Si02
#       8
#     2   4   4   4   4   4   4   4
#     4  12  26  58  76  96 146 192 258 320 354 426
#     4  11  21  39  67 105 148 198 228 283 382 429
#     4  12  19  30  60  97 144 191 221 268 349 437
#     4  11  21  40  71 105 150 194 228 295 371 451
#     4  11  21  39  64 101 146 185 233 280 361 444
#     4  12  27  48  76 106 139 191 256 307 367 437
#     4  11  21  39  62  98 137 182 231 283 352 440
#     4  10  26  47  70  99 135 191 243 300 370 420
#
# _framework density 21.716232000000002
#
# number of rings (size 3 to 8) (size 9 to 14) (size 15 to 20)
#    0.000    0.800    6.667    0.800    0.000    2.667 
#    8.400    0.000    0.000    0.000    0.000    0.000 
#    0.000    0.000    0.000    0.000    0.000    0.000 
#
# Total GULP energy -83696.856953 kJ/mol
# GULP energy per Si atom -5579.790464 kJ/mol
# Density = 2.166680 g / cm^3
# Si number density = 21.716232 Si / 1000 Ang^3
#
#
#
# Elastic Constant Matrix: (Units=GPa)
#
#
# Indices 1 2 3 4 5 6 
#
# 1 69.4309 25.2246 23.5499 0.0000 4.8487 0.0000
# 2 25.2246 57.6812 12.3955 0.0000 2.7481 0.0000
# 3 23.5499 12.3955 137.3352 0.0000 4.7233 0.0000
# 4 0.0000 0.0000 0.0000 -3.8716 0.0000 -1.4917
# 5 4.8487 2.7481 4.7233 0.0000 30.7367 0.0000
# 6 0.0000 0.0000 0.0000 -1.4917 0.0000 11.8065
#
#
#
# Elastic Compliance Matrix: (Units=1/GPa)
#
#
# Indices 1 2 3 4 5 6 
#
# 1 0.017971 -0.007264 -0.002363 0.000000 -0.001822 0.000000
# 2 -0.007264 0.020671 -0.000599 0.000000 -0.000610 0.000000
# 3 -0.002363 -0.000599 0.007767 0.000000 -0.000767 0.000000
# 4 0.000000 0.000000 0.000000 -0.246302 0.000000 -0.031119
# 5 -0.001822 -0.000610 -0.000767 0.000000 0.032994 0.000000
# 6 0.000000 0.000000 0.000000 -0.031119 0.000000 0.080767
#
#
# Mechanical properties :
#
#
# Convention : Reuss Voigt Hill
#
# Bulk Modulus (GPa) = 38.52661 42.97637 40.75149
# Shear Modulus (GPa) = -87.67833 21.28614 -33.19609
#
# Velocity S-wave (km/s) = -6.36099 3.13420 -3.91401
# Velocity P-wave (km/s) = 6.01416 5.73852 1.27271
#
# Compressibility (1/GPa) = 0.02595608
#
# Stress axis : x y z
#
# Youngs Moduli (GPa) = 55.64601 48.37656 128.74716
#
# Poissons Ratio (x) = 0.35141 0.30426
# Poissons Ratio (y) = 0.40422 0.07713
# Poissons Ratio (z) = 0.13151 0.02898
#
# Static dielectric constant tensor:
#      x y z
#    x 1.987230 0.000000 -0.049440 
#    y 0.000000 1.754090 0.000000 
#    z -0.049440 0.000000 1.770970 
# 
# From -- ./inp_files/37535.got.cif
#   From: 2010.05.17/outbox.cif.g08.bks.cpg/sg5_19_cif.got.tgz:37535.got - 2010.06.03 18:56:24.
