data_PCOD9129964
_publ_section_title
;
Structure prediction by ZEFSAII (Michael W. Deem and Ramdas Pophale) SiO2 
 PCOD9129964
Probable space group: C 2
;
_chemical_formula_sum "Si O2"
_cell_formula_units_Z 26
_cell_length_a 21.215953
_cell_length_b 11.248102
_cell_length_c 6.081291
_cell_angle_alpha 90.000000
_cell_angle_beta 125.492941
_cell_angle_gamma 90.000000
_cell_volume 1181.576297
_symmetry_space_group_name_H-M "C 2"
_symmetry_group_IT_number 5
_symmetry_cell_setting 'monoclinic'
loop_
_space_group_symop_operation_xyz
x,y,z
-x,y,-z
1/2+x,1/2+y,z
1/2-x,1/2+y,-z
loop_
_atom_site_type_symbol
_atom_site_label
_atom_site_fract_x
_atom_site_fract_y
_atom_site_fract_z
Si Si1 0.500000 0.247051 0.500000
Si Si2 0.886029 0.347816 0.064487
Si Si3 0.779540 0.412662 0.455823
Si Si4 0.000000 0.235434 0.000000
Si Si5 0.208379 0.187316 0.833867
Si Si6 0.637360 0.073726 0.680106
Si Si7 0.632267 0.536311 0.328114
Si Si8 0.500000 0.350342 0.000000
O O1 0.570746 0.168065 0.560756
O O2 0.522805 0.301468 0.793980
O O3 0.814641 0.358383 0.748483
O O4 0.970028 0.321085 0.132467
O O5 0.862137 0.236880 0.166173
O O6 0.882361 0.470631 0.186337
O O7 0.769730 0.300498 0.274334
O O8 0.846941 0.501434 0.510380
O O9 0.701562 0.490429 0.312588
O O10 0.924962 0.149626 0.825640
O O11 0.177967 0.075016 0.636807
O O12 0.283531 0.142980 0.110302
O O13 0.573899 0.427704 0.219908
#
# Coordination Sequence:
#
# PCOD9129964 Si02
#       8
#     2   4   4   2   4   4   4   2
#     4  12  30  50  74 110 154 208 246 320 380 460
#     4  11  25  42  70 106 141 185 245 307 371 452
#     4  11  24  45  69 105 140 188 248 308 364 465
#     4  11  24  43  70 104 144 189 230 315 372 442
#     4  11  24  44  73 107 138 193 245 315 371 451
#     4  11  27  42  74 103 144 197 248 310 386 448
#     4  11  24  46  75 105 146 193 250 311 385 445
#     4  11  30  49  76 112 152 201 252 321 374 470
#
# _framework density 22.004505000000002
#
# number of rings (size 3 to 8) (size 9 to 14) (size 15 to 20)
#    0.000    0.923    3.077    1.846    6.462    4.308 
#    0.000    0.000    0.000    0.000    0.000    0.000 
#    0.000    0.000    0.000    0.000    0.000    0.000 
#
# Total GULP energy -72428.204330 kJ/mol
# GULP energy per Si atom -5571.400333 kJ/mol
# Density = 2.195442 g / cm^3
# Si number density = 22.004505 Si / 1000 Ang^3
#
#
#
# Elastic Constant Matrix: (Units=GPa)
#
#
# Indices 1 2 3 4 5 6 
#
# 1 126.1739 45.1191 6.3522 0.0000 -0.3956 0.0000
# 2 45.1191 74.4488 15.5681 0.0000 -5.4003 0.0000
# 3 6.3522 15.5681 27.9928 0.0000 2.0748 0.0000
# 4 0.0000 0.0000 0.0000 23.7594 0.0000 19.3423
# 5 -0.3956 -5.4003 2.0748 0.0000 31.6853 0.0000
# 6 0.0000 0.0000 0.0000 19.3423 0.0000 22.5296
#
#
#
# Elastic Compliance Matrix: (Units=1/GPa)
#
#
# Indices 1 2 3 4 5 6 
#
# 1 0.010194 -0.006551 0.001410 0.000000 -0.001082 0.000000
# 2 -0.006551 0.019732 -0.009778 0.000000 0.003921 0.000000
# 3 0.001410 -0.009778 0.041163 0.000000 -0.004344 0.000000
# 4 0.000000 0.000000 0.000000 0.139789 0.000000 -0.120013
# 5 -0.001082 0.003921 -0.004344 0.000000 0.032500 0.000000
# 6 0.000000 0.000000 0.000000 -0.120013 0.000000 0.147420
#
#
# Mechanical properties :
#
#
# Convention : Reuss Voigt Hill
#
# Bulk Modulus (GPa) = 24.24149 40.29937 32.27043
# Shear Modulus (GPa) = 11.51053 26.36662 18.93857
#
# Velocity S-wave (km/s) = 2.28962 3.46531 2.93690
# Velocity P-wave (km/s) = 4.24621 5.86217 5.11837
#
# Compressibility (1/GPa) = 0.04125159
#
# Stress axis : x y z
#
# Youngs Moduli (GPa) = 98.09796 50.68035 24.29353
#
# Poissons Ratio (x) = 0.33202 -0.03426
# Poissons Ratio (y) = 0.64267 0.23753
# Poissons Ratio (z) = -0.13836 0.49553
#
# Static dielectric constant tensor:
#      x y z
#    x 1.857420 0.000000 -0.100940 
#    y 0.000000 1.793130 0.000000 
#    z -0.100940 0.000000 1.881230 
# 
# From -- ./inp_files/9422.got.cif
#   From: 2010.05.17/outbox.cif.g08.bks.cpg/sg5_5_cif.got.tgz:9422.got - 2010.06.03 18:56:24.
