data_PCOD9129746
_publ_section_title
;
Structure prediction by ZEFSAII (Michael W. Deem and Ramdas Pophale) SiO2 
 PCOD9129746
Probable space group: C 2
;
_chemical_formula_sum "Si O2"
_cell_formula_units_Z 16
_cell_length_a 13.008382
_cell_length_b 7.084909
_cell_length_c 16.862238
_cell_angle_alpha 90.000000
_cell_angle_beta 21.179140
_cell_angle_gamma 90.000000
_cell_volume 561.465190
_symmetry_space_group_name_H-M "C 2"
_symmetry_group_IT_number 5
_symmetry_cell_setting 'monoclinic'
loop_
_space_group_symop_operation_xyz
x,y,z
-x,y,-z
1/2+x,1/2+y,z
1/2-x,1/2+y,-z
loop_
_atom_site_type_symbol
_atom_site_label
_atom_site_fract_x
_atom_site_fract_y
_atom_site_fract_z
Si Si1 0.526239 0.233730 0.185373
Si Si2 0.809591 0.651983 0.765613
Si Si3 0.727639 0.727687 0.247257
Si Si4 0.581333 0.664344 0.687869
O O1 0.826556 0.250366 0.922619
O O2 0.595409 0.110698 0.212582
O O3 0.296870 0.161206 0.286265
O O4 0.438848 0.441994 0.277602
O O5 0.760283 0.456406 0.755720
O O6 0.100551 0.738853 0.521942
O O7 0.500000 0.747279 0.000000
O O8 0.482837 0.684172 0.359928
O O9 0.000000 0.668243 0.000000
#
# Coordination Sequence:
#
# PCOD9129746 Si02
#       4
#     4   4   4   4
#     4  11  24  43  70  98 136 178 215 281 340 382
#     4  11  24  42  69 101 134 176 224 271 328 402
#     4   9  21  43  66  95 133 173 221 269 328 397
#     4  11  23  42  70 102 132 174 226 270 333 402
#
# _framework density 28.496870000000001
#
# number of rings (size 3 to 8) (size 9 to 14) (size 15 to 20)
#    0.000    1.500    0.000    6.000    0.000   10.000 
#    0.000    2.500    0.000   45.000    0.000    0.000 
#    0.000    0.000    0.000    0.000    0.000    0.000 
#
# Total GULP energy -44779.048279 kJ/mol
# GULP energy per Si atom -5597.381035 kJ/mol
# Density = 2.843201 g / cm^3
# Si number density = 28.496870 Si / 1000 Ang^3
#
#
#
# Elastic Constant Matrix: (Units=GPa)
#
#
# Indices 1 2 3 4 5 6 
#
# 1 204.8968 3.6907 25.4910 -0.0145 -1.6277 0.0029
# 2 3.6907 83.9768 10.5060 -0.0399 6.7948 0.0028
# 3 25.4910 10.5060 235.0370 -0.0762 -46.7175 0.0121
# 4 -0.0145 -0.0399 -0.0762 21.8535 0.0111 5.1459
# 5 -1.6277 6.7948 -46.7175 0.0111 52.1206 -0.0017
# 6 0.0029 0.0028 0.0121 5.1459 -0.0017 45.2118
#
#
#
# Elastic Compliance Matrix: (Units=1/GPa)
#
#
# Indices 1 2 3 4 5 6 
#
# 1 0.004955 -0.000112 -0.000607 0.000001 -0.000375 0.000000
# 2 -0.000112 0.012248 -0.001038 0.000021 -0.002531 -0.000003
# 3 -0.000607 -0.001038 0.005342 0.000014 0.004904 -0.000003
# 4 0.000001 0.000021 0.000014 0.047020 0.000000 -0.005352
# 5 -0.000375 -0.002531 0.004904 0.000000 0.023900 0.000000
# 6 0.000000 -0.000003 -0.000003 -0.005352 0.000000 0.022727
#
#
# Mechanical properties :
#
#
# Convention : Reuss Voigt Hill
#
# Bulk Modulus (GPa) = 52.54659 67.03177 59.78918
# Shear Modulus (GPa) = 39.66713 56.11872 47.89293
#
# Velocity S-wave (km/s) = 3.73498 4.44249 4.10401
# Velocity P-wave (km/s) = 6.08929 7.06313 6.59421
#
# Compressibility (1/GPa) = 0.01903073
#
# Stress axis : x y z
#
# Youngs Moduli (GPa) = 201.81471 81.64827 187.20563
#
# Poissons Ratio (x) = 0.00911 0.11361
# Poissons Ratio (y) = 0.02251 0.19440
# Poissons Ratio (z) = 0.12248 0.08479
#
# Static dielectric constant tensor:
#      x y z
#    x 2.132440 0.000000 0.030010 
#    y 0.000000 2.125530 0.000010 
#    z 0.030010 0.000010 2.344180 
# 
# From -- ./inp_files/41385.got.cif
#   From: 2010.05.17/outbox.cif.g08.bks.cpg/sg5_21_cif.got.tgz:41385.got - 2010.06.03 18:56:24.
