data_PCOD9129451
_publ_section_title
;
Structure prediction by ZEFSAII (Michael W. Deem and Ramdas Pophale) SiO2 
 PCOD9129451
Probable space group: C 2
;
_chemical_formula_sum "Si O2"
_cell_formula_units_Z 32
_cell_length_a 20.031496
_cell_length_b 13.802369
_cell_length_c 14.469504
_cell_angle_alpha 90.000000
_cell_angle_beta 160.060205
_cell_angle_gamma 90.000000
_cell_volume 1364.320779
_symmetry_space_group_name_H-M "C 2"
_symmetry_group_IT_number 5
_symmetry_cell_setting 'monoclinic'
loop_
_space_group_symop_operation_xyz
x,y,z
-x,y,-z
1/2+x,1/2+y,z
1/2-x,1/2+y,-z
loop_
_atom_site_type_symbol
_atom_site_label
_atom_site_fract_x
_atom_site_fract_y
_atom_site_fract_z
Si Si1 0.217110 0.398680 0.547841
Si Si2 0.058050 0.052188 0.672574
Si Si3 0.633525 0.204120 0.311107
Si Si4 0.048099 0.197378 0.955321
Si Si5 0.882436 0.687749 0.161474
Si Si6 0.283596 0.856520 0.945505
Si Si7 0.656439 0.040525 0.630393
Si Si8 0.821405 0.495211 0.706658
O O1 0.351938 0.304454 0.724154
O O2 0.250561 0.471334 0.675912
O O3 0.217636 0.444037 0.443873
O O4 0.990938 0.367247 0.266179
O O5 0.197429 0.962912 0.823556
O O6 0.000000 0.100165 0.500000
O O7 0.876368 0.007256 0.491721
O O8 0.179311 0.129415 0.889522
O O9 0.465729 0.205903 0.168743
O O10 0.613303 0.104532 0.231280
O O11 0.844063 0.197649 0.636257
O O12 0.170869 0.291803 0.085025
O O13 0.174236 0.101364 0.098839
O O14 0.000000 0.198497 0.000000
O O15 0.858175 0.789294 0.179995
O O16 0.032885 0.620031 0.412195
O O17 0.500000 0.997063 0.500000
O O18 0.000000 0.451305 0.000000
#
# Coordination Sequence:
#
# PCOD9129451 Si02
#       8
#     4   4   4   4   4   4   4   4
#     4  11  24  47  70 108 142 184 239 296 346 431
#     4  12  26  42  71 103 136 182 234 290 353 421
#     4  11  24  44  72  99 142 184 236 289 352 424
#     4  11  22  38  66 103 133 183 227 290 351 416
#     4  12  23  46  70 102 144 181 230 298 351 417
#     4  11  24  40  68 101 137 178 239 285 356 414
#     4  12  24  44  72 102 147 185 233 297 359 410
#     4  12  25  48  71  99 144 187 232 294 360 424
#
# _framework density 23.454895
#
# number of rings (size 3 to 8) (size 9 to 14) (size 15 to 20)
#    0.000    0.500    5.000    3.750    1.750    4.000 
#    0.000    5.625    0.000    0.000    0.000    0.000 
#    0.000    0.000    0.000    0.000    0.000    0.000 
#
# Total GULP energy -89615.988366 kJ/mol
# GULP energy per Si atom -5600.999273 kJ/mol
# Density = 2.340151 g / cm^3
# Si number density = 23.454895 Si / 1000 Ang^3
#
#
#
# Elastic Constant Matrix: (Units=GPa)
#
#
# Indices 1 2 3 4 5 6 
#
# 1 99.5135 15.3306 12.0546 0.0000 7.6645 0.0000
# 2 15.3306 72.9163 -1.3012 0.0000 -9.4917 0.0000
# 3 12.0546 -1.3012 61.2842 0.0001 0.9126 0.0001
# 4 0.0000 0.0000 0.0001 16.4454 0.0001 -0.6270
# 5 7.6645 -9.4917 0.9126 0.0001 36.3205 0.0001
# 6 0.0000 0.0000 0.0001 -0.6270 0.0001 33.8171
#
#
#
# Elastic Compliance Matrix: (Units=1/GPa)
#
#
# Indices 1 2 3 4 5 6 
#
# 1 0.010961 -0.002730 -0.002170 0.000000 -0.002972 0.000000
# 2 -0.002730 0.014881 0.000787 0.000000 0.004445 0.000000
# 3 -0.002170 0.000787 0.016757 0.000000 0.000242 0.000000
# 4 0.000000 0.000000 0.000000 0.060850 0.000000 0.001128
# 5 -0.002972 0.004445 0.000242 0.000000 0.029315 0.000000
# 6 0.000000 0.000000 0.000000 0.001128 0.000000 0.029592
#
#
# Mechanical properties :
#
#
# Convention : Reuss Voigt Hill
#
# Bulk Modulus (GPa) = 29.09240 31.76467 30.42853
# Shear Modulus (GPa) = 27.46632 31.15859 29.31246
#
# Velocity S-wave (km/s) = 3.42574 3.64874 3.53900
# Velocity P-wave (km/s) = 5.29887 5.59673 5.44984
#
# Compressibility (1/GPa) = 0.03437324
#
# Stress axis : x y z
#
# Youngs Moduli (GPa) = 91.23060 67.19944 59.67540
#
# Poissons Ratio (x) = 0.18347 0.12948
# Poissons Ratio (y) = 0.24908 -0.04695
# Poissons Ratio (z) = 0.19795 -0.05287
#
# Static dielectric constant tensor:
#      x y z
#    x 1.916200 0.000000 -0.026570 
#    y 0.000000 1.868190 0.000000 
#    z -0.026570 0.000000 1.922350 
# 
# From -- ./inp_files/57187.got.cif
#   From: 2010.05.17/outbox.cif.g08.bks.cpg/sg5_29_cif.got.tgz:57187.got - 2010.06.03 18:56:24.
