data_PCOD9129587
_publ_section_title
;
Structure prediction by ZEFSAII (Michael W. Deem and Ramdas Pophale) SiO2 
 PCOD9129587
Probable space group: C 2
;
_chemical_formula_sum "Si O2"
_cell_formula_units_Z 24
_cell_length_a 16.117801
_cell_length_b 14.563303
_cell_length_c 9.246040
_cell_angle_alpha 90.000000
_cell_angle_beta 148.756295
_cell_angle_gamma 90.000000
_cell_volume 1125.694078
_symmetry_space_group_name_H-M "C 2"
_symmetry_group_IT_number 5
_symmetry_cell_setting 'monoclinic'
loop_
_space_group_symop_operation_xyz
x,y,z
-x,y,-z
1/2+x,1/2+y,z
1/2-x,1/2+y,-z
loop_
_atom_site_type_symbol
_atom_site_label
_atom_site_fract_x
_atom_site_fract_y
_atom_site_fract_z
Si Si1 0.676668 0.991310 0.326541
Si Si2 0.359018 0.139553 0.503953
Si Si3 0.915548 0.338858 0.235524
Si Si4 0.327980 0.483174 0.263282
Si Si5 0.639573 0.779460 0.321201
Si Si6 0.722970 0.159704 0.952722
O O1 0.799694 0.017518 0.384347
O O2 0.693268 0.882663 0.367015
O O3 0.687555 0.042245 0.495189
O O4 0.500000 0.011625 0.000000
O O5 0.284826 0.211585 0.507234
O O6 0.548661 0.148314 0.764999
O O7 0.290987 0.156626 0.242256
O O8 0.000000 0.383576 0.500000
O O9 0.051266 0.289214 0.342030
O O10 0.814700 0.413386 0.993974
O O11 0.798451 0.256840 0.107449
O O12 0.500000 0.436169 0.500000
O O13 0.322233 0.572137 0.153382
O O14 0.500000 0.753101 0.000000
#
# Coordination Sequence:
#
# PCOD9129587 Si02
#       6
#     4   4   4   4   4   4
#     4  11  22  44  68  95 136 185 223 277 343 401
#     4  11  24  40  75 100 138 180 231 276 340 411
#     4  12  27  45  72  99 140 181 229 284 343 405
#     4  12  27  45  72  99 140 181 229 284 343 405
#     4  11  22  44  68  95 136 185 223 277 343 401
#     4  11  25  44  66 104 138 180 226 282 342 402
#
# _framework density 21.320179
#
# number of rings (size 3 to 8) (size 9 to 14) (size 15 to 20)
#    0.000    0.667    6.667    0.500   14.000    0.000 
#    0.000    0.000    0.000    0.000    0.000    0.000 
#    0.000    0.000    0.000    0.000    0.000    0.000 
#
# Total GULP energy -67085.004157 kJ/mol
# GULP energy per Si atom -5590.417013 kJ/mol
# Density = 2.127165 g / cm^3
# Si number density = 21.320179 Si / 1000 Ang^3
#
#
#
# Elastic Constant Matrix: (Units=GPa)
#
#
# Indices 1 2 3 4 5 6 
#
# 1 111.6343 0.5784 27.4169 0.0000 15.7467 0.0000
# 2 0.5784 48.8751 6.9665 0.0000 8.7154 0.0000
# 3 27.4169 6.9665 53.4943 0.0000 1.8735 0.0000
# 4 0.0000 0.0000 0.0000 24.3169 0.0000 -0.2413
# 5 15.7467 8.7154 1.8735 0.0000 17.6999 0.0000
# 6 0.0000 0.0000 0.0000 -0.2413 0.0000 38.8061
#
#
#
# Elastic Compliance Matrix: (Units=1/GPa)
#
#
# Indices 1 2 3 4 5 6 
#
# 1 0.012068 0.002775 -0.006146 0.000000 -0.011453 0.000000
# 2 0.002775 0.023418 -0.003997 0.000000 -0.013577 0.000000
# 3 -0.006146 -0.003997 0.022186 0.000000 0.005087 0.000000
# 4 0.000000 0.000000 0.000000 0.041126 0.000000 0.000256
# 5 -0.011453 -0.013577 0.005087 0.000000 0.072833 0.000000
# 6 0.000000 0.000000 0.000000 0.000256 0.000000 0.025771
#
#
# Mechanical properties :
#
#
# Convention : Reuss Voigt Hill
#
# Bulk Modulus (GPa) = 23.28920 31.54747 27.41833
# Shear Modulus (GPa) = 22.08009 28.10071 25.09040
#
# Velocity S-wave (km/s) = 3.22163 3.63441 3.43423
# Velocity P-wave (km/s) = 4.97853 5.69570 5.34915
#
# Compressibility (1/GPa) = 0.04293837
#
# Stress axis : x y z
#
# Youngs Moduli (GPa) = 82.86245 42.70185 45.07428
#
# Poissons Ratio (x) = -0.11851 0.27700
# Poissons Ratio (y) = -0.22997 0.18015
# Poissons Ratio (z) = 0.50923 0.17066
#
# Static dielectric constant tensor:
#      x y z
#    x 1.791970 0.000000 0.009880 
#    y 0.000000 1.752030 0.000000 
#    z 0.009880 0.000000 1.768700 
# 
# From -- ./inp_files/24730.got.cif
#   From: 2010.05.17/outbox.cif.g08.bks.cpg/sg5_13_cif.got.tgz:24730.got - 2010.06.03 18:56:24.
