data_PCOD9129780
_publ_section_title
;
Structure prediction by ZEFSAII (Michael W. Deem and Ramdas Pophale) SiO2 
 PCOD9129780
Probable space group: C 2
;
_chemical_formula_sum "Si O2"
_cell_formula_units_Z 24
_cell_length_a 8.956495
_cell_length_b 18.022254
_cell_length_c 8.144528
_cell_angle_alpha 90.000000
_cell_angle_beta 50.531511
_cell_angle_gamma 90.000000
_cell_volume 1014.882940
_symmetry_space_group_name_H-M "C 2"
_symmetry_group_IT_number 5
_symmetry_cell_setting 'monoclinic'
loop_
_space_group_symop_operation_xyz
x,y,z
-x,y,-z
1/2+x,1/2+y,z
1/2-x,1/2+y,-z
loop_
_atom_site_type_symbol
_atom_site_label
_atom_site_fract_x
_atom_site_fract_y
_atom_site_fract_z
Si Si1 0.416635 0.479980 0.740108
Si Si2 0.878600 0.394226 0.861954
Si Si3 0.619088 0.219576 0.568595
Si Si4 0.015422 0.137540 0.797834
Si Si5 0.685242 0.239520 0.979297
Si Si6 0.248905 0.873852 0.579448
O O1 0.500000 0.498321 0.500000
O O2 0.473201 0.551437 0.806334
O O3 0.541451 0.407967 0.697516
O O4 0.206396 0.454050 0.952940
O O5 0.808033 0.399626 0.720337
O O6 0.107456 0.397995 0.667527
O O7 0.800822 0.311717 0.963014
O O8 0.500000 0.253702 0.500000
O O9 0.770698 0.158171 0.410922
O O10 0.442137 0.192333 0.802821
O O11 0.739856 0.285220 0.569872
O O12 0.000000 0.160020 0.000000
O O13 0.854394 0.183798 0.807018
O O14 0.500000 0.265604 0.000000
#
# Coordination Sequence:
#
# PCOD9129780 Si02
#       6
#     4   4   4   4   4   4
#     4  12  28  47  68 101 144 185 238 300 351 417
#     4  11  23  44  73 104 138 189 233 290 354 421
#     4  12  24  43  73 109 139 181 237 291 353 418
#     4  12  28  48  70 103 147 190 233 292 359 423
#     4  12  24  42  76 107 141 181 235 294 348 423
#     4  11  23  43  74 103 140 184 237 286 354 425
#
# _framework density 23.648046000000001
#
# number of rings (size 3 to 8) (size 9 to 14) (size 15 to 20)
#    0.000    0.333    6.667    2.000    2.333    2.000 
#    3.000    0.000    0.000    0.000    0.000    0.000 
#    0.000    0.000    0.000    0.000    0.000    0.000 
#
# Total GULP energy -66920.865342 kJ/mol
# GULP energy per Si atom -5576.738779 kJ/mol
# Density = 2.359422 g / cm^3
# Si number density = 23.648046 Si / 1000 Ang^3
#
#
#
# Elastic Constant Matrix: (Units=GPa)
#
#
# Indices 1 2 3 4 5 6 
#
# 1 37.9653 -2.8783 25.4225 0.0000 0.0817 0.0000
# 2 -2.8783 79.2746 30.1542 0.0000 -8.5498 0.0000
# 3 25.4225 30.1542 168.6745 0.0000 -30.3731 0.0000
# 4 0.0000 0.0000 0.0000 31.6093 0.0000 0.4788
# 5 0.0817 -8.5498 -30.3731 0.0000 36.3015 0.0000
# 6 0.0000 0.0000 0.0000 0.4788 0.0000 18.3705
#
#
#
# Elastic Compliance Matrix: (Units=1/GPa)
#
#
# Indices 1 2 3 4 5 6 
#
# 1 0.030513 0.002883 -0.005892 0.000000 -0.004320 0.000000
# 2 0.002883 0.013865 -0.002739 0.000000 0.000967 0.000000
# 3 -0.005892 -0.002739 0.008468 0.000000 0.006454 0.000000
# 4 0.000000 0.000000 0.000000 0.031649 0.000000 -0.000825
# 5 -0.004320 0.000967 0.006454 0.000000 0.033184 0.000000
# 6 0.000000 0.000000 0.000000 -0.000825 0.000000 0.054457
#
#
# Mechanical properties :
#
#
# Convention : Reuss Voigt Hill
#
# Bulk Modulus (GPa) = 24.18324 43.47902 33.83113
# Shear Modulus (GPa) = 25.32717 32.80399 29.06558
#
# Velocity S-wave (km/s) = 3.27617 3.72852 3.50964
# Velocity P-wave (km/s) = 4.95576 6.07961 5.54622
#
# Compressibility (1/GPa) = 0.04135096
#
# Stress axis : x y z
#
# Youngs Moduli (GPa) = 32.77253 72.12264 118.08578
#
# Poissons Ratio (x) = -0.20795 0.69579
# Poissons Ratio (y) = -0.09449 0.32345
# Poissons Ratio (z) = 0.19310 0.19755
#
# Static dielectric constant tensor:
#      x y z
#    x 1.991260 0.000000 0.136870 
#    y 0.000000 1.787310 0.000000 
#    z 0.136870 0.000000 2.010980 
# 
# From -- ./inp_files/16693.got.cif
#   From: 2010.05.17/outbox.cif.g08.bks.cpg/sg5_9_cif.got.tgz:16693.got - 2010.06.03 18:56:24.
