data_PCOD9129572
_publ_section_title
;
Structure prediction by ZEFSAII (Michael W. Deem and Ramdas Pophale) SiO2 
 PCOD9129572
Probable space group: C 2
;
_chemical_formula_sum "Si O2"
_cell_formula_units_Z 28
_cell_length_a 16.370671
_cell_length_b 13.611860
_cell_length_c 8.799682
_cell_angle_alpha 90.000000
_cell_angle_beta 41.850024
_cell_angle_gamma 90.000000
_cell_volume 1308.265701
_symmetry_space_group_name_H-M "C 2"
_symmetry_group_IT_number 5
_symmetry_cell_setting 'monoclinic'
loop_
_space_group_symop_operation_xyz
x,y,z
-x,y,-z
1/2+x,1/2+y,z
1/2-x,1/2+y,-z
loop_
_atom_site_type_symbol
_atom_site_label
_atom_site_fract_x
_atom_site_fract_y
_atom_site_fract_z
Si Si1 0.979187 0.360050 0.847891
Si Si2 0.897031 0.157256 0.337576
Si Si3 0.613899 0.525940 0.123788
Si Si4 0.726854 0.156571 0.302913
Si Si5 0.217518 0.825207 0.075937
Si Si6 0.002243 0.559542 0.681588
Si Si7 0.746833 0.146195 0.832567
O O1 0.027387 0.254865 0.724293
O O2 0.042010 0.452681 0.682612
O O3 0.839790 0.369830 0.981659
O O4 0.000000 0.367870 0.000000
O O5 0.842519 0.180717 0.247484
O O6 0.784215 0.140627 0.606860
O O7 0.987830 0.064223 0.225450
O O8 0.627352 0.413097 0.154607
O O9 0.643632 0.591160 0.230433
O O10 0.723540 0.561935 0.859619
O O11 0.685261 0.242312 0.246059
O O12 0.611583 0.133325 0.565548
O O13 0.244068 0.758744 0.892123
O O14 0.000000 0.559985 0.500000
O O15 0.879111 0.595312 0.936572
#
# Coordination Sequence:
#
# PCOD9129572 Si02
#       7
#     4   4   4   4   4   4   4
#     4  12  24  41  73 104 136 182 243 291 344 428
#     4  12  25  44  71 106 144 179 237 302 352 414
#     4  11  22  43  71 104 135 181 241 294 345 417
#     4  11  24  46  72  98 146 190 228 296 363 413
#     4  11  22  44  70 100 136 185 240 280 355 425
#     4  12  25  46  69  99 139 187 234 290 349 426
#     4  11  25  42  66 103 137 185 234 286 352 423
#
# _framework density 21.402379
#
# number of rings (size 3 to 8) (size 9 to 14) (size 15 to 20)
#    0.000    0.571    8.571    0.857    6.000    0.000 
#    5.143    0.000    3.143    0.000    0.000    0.000 
#    0.000    0.000    0.000    0.000    0.000    0.000 
#
# Total GULP energy -78137.902005 kJ/mol
# GULP energy per Si atom -5581.278715 kJ/mol
# Density = 2.135367 g / cm^3
# Si number density = 21.402379 Si / 1000 Ang^3
#
#
#
# Elastic Constant Matrix: (Units=GPa)
#
#
# Indices 1 2 3 4 5 6 
#
# 1 72.0039 36.8131 27.6423 0.0000 -5.8031 0.0000
# 2 36.8131 128.4312 31.5006 0.0000 -9.0936 0.0000
# 3 27.6423 31.5006 106.9380 0.0000 -5.0864 0.0000
# 4 0.0000 0.0000 0.0000 11.5082 0.0000 6.8055
# 5 -5.8031 -9.0936 -5.0864 0.0000 23.2502 0.0000
# 6 0.0000 0.0000 0.0000 6.8055 0.0000 25.1956
#
#
#
# Elastic Compliance Matrix: (Units=1/GPa)
#
#
# Indices 1 2 3 4 5 6 
#
# 1 0.017347 -0.004044 -0.003196 0.000000 0.002049 0.000000
# 2 -0.004044 0.009516 -0.001646 0.000000 0.002352 0.000000
# 3 -0.003196 -0.001646 0.010705 0.000000 0.000901 0.000000
# 4 0.000000 0.000000 0.000000 0.103412 0.000000 -0.027932
# 5 0.002049 0.002352 0.000901 0.000000 0.044639 0.000000
# 6 0.000000 0.000000 0.000000 -0.027932 0.000000 0.047234
#
#
# Mechanical properties :
#
#
# Convention : Reuss Voigt Hill
#
# Bulk Modulus (GPa) = 50.51038 55.47611 52.99324
# Shear Modulus (GPa) = 19.43842 26.08528 22.76185
#
# Velocity S-wave (km/s) = 3.01697 3.49492 3.26470
# Velocity P-wave (km/s) = 5.98228 6.50098 6.24702
#
# Compressibility (1/GPa) = 0.01979791
#
# Stress axis : x y z
#
# Youngs Moduli (GPa) = 57.64562 105.09115 93.41533
#
# Poissons Ratio (x) = 0.42494 0.29851
# Poissons Ratio (y) = 0.23309 0.15375
# Poissons Ratio (z) = 0.18421 0.17297
#
# Static dielectric constant tensor:
#      x y z
#    x 1.809050 0.000000 -0.013290 
#    y 0.000000 1.775480 0.000000 
#    z -0.013290 0.000000 1.807270 
# 
# From -- ./inp_files/27669.got.cif
#   From: 2010.05.17/outbox.cif.g08.bks.cpg/sg5_14_cif.got.tgz:27669.got - 2010.06.03 18:56:24.
