data_PCOD9129732
_publ_section_title
;
Structure prediction by ZEFSAII (Michael W. Deem and Ramdas Pophale) SiO2 
 PCOD9129732
Probable space group: C 2
;
_chemical_formula_sum "Si O2"
_cell_formula_units_Z 28
_cell_length_a 16.919586
_cell_length_b 5.598654
_cell_length_c 14.656647
_cell_angle_alpha 90.000000
_cell_angle_beta 113.745589
_cell_angle_gamma 90.000000
_cell_volume 1270.842143
_symmetry_space_group_name_H-M "C 2"
_symmetry_group_IT_number 5
_symmetry_cell_setting 'monoclinic'
loop_
_space_group_symop_operation_xyz
x,y,z
-x,y,-z
1/2+x,1/2+y,z
1/2-x,1/2+y,-z
loop_
_atom_site_type_symbol
_atom_site_label
_atom_site_fract_x
_atom_site_fract_y
_atom_site_fract_z
Si Si1 0.689749 0.810160 0.182224
Si Si2 0.023291 0.021129 0.307606
Si Si3 0.759806 0.893930 0.866921
Si Si4 0.799423 0.111232 0.503289
Si Si5 0.641829 0.051139 0.972405
Si Si6 0.470479 0.017445 0.797846
Si Si7 0.656671 0.546792 0.684034
O O1 0.675771 0.529304 0.172254
O O2 0.625275 0.970755 0.208736
O O3 0.785695 0.813726 0.268920
O O4 0.677231 0.880127 0.069798
O O5 0.114924 0.059109 0.398534
O O6 0.023601 0.765988 0.254977
O O7 0.008572 0.267023 0.243985
O O8 0.942821 0.012043 0.339793
O O9 0.704823 0.713002 0.780547
O O10 0.686431 0.015737 0.895339
O O11 0.824801 0.799237 0.973723
O O12 0.741584 0.868401 0.487326
O O13 0.826132 0.130883 0.409843
O O14 0.540464 0.033307 0.910950
#
# Coordination Sequence:
#
# PCOD9129732 Si02
#       7
#     4   4   4   4   4   4   4
#     4  11  25  44  68 104 147 200 247 307 370 436
#     4  12  27  49  75 110 145 193 247 305 368 453
#     4  11  23  42  74 103 147 200 255 306 370 444
#     4  12  28  51  80 111 148 189 241 310 385 450
#     4  11  23  42  67 105 141 201 248 304 364 438
#     4  12  28  46  72 108 152 193 248 306 371 435
#     4  11  26  46  76 108 147 195 251 305 376 448
#
# _framework density 22.032633000000001
#
# number of rings (size 3 to 8) (size 9 to 14) (size 15 to 20)
#    0.000    0.571    2.857    4.286   12.000    0.000 
#    0.000    2.857    0.000    0.000    0.000    0.000 
#    0.000    0.000    0.000    0.000    0.000    0.000 
#
# Total GULP energy -78069.562302 kJ/mol
# GULP energy per Si atom -5576.397307 kJ/mol
# Density = 2.198249 g / cm^3
# Si number density = 22.032633 Si / 1000 Ang^3
#
#
#
# Elastic Constant Matrix: (Units=GPa)
#
#
# Indices 1 2 3 4 5 6 
#
# 1 115.3718 42.5460 24.4695 0.0000 6.5426 0.0000
# 2 42.5460 98.9488 17.9242 0.0000 -12.0783 0.0000
# 3 24.4695 17.9242 76.2386 0.0000 8.4371 0.0000
# 4 0.0000 0.0000 0.0000 15.4073 0.0000 -8.3602
# 5 6.5426 -12.0783 8.4371 0.0000 48.0094 0.0000
# 6 0.0000 0.0000 0.0000 -8.3602 0.0000 9.5245
#
#
#
# Elastic Compliance Matrix: (Units=1/GPa)
#
#
# Indices 1 2 3 4 5 6 
#
# 1 0.010952 -0.004589 -0.002186 0.000000 -0.002263 0.000000
# 2 -0.004589 0.012969 -0.002046 0.000000 0.004248 0.000000
# 3 -0.002186 -0.002046 0.014607 0.000000 -0.002784 0.000000
# 4 0.000000 0.000000 0.000000 0.123930 0.000000 0.108780
# 5 -0.002263 0.004248 -0.002784 0.000000 0.022696 0.000000
# 6 0.000000 0.000000 0.000000 0.108780 0.000000 0.200475
#
#
# Mechanical properties :
#
#
# Convention : Reuss Voigt Hill
#
# Bulk Modulus (GPa) = 47.87973 51.15983 49.51978
# Shear Modulus (GPa) = 12.18820 28.29620 20.24220
#
# Velocity S-wave (km/s) = 2.35455 3.58758 3.03436
# Velocity P-wave (km/s) = 5.40095 6.35857 5.89923
#
# Compressibility (1/GPa) = 0.02088566
#
# Stress axis : x y z
#
# Youngs Moduli (GPa) = 91.30754 77.10836 68.45849
#
# Poissons Ratio (x) = 0.35389 0.14963
# Poissons Ratio (y) = 0.41905 0.14007
# Poissons Ratio (z) = 0.19957 0.15777
#
# Static dielectric constant tensor:
#      x y z
#    x 1.925550 0.000000 0.006490 
#    y 0.000000 2.021640 0.000000 
#    z 0.006490 0.000000 1.772840 
# 
# From -- ./inp_files/55497.got.cif
#   From: 2010.05.17/outbox.cif.g08.bks.cpg/sg5_28_cif.got.tgz:55497.got - 2010.06.03 18:56:24.
