data_PCOD9129346
_publ_section_title
;
Structure prediction by ZEFSAII (Michael W. Deem and Ramdas Pophale) SiO2 
 PCOD9129346
Probable space group: C 2
;
_chemical_formula_sum "Si O2"
_cell_formula_units_Z 24
_cell_length_a 15.770971
_cell_length_b 13.633208
_cell_length_c 9.192419
_cell_angle_alpha 90.000000
_cell_angle_beta 37.360061
_cell_angle_gamma 90.000000
_cell_volume 1199.354515
_symmetry_space_group_name_H-M "C 2"
_symmetry_group_IT_number 5
_symmetry_cell_setting 'monoclinic'
loop_
_space_group_symop_operation_xyz
x,y,z
-x,y,-z
1/2+x,1/2+y,z
1/2-x,1/2+y,-z
loop_
_atom_site_type_symbol
_atom_site_label
_atom_site_fract_x
_atom_site_fract_y
_atom_site_fract_z
Si Si1 0.412488 0.855320 0.263787
Si Si2 0.327728 0.374358 0.875369
Si Si3 0.771082 0.166916 0.896977
Si Si4 0.575465 0.000475 0.253861
Si Si5 0.425899 0.650895 0.393026
Si Si6 0.364928 0.429820 0.485106
O O1 0.475096 0.927708 0.300885
O O2 0.431947 0.740978 0.274891
O O3 0.251266 0.875506 0.449567
O O4 0.500000 0.878469 0.000000
O O5 0.331579 0.414232 0.703399
O O6 0.478507 0.389081 0.740603
O O7 0.282304 0.261807 0.945055
O O8 0.207411 0.434230 0.120334
O O9 0.829857 0.190182 0.656865
O O10 0.914130 0.129016 0.776870
O O11 0.646727 0.088173 0.066534
O O12 0.500000 0.039638 0.500000
O O13 0.364194 0.544302 0.442418
#
# Coordination Sequence:
#
# PCOD9129346 Si02
#       6
#     4   4   4   4   4   4
#     4  12  24  44  67 101 139 170 218 282 333 391
#     4  11  21  42  68  94 131 176 222 268 329 399
#     4  11  21  40  70  98 127 177 228 265 325 405
#     4  12  24  42  67 101 132 176 223 271 327 394
#     4  11  21  42  70  94 130 178 219 270 341 388
#     4  11  23  43  66  94 134 174 215 279 334 385
#
# _framework density 20.010764999999999
#
# number of rings (size 3 to 8) (size 9 to 14) (size 15 to 20)
#    0.000    0.667    6.667    2.000    2.333    1.333 
#    3.000    5.000    0.000    0.000    0.000    0.000 
#    0.000    0.000    0.000    0.000    0.000    0.000 
#
# Total GULP energy -66996.864149 kJ/mol
# GULP energy per Si atom -5583.072012 kJ/mol
# Density = 1.996522 g / cm^3
# Si number density = 20.010765 Si / 1000 Ang^3
#
#
#
# Elastic Constant Matrix: (Units=GPa)
#
#
# Indices 1 2 3 4 5 6 
#
# 1 59.6508 1.1030 36.2165 0.0000 -24.1329 0.0000
# 2 1.1030 73.6234 8.2921 0.0000 -3.2742 0.0000
# 3 36.2165 8.2921 82.8763 0.0000 -14.9379 0.0000
# 4 0.0000 0.0000 0.0000 40.2845 0.0000 -7.9493
# 5 -24.1329 -3.2742 -14.9379 0.0000 27.7989 0.0000
# 6 0.0000 0.0000 0.0000 -7.9493 0.0000 23.6159
#
#
#
# Elastic Compliance Matrix: (Units=1/GPa)
#
#
# Indices 1 2 3 4 5 6 
#
# 1 0.031965 0.001658 -0.010073 0.000000 0.022532 0.000000
# 2 0.001658 0.013847 -0.001723 0.000000 0.002144 0.000000
# 3 -0.010073 -0.001723 0.016639 0.000000 -0.000007 0.000000
# 4 0.000000 0.000000 0.000000 0.026590 0.000000 0.008950
# 5 0.022532 0.002144 -0.000007 0.000000 0.055783 0.000000
# 6 0.000000 0.000000 0.000000 0.008950 0.000000 0.045357
#
#
# Mechanical properties :
#
#
# Convention : Reuss Voigt Hill
#
# Bulk Modulus (GPa) = 23.71129 34.15262 28.93195
# Shear Modulus (GPa) = 22.27000 29.70912 25.98956
#
# Velocity S-wave (km/s) = 3.33964 3.85730 3.60777
# Velocity P-wave (km/s) = 5.17164 6.07804 5.64307
#
# Compressibility (1/GPa) = 0.04217401
#
# Stress axis : x y z
#
# Youngs Moduli (GPa) = 31.28382 72.21645 60.09828
#
# Poissons Ratio (x) = -0.11972 0.60539
# Poissons Ratio (y) = -0.05186 0.10358
# Poissons Ratio (z) = 0.31513 0.12446
#
# Static dielectric constant tensor:
#      x y z
#    x 1.686570 0.000000 0.005600 
#    y 0.000000 1.714450 0.000000 
#    z 0.005600 0.000000 1.718740 
# 
# From -- ./inp_files/24489.got.cif
#   From: 2010.05.17/outbox.cif.g08.bks.cpg/sg5_13_cif.got.tgz:24489.got - 2010.06.03 18:56:24.
