data_PCOD9129529
_publ_section_title
;
Structure prediction by ZEFSAII (Michael W. Deem and Ramdas Pophale) SiO2 
 PCOD9129529
Probable space group: C 2
;
_chemical_formula_sum "Si O2"
_cell_formula_units_Z 30
_cell_length_a 5.651834
_cell_length_b 13.442696
_cell_length_c 19.019554
_cell_angle_alpha 90.000000
_cell_angle_beta 70.624188
_cell_angle_gamma 90.000000
_cell_volume 1363.185161
_symmetry_space_group_name_H-M "C 2"
_symmetry_group_IT_number 5
_symmetry_cell_setting 'monoclinic'
loop_
_space_group_symop_operation_xyz
x,y,z
-x,y,-z
1/2+x,1/2+y,z
1/2-x,1/2+y,-z
loop_
_atom_site_type_symbol
_atom_site_label
_atom_site_fract_x
_atom_site_fract_y
_atom_site_fract_z
Si Si1 0.825229 0.007390 0.216514
Si Si2 0.726204 0.378564 0.124577
Si Si3 0.890044 0.379346 0.266142
Si Si4 0.961240 0.832915 0.578805
Si Si5 0.454437 0.713978 0.578048
Si Si6 0.500000 0.031002 0.000000
Si Si7 0.644559 0.663911 0.261850
Si Si8 0.649288 0.154602 0.119329
O O1 0.809559 0.084343 0.153797
O O2 0.988475 0.067482 0.255455
O O3 0.569350 0.967721 0.273742
O O4 0.944890 0.907323 0.173152
O O5 0.861197 0.396632 0.185728
O O6 0.812372 0.456575 0.058168
O O7 0.755492 0.265030 0.099913
O O8 0.647931 0.381582 0.339763
O O9 0.000046 0.267598 0.261341
O O10 0.726512 0.757302 0.578980
O O11 0.000000 0.887926 0.500000
O O12 0.235003 0.791497 0.575363
O O13 0.500000 0.657128 0.500000
O O14 0.326665 0.661614 0.657182
O O15 0.613184 0.100731 0.049014
O O16 0.891895 0.664256 0.189488
#
# Coordination Sequence:
#
# PCOD9129529 Si02
#       8
#     4   4   4   4   4   2   4   4
#     4  12  24  43  72 103 136 180 236 300 345 445
#     4  12  26  46  70  99 137 179 238 289 369 431
#     4  11  22  41  73 104 136 189 238 288 360 428
#     4   9  19  36  65 108 146 191 244 296 356 424
#     4   9  19  36  65 108 146 191 244 296 356 424
#     4  12  28  46  64 106 132 184 232 310 360 434
#     4  11  22  41  73 104 136 189 238 288 360 428
#     4  12  26  46  70  99 137 179 238 289 369 431
#
# _framework density 22.007282
#
# number of rings (size 3 to 8) (size 9 to 14) (size 15 to 20)
#    0.000    1.067    5.333    0.800    3.733    3.733 
#    0.000    0.000    0.000    4.800    0.000    0.000 
#    0.000    0.000    0.000    0.000    0.000    0.000 
#
# Total GULP energy -83649.070598 kJ/mol
# GULP energy per Si atom -5576.604707 kJ/mol
# Density = 2.195719 g / cm^3
# Si number density = 22.007282 Si / 1000 Ang^3
#
#
#
# Elastic Constant Matrix: (Units=GPa)
#
#
# Indices 1 2 3 4 5 6 
#
# 1 57.4429 12.6081 6.1697 0.0000 2.5218 0.0000
# 2 12.6081 91.2806 6.2459 0.0000 5.8056 0.0000
# 3 6.1697 6.2459 132.3950 0.0000 10.7365 0.0000
# 4 0.0000 0.0000 0.0000 121.5330 0.0000 -16.8904
# 5 2.5218 5.8056 10.7365 0.0000 24.3651 0.0000
# 6 0.0000 0.0000 0.0000 -16.8904 0.0000 33.5617
#
#
#
# Elastic Compliance Matrix: (Units=1/GPa)
#
#
# Indices 1 2 3 4 5 6 
#
# 1 0.018046 -0.002384 -0.000646 0.000000 -0.001015 0.000000
# 2 -0.002384 0.011452 -0.000236 0.000000 -0.002378 0.000000
# 3 -0.000646 -0.000236 0.007865 0.000000 -0.003343 0.000000
# 4 0.000000 0.000000 0.000000 0.008847 0.000000 0.004452
# 5 -0.001015 -0.002378 -0.003343 0.000000 0.043187 0.000000
# 6 0.000000 0.000000 0.000000 0.004452 0.000000 0.032037
#
#
# Mechanical properties :
#
#
# Convention : Reuss Voigt Hill
#
# Bulk Modulus (GPa) = 32.43538 36.79621 34.61580
# Shear Modulus (GPa) = 36.16818 52.96495 44.56657
#
# Velocity S-wave (km/s) = 4.05836 4.91114 4.50497
# Velocity P-wave (km/s) = 6.06060 6.99395 6.54394
#
# Compressibility (1/GPa) = 0.03083053
#
# Stress axis : x y z
#
# Youngs Moduli (GPa) = 55.41460 87.32180 127.13760
#
# Poissons Ratio (x) = 0.20816 0.08215
# Poissons Ratio (y) = 0.13210 0.03005
# Poissons Ratio (z) = 0.03581 0.02064
#
# Static dielectric constant tensor:
#      x y z
#    x 1.828070 0.000000 0.125960 
#    y 0.000000 1.802860 0.000000 
#    z 0.125960 0.000000 1.561100 
# 
# From -- ./inp_files/58868.got.cif
#   From: 2010.05.17/outbox.cif.g08.bks.cpg/sg5_30_cif.got.tgz:58868.got - 2010.06.03 18:56:24.
