data_PCOD9129518
_publ_section_title
;
Structure prediction by ZEFSAII (Michael W. Deem and Ramdas Pophale) SiO2 
 PCOD9129518
Probable space group: C 2
;
_chemical_formula_sum "Si O2"
_cell_formula_units_Z 28
_cell_length_a 13.861241
_cell_length_b 5.957862
_cell_length_c 17.581044
_cell_angle_alpha 90.000000
_cell_angle_beta 47.462517
_cell_angle_gamma 90.000000
_cell_volume 1069.812292
_symmetry_space_group_name_H-M "C 2"
_symmetry_group_IT_number 5
_symmetry_cell_setting 'monoclinic'
loop_
_space_group_symop_operation_xyz
x,y,z
-x,y,-z
1/2+x,1/2+y,z
1/2-x,1/2+y,-z
loop_
_atom_site_type_symbol
_atom_site_label
_atom_site_fract_x
_atom_site_fract_y
_atom_site_fract_z
Si Si1 0.240577 0.163580 0.964037
Si Si2 0.000000 0.033356 0.500000
Si Si3 0.821045 0.203025 0.325788
Si Si4 0.605413 0.185149 0.563401
Si Si5 0.000000 0.264277 0.000000
Si Si6 0.347433 0.085856 0.192035
Si Si7 0.367114 0.871759 0.664221
Si Si8 0.500165 0.337100 0.226180
O O1 0.358007 0.225948 0.842394
O O2 0.101477 0.131191 0.997666
O O3 0.231091 0.415172 0.012200
O O4 0.887839 0.201039 0.583952
O O5 0.967387 0.876325 0.446942
O O6 0.746713 0.185716 0.446907
O O7 0.825209 0.432552 0.278313
O O8 0.725880 0.060884 0.320722
O O9 0.967112 0.100611 0.249463
O O10 0.594687 0.250330 0.656263
O O11 0.509051 0.969758 0.608299
O O12 0.091631 0.425998 0.901911
O O13 0.219509 0.221997 0.232818
O O14 0.451700 0.262066 0.169061
#
# Coordination Sequence:
#
# PCOD9129518 Si02
#       8
#     4   2   4   4   2   4   4   4
#     4  12  29  59  85 125 168 213 290 359 422 507
#     4  12  20  40  62 100 150 196 258 320 382 482
#     4  11  23  44  69 104 153 198 254 317 394 489
#     4  12  24  41  68 111 150 209 257 319 406 484
#     4  12  28  54  90 116 158 232 270 356 436 486
#     4  11  25  51  72 109 151 206 272 328 409 483
#     4  11  22  41  69 104 147 193 260 322 375 487
#     4  11  29  45  72 112 159 205 262 346 404 494
#
# _framework density 26.172815
#
# number of rings (size 3 to 8) (size 9 to 14) (size 15 to 20)
#    0.000    0.571    5.714    0.857    6.000    2.857 
#    2.571    0.000    0.000    0.000    0.000    0.000 
#    0.000    0.000    0.000    0.000    0.000    0.000 
#
# Total GULP energy -78210.397033 kJ/mol
# GULP energy per Si atom -5586.456931 kJ/mol
# Density = 2.611324 g / cm^3
# Si number density = 26.172815 Si / 1000 Ang^3
#
#
#
# Elastic Constant Matrix: (Units=GPa)
#
#
# Indices 1 2 3 4 5 6 
#
# 1 98.8554 42.8377 11.8023 0.0000 -14.7118 0.0002
# 2 42.8377 113.2311 40.9332 0.0000 -5.8134 0.0009
# 3 11.8023 40.9332 101.8932 0.0001 -9.4857 0.0000
# 4 0.0000 0.0000 0.0001 50.1985 -0.0001 -15.6024
# 5 -14.7118 -5.8134 -9.4857 -0.0001 33.4579 0.0000
# 6 0.0002 0.0009 0.0000 -15.6024 0.0000 21.4790
#
#
#
# Elastic Compliance Matrix: (Units=1/GPa)
#
#
# Indices 1 2 3 4 5 6 
#
# 1 0.012914 -0.004978 0.000978 0.000000 0.005091 0.000000
# 2 -0.004978 0.012264 -0.004474 0.000000 -0.001326 -0.000001
# 3 0.000978 -0.004474 0.011777 0.000000 0.002991 0.000000
# 4 0.000000 0.000000 0.000000 0.025730 0.000000 0.018691
# 5 0.005091 -0.001326 0.002991 0.000000 0.032744 0.000000
# 6 0.000000 -0.000001 0.000000 0.018691 0.000000 0.060134
#
#
# Mechanical properties :
#
#
# Convention : Reuss Voigt Hill
#
# Bulk Modulus (GPa) = 49.98222 56.12511 53.05366
# Shear Modulus (GPa) = 27.90516 35.58751 31.74634
#
# Velocity S-wave (km/s) = 3.26880 3.69143 3.48652
# Velocity P-wave (km/s) = 5.77799 6.29758 6.04337
#
# Compressibility (1/GPa) = 0.02000712
#
# Stress axis : x y z
#
# Youngs Moduli (GPa) = 77.43768 81.54117 84.91424
#
# Poissons Ratio (x) = 0.40588 -0.08303
# Poissons Ratio (y) = 0.38545 0.37987
# Poissons Ratio (z) = -0.07572 0.36478
#
# Static dielectric constant tensor:
#      x y z
#    x 2.034660 0.000000 -0.050590 
#    y 0.000000 2.122910 0.000000 
#    z -0.050590 0.000000 2.071910 
# 
# From -- ./inp_files/66453.got.cif
#   From: 2010.05.17/outbox.cif.g08.bks.cpg/sg5_34_cif.got.tgz:66453.got - 2010.06.03 18:56:24.
