data_PCOD9129607
_publ_section_title
;
Structure prediction by ZEFSAII (Michael W. Deem and Ramdas Pophale) SiO2 
 PCOD9129607
Probable space group: C 2
;
_chemical_formula_sum "Si O2"
_cell_formula_units_Z 20
_cell_length_a 24.136770
_cell_length_b 7.349996
_cell_length_c 8.611918
_cell_angle_alpha 90.000000
_cell_angle_beta 29.658595
_cell_angle_gamma 90.000000
_cell_volume 756.001891
_symmetry_space_group_name_H-M "C 2"
_symmetry_group_IT_number 5
_symmetry_cell_setting 'monoclinic'
loop_
_space_group_symop_operation_xyz
x,y,z
-x,y,-z
1/2+x,1/2+y,z
1/2-x,1/2+y,-z
loop_
_atom_site_type_symbol
_atom_site_label
_atom_site_fract_x
_atom_site_fract_y
_atom_site_fract_z
Si Si1 0.317428 0.291280 0.671490
Si Si2 0.856923 0.409084 0.692159
Si Si3 0.693046 0.351539 0.811310
Si Si4 0.377577 0.064500 0.229385
Si Si5 0.992504 0.109071 0.206004
O O1 0.329925 0.211414 0.469270
O O2 0.390120 0.473564 0.498455
O O3 0.368479 0.125632 0.650578
O O4 0.191236 0.335085 0.029907
O O5 0.749848 0.366928 0.839917
O O6 0.960011 0.296726 0.370284
O O7 0.637093 0.162276 0.898721
O O8 0.800647 0.390473 0.439430
O O9 0.602066 0.507072 0.001455
O O10 0.500000 0.035484 0.000000
O O11 0.000000 0.119547 0.000000
#
# Coordination Sequence:
#
# PCOD9129607 Si02
#       5
#     4   4   4   4   4
#     4  11  22  45  69 101 147 181 227 300 343 409
#     4  11  26  42  74 104 140 185 235 286 356 410
#     4  11  24  41  72 100 134 185 237 279 352 418
#     4  11  23  43  66 100 139 179 231 289 340 420
#     4  12  23  47  73 103 146 182 231 300 345 411
#
# _framework density 26.454961999999998
#
# number of rings (size 3 to 8) (size 9 to 14) (size 15 to 20)
#    0.000    0.800    6.000    1.200    0.000    8.000 
#    0.000    0.000    8.800    0.000    0.000    0.000 
#    0.000    0.000    0.000    0.000    0.000    0.000 
#
# Total GULP energy -56036.738368 kJ/mol
# GULP energy per Si atom -5603.673837 kJ/mol
# Density = 2.639475 g / cm^3
# Si number density = 26.454962 Si / 1000 Ang^3
#
#
#
# Elastic Constant Matrix: (Units=GPa)
#
#
# Indices 1 2 3 4 5 6 
#
# 1 85.1278 13.4035 37.3903 0.0000 -33.9277 0.0000
# 2 13.4035 135.8901 38.4932 0.0000 0.8752 0.0000
# 3 37.3903 38.4932 130.7778 0.0000 -8.1722 0.0000
# 4 0.0000 0.0000 0.0000 62.7141 0.0000 1.7586
# 5 -33.9277 0.8752 -8.1722 0.0000 30.5870 0.0000
# 6 0.0000 0.0000 0.0000 1.7586 0.0000 35.5084
#
#
#
# Elastic Compliance Matrix: (Units=1/GPa)
#
#
# Indices 1 2 3 4 5 6 
#
# 1 0.024402 -0.001148 -0.005029 0.000000 0.025756 0.000000
# 2 -0.001148 0.008105 -0.002188 0.000000 -0.002090 0.000000
# 3 -0.005029 -0.002188 0.009543 0.000000 -0.002966 0.000000
# 4 0.000000 0.000000 0.000000 0.015968 0.000000 -0.000791
# 5 0.025756 -0.002090 -0.002966 0.000000 0.060530 0.000000
# 6 0.000000 0.000000 0.000000 -0.000791 0.000000 0.028202
#
#
# Mechanical properties :
#
#
# Convention : Reuss Voigt Hill
#
# Bulk Modulus (GPa) = 39.49523 58.92997 49.21260
# Shear Modulus (GPa) = 29.08319 43.26250 36.17285
#
# Velocity S-wave (km/s) = 3.31924 4.04830 3.70176
# Velocity P-wave (km/s) = 5.44531 6.64648 6.07565
#
# Compressibility (1/GPa) = 0.02531952
#
# Stress axis : x y z
#
# Youngs Moduli (GPa) = 40.98030 123.37438 104.78725
#
# Poissons Ratio (x) = 0.14165 0.52700
# Poissons Ratio (y) = 0.04705 0.22928
# Poissons Ratio (z) = 0.20610 0.26995
#
# Static dielectric constant tensor:
#      x y z
#    x 2.075740 0.000000 0.056780 
#    y 0.000000 2.064630 0.000000 
#    z 0.056780 0.000000 2.115210 
# 
# From -- ./inp_files/31604.got.cif
#   From: 2010.05.17/outbox.cif.g08.bks.cpg/sg5_16_cif.got.tgz:31604.got - 2010.06.03 18:56:24.
