data_PCOD9129970
_publ_section_title
;
Structure prediction by ZEFSAII (Michael W. Deem and Ramdas Pophale) SiO2 
 PCOD9129970
Probable space group: C 2
;
_chemical_formula_sum "Si O2"
_cell_formula_units_Z 30
_cell_length_a 10.951081
_cell_length_b 9.215996
_cell_length_c 14.012823
_cell_angle_alpha 90.000000
_cell_angle_beta 112.975682
_cell_angle_gamma 90.000000
_cell_volume 1302.054563
_symmetry_space_group_name_H-M "C 2"
_symmetry_group_IT_number 5
_symmetry_cell_setting 'monoclinic'
loop_
_space_group_symop_operation_xyz
x,y,z
-x,y,-z
1/2+x,1/2+y,z
1/2-x,1/2+y,-z
loop_
_atom_site_type_symbol
_atom_site_label
_atom_site_fract_x
_atom_site_fract_y
_atom_site_fract_z
Si Si1 0.645857 0.149750 0.079706
Si Si2 0.769534 0.252031 0.556468
Si Si3 0.000000 0.335396 0.500000
Si Si4 0.168512 0.557239 0.664738
Si Si5 0.068695 0.228389 0.918569
Si Si6 0.911678 0.941140 0.825469
Si Si7 0.040957 0.753082 0.337355
Si Si8 0.385414 0.958479 0.755015
O O1 0.771779 0.197467 0.050151
O O2 0.601368 0.300979 0.113702
O O3 0.685831 0.028036 0.171994
O O4 0.500000 0.095035 0.000000
O O5 0.755007 0.094779 0.598988
O O6 0.637784 0.278387 0.455186
O O7 0.808139 0.366411 0.650764
O O8 0.885839 0.247095 0.514793
O O9 0.064722 0.438058 0.599964
O O10 0.263969 0.506140 0.775843
O O11 0.100919 0.709131 0.666845
O O12 0.004656 0.350677 0.827853
O O13 0.007892 0.069709 0.881224
O O14 0.000000 0.265240 0.000000
O O15 0.952787 0.881451 0.734927
O O16 0.074184 0.605777 0.288042
#
# Coordination Sequence:
#
# PCOD9129970 Si02
#       8
#     4   4   2   4   4   4   4   4
#     4  11  28  52  76 110 147 189 246 318 384 444
#     4  12  23  41  70 106 142 202 237 288 350 433
#     4  12  24  42  68 100 154 196 242 290 362 416
#     4  12  22  43  67 101 144 191 237 296 352 420
#     4  12  28  49  78 111 143 193 249 314 381 450
#     4  11  26  45  75 108 143 189 247 299 368 440
#     4  11  24  43  73 106 148 195 238 291 357 428
#     4  11  25  46  75 109 147 191 247 302 367 435
#
# _framework density 23.040509
#
# number of rings (size 3 to 8) (size 9 to 14) (size 15 to 20)
#    0.000    0.533    5.333    1.600    1.867    6.400 
#    0.000    1.333    0.000    0.000    0.000    0.000 
#    0.000    0.000    0.000    0.000    0.000    0.000 
#
# Total GULP energy -83676.963818 kJ/mol
# GULP energy per Si atom -5578.464255 kJ/mol
# Density = 2.298807 g / cm^3
# Si number density = 23.040509 Si / 1000 Ang^3
#
#
#
# Elastic Constant Matrix: (Units=GPa)
#
#
# Indices 1 2 3 4 5 6 
#
# 1 107.0446 38.6798 41.6429 0.0000 -0.9774 0.0000
# 2 38.6798 71.8917 42.2752 0.0000 9.1282 0.0000
# 3 41.6429 42.2752 105.1003 0.0000 -1.5982 0.0000
# 4 0.0000 0.0000 0.0000 46.6046 0.0000 -9.5043
# 5 -0.9774 9.1282 -1.5982 0.0000 24.6320 0.0000
# 6 0.0000 0.0000 0.0000 -9.5043 0.0000 143.0231
#
#
#
# Elastic Compliance Matrix: (Units=1/GPa)
#
#
# Indices 1 2 3 4 5 6 
#
# 1 0.012347 -0.005341 -0.002709 0.000000 0.002294 0.000000
# 2 -0.005341 0.021916 -0.006832 0.000000 -0.008777 0.000000
# 3 -0.002709 -0.006832 0.013386 0.000000 0.003293 0.000000
# 4 0.000000 0.000000 0.000000 0.021752 0.000000 0.001445
# 5 0.002294 -0.008777 0.003293 0.000000 0.044155 0.000000
# 6 0.000000 0.000000 0.000000 0.001445 0.000000 0.007088
#
#
# Mechanical properties :
#
#
# Convention : Reuss Voigt Hill
#
# Bulk Modulus (GPa) = 55.91622 58.80358 57.35990
# Shear Modulus (GPa) = 31.97562 53.61453 42.79508
#
# Velocity S-wave (km/s) = 3.72936 4.82910 4.31441
# Velocity P-wave (km/s) = 6.54718 7.52800 7.05466
#
# Compressibility (1/GPa) = 0.01788390
#
# Stress axis : x y z
#
# Youngs Moduli (GPa) = 80.99407 45.62937 74.70337
#
# Poissons Ratio (x) = 0.24372 0.20235
# Poissons Ratio (y) = 0.43261 0.51041
# Poissons Ratio (z) = 0.21939 0.31176
#
# Static dielectric constant tensor:
#      x y z
#    x 1.967710 0.000000 0.103410 
#    y 0.000000 1.834420 0.000000 
#    z 0.103410 0.000000 1.062040 
# 
# From -- ./inp_files/52526.got.cif
#   From: 2010.05.17/outbox.cif.g08.bks.cpg/sg5_27_cif.got.tgz:52526.got - 2010.06.03 18:56:24.
