data_PCOD9129350
_publ_section_title
;
Structure prediction by ZEFSAII (Michael W. Deem and Ramdas Pophale) SiO2 
 PCOD9129350
Probable space group: C 2
;
_chemical_formula_sum "Si O2"
_cell_formula_units_Z 32
_cell_length_a 14.672145
_cell_length_b 10.914919
_cell_length_c 9.207064
_cell_angle_alpha 90.000000
_cell_angle_beta 94.035541
_cell_angle_gamma 90.000000
_cell_volume 1470.811976
_symmetry_space_group_name_H-M "C 2"
_symmetry_group_IT_number 5
_symmetry_cell_setting 'monoclinic'
loop_
_space_group_symop_operation_xyz
x,y,z
-x,y,-z
1/2+x,1/2+y,z
1/2-x,1/2+y,-z
loop_
_atom_site_type_symbol
_atom_site_label
_atom_site_fract_x
_atom_site_fract_y
_atom_site_fract_z
Si Si1 0.120187 0.717240 0.359582
Si Si2 0.885340 0.249660 0.572891
Si Si3 0.938168 0.364077 0.284681
Si Si4 0.757655 0.276441 0.800548
Si Si5 0.583004 0.150121 0.693760
Si Si6 0.901991 0.178723 0.040338
Si Si7 0.222768 0.041260 0.746669
Si Si8 0.400385 0.472378 0.542903
O O1 0.106255 0.679105 0.527428
O O2 0.198953 0.636497 0.293647
O O3 0.136578 0.864061 0.359594
O O4 0.020229 0.689796 0.282202
O O5 0.886603 0.286389 0.404911
O O6 0.788992 0.261517 0.637096
O O7 0.956236 0.341824 0.657851
O O8 0.916424 0.109898 0.603456
O O9 0.910960 0.504302 0.288809
O O10 0.922325 0.304942 0.127686
O O11 0.657045 0.220772 0.799297
O O12 0.762023 0.420595 0.828853
O O13 0.831641 0.204814 0.903484
O O14 0.851175 0.096822 0.152866
O O15 0.000000 0.129276 0.000000
O O16 0.168901 0.994424 0.597610
O O17 0.500000 0.429043 0.500000
#
# Coordination Sequence:
#
# PCOD9129350 Si02
#       8
#     4   4   4   4   4   4   4   4
#     4  11  23  44  71 111 145 183 230 306 369 421
#     4  11  21  40  74 107 132 181 241 296 360 429
#     4  11  22  42  71 103 137 186 236 296 361 424
#     4  12  26  46  71 104 142 193 241 298 356 437
#     4  11  23  42  70 108 145 179 231 299 365 427
#     4  12  28  49  69 102 142 194 244 294 355 428
#     4  12  26  47  70 103 147 191 245 294 364 436
#     4  12  21  41  71 108 150 180 232 299 370 430
#
# _framework density 21.756689999999999
#
# number of rings (size 3 to 8) (size 9 to 14) (size 15 to 20)
#    0.000    0.500    6.250    3.750    1.750    2.000 
#    0.000    0.625    0.000    0.000    0.000    0.000 
#    0.000    0.000    0.000    0.000    0.000    0.000 
#
# Total GULP energy -89481.776230 kJ/mol
# GULP energy per Si atom -5592.611014 kJ/mol
# Density = 2.170717 g / cm^3
# Si number density = 21.756690 Si / 1000 Ang^3
#
#
#
# Elastic Constant Matrix: (Units=GPa)
#
#
# Indices 1 2 3 4 5 6 
#
# 1 171.4622 48.8189 48.8905 0.0000 -2.4892 0.0000
# 2 48.8189 140.5285 14.9501 0.0000 -24.5771 0.0000
# 3 48.8905 14.9501 49.5770 0.0000 -4.3360 0.0000
# 4 0.0000 0.0000 0.0000 12.9080 0.0000 -0.4079
# 5 -2.4892 -24.5771 -4.3360 0.0000 26.3288 0.0000
# 6 0.0000 0.0000 0.0000 -0.4079 0.0000 33.1610
#
#
#
# Elastic Compliance Matrix: (Units=1/GPa)
#
#
# Indices 1 2 3 4 5 6 
#
# 1 0.008923 -0.002765 -0.008236 0.000000 -0.003093 0.000000
# 2 -0.002765 0.009541 0.000614 0.000000 0.008746 0.000000
# 3 -0.008236 0.000614 0.028500 0.000000 0.004488 0.000000
# 4 0.000000 0.000000 0.000000 0.077501 0.000000 0.000953
# 5 -0.003093 0.008746 0.004488 0.000000 0.046592 0.000000
# 6 0.000000 0.000000 0.000000 0.000953 0.000000 0.030168
#
#
# Mechanical properties :
#
#
# Convention : Reuss Voigt Hill
#
# Bulk Modulus (GPa) = 38.18191 65.20964 51.69577
# Shear Modulus (GPa) = 21.67060 31.07345 26.37203
#
# Velocity S-wave (km/s) = 3.15944 3.78329 3.48535
# Velocity P-wave (km/s) = 5.55851 7.00868 6.32529
#
# Compressibility (1/GPa) = 0.02619041
#
# Stress axis : x y z
#
# Youngs Moduli (GPa) = 112.07146 104.81561 35.08753
#
# Poissons Ratio (x) = 0.28977 0.28899
# Poissons Ratio (y) = 0.30983 -0.02155
# Poissons Ratio (z) = 0.92305 -0.06438
#
# Static dielectric constant tensor:
#      x y z
#    x 1.825620 0.000000 0.016620 
#    y 0.000000 1.817060 0.000000 
#    z 0.016620 0.000000 1.797350 
# 
# From -- ./inp_files/23897.got.cif
#   From: 2010.05.17/outbox.cif.g08.bks.cpg/sg5_12_cif.got.tgz:23897.got - 2010.06.03 18:56:24.
