data_PCOD9129031
_publ_section_title
;
Structure prediction by ZEFSAII (Michael W. Deem and Ramdas Pophale) SiO2 
 PCOD9129031
Probable space group: C 2
;
_chemical_formula_sum "Si O2"
_cell_formula_units_Z 22
_cell_length_a 19.575657
_cell_length_b 8.109832
_cell_length_c 13.402723
_cell_angle_alpha 90.000000
_cell_angle_beta 153.357009
_cell_angle_gamma 90.000000
_cell_volume 954.148092
_symmetry_space_group_name_H-M "C 2"
_symmetry_group_IT_number 5
_symmetry_cell_setting 'monoclinic'
loop_
_space_group_symop_operation_xyz
x,y,z
-x,y,-z
1/2+x,1/2+y,z
1/2-x,1/2+y,-z
loop_
_atom_site_type_symbol
_atom_site_label
_atom_site_fract_x
_atom_site_fract_y
_atom_site_fract_z
Si Si1 0.942197 0.522620 0.640107
Si Si2 0.500000 0.663337 0.500000
Si Si3 0.500000 0.152073 0.500000
Si Si4 0.000000 0.767439 0.000000
Si Si5 0.283532 0.407358 0.112487
Si Si6 0.498466 0.385552 0.211100
Si Si7 0.821768 0.196412 0.465964
O O1 0.943421 0.559122 0.523569
O O2 0.926641 0.706015 0.665941
O O3 0.825925 0.379003 0.520671
O O4 0.106005 0.443192 0.882042
O O5 0.368791 0.559195 0.274347
O O6 0.412034 0.730901 0.480850
O O7 0.356413 0.257643 0.270646
O O8 0.035053 0.878484 0.949324
O O9 0.851967 0.657799 0.785986
O O10 0.346934 0.389143 0.082686
O O11 0.594680 0.545360 0.370672
#
# Coordination Sequence:
#
# PCOD9129031 Si02
#       7
#     4   2   2   2   4   4   4
#     4  11  23  40  74 104 139 181 232 291 352 412
#     4   9  19  42  68 101 133 178 221 289 354 401
#     4   9  21  36  64 111 145 172 231 279 362 423
#     4  12  28  48  74  96 144 202 232 282 356 416
#     4   9  20  39  67 105 142 172 223 296 345 407
#     4  10  26  46  67 102 143 182 239 283 345 427
#     4  11  26  44  73 103 140 182 241 289 349 418
#
# _framework density 23.057217000000001
#
# number of rings (size 3 to 8) (size 9 to 14) (size 15 to 20)
#    0.000    1.818    0.000    2.727   17.818    0.000 
#    0.000    1.818    0.000    0.000    0.000    0.000 
#    0.000    0.000    0.000    0.000    0.000    0.000 
#
# Total GULP energy -61417.510536 kJ/mol
# GULP energy per Si atom -5583.410049 kJ/mol
# Density = 2.300474 g / cm^3
# Si number density = 23.057217 Si / 1000 Ang^3
#
#
#
# Elastic Constant Matrix: (Units=GPa)
#
#
# Indices 1 2 3 4 5 6 
#
# 1 93.7851 31.6201 25.6554 0.0000 -39.2536 0.0000
# 2 31.6201 136.5329 21.6856 0.0000 -10.2615 0.0000
# 3 25.6554 21.6856 82.1744 0.0000 -5.5962 0.0000
# 4 0.0000 0.0000 0.0000 61.5217 0.0000 8.7981
# 5 -39.2536 -10.2615 -5.5962 0.0000 39.3225 0.0000
# 6 0.0000 0.0000 0.0000 8.7981 0.0000 19.5480
#
#
#
# Elastic Compliance Matrix: (Units=1/GPa)
#
#
# Indices 1 2 3 4 5 6 
#
# 1 0.021023 -0.002674 -0.004520 0.000000 0.019645 0.000000
# 2 -0.002674 0.008102 -0.001354 0.000000 -0.000748 0.000000
# 3 -0.004520 -0.001354 0.013740 0.000000 -0.002910 0.000000
# 4 0.000000 0.000000 0.000000 0.017373 0.000000 -0.007819
# 5 0.019645 -0.000748 -0.002910 0.000000 0.044432 0.000000
# 6 0.000000 0.000000 0.000000 -0.007819 0.000000 0.054675
#
#
# Mechanical properties :
#
#
# Convention : Reuss Voigt Hill
#
# Bulk Modulus (GPa) = 38.80748 52.26828 45.53788
# Shear Modulus (GPa) = 27.02230 39.64718 33.33474
#
# Velocity S-wave (km/s) = 3.42711 4.15120 3.80641
# Velocity P-wave (km/s) = 5.70330 6.75979 6.25390
#
# Compressibility (1/GPa) = 0.02576823
#
# Stress axis : x y z
#
# Youngs Moduli (GPa) = 47.56610 123.41883 72.78237
#
# Poissons Ratio (x) = 0.33008 0.32897
# Poissons Ratio (y) = 0.12721 0.09856
# Poissons Ratio (z) = 0.21500 0.16713
#
# Static dielectric constant tensor:
#      x y z
#    x 1.779190 0.000000 -0.009490 
#    y 0.000000 1.910620 0.000000 
#    z -0.009490 0.000000 1.799520 
# 
# From -- ./inp_files/29071.got.cif
#   From: 2010.05.17/outbox.cif.g08.bks.cpg/sg5_15_cif.got.tgz:29071.got - 2010.06.03 18:56:24.
