data_PCOD9129620
_publ_section_title
;
Structure prediction by ZEFSAII (Michael W. Deem and Ramdas Pophale) SiO2 
 PCOD9129620
Probable space group: C 2
;
_chemical_formula_sum "Si O2"
_cell_formula_units_Z 20
_cell_length_a 13.812993
_cell_length_b 12.384246
_cell_length_c 5.111826
_cell_angle_alpha 90.000000
_cell_angle_beta 65.196082
_cell_angle_gamma 90.000000
_cell_volume 793.778086
_symmetry_space_group_name_H-M "C 2"
_symmetry_group_IT_number 5
_symmetry_cell_setting 'monoclinic'
loop_
_space_group_symop_operation_xyz
x,y,z
-x,y,-z
1/2+x,1/2+y,z
1/2-x,1/2+y,-z
loop_
_atom_site_type_symbol
_atom_site_label
_atom_site_fract_x
_atom_site_fract_y
_atom_site_fract_z
Si Si1 0.119541 0.866140 0.951284
Si Si2 0.673642 0.594332 0.648065
Si Si3 0.500000 0.888601 0.500000
Si Si4 0.500000 0.281524 0.500000
Si Si5 0.905397 0.580767 0.313262
Si Si6 0.832970 0.230864 0.812278
O O1 0.225322 0.792041 0.826753
O O2 0.132492 0.978985 0.793456
O O3 0.089128 0.864470 0.289850
O O4 0.000000 0.821963 0.000000
O O5 0.784427 0.577017 0.365091
O O6 0.616453 0.663871 0.489810
O O7 0.687312 0.661826 0.902626
O O8 0.423394 0.819499 0.771909
O O9 0.420193 0.971138 0.453170
O O10 0.422668 0.189812 0.458136
O O11 0.000000 0.581251 0.000000
#
# Coordination Sequence:
#
# PCOD9129620 Si02
#       6
#     4   4   2   2   4   4
#     4  12  28  48  77 110 152 202 253 315 380 450
#     4  12  29  49  78 114 152 198 257 311 383 452
#     4  11  28  47  80 108 154 203 252 311 380 454
#     4  11  22  45  74 108 144 199 246 313 366 442
#     4  11  24  47  78 111 146 199 261 306 365 458
#     4  12  29  52  75 113 155 202 248 316 382 448
#
# _framework density 25.195961
#
# number of rings (size 3 to 8) (size 9 to 14) (size 15 to 20)
#    0.000    0.400    4.000    3.000   11.200    0.000 
#    0.000    0.000    0.000    0.000    0.000    0.000 
#    0.000    0.000    0.000    0.000    0.000    0.000 
#
# Total GULP energy -55725.380959 kJ/mol
# GULP energy per Si atom -5572.538096 kJ/mol
# Density = 2.513861 g / cm^3
# Si number density = 25.195961 Si / 1000 Ang^3
#
#
#
# Elastic Constant Matrix: (Units=GPa)
#
#
# Indices 1 2 3 4 5 6 
#
# 1 82.1074 18.7379 2.2551 0.0000 -13.1345 0.0000
# 2 18.7379 118.0799 68.2714 0.0000 -7.2715 0.0000
# 3 2.2551 68.2714 110.2557 0.0000 -11.3016 0.0000
# 4 0.0000 0.0000 0.0000 20.6827 0.0000 39.0668
# 5 -13.1345 -7.2715 -11.3016 0.0000 39.7560 0.0000
# 6 0.0000 0.0000 0.0000 39.0668 0.0000 1611.7573
#
#
#
# Elastic Compliance Matrix: (Units=1/GPa)
#
#
# Indices 1 2 3 4 5 6 
#
# 1 0.013546 -0.003083 0.002094 0.000000 0.004507 0.000000
# 2 -0.003083 0.013893 -0.008635 0.000000 -0.000932 0.000000
# 3 0.002094 -0.008635 0.014712 0.000000 0.003294 0.000000
# 4 0.000000 0.000000 0.000000 0.050669 0.000000 -0.001228
# 5 0.004507 -0.000932 0.003294 0.000000 0.027408 0.000000
# 6 0.000000 0.000000 0.000000 -0.001228 0.000000 0.000650
#
#
# Mechanical properties :
#
#
# Convention : Reuss Voigt Hill
#
# Bulk Modulus (GPa) = 43.66314 54.33019 48.99667
# Shear Modulus (GPa) = 33.83815 349.18447 191.51131
#
# Velocity S-wave (km/s) = 3.66867 11.78509 8.72776
# Velocity P-wave (km/s) = 5.94244 14.38034 11.00243
#
# Compressibility (1/GPa) = 0.02290261
#
# Stress axis : x y z
#
# Youngs Moduli (GPa) = 73.82217 71.97636 67.97243
#
# Poissons Ratio (x) = 0.22187 -0.14231
# Poissons Ratio (y) = 0.22756 0.58697
# Poissons Ratio (z) = -0.15456 0.62155
#
# Static dielectric constant tensor:
#      x y z
#    x -3.648520 0.000000 -4.683340 
#    y 0.000000 1.948730 0.000000 
#    z -4.683340 0.000000 -2.592110 
# 
# From -- ./inp_files/8263.got.cif
#   From: 2010.05.17/outbox.cif.g08.bks.cpg/sg5_5_cif.got.tgz:8263.got - 2010.06.03 18:56:24.
