data_PCOD9129334
_publ_section_title
;
Structure prediction by ZEFSAII (Michael W. Deem and Ramdas Pophale) SiO2 
 PCOD9129334
Probable space group: C 2
;
_chemical_formula_sum "Si O2"
_cell_formula_units_Z 24
_cell_length_a 20.045372
_cell_length_b 5.695783
_cell_length_c 23.091454
_cell_angle_alpha 90.000000
_cell_angle_beta 22.326365
_cell_angle_gamma 90.000000
_cell_volume 1001.537907
_symmetry_space_group_name_H-M "C 2"
_symmetry_group_IT_number 5
_symmetry_cell_setting 'monoclinic'
loop_
_space_group_symop_operation_xyz
x,y,z
-x,y,-z
1/2+x,1/2+y,z
1/2-x,1/2+y,-z
loop_
_atom_site_type_symbol
_atom_site_label
_atom_site_fract_x
_atom_site_fract_y
_atom_site_fract_z
Si Si1 0.193780 0.597490 0.958827
Si Si2 0.309384 0.550459 0.367976
Si Si3 0.966548 0.320233 0.343952
Si Si4 0.640462 0.221341 0.128473
Si Si5 0.362705 0.212253 0.163287
Si Si6 0.209131 0.709999 0.323726
O O1 0.357830 0.667292 0.786895
O O2 0.208024 0.318346 0.950315
O O3 0.231973 0.651799 0.995443
O O4 0.007237 0.705505 0.098058
O O5 0.132550 0.399255 0.519176
O O6 0.325072 0.707240 0.413631
O O7 0.477984 0.387163 0.241283
O O8 0.295257 0.688632 0.319200
O O9 0.049271 0.523241 0.238878
O O10 0.263420 0.960095 0.250341
O O11 0.263497 0.463358 0.247817
O O12 0.500000 0.202426 0.000000
O O13 0.000000 0.712095 0.500000
#
# Coordination Sequence:
#
# PCOD9129334 Si02
#       6
#     4   4   4   4   4   4
#     4  11  24  38  71 100 139 182 231 296 362 432
#     4  11  24  42  68 101 147 183 239 291 367 434
#     4  11  23  39  65 107 140 186 229 295 361 447
#     4  11  21  40  63 102 140 177 226 280 368 423
#     4  12  29  53  78 107 147 194 257 312 366 437
#     4  12  29  52  79 105 148 201 250 308 370 439
#
# _framework density 23.963146999999999
#
# number of rings (size 3 to 8) (size 9 to 14) (size 15 to 20)
#    0.000    0.667    5.000    2.000    7.000    1.333 
#    0.000    0.000    0.000    0.000    0.000    0.000 
#    0.000    0.000    0.000    0.000    0.000    0.000 
#
# Total GULP energy -66913.587142 kJ/mol
# GULP energy per Si atom -5576.132262 kJ/mol
# Density = 2.390861 g / cm^3
# Si number density = 23.963147 Si / 1000 Ang^3
#
#
#
# Elastic Constant Matrix: (Units=GPa)
#
#
# Indices 1 2 3 4 5 6 
#
# 1 32.8368 27.6824 7.3783 0.0185 6.4642 -0.0028
# 2 27.6824 117.9522 65.7453 0.0327 8.4772 0.0010
# 3 7.3783 65.7453 155.0315 0.0100 6.9597 -0.0041
# 4 0.0185 0.0327 0.0100 45.7421 -0.0053 4.1853
# 5 6.4642 8.4772 6.9597 -0.0053 37.6721 0.0021
# 6 -0.0028 0.0010 -0.0041 4.1853 0.0021 15.0403
#
#
#
# Elastic Compliance Matrix: (Units=1/GPa)
#
#
# Indices 1 2 3 4 5 6 
#
# 1 0.039660 -0.010507 0.002791 -0.000011 -0.004957 0.000012
# 2 -0.010507 0.013988 -0.005416 -0.000004 -0.000344 -0.000003
# 3 0.002791 -0.005416 0.008653 0.000000 -0.000859 0.000003
# 4 -0.000011 -0.000004 0.000000 0.022433 0.000006 -0.006242
# 5 -0.004957 -0.000344 -0.000859 0.000006 0.027631 -0.000007
# 6 0.000012 -0.000003 0.000003 -0.006242 -0.000007 0.068225
#
#
# Mechanical properties :
#
#
# Convention : Reuss Voigt Hill
#
# Bulk Modulus (GPa) = 27.75049 56.38140 42.06595
# Shear Modulus (GPa) = 22.84483 33.35853 28.10168
#
# Velocity S-wave (km/s) = 3.09096 3.73510 3.42819
# Velocity P-wave (km/s) = 4.93400 6.49467 5.76737
#
# Compressibility (1/GPa) = 0.03603540
#
# Stress axis : x y z
#
# Youngs Moduli (GPa) = 25.21414 71.49105 115.56705
#
# Poissons Ratio (x) = 0.75118 -0.32254
# Poissons Ratio (y) = 0.26493 0.62595
# Poissons Ratio (z) = -0.07037 0.38722
#
# Static dielectric constant tensor:
#      x y z
#    x 2.268110 -0.000120 0.019280 
#    y -0.000120 2.137990 -0.000050 
#    z 0.019280 -0.000050 1.965630 
# 
# From -- ./inp_files/71178.got.cif
#   From: 2010.05.17/outbox.cif.g08.bks.cpg/sg5_36_cif.got.tgz:71178.got - 2010.06.03 18:56:24.
