data_PCOD9129683
_publ_section_title
;
Structure prediction by ZEFSAII (Michael W. Deem and Ramdas Pophale) SiO2 
 PCOD9129683
Probable space group: C 2
;
_chemical_formula_sum "Si O2"
_cell_formula_units_Z 26
_cell_length_a 14.514617
_cell_length_b 5.567607
_cell_length_c 16.119606
_cell_angle_alpha 90.000000
_cell_angle_beta 124.141123
_cell_angle_gamma 90.000000
_cell_volume 1078.150410
_symmetry_space_group_name_H-M "C 2"
_symmetry_group_IT_number 5
_symmetry_cell_setting 'monoclinic'
loop_
_space_group_symop_operation_xyz
x,y,z
-x,y,-z
1/2+x,1/2+y,z
1/2-x,1/2+y,-z
loop_
_atom_site_type_symbol
_atom_site_label
_atom_site_fract_x
_atom_site_fract_y
_atom_site_fract_z
Si Si1 0.282704 0.612790 0.411987
Si Si2 0.713279 0.794295 0.762168
Si Si3 0.500000 0.631890 0.000000
Si Si4 0.851873 0.118234 0.620335
Si Si5 0.100837 0.558348 0.839268
Si Si6 0.056620 0.918748 0.189455
Si Si7 0.297848 0.928819 0.934919
O O1 0.319637 0.636877 0.334651
O O2 0.216667 0.359985 0.390855
O O3 0.372712 0.619412 0.532254
O O4 0.212554 0.860002 0.397026
O O5 0.817622 0.942925 0.779206
O O6 0.770689 0.665492 0.869942
O O7 0.616273 0.941811 0.757062
O O8 0.518464 0.475763 0.927654
O O9 0.394066 0.797041 0.932552
O O10 0.952942 0.091822 0.736439
O O11 0.182680 0.788011 0.876282
O O12 0.978583 0.654719 0.798767
O O13 0.151344 0.433824 0.946907
#
# Coordination Sequence:
#
# PCOD9129683 Si02
#       7
#     4   4   2   4   4   4   4
#     4   9  19  37  69  99 132 175 234 291 347 423
#     4  11  23  41  64  96 130 180 235 282 355 425
#     4  12  22  38  66  94 134 184 232 284 346 440
#     4   9  19  39  64 104 132 173 233 293 351 415
#     4  12  24  40  60  97 138 183 225 296 347 423
#     4  11  23  40  64 100 134 177 236 282 356 421
#     4  12  23  41  59  91 135 178 229 284 354 414
#
# _framework density 24.115373000000002
#
# number of rings (size 3 to 8) (size 9 to 14) (size 15 to 20)
#    0.000    1.231    3.077    3.692    2.154    1.231 
#    0.000    0.000    0.000    0.923   16.000    0.000 
#    0.000    0.000    0.000    0.000    0.000    0.000 
#
# Total GULP energy -72505.862356 kJ/mol
# GULP energy per Si atom -5577.374027 kJ/mol
# Density = 2.406049 g / cm^3
# Si number density = 24.115373 Si / 1000 Ang^3
#
#
#
# Elastic Constant Matrix: (Units=GPa)
#
#
# Indices 1 2 3 4 5 6 
#
# 1 64.1735 22.3920 28.1171 0.0000 -17.8237 0.0000
# 2 22.3920 80.9876 41.1573 0.0000 -11.9526 0.0000
# 3 28.1171 41.1573 169.7753 0.0000 -43.9397 0.0000
# 4 0.0000 0.0000 0.0000 37.1131 0.0000 -8.4965
# 5 -17.8237 -11.9526 -43.9397 0.0000 27.8955 0.0000
# 6 0.0000 0.0000 0.0000 -8.4965 0.0000 36.8417
#
#
#
# Elastic Compliance Matrix: (Units=1/GPa)
#
#
# Indices 1 2 3 4 5 6 
#
# 1 0.020113 -0.004183 0.000920 0.000000 0.012509 0.000000
# 2 -0.004183 0.014973 -0.003323 0.000000 -0.001491 0.000000
# 3 0.000920 -0.003323 0.010681 0.000000 0.015989 0.000000
# 4 0.000000 0.000000 0.000000 0.028447 0.000000 0.006560
# 5 0.012509 -0.001491 0.015989 0.000000 0.068387 0.000000
# 6 0.000000 0.000000 0.000000 0.006560 0.000000 0.028656
#
#
# Mechanical properties :
#
#
# Convention : Reuss Voigt Hill
#
# Bulk Modulus (GPa) = 30.67784 55.36325 43.02054
# Shear Modulus (GPa) = 25.60259 35.25474 30.42866
#
# Velocity S-wave (km/s) = 3.26186 3.82765 3.55603
# Velocity P-wave (km/s) = 5.18992 6.52243 5.89395
#
# Compressibility (1/GPa) = 0.03259682
#
# Stress axis : x y z
#
# Youngs Moduli (GPa) = 49.71868 66.78861 93.62047
#
# Poissons Ratio (x) = 0.27935 -0.08616
# Poissons Ratio (y) = 0.20795 0.31109
# Poissons Ratio (z) = -0.04576 0.22193
#
# Static dielectric constant tensor:
#      x y z
#    x 1.950650 0.000000 -0.022860 
#    y 0.000000 2.021140 0.000000 
#    z -0.022860 0.000000 2.086550 
# 
# From -- ./inp_files/55369.got.cif
#   From: 2010.05.17/outbox.cif.g08.bks.cpg/sg5_28_cif.got.tgz:55369.got - 2010.06.03 18:56:24.
