data_PCOD9129634
_publ_section_title
;
Structure prediction by ZEFSAII (Michael W. Deem and Ramdas Pophale) SiO2 
 PCOD9129634
Probable space group: C 2
;
_chemical_formula_sum "Si O2"
_cell_formula_units_Z 24
_cell_length_a 11.145388
_cell_length_b 11.683147
_cell_length_c 10.385567
_cell_angle_alpha 90.000000
_cell_angle_beta 131.643157
_cell_angle_gamma 90.000000
_cell_volume 1010.599181
_symmetry_space_group_name_H-M "C 2"
_symmetry_group_IT_number 5
_symmetry_cell_setting 'monoclinic'
loop_
_space_group_symop_operation_xyz
x,y,z
-x,y,-z
1/2+x,1/2+y,z
1/2-x,1/2+y,-z
loop_
_atom_site_type_symbol
_atom_site_label
_atom_site_fract_x
_atom_site_fract_y
_atom_site_fract_z
Si Si1 0.935358 0.160570 0.808467
Si Si2 0.259501 0.895457 0.638125
Si Si3 0.175380 0.490947 0.678668
Si Si4 0.967883 0.577226 0.168235
Si Si5 0.660917 0.506683 0.822098
Si Si6 0.077117 0.834848 0.244028
O O1 0.871758 0.289211 0.759177
O O2 0.781413 0.080051 0.672242
O O3 0.064656 0.122507 0.792167
O O4 0.000000 0.137612 0.000000
O O5 0.163156 0.853751 0.444189
O O6 0.380757 0.998120 0.696497
O O7 0.152566 0.945131 0.678130
O O8 0.143589 0.560618 0.785884
O O9 0.290935 0.380742 0.762960
O O10 0.000000 0.461472 0.500000
O O11 0.023732 0.705859 0.187315
O O12 0.848538 0.531260 0.974097
O O13 0.578996 0.416136 0.861175
#
# Coordination Sequence:
#
# PCOD9129634 Si02
#       6
#     4   4   4   4   4   4
#     4  11  23  44  76 105 145 199 246 306 380 440
#     4  12  26  47  72 109 152 192 252 306 383 442
#     4  11  22  46  74 103 143 200 250 303 378 447
#     4  12  25  46  74 108 152 196 249 310 378 447
#     4  11  26  47  72 111 146 194 254 308 373 452
#     4  11  27  47  75 110 147 198 250 311 377 448
#
# _framework density 23.748287999999999
#
# number of rings (size 3 to 8) (size 9 to 14) (size 15 to 20)
#    0.000    0.667    3.333    4.000    4.667    1.333 
#    3.000    0.000    0.000    0.000    0.000    0.000 
#    0.000    0.000    0.000    0.000    0.000    0.000 
#
# Total GULP energy -67110.392532 kJ/mol
# GULP energy per Si atom -5592.532711 kJ/mol
# Density = 2.369424 g / cm^3
# Si number density = 23.748288 Si / 1000 Ang^3
#
#
#
# Elastic Constant Matrix: (Units=GPa)
#
#
# Indices 1 2 3 4 5 6 
#
# 1 96.1642 38.4726 25.9126 0.0000 22.0515 0.0000
# 2 38.4726 161.5185 56.6093 0.0000 25.8024 0.0000
# 3 25.9126 56.6093 114.7991 0.0000 12.0742 0.0000
# 4 0.0000 0.0000 0.0000 19.8311 0.0000 -13.4701
# 5 22.0515 25.8024 12.0742 0.0000 40.4738 0.0000
# 6 0.0000 0.0000 0.0000 -13.4701 0.0000 5.4684
#
#
#
# Elastic Compliance Matrix: (Units=1/GPa)
#
#
# Indices 1 2 3 4 5 6 
#
# 1 0.012700 -0.001635 -0.001489 0.000000 -0.005433 0.000000
# 2 -0.001635 0.008304 -0.003368 0.000000 -0.003398 0.000000
# 3 -0.001489 -0.003368 0.010734 0.000000 -0.000244 0.000000
# 4 0.000000 0.000000 0.000000 -0.074907 0.000000 -0.184519
# 5 -0.005433 -0.003398 -0.000244 0.000000 0.029906 0.000000
# 6 0.000000 0.000000 0.000000 -0.184519 0.000000 -0.271653
#
#
# Mechanical properties :
#
#
# Convention : Reuss Voigt Hill
#
# Bulk Modulus (GPa) = 53.32590 68.27452 60.80021
# Shear Modulus (GPa) = -18.81958 29.92048 5.55045
#
# Velocity S-wave (km/s) = -2.81812 3.55336 1.53045
# Velocity P-wave (km/s) = 3.45171 6.75624 5.36475
#
# Compressibility (1/GPa) = 0.01875261
#
# Stress axis : x y z
#
# Youngs Moduli (GPa) = 78.73931 120.42133 93.16592
#
# Poissons Ratio (x) = 0.19694 0.13871
# Poissons Ratio (y) = 0.12877 0.31382
# Poissons Ratio (z) = 0.11723 0.40562
#
# Static dielectric constant tensor:
#      x y z
#    x 2.041190 0.000000 -0.123590 
#    y 0.000000 1.876070 0.000000 
#    z -0.123590 0.000000 2.024480 
# 
# From -- ./inp_files/39275.got.cif
#   From: 2010.05.17/outbox.cif.g08.bks.cpg/sg5_20_cif.got.tgz:39275.got - 2010.06.03 18:56:24.
