data_PCOD9129302
_publ_section_title
;
Structure prediction by ZEFSAII (Michael W. Deem and Ramdas Pophale) SiO2 
 PCOD9129302
Probable space group: C 2
;
_chemical_formula_sum "Si O2"
_cell_formula_units_Z 24
_cell_length_a 9.463216
_cell_length_b 17.765995
_cell_length_c 10.174716
_cell_angle_alpha 90.000000
_cell_angle_beta 133.670716
_cell_angle_gamma 90.000000
_cell_volume 1237.317502
_symmetry_space_group_name_H-M "C 2"
_symmetry_group_IT_number 5
_symmetry_cell_setting 'monoclinic'
loop_
_space_group_symop_operation_xyz
x,y,z
-x,y,-z
1/2+x,1/2+y,z
1/2-x,1/2+y,-z
loop_
_atom_site_type_symbol
_atom_site_label
_atom_site_fract_x
_atom_site_fract_y
_atom_site_fract_z
Si Si1 0.437901 0.213330 0.273108
Si Si2 0.186205 0.478207 0.021708
Si Si3 0.037323 0.075076 0.371463
Si Si4 0.531859 0.037316 0.367561
Si Si5 0.357481 0.809598 0.034400
Si Si6 0.318667 0.736425 0.627704
O O1 0.481754 0.125132 0.307615
O O2 0.303430 0.244207 0.071006
O O3 0.651434 0.250993 0.413112
O O4 0.311348 0.231862 0.322512
O O5 0.361022 0.530610 0.187466
O O6 0.240954 0.390199 0.049067
O O7 0.000000 0.486377 0.000000
O O8 0.104895 0.496308 0.824591
O O9 0.237025 0.026815 0.504234
O O10 0.086498 0.153941 0.331257
O O11 0.000000 0.092696 0.500000
O O12 0.500000 0.021229 0.500000
O O13 0.500000 0.800706 0.000000
O O14 0.509909 0.797090 0.250154
#
# Coordination Sequence:
#
# PCOD9129302 Si02
#       6
#     4   4   4   4   4   4
#     4   9  16  33  57  85 106 140 196 244 276 328
#     4  11  23  37  55  87 126 156 188 236 294 352
#     4  11  21  37  60  87 118 156 193 237 297 343
#     4  11  21  39  62  88 116 151 200 244 283 342
#     4   9  19  33  53  82 115 150 189 235 286 342
#     4   9  17  33  56  83 107 143 194 241 281 326
#
# _framework density 19.396799999999999
#
# number of rings (size 3 to 8) (size 9 to 14) (size 15 to 20)
#    0.000    2.000    5.000    1.000    0.000    2.000 
#    3.000    0.833    0.000    4.000    0.000    0.000 
#    0.000    0.000    0.000    0.000    0.000    0.000 
#
# Total GULP energy -66812.694075 kJ/mol
# GULP energy per Si atom -5567.724506 kJ/mol
# Density = 1.935265 g / cm^3
# Si number density = 19.396800 Si / 1000 Ang^3
#
#
#
# Elastic Constant Matrix: (Units=GPa)
#
#
# Indices 1 2 3 4 5 6 
#
# 1 43.6798 12.9969 35.7895 0.0000 15.8844 0.0000
# 2 12.9969 37.2724 36.4804 0.0000 16.7709 0.0000
# 3 35.7895 36.4804 121.2049 0.0000 17.8982 0.0000
# 4 0.0000 0.0000 0.0000 16.7339 0.0000 2.3606
# 5 15.8844 16.7709 17.8982 0.0000 24.2483 0.0000
# 6 0.0000 0.0000 0.0000 2.3606 0.0000 13.3676
#
#
#
# Elastic Compliance Matrix: (Units=1/GPa)
#
#
# Indices 1 2 3 4 5 6 
#
# 1 0.036556 0.006052 -0.009497 0.000000 -0.021123 0.000000
# 2 0.006052 0.050277 -0.012569 0.000000 -0.029460 0.000000
# 3 -0.009497 -0.012569 0.014181 0.000000 0.004447 0.000000
# 4 0.000000 0.000000 0.000000 0.061286 0.000000 -0.010823
# 5 -0.021123 -0.029460 0.004447 0.000000 0.072170 0.000000
# 6 0.000000 0.000000 0.000000 -0.010823 0.000000 0.076719
#
#
# Mechanical properties :
#
#
# Convention : Reuss Voigt Hill
#
# Bulk Modulus (GPa) = 14.49560 41.41007 27.95284
# Shear Modulus (GPa) = 13.65333 18.66265 16.15799
#
# Velocity S-wave (km/s) = 2.65598 3.10522 2.88935
# Velocity P-wave (km/s) = 4.11036 5.85250 5.05702
#
# Compressibility (1/GPa) = 0.06898644
#
# Stress axis : x y z
#
# Youngs Moduli (GPa) = 27.35550 19.88987 70.51643
#
# Poissons Ratio (x) = -0.12038 0.66967
# Poissons Ratio (y) = -0.16556 0.88633
# Poissons Ratio (z) = 0.25978 0.25000
#
# Static dielectric constant tensor:
#      x y z
#    x 1.696930 0.000000 -0.006260 
#    y 0.000000 1.685770 0.000000 
#    z -0.006260 0.000000 1.734440 
# 
# From -- ./inp_files/16844.got.cif
#   From: 2010.05.17/outbox.cif.g08.bks.cpg/sg5_9_cif.got.tgz:16844.got - 2010.06.03 18:56:24.
