data_PCOD9129210
_publ_section_title
;
Structure prediction by ZEFSAII (Michael W. Deem and Ramdas Pophale) SiO2 
 PCOD9129210
Probable space group: C 2
;
_chemical_formula_sum "Si O2"
_cell_formula_units_Z 24
_cell_length_a 12.285265
_cell_length_b 13.927143
_cell_length_c 14.676899
_cell_angle_alpha 90.000000
_cell_angle_beta 26.837290
_cell_angle_gamma 90.000000
_cell_volume 1133.701127
_symmetry_space_group_name_H-M "C 2"
_symmetry_group_IT_number 5
_symmetry_cell_setting 'monoclinic'
loop_
_space_group_symop_operation_xyz
x,y,z
-x,y,-z
1/2+x,1/2+y,z
1/2-x,1/2+y,-z
loop_
_atom_site_type_symbol
_atom_site_label
_atom_site_fract_x
_atom_site_fract_y
_atom_site_fract_z
Si Si1 0.818228 0.863940 0.469913
Si Si2 0.000000 0.938052 0.000000
Si Si3 0.500000 0.158458 0.000000
Si Si4 0.594003 0.017794 0.187500
Si Si5 0.378010 0.544030 0.801585
Si Si6 0.228847 0.792006 0.699769
Si Si7 0.855917 0.651738 0.512472
O O1 0.812063 0.827639 0.370724
O O2 0.840666 0.767337 0.512881
O O3 0.581380 0.926485 0.669509
O O4 0.026602 0.944671 0.311718
O O5 0.197959 0.878130 0.795347
O O6 0.147804 0.996672 0.961916
O O7 0.246937 0.104830 0.184003
O O8 0.476599 0.222631 0.108292
O O9 0.491607 0.105935 0.323213
O O10 0.654384 0.030619 0.037268
O O11 0.593113 0.601177 0.693601
O O12 0.500000 0.753635 0.500000
O O13 0.000000 0.628564 0.500000
#
# Coordination Sequence:
#
# PCOD9129210 Si02
#       7
#     4   2   2   4   4   4   4
#     4  11  24  42  65  95 131 171 216 272 326 388
#     4  11  20  34  67 100 120 170 219 272 317 370
#     4  11  26  42  67  98 130 180 215 268 331 386
#     4  11  23  40  67  96 130 170 219 273 324 379
#     4  11  25  45  66  95 135 169 223 269 323 394
#     4  11  21  38  67  96 129 164 223 274 320 372
#     4  11  26  44  66  96 133 176 216 267 331 389
#
# _framework density 21.169599999999999
#
# number of rings (size 3 to 8) (size 9 to 14) (size 15 to 20)
#    0.000    1.000    3.333    3.000    4.667    4.000 
#    0.000    0.833    0.000    0.000    0.000    0.000 
#    0.000    0.000    0.000    0.000    0.000    0.000 
#
# Total GULP energy -66922.229480 kJ/mol
# GULP energy per Si atom -5576.852457 kJ/mol
# Density = 2.112142 g / cm^3
# Si number density = 21.169600 Si / 1000 Ang^3
#
#
#
# Elastic Constant Matrix: (Units=GPa)
#
#
# Indices 1 2 3 4 5 6 
#
# 1 33.0300 4.9767 11.0058 0.3178 -2.3280 0.0135
# 2 4.9767 110.8723 41.0655 0.4993 -8.3653 0.0203
# 3 11.0058 41.0655 104.5841 0.4560 6.5355 0.0165
# 4 0.3178 0.4993 0.4560-2375.8050 -0.6717 -57.7408
# 5 -2.3280 -8.3653 6.5355 -0.6717 31.4389 -0.0132
# 6 0.0135 0.0203 0.0165 -57.7408 -0.0132 29.3518
#
#
#
# Elastic Compliance Matrix: (Units=1/GPa)
#
#
# Indices 1 2 3 4 5 6 
#
# 1 0.031669 0.000142 -0.003584 0.000003 0.003128 -0.000006
# 2 0.000142 0.011002 -0.004578 0.000000 0.003890 -0.000003
# 3 -0.003584 -0.004578 0.011985 0.000002 -0.003975 0.000000
# 4 0.000003 0.000000 0.000002 -0.000402 -0.000009 -0.000790
# 5 0.003128 0.003890 -0.003975 -0.000009 0.033900 -0.000004
# 6 -0.000006 -0.000003 0.000000 -0.000790 -0.000004 0.032515
#
#
# Mechanical properties :
#
#
# Convention : Reuss Voigt Hill
#
# Bulk Modulus (GPa) = 25.89623 40.28696 33.09159
# Shear Modulus (GPa) = 33.42668 -450.24030 -208.40681
#
# Velocity S-wave (km/s) = 3.97797 -14.59946 -9.93277
# Velocity P-wave (km/s) = 5.77566 16.28252 10.76481
#
# Compressibility (1/GPa) = 0.03861566
#
# Stress axis : x y z
#
# Youngs Moduli (GPa) = 31.57692 90.89150 83.43910
#
# Poissons Ratio (x) = -0.01289 0.29903
# Poissons Ratio (y) = -0.00448 0.38199
# Poissons Ratio (z) = 0.11317 0.41611
#
# Static dielectric constant tensor:
#      x y z
#    x 8.306110 -0.000870 1.135500 
#    y -0.000870 1.800370 -0.000170 
#    z 1.135500 -0.000170 2.025190 
# 
# From -- ./inp_files/53110.got.cif
#   From: 2010.05.17/outbox.cif.g08.bks.cpg/sg5_27_cif.got.tgz:53110.got - 2010.06.03 18:56:24.
