data_PCOD9129693
_publ_section_title
;
Structure prediction by ZEFSAII (Michael W. Deem and Ramdas Pophale) SiO2 
 PCOD9129693
Probable space group: C 2
;
_chemical_formula_sum "Si O2"
_cell_formula_units_Z 26
_cell_length_a 9.294226
_cell_length_b 19.243420
_cell_length_c 7.721306
_cell_angle_alpha 90.000000
_cell_angle_beta 126.745650
_cell_angle_gamma 90.000000
_cell_volume 1106.575321
_symmetry_space_group_name_H-M "C 2"
_symmetry_group_IT_number 5
_symmetry_cell_setting 'monoclinic'
loop_
_space_group_symop_operation_xyz
x,y,z
-x,y,-z
1/2+x,1/2+y,z
1/2-x,1/2+y,-z
loop_
_atom_site_type_symbol
_atom_site_label
_atom_site_fract_x
_atom_site_fract_y
_atom_site_fract_z
Si Si1 0.468866 0.800120 0.169766
Si Si2 0.140684 0.146305 0.948317
Si Si3 0.661759 0.011574 0.849098
Si Si4 0.265124 0.981216 0.506981
Si Si5 0.354197 0.387645 0.018141
Si Si6 0.635452 0.323436 0.447542
Si Si7 0.000000 0.085964 0.500000
O O1 0.361039 0.729570 0.048737
O O2 0.329644 0.849477 0.171849
O O3 0.666145 0.788521 0.398097
O O4 0.500000 0.832219 0.000000
O O5 0.085797 0.131534 0.712185
O O6 0.302599 0.092896 0.097480
O O7 0.000000 0.126288 0.000000
O O8 0.458062 0.991756 0.730383
O O9 0.705528 0.993475 0.678388
O O10 0.780251 0.958664 0.052732
O O11 0.137090 0.038168 0.494811
O O12 0.190508 0.904851 0.496250
O O13 0.500000 0.421400 0.000000
O O14 0.486403 0.328251 0.189164
O O15 0.500000 0.299592 0.500000
#
# Coordination Sequence:
#
# PCOD9129693 Si02
#       7
#     4   4   4   4   4   4   2
#     4  11  26  48  68 100 147 197 236 298 361 438
#     4  11  25  48  70  98 148 192 240 301 363 430
#     4  11  23  45  69 104 148 190 238 306 370 430
#     4  11  23  40  73 108 140 187 245 306 369 429
#     4  12  24  41  73 103 138 184 234 297 365 424
#     4  12  23  41  70 106 139 178 243 295 356 433
#     4  12  24  44  70 104 136 192 246 306 358 434
#
# _framework density 23.495916000000001
#
# number of rings (size 3 to 8) (size 9 to 14) (size 15 to 20)
#    0.000    0.615    6.923    1.385    0.000    2.462 
#    5.538    0.000    0.000    0.000    0.000    0.000 
#    0.000    0.000    0.000    0.000    0.000    0.000 
#
# Total GULP energy -72407.255712 kJ/mol
# GULP energy per Si atom -5569.788901 kJ/mol
# Density = 2.344244 g / cm^3
# Si number density = 23.495916 Si / 1000 Ang^3
#
#
#
# Elastic Constant Matrix: (Units=GPa)
#
#
# Indices 1 2 3 4 5 6 
#
# 1 82.0253 22.0943 28.7758 0.0000 35.0522 0.0000
# 2 22.0943 81.1303 13.3679 0.0000 19.5219 0.0000
# 3 28.7758 13.3679 95.3643 0.0000 30.6422 0.0000
# 4 0.0000 0.0000 0.0000 4.8156 0.0000 12.8341
# 5 35.0522 19.5219 30.6422 0.0000 45.8744 0.0000
# 6 0.0000 0.0000 0.0000 12.8341 0.0000 -7.1292
#
#
#
# Elastic Compliance Matrix: (Units=1/GPa)
#
#
# Indices 1 2 3 4 5 6 
#
# 1 0.018465 -0.001814 -0.001314 0.000000 -0.012459 0.000000
# 2 -0.001814 0.013910 0.000069 0.000000 -0.004580 0.000000
# 3 -0.001314 0.000069 0.013446 0.000000 -0.008006 0.000000
# 4 0.000000 0.000000 0.000000 0.035817 0.000000 0.064478
# 5 -0.012459 -0.004580 -0.008006 0.000000 0.038616 0.000000
# 6 0.000000 0.000000 0.000000 0.064478 0.000000 -0.024193
#
#
# Mechanical properties :
#
#
# Convention : Reuss Voigt Hill
#
# Bulk Modulus (GPa) = 25.18712 42.99956 34.09334
# Shear Modulus (GPa) = 43.32264 21.66428 32.49346
#
# Velocity S-wave (km/s) = 4.29865 3.03981 3.72283
# Velocity P-wave (km/s) = 5.94819 5.53726 5.74640
#
# Compressibility (1/GPa) = 0.03970283
#
# Stress axis : x y z
#
# Youngs Moduli (GPa) = 54.15533 71.88823 74.37409
#
# Poissons Ratio (x) = 0.13041 0.09774
# Poissons Ratio (y) = 0.09824 -0.00513
# Poissons Ratio (z) = 0.07117 -0.00496
#
# Static dielectric constant tensor:
#      x y z
#    x 1.933110 0.000000 -0.194710 
#    y 0.000000 1.874830 0.000000 
#    z -0.194710 0.000000 2.387390 
# 
# From -- ./inp_files/16988.got.cif
#   From: 2010.05.17/outbox.cif.g08.bks.cpg/sg5_9_cif.got.tgz:16988.got - 2010.06.03 18:56:24.
