data_PCOD9129348
_publ_section_title
;
Structure prediction by ZEFSAII (Michael W. Deem and Ramdas Pophale) SiO2 
 PCOD9129348
Probable space group: C 2
;
_chemical_formula_sum "Si O2"
_cell_formula_units_Z 28
_cell_length_a 12.204895
_cell_length_b 13.514960
_cell_length_c 8.881855
_cell_angle_alpha 90.000000
_cell_angle_beta 62.908193
_cell_angle_gamma 90.000000
_cell_volume 1304.301823
_symmetry_space_group_name_H-M "C 2"
_symmetry_group_IT_number 5
_symmetry_cell_setting 'monoclinic'
loop_
_space_group_symop_operation_xyz
x,y,z
-x,y,-z
1/2+x,1/2+y,z
1/2-x,1/2+y,-z
loop_
_atom_site_type_symbol
_atom_site_label
_atom_site_fract_x
_atom_site_fract_y
_atom_site_fract_z
Si Si1 0.504655 0.584460 0.678489
Si Si2 0.787752 0.003217 0.246349
Si Si3 0.617918 0.135128 0.161914
Si Si4 0.602332 0.003760 0.625541
Si Si5 0.279637 0.335017 0.009116
Si Si6 0.765821 0.512907 0.157531
Si Si7 0.480192 0.800055 0.691653
O O1 0.500000 0.572871 0.500000
O O2 0.598267 0.518979 0.714661
O O3 0.365012 0.558611 0.805913
O O4 0.541290 0.696652 0.698286
O O5 0.670993 0.979314 0.426922
O O6 0.819786 0.917293 0.107102
O O7 0.734058 0.098904 0.190955
O O8 0.493177 0.095212 0.317522
O O9 0.630202 0.248612 0.103418
O O10 0.632251 0.069625 0.002612
O O11 0.704313 0.026157 0.687063
O O12 0.531414 0.903933 0.718717
O O13 0.159977 0.289824 0.165746
O O14 0.238581 0.399189 0.890664
O O15 0.500000 0.803141 0.500000
#
# Coordination Sequence:
#
# PCOD9129348 Si02
#       7
#     4   4   4   4   4   4   4
#     4  11  24  45  68 101 137 180 234 288 344 416
#     4  11  24  46  75  96 142 190 230 288 348 422
#     4  11  24  43  67 108 137 173 234 296 350 401
#     4  12  22  45  74 101 136 183 237 289 343 414
#     4  11  24  44  66 105 139 178 234 285 359 412
#     4  11  24  43  64  99 143 178 227 290 349 411
#     4  11  21  40  72 100 129 177 244 282 330 427
#
# _framework density 21.467424000000001
#
# number of rings (size 3 to 8) (size 9 to 14) (size 15 to 20)
#    0.000    0.857    7.143    0.857    2.000    2.286 
#    5.143    1.429    0.000    0.000    0.000    0.000 
#    0.000    0.000    0.000    0.000    0.000    0.000 
#
# Total GULP energy -78128.428789 kJ/mol
# GULP energy per Si atom -5580.602056 kJ/mol
# Density = 2.141856 g / cm^3
# Si number density = 21.467424 Si / 1000 Ang^3
#
#
#
# Elastic Constant Matrix: (Units=GPa)
#
#
# Indices 1 2 3 4 5 6 
#
# 1 107.9293 38.8177 27.5308 0.0000 4.1039 0.0000
# 2 38.8177 116.5669 27.8373 0.0000 2.0550 0.0000
# 3 27.5308 27.8373 74.8727 0.0000 -0.1016 0.0000
# 4 0.0000 0.0000 0.0000 32.0539 0.0000 -3.8532
# 5 4.1039 2.0550 -0.1016 0.0000 29.5222 0.0000
# 6 0.0000 0.0000 0.0000 -3.8532 0.0000 11.0615
#
#
#
# Elastic Compliance Matrix: (Units=1/GPa)
#
#
# Indices 1 2 3 4 5 6 
#
# 1 0.011151 -0.002974 -0.002996 0.000000 -0.001353 0.000000
# 2 -0.002974 0.010221 -0.002707 0.000000 -0.000307 0.000000
# 3 -0.002996 -0.002707 0.015465 0.000000 0.000658 0.000000
# 4 0.000000 0.000000 0.000000 0.032561 0.000000 0.011342
# 5 -0.001353 -0.000307 0.000658 0.000000 0.034085 0.000000
# 6 0.000000 0.000000 0.000000 0.011342 0.000000 0.094355
#
#
# Mechanical properties :
#
#
# Convention : Reuss Voigt Hill
#
# Bulk Modulus (GPa) = 51.32845 54.19340 52.76092
# Shear Modulus (GPa) = 22.55450 28.20640 25.38045
#
# Velocity S-wave (km/s) = 3.24487 3.62873 3.44216
# Velocity P-wave (km/s) = 6.16447 6.54646 6.35834
#
# Compressibility (1/GPa) = 0.01948237
#
# Stress axis : x y z
#
# Youngs Moduli (GPa) = 89.68086 97.83812 64.66178
#
# Poissons Ratio (x) = 0.29096 0.19374
# Poissons Ratio (y) = 0.26670 0.17504
# Poissons Ratio (z) = 0.26871 0.26485
#
# Static dielectric constant tensor:
#      x y z
#    x 1.776100 0.000000 -0.010270 
#    y 0.000000 1.806490 0.000000 
#    z -0.010270 0.000000 1.799650 
# 
# From -- ./inp_files/20402.got.cif
#   From: 2010.05.17/outbox.cif.g08.bks.cpg/sg5_11_cif.got.tgz:20402.got - 2010.06.03 18:56:24.
