data_PCOD9129756
_publ_section_title
;
Structure prediction by ZEFSAII (Michael W. Deem and Ramdas Pophale) SiO2 
 PCOD9129756
Probable space group: C 2
;
_chemical_formula_sum "Si O2"
_cell_formula_units_Z 28
_cell_length_a 19.215565
_cell_length_b 6.870888
_cell_length_c 12.636920
_cell_angle_alpha 90.000000
_cell_angle_beta 56.321450
_cell_angle_gamma 90.000000
_cell_volume 1388.401362
_symmetry_space_group_name_H-M "C 2"
_symmetry_group_IT_number 5
_symmetry_cell_setting 'monoclinic'
loop_
_space_group_symop_operation_xyz
x,y,z
-x,y,-z
1/2+x,1/2+y,z
1/2-x,1/2+y,-z
loop_
_atom_site_type_symbol
_atom_site_label
_atom_site_fract_x
_atom_site_fract_y
_atom_site_fract_z
Si Si1 0.930818 0.722600 0.466442
Si Si2 0.692605 0.760352 0.194703
Si Si3 0.372218 0.583537 0.384706
Si Si4 0.024542 0.186842 0.100729
Si Si5 0.164414 0.909979 0.079566
Si Si6 0.710282 0.915187 0.406224
Si Si7 0.060234 0.525015 0.211972
O O1 0.849451 0.599525 0.567194
O O2 0.000000 0.735185 0.500000
O O3 0.975414 0.605718 0.333298
O O4 0.905042 0.932693 0.445035
O O5 0.685600 0.536727 0.165408
O O6 0.723296 0.798307 0.286532
O O7 0.603579 0.867443 0.253080
O O8 0.754719 0.860312 0.057886
O O9 0.447489 0.630919 0.241732
O O10 0.336657 0.773779 0.472316
O O11 0.296567 0.485200 0.384199
O O12 0.101386 0.045483 0.065499
O O13 0.048356 0.406817 0.113622
O O14 0.000000 0.169754 0.000000
O O15 0.119313 0.710455 0.147561
#
# Coordination Sequence:
#
# PCOD9129756 Si02
#       7
#     4   4   4   4   4   4   4
#     4  12  25  44  73  99 138 182 226 283 345 412
#     4  11  24  42  69  98 138 176 225 282 346 407
#     4  12  26  47  68 101 140 176 233 285 338 419
#     4  11  25  44  69  97 133 181 229 279 343 406
#     4  11  23  44  66  99 136 174 228 284 332 411
#     4  12  26  45  69 103 137 182 222 284 352 408
#     4  11  23  43  65  98 136 174 228 282 334 411
#
# _framework density 20.167079999999999
#
# number of rings (size 3 to 8) (size 9 to 14) (size 15 to 20)
#    0.000    0.571    7.143    0.857    2.000    1.143 
#    5.143    0.000    0.000    0.000    0.000    0.000 
#    0.000    0.000    0.000    0.000    0.000    0.000 
#
# Total GULP energy -78325.801170 kJ/mol
# GULP energy per Si atom -5594.700084 kJ/mol
# Density = 2.012118 g / cm^3
# Si number density = 20.167080 Si / 1000 Ang^3
#
#
#
# Elastic Constant Matrix: (Units=GPa)
#
#
# Indices 1 2 3 4 5 6 
#
# 1 86.3539 42.2972 7.4542 0.0000 11.0875 0.0000
# 2 42.2972 116.2164 29.7698 0.0000 2.6402 0.0000
# 3 7.4542 29.7698 46.9864 0.0000 6.7636 0.0000
# 4 0.0000 0.0000 0.0000 18.5972 0.0000 -7.7466
# 5 11.0875 2.6402 6.7636 0.0000 41.8511 0.0000
# 6 0.0000 0.0000 0.0000 -7.7466 0.0000 36.2788
#
#
#
# Elastic Compliance Matrix: (Units=1/GPa)
#
#
# Indices 1 2 3 4 5 6 
#
# 1 0.014729 -0.005750 0.001859 0.000000 -0.003840 0.000000
# 2 -0.005750 0.012523 -0.007298 0.000000 0.001913 0.000000
# 3 0.001859 -0.007298 0.026226 0.000000 -0.004271 0.000000
# 4 0.000000 0.000000 0.000000 0.059021 0.000000 0.012603
# 5 -0.003840 0.001913 -0.004271 0.000000 0.025481 0.000000
# 6 0.000000 0.000000 0.000000 0.012603 0.000000 0.030255
#
#
# Mechanical properties :
#
#
# Convention : Reuss Voigt Hill
#
# Bulk Modulus (GPa) = 32.15251 45.39991 38.77621
# Shear Modulus (GPa) = 24.87813 30.68111 27.77962
#
# Velocity S-wave (km/s) = 3.51608 3.90468 3.71546
# Velocity P-wave (km/s) = 5.69749 6.54900 6.13803
#
# Compressibility (1/GPa) = 0.03110177
#
# Stress axis : x y z
#
# Youngs Moduli (GPa) = 67.89310 79.85238 38.12972
#
# Poissons Ratio (x) = 0.45912 -0.07088
# Poissons Ratio (y) = 0.39036 0.27826
# Poissons Ratio (z) = -0.12621 0.58273
#
# Static dielectric constant tensor:
#      x y z
#    x 1.700980 0.000000 -0.011350 
#    y 0.000000 1.703600 0.000000 
#    z -0.011350 0.000000 1.688950 
# 
# From -- ./inp_files/45583.got.cif
#   From: 2010.05.17/outbox.cif.g08.bks.cpg/sg5_23_cif.got.tgz:45583.got - 2010.06.03 18:56:24.
