data_PCOD9129483
_publ_section_title
;
Structure prediction by ZEFSAII (Michael W. Deem and Ramdas Pophale) SiO2 
 PCOD9129483
Probable space group: C 2
;
_chemical_formula_sum "Si O2"
_cell_formula_units_Z 26
_cell_length_a 14.049535
_cell_length_b 17.044445
_cell_length_c 8.787604
_cell_angle_alpha 90.000000
_cell_angle_beta 147.167443
_cell_angle_gamma 90.000000
_cell_volume 1140.941549
_symmetry_space_group_name_H-M "C 2"
_symmetry_group_IT_number 5
_symmetry_cell_setting 'monoclinic'
loop_
_space_group_symop_operation_xyz
x,y,z
-x,y,-z
1/2+x,1/2+y,z
1/2-x,1/2+y,-z
loop_
_atom_site_type_symbol
_atom_site_label
_atom_site_fract_x
_atom_site_fract_y
_atom_site_fract_z
Si Si1 0.461267 0.057780 0.128166
Si Si2 0.822147 0.127248 0.678707
Si Si3 0.812688 0.177163 0.321906
Si Si4 0.879564 0.841883 0.968836
Si Si5 0.000000 0.363017 0.500000
Si Si6 0.415662 0.875684 0.056209
Si Si7 0.627803 0.271500 0.555572
O O1 0.644261 0.076430 0.457551
O O2 0.412075 0.968006 0.084238
O O3 0.500000 0.068805 0.000000
O O4 0.301881 0.118356 0.937817
O O5 0.848527 0.138318 0.533486
O O6 0.765461 0.212009 0.667693
O O7 0.000000 0.100653 0.000000
O O8 0.696948 0.255781 0.181231
O O9 0.000000 0.196530 0.500000
O O10 0.705621 0.891101 0.776835
O O11 0.000000 0.878320 0.000000
O O12 0.015203 0.817940 0.281423
O O13 0.001898 0.336661 0.321385
O O14 0.500000 0.866565 0.000000
O O15 0.229533 0.835592 0.789312
O O16 0.500000 0.226866 0.500000
#
# Coordination Sequence:
#
# PCOD9129483 Si02
#       7
#     4   4   4   4   2   4   4
#     4   9  21  47  66  91 138 182 228 288 356 424
#     4  11  24  40  67 103 134 177 233 295 353 418
#     4  11  22  40  66  97 134 182 228 289 357 420
#     4  12  22  41  67  98 137 176 230 294 359 413
#     4  12  26  44  68 102 140 186 234 290 360 434
#     4  11  25  46  70  96 139 188 231 291 357 430
#     4  12  24  40  65 101 137 173 231 290 354 417
#
# _framework density 22.788195999999999
#
# number of rings (size 3 to 8) (size 9 to 14) (size 15 to 20)
#    0.000    0.923    5.385    1.846    4.308    0.615 
#    4.154    3.846    0.000    0.000    0.000    0.000 
#    0.000    0.000    0.000    0.000    0.000    0.000 
#
# Total GULP energy -72476.009613 kJ/mol
# GULP energy per Si atom -5575.077663 kJ/mol
# Density = 2.273633 g / cm^3
# Si number density = 22.788196 Si / 1000 Ang^3
#
#
#
# Elastic Constant Matrix: (Units=GPa)
#
#
# Indices 1 2 3 4 5 6 
#
# 1 98.3764 12.1234 23.0485 0.0000 -1.9386 0.0000
# 2 12.1234 72.5109 38.8452 0.0000 13.7147 0.0000
# 3 23.0485 38.8452 186.5706 0.0000 -10.0694 0.0000
# 4 0.0000 0.0000 0.0000 18.8217 0.0000 2.0411
# 5 -1.9386 13.7147 -10.0694 0.0000 39.2619 0.0000
# 6 0.0000 0.0000 0.0000 2.0411 0.0000 17.5460
#
#
#
# Elastic Compliance Matrix: (Units=1/GPa)
#
#
# Indices 1 2 3 4 5 6 
#
# 1 0.010580 -0.001389 -0.000977 0.000000 0.000757 0.000000
# 2 -0.001389 0.017434 -0.003844 0.000000 -0.007144 0.000000
# 3 -0.000977 -0.003844 0.006440 0.000000 0.002946 0.000000
# 4 0.000000 0.000000 0.000000 0.053809 0.000000 -0.006259
# 5 0.000757 -0.007144 0.002946 0.000000 0.028758 0.000000
# 6 0.000000 0.000000 0.000000 -0.006259 0.000000 0.057721
#
#
# Mechanical properties :
#
#
# Convention : Reuss Voigt Hill
#
# Bulk Modulus (GPa) = 45.38336 56.16579 50.77458
# Shear Modulus (GPa) = 25.70615 34.02197 29.86406
#
# Velocity S-wave (km/s) = 3.36228 3.86808 3.62402
# Velocity P-wave (km/s) = 5.91877 6.68205 6.31196
#
# Compressibility (1/GPa) = 0.02203451
#
# Stress axis : x y z
#
# Youngs Moduli (GPa) = 94.51793 57.36036 155.28147
#
# Poissons Ratio (x) = 0.07965 0.15172
# Poissons Ratio (y) = 0.13125 0.59687
# Poissons Ratio (z) = 0.09235 0.22048
#
# Static dielectric constant tensor:
#      x y z
#    x 1.966800 0.000000 -0.013160 
#    y 0.000000 1.890120 0.000000 
#    z -0.013160 0.000000 1.828380 
# 
# From -- ./inp_files/16888.got.cif
#   From: 2010.05.17/outbox.cif.g08.bks.cpg/sg5_9_cif.got.tgz:16888.got - 2010.06.03 18:56:24.
