data_PCOD9129341
_publ_section_title
;
Structure prediction by ZEFSAII (Michael W. Deem and Ramdas Pophale) SiO2 
 PCOD9129341
Probable space group: C 2
;
_chemical_formula_sum "Si O2"
_cell_formula_units_Z 30
_cell_length_a 22.936437
_cell_length_b 7.796302
_cell_length_c 19.429894
_cell_angle_alpha 90.000000
_cell_angle_beta 160.772378
_cell_angle_gamma 90.000000
_cell_volume 1144.209727
_symmetry_space_group_name_H-M "C 2"
_symmetry_group_IT_number 5
_symmetry_cell_setting 'monoclinic'
loop_
_space_group_symop_operation_xyz
x,y,z
-x,y,-z
1/2+x,1/2+y,z
1/2-x,1/2+y,-z
loop_
_atom_site_type_symbol
_atom_site_label
_atom_site_fract_x
_atom_site_fract_y
_atom_site_fract_z
Si Si1 0.525582 0.241050 0.257463
Si Si2 0.593150 0.756580 0.878164
Si Si3 0.660447 0.413330 0.746605
Si Si4 0.752923 0.296044 0.171160
Si Si5 0.500000 0.478065 0.000000
Si Si6 0.759658 0.781558 0.302607
Si Si7 0.604618 0.988523 0.773218
Si Si8 0.300311 0.949813 0.629333
O O1 0.509037 0.121347 0.306950
O O2 0.613822 0.410355 0.385974
O O3 0.639510 0.132220 0.330145
O O4 0.354501 0.272838 0.020563
O O5 0.707285 0.587941 0.012753
O O6 0.736060 0.897517 0.066586
O O7 0.424464 0.799647 0.735965
O O8 0.556379 0.813996 0.760082
O O9 0.662751 0.609299 0.723663
O O10 0.472386 0.317260 0.543113
O O11 0.775034 0.314841 0.816492
O O12 0.612429 0.364462 0.070579
O O13 0.901941 0.435219 0.314420
O O14 0.654444 0.606020 0.202231
O O15 0.694338 0.924673 0.283477
#
# Coordination Sequence:
#
# PCOD9129341 Si02
#       8
#     4   4   4   4   2   4   4   4
#     4  11  26  42  69 111 144 195 239 317 379 450
#     4  11  21  40  68 101 144 197 242 315 372 459
#     4  11  24  48  75 104 146 204 265 300 391 458
#     4  12  26  48  78 114 152 200 255 330 376 467
#     4  12  30  48  80 114 160 196 264 326 396 450
#     4  11  26  47  76 106 143 214 249 317 380 473
#     4  11  21  41  69 103 141 195 249 295 383 441
#     4  11  25  41  69 105 149 182 250 302 389 437
#
# _framework density 26.218969999999999
#
# number of rings (size 3 to 8) (size 9 to 14) (size 15 to 20)
#    0.000    0.800    4.000    3.200    5.600    3.200 
#    0.000    8.000    0.000    0.000    0.000    0.000 
#    0.000    0.000    0.000    0.000    0.000    0.000 
#
# Total GULP energy -83716.472607 kJ/mol
# GULP energy per Si atom -5581.098174 kJ/mol
# Density = 2.615929 g / cm^3
# Si number density = 26.218970 Si / 1000 Ang^3
#
#
#
# Elastic Constant Matrix: (Units=GPa)
#
#
# Indices 1 2 3 4 5 6 
#
# 1 145.9196 18.1629 7.3931 0.0002 19.8465 0.0000
# 2 18.1629 111.5586 6.9647 0.0003 7.6808 0.0001
# 3 7.3931 6.9647 82.5814 0.0003 9.0447 0.0002
# 4 0.0002 0.0003 0.0003 25.7141 0.0002 15.2872
# 5 19.8465 7.6808 9.0447 0.0002 29.0915 0.0001
# 6 0.0000 0.0001 0.0002 15.2872 0.0001 43.0785
#
#
#
# Elastic Compliance Matrix: (Units=1/GPa)
#
#
# Indices 1 2 3 4 5 6 
#
# 1 0.007642 -0.000899 -0.000066 0.000000 -0.004956 0.000000
# 2 -0.000899 0.009258 -0.000517 0.000000 -0.001670 0.000000
# 3 -0.000066 -0.000517 0.012567 0.000000 -0.003726 0.000000
# 4 0.000000 0.000000 0.000000 0.049287 0.000000 -0.017490
# 5 -0.004956 -0.001670 -0.003726 0.000000 0.039355 0.000000
# 6 0.000000 0.000000 0.000000 -0.017490 0.000000 0.029420
#
#
# Mechanical properties :
#
#
# Convention : Reuss Voigt Hill
#
# Bulk Modulus (GPa) = 37.73163 45.01123 41.37143
# Shear Modulus (GPa) = 31.38203 40.07943 35.73073
#
# Velocity S-wave (km/s) = 3.46341 3.91403 3.69559
# Velocity P-wave (km/s) = 5.51505 6.13440 5.83295
#
# Compressibility (1/GPa) = 0.02650297
#
# Stress axis : x y z
#
# Youngs Moduli (GPa) = 130.84950 108.02008 79.57458
#
# Poissons Ratio (x) = 0.09710 0.00522
# Poissons Ratio (y) = 0.11763 0.04117
# Poissons Ratio (z) = 0.00858 0.05589
#
# Static dielectric constant tensor:
#      x y z
#    x 2.022410 0.000000 0.020540 
#    y 0.000000 2.099560 0.000000 
#    z 0.020540 0.000000 2.231270 
# 
# From -- ./inp_files/67397.got.cif
#   From: 2010.05.17/outbox.cif.g08.bks.cpg/sg5_34_cif.got.tgz:67397.got - 2010.06.03 18:56:24.
