data_PCOD9129343
_publ_section_title
;
Structure prediction by ZEFSAII (Michael W. Deem and Ramdas Pophale) SiO2 
 PCOD9129343
Probable space group: C 2
;
_chemical_formula_sum "Si O2"
_cell_formula_units_Z 32
_cell_length_a 8.816699
_cell_length_b 22.866888
_cell_length_c 15.545283
_cell_angle_alpha 90.000000
_cell_angle_beta 149.309990
_cell_angle_gamma 90.000000
_cell_volume 1599.618472
_symmetry_space_group_name_H-M "C 2"
_symmetry_group_IT_number 5
_symmetry_cell_setting 'monoclinic'
loop_
_space_group_symop_operation_xyz
x,y,z
-x,y,-z
1/2+x,1/2+y,z
1/2-x,1/2+y,-z
loop_
_atom_site_type_symbol
_atom_site_label
_atom_site_fract_x
_atom_site_fract_y
_atom_site_fract_z
Si Si1 0.777004 0.892170 0.570887
Si Si2 0.828910 0.688206 0.325288
Si Si3 0.835109 0.971067 0.142525
Si Si4 0.744372 0.891602 0.946663
Si Si5 0.163659 0.550307 0.671695
Si Si6 0.218079 0.758627 0.024147
Si Si7 0.330251 0.962397 0.635965
Si Si8 0.141257 0.763482 0.331571
O O1 0.500000 0.899535 0.500000
O O2 0.671267 0.902900 0.422581
O O3 0.908309 0.828908 0.654850
O O4 0.993832 0.946837 0.691353
O O5 0.823856 0.618920 0.304835
O O6 0.494812 0.714358 0.163335
O O7 0.000000 0.697676 0.500000
O O8 0.006490 0.719505 0.335282
O O9 0.500000 0.985649 0.000000
O O10 0.862233 0.914273 0.094717
O O11 0.011756 0.022952 0.183940
O O12 0.648462 0.824565 0.906748
O O13 0.508004 0.940483 0.805203
O O14 0.000000 0.893800 0.000000
O O15 0.000000 0.542573 0.500000
O O16 0.999045 0.512149 0.664166
O O17 0.000000 0.751031 0.000000
O O18 0.023355 0.755930 0.840938
O O19 0.000000 0.980343 0.500000
O O20 0.500000 0.756651 0.500000
#
# Coordination Sequence:
#
# PCOD9129343 Si02
#       8
#     4   4   4   4   4   4   4   4
#     4  11  21  40  68  93 137 174 215 267 348 408
#     4  11  27  47  72  95 133 192 238 279 334 406
#     4  12  22  39  65  99 130 175 214 271 337 404
#     4  11  23  38  62 101 143 164 212 282 341 399
#     4  11  24  49  67  91 136 180 226 271 329 404
#     4  11  25  44  68 102 141 177 227 286 340 403
#     4  12  24  39  65 101 132 177 217 277 339 402
#     4  11  25  43  70 103 135 182 226 284 343 407
#
# _framework density 20.004769
#
# number of rings (size 3 to 8) (size 9 to 14) (size 15 to 20)
#    0.000    0.750    5.000    1.875   10.500    1.000 
#    4.500    0.000    0.000    0.000    0.000    0.000 
#    0.000    0.000    0.000    0.000    0.000    0.000 
#
# Total GULP energy -89399.740612 kJ/mol
# GULP energy per Si atom -5587.483788 kJ/mol
# Density = 1.995924 g / cm^3
# Si number density = 20.004769 Si / 1000 Ang^3
#
#
#
# Elastic Constant Matrix: (Units=GPa)
#
#
# Indices 1 2 3 4 5 6 
#
# 1 122.4935 69.3168 41.7477 -0.0002 13.3919 -0.0002
# 2 69.3168 151.8040 58.5705 0.0009 10.6754 0.0007
# 3 41.7477 58.5705 93.3601 0.0007 13.5949 0.0005
# 4 -0.0002 0.0009 0.0007 18.0474 0.0014 -4.2998
# 5 13.3919 10.6754 13.5949 0.0014 40.6961 0.0006
# 6 -0.0002 0.0007 0.0005 -4.2998 0.0006 7.0355
#
#
#
# Elastic Compliance Matrix: (Units=1/GPa)
#
#
# Indices 1 2 3 4 5 6 
#
# 1 0.011552 -0.004294 -0.002189 0.000001 -0.001944 0.000002
# 2 -0.004294 0.010296 -0.004574 -0.000001 0.000240 -0.000001
# 3 -0.002189 -0.004574 0.015010 0.000000 -0.003094 0.000000
# 4 0.000001 -0.000001 0.000000 0.064853 -0.000003 0.039635
# 5 -0.001944 0.000240 -0.003094 -0.000003 0.026183 -0.000004
# 6 0.000002 -0.000001 0.000000 0.039635 -0.000004 0.166360
#
#
# Mechanical properties :
#
#
# Convention : Reuss Voigt Hill
#
# Bulk Modulus (GPa) = 67.82174 78.54750 73.18462
# Shear Modulus (GPa) = 15.56264 26.35730 20.95997
#
# Velocity S-wave (km/s) = 2.79219 3.63375 3.24041
# Velocity P-wave (km/s) = 6.66119 7.54686 7.11782
#
# Compressibility (1/GPa) = 0.01474454
#
# Stress axis : x y z
#
# Youngs Moduli (GPa) = 86.56588 97.12511 66.62062
#
# Poissons Ratio (x) = 0.41701 0.14583
# Poissons Ratio (y) = 0.37168 0.30475
# Poissons Ratio (z) = 0.18949 0.44428
#
# Static dielectric constant tensor:
#      x y z
#    x 1.684270 0.000000 0.020770 
#    y 0.000000 1.672230 0.000000 
#    z 0.020770 0.000000 1.761820 
# 
# From -- ./inp_files/25616.got.cif
#   From: 2010.05.17/outbox.cif.g08.bks.cpg/sg5_13_cif.got.tgz:25616.got - 2010.06.03 18:56:24.
