data_PCOD9129190
_publ_section_title
;
Structure prediction by ZEFSAII (Michael W. Deem and Ramdas Pophale) SiO2 
 PCOD9129190
Probable space group: C 2
;
_chemical_formula_sum "Si O2"
_cell_formula_units_Z 24
_cell_length_a 16.270042
_cell_length_b 11.192348
_cell_length_c 10.980937
_cell_angle_alpha 90.000000
_cell_angle_beta 150.760535
_cell_angle_gamma 90.000000
_cell_volume 976.740063
_symmetry_space_group_name_H-M "C 2"
_symmetry_group_IT_number 5
_symmetry_cell_setting 'monoclinic'
loop_
_space_group_symop_operation_xyz
x,y,z
-x,y,-z
1/2+x,1/2+y,z
1/2-x,1/2+y,-z
loop_
_atom_site_type_symbol
_atom_site_label
_atom_site_fract_x
_atom_site_fract_y
_atom_site_fract_z
Si Si1 0.328126 0.884460 0.852018
Si Si2 0.708152 0.645498 0.072948
Si Si3 0.087350 0.245446 0.451143
Si Si4 0.109538 0.642334 0.016554
Si Si5 0.142031 0.826512 0.382569
Si Si6 0.500000 0.507941 0.000000
Si Si7 0.000000 0.468994 0.500000
O O1 0.257929 0.781847 0.847413
O O2 0.193255 0.896438 0.569488
O O3 0.370198 0.003107 0.981140
O O4 0.500000 0.854034 0.000000
O O5 0.623640 0.590192 0.084432
O O6 0.863532 0.556932 0.262245
O O7 0.571080 0.662703 0.788790
O O8 0.209823 0.191016 0.710945
O O9 0.197159 0.259835 0.469307
O O10 0.050955 0.376714 0.458354
O O11 0.000000 0.648511 0.000000
O O12 0.007208 0.729196 0.794732
O O13 0.084942 0.921019 0.207770
#
# Coordination Sequence:
#
# PCOD9129190 Si02
#       7
#     4   4   4   4   4   2   2
#     4  11  22  37  66 107 142 172 227 299 354 405
#     4  12  25  46  69 104 139 188 237 296 352 418
#     4  11  22  47  68  93 140 187 237 281 349 421
#     4   9  20  38  64 106 131 170 228 284 352 410
#     4  11  19  39  71 106 139 173 223 297 358 409
#     4  12  20  42  76 104 136 182 236 300 360 410
#     4  12  28  50  66  98 148 200 234 284 354 422
#
# _framework density 24.571532000000001
#
# number of rings (size 3 to 8) (size 9 to 14) (size 15 to 20)
#    0.000    1.000    6.667    1.000    0.000    4.000 
#   12.000    0.000    0.000    0.000    0.000    0.000 
#    0.000    0.000    0.000    0.000    0.000    0.000 
#
# Total GULP energy -67134.301331 kJ/mol
# GULP energy per Si atom -5594.525111 kJ/mol
# Density = 2.451561 g / cm^3
# Si number density = 24.571532 Si / 1000 Ang^3
#
#
#
# Elastic Constant Matrix: (Units=GPa)
#
#
# Indices 1 2 3 4 5 6 
#
# 1 57.8711 28.2858 29.7616 0.0000 -15.0675 0.0000
# 2 28.2858 147.4672 62.3209 0.0000 7.7450 0.0000
# 3 29.7616 62.3209 143.0597 0.0000 -16.4850 0.0000
# 4 0.0000 0.0000 0.0000 36.2390 0.0000 9.6211
# 5 -15.0675 7.7450 -16.4850 0.0000 19.8632 0.0000
# 6 0.0000 0.0000 0.0000 9.6211 0.0000 11.3676
#
#
#
# Elastic Compliance Matrix: (Units=1/GPa)
#
#
# Indices 1 2 3 4 5 6 
#
# 1 0.026074 -0.006038 -0.000269 0.000000 0.021910 0.000000
# 2 -0.006038 0.010665 -0.004862 0.000000 -0.012774 0.000000
# 3 -0.000269 -0.004862 0.010349 0.000000 0.010280 0.000000
# 4 0.000000 0.000000 0.000000 0.035592 0.000000 -0.030124
# 5 0.021910 -0.012774 0.010280 0.000000 0.080477 0.000000
# 6 0.000000 0.000000 0.000000 -0.030124 0.000000 0.113464
#
#
# Mechanical properties :
#
#
# Convention : Reuss Voigt Hill
#
# Bulk Modulus (GPa) = 40.40529 65.45939 52.93234
# Shear Modulus (GPa) = 16.27560 28.69594 22.48577
#
# Velocity S-wave (km/s) = 2.57646 3.42109 3.02837
# Velocity P-wave (km/s) = 5.03294 6.50410 5.81523
#
# Compressibility (1/GPa) = 0.02474923
#
# Stress axis : x y z
#
# Youngs Moduli (GPa) = 38.35231 93.76638 96.63191
#
# Poissons Ratio (x) = 0.56618 0.02602
# Poissons Ratio (y) = 0.23158 0.46979
# Poissons Ratio (z) = 0.01033 0.45586
#
# Static dielectric constant tensor:
#      x y z
#    x 1.972250 0.000000 0.032220 
#    y 0.000000 1.942470 0.000000 
#    z 0.032220 0.000000 1.984160 
# 
# From -- ./inp_files/57069.got.cif
#   From: 2010.05.17/outbox.cif.g08.bks.cpg/sg5_29_cif.got.tgz:57069.got - 2010.06.03 18:56:24.
