data_PCOD9129787
_publ_section_title
;
Structure prediction by ZEFSAII (Michael W. Deem and Ramdas Pophale) SiO2 
 PCOD9129787
Probable space group: C 2
;
_chemical_formula_sum "Si O2"
_cell_formula_units_Z 30
_cell_length_a 7.361778
_cell_length_b 12.433173
_cell_length_c 14.484997
_cell_angle_alpha 90.000000
_cell_angle_beta 90.035682
_cell_angle_gamma 90.000000
_cell_volume 1325.815277
_symmetry_space_group_name_H-M "C 2"
_symmetry_group_IT_number 5
_symmetry_cell_setting 'monoclinic'
loop_
_space_group_symop_operation_xyz
x,y,z
-x,y,-z
1/2+x,1/2+y,z
1/2-x,1/2+y,-z
loop_
_atom_site_type_symbol
_atom_site_label
_atom_site_fract_x
_atom_site_fract_y
_atom_site_fract_z
Si Si1 0.500000 0.900230 0.000000
Si Si2 0.810301 0.275345 0.160924
Si Si3 0.501447 0.794050 0.645269
Si Si4 0.668419 0.030181 0.165594
Si Si5 0.121109 0.062407 0.411834
Si Si6 0.101134 0.750257 0.405307
Si Si7 0.025720 0.525135 0.358743
Si Si8 0.490085 0.398868 0.256903
O O1 0.385415 0.821461 0.065857
O O2 0.602544 0.979313 0.070605
O O3 0.957161 0.281450 0.245081
O O4 0.742909 0.151829 0.155978
O O5 0.647301 0.355246 0.190107
O O6 0.411536 0.688508 0.605276
O O7 0.404178 0.905854 0.622329
O O8 0.704635 0.806430 0.603071
O O9 0.515559 0.032144 0.246863
O O10 0.821621 0.948420 0.203469
O O11 0.000000 0.030125 0.500000
O O12 0.337230 0.044317 0.411385
O O13 0.054080 0.993895 0.324519
O O14 0.147925 0.625551 0.386782
O O15 0.971503 0.795659 0.324521
O O16 0.000000 0.765052 0.500000
#
# Coordination Sequence:
#
# PCOD9129787 Si02
#       8
#     2   4   4   4   4   4   4   4
#     4  12  28  46  74 104 132 168 238 298 338 446
#     4  11  24  49  70 102 139 177 227 293 356 424
#     4  11  23  44  64  96 141 182 230 283 350 405
#     4  12  26  48  72 101 137 181 231 288 364 422
#     4  12  24  42  69 103 142 187 239 282 329 405
#     4  11  23  44  66 101 144 183 238 288 326 409
#     4  12  24  42  70  97 137 191 229 286 350 403
#     4  11  23  44  74  94 143 188 219 281 360 399
#
# _framework density 22.627586000000001
#
# number of rings (size 3 to 8) (size 9 to 14) (size 15 to 20)
#    0.000    0.533    8.000    1.200    1.867    3.200 
#    2.400    0.000    0.000    0.000    0.000    0.000 
#    0.000    0.000    0.000    0.000    0.000    0.000 
#
# Total GULP energy -83960.783428 kJ/mol
# GULP energy per Si atom -5597.385562 kJ/mol
# Density = 2.257608 g / cm^3
# Si number density = 22.627586 Si / 1000 Ang^3
#
#
#
# Elastic Constant Matrix: (Units=GPa)
#
#
# Indices 1 2 3 4 5 6 
#
# 1 61.5724 37.8440 36.7915 0.0000 -6.1535 0.0000
# 2 37.8440 191.9808 54.2246 0.0000 -3.6514 0.0000
# 3 36.7915 54.2246 179.9770 0.0000 -26.9964 0.0000
# 4 0.0000 0.0000 0.0000 35.9674 0.0000 -0.8716
# 5 -6.1535 -3.6514 -26.9964 0.0000 36.7626 0.0000
# 6 0.0000 0.0000 0.0000 -0.8716 0.0000 37.1024
#
#
#
# Elastic Compliance Matrix: (Units=1/GPa)
#
#
# Indices 1 2 3 4 5 6 
#
# 1 0.020032 -0.003072 -0.003048 0.000000 0.000810 0.000000
# 2 -0.003072 0.006185 -0.001371 0.000000 -0.000907 0.000000
# 3 -0.003048 -0.001371 0.007300 0.000000 0.004714 0.000000
# 4 0.000000 0.000000 0.000000 0.027819 0.000000 0.000653
# 5 0.000810 -0.000907 0.004714 0.000000 0.030709 0.000000
# 6 0.000000 0.000000 0.000000 0.000653 0.000000 0.026968
#
#
# Mechanical properties :
#
#
# Convention : Reuss Voigt Hill
#
# Bulk Modulus (GPa) = 53.95893 76.80557 65.38225
# Shear Modulus (GPa) = 35.67059 42.27782 38.97420
#
# Velocity S-wave (km/s) = 3.97472 4.32721 4.15471
# Velocity P-wave (km/s) = 6.70544 7.68006 7.20924
#
# Compressibility (1/GPa) = 0.01853261
#
# Stress axis : x y z
#
# Youngs Moduli (GPa) = 49.92132 161.69256 136.99472
#
# Poissons Ratio (x) = 0.49679 0.41753
# Poissons Ratio (y) = 0.15338 0.18786
# Poissons Ratio (z) = 0.15215 0.22173
#
# Static dielectric constant tensor:
#      x y z
#    x 1.872720 0.000000 -0.008530 
#    y 0.000000 1.846150 0.000000 
#    z -0.008530 0.000000 1.826460 
# 
# From -- ./inp_files/50466.got.cif
#   From: 2010.05.17/outbox.cif.g08.bks.cpg/sg5_26_cif.got.tgz:50466.got - 2010.06.03 18:56:24.
