data_PCOD9129097
_publ_section_title
;
Structure prediction by ZEFSAII (Michael W. Deem and Ramdas Pophale) SiO2 
 PCOD9129097
Probable space group: C 2
;
_chemical_formula_sum "Si O2"
_cell_formula_units_Z 16
_cell_length_a 9.704901
_cell_length_b 11.795848
_cell_length_c 9.021562
_cell_angle_alpha 90.000000
_cell_angle_beta 40.435344
_cell_angle_gamma 90.000000
_cell_volume 669.841361
_symmetry_space_group_name_H-M "C 2"
_symmetry_group_IT_number 5
_symmetry_cell_setting 'monoclinic'
loop_
_space_group_symop_operation_xyz
x,y,z
-x,y,-z
1/2+x,1/2+y,z
1/2-x,1/2+y,-z
loop_
_atom_site_type_symbol
_atom_site_label
_atom_site_fract_x
_atom_site_fract_y
_atom_site_fract_z
Si Si1 0.500000 0.237911 0.500000
Si Si2 0.821951 0.262453 0.755272
Si Si3 0.000000 0.574633 0.000000
Si Si4 0.159465 0.914872 0.129754
Si Si5 0.588742 0.612689 0.760182
O O1 0.177215 0.664914 0.797147
O O2 0.382704 0.319156 0.713670
O O3 0.693519 0.359374 0.942442
O O4 0.000000 0.307224 0.500000
O O5 0.944539 0.201528 0.789507
O O6 0.863430 0.492537 0.005332
O O7 0.325657 0.158082 0.568578
O O8 0.953733 0.995021 0.288485
O O9 0.500000 0.604473 0.000000
#
# Coordination Sequence:
#
# PCOD9129097 Si02
#       5
#     2   4   2   4   4
#     4  12  26  50  74 104 158 186 236 312 354 428
#     4  11  26  49  75 106 150 188 242 304 358 428
#     4  10  26  50  70 110 146 186 246 300 352 438
#     4  11  26  48  76 106 147 196 238 296 374 419
#     4  11  26  49  71 111 144 191 249 290 360 441
#
# _framework density 23.886254000000001
#
# number of rings (size 3 to 8) (size 9 to 14) (size 15 to 20)
#    0.000    1.000    2.500    1.500   12.250    0.000 
#   11.250    0.000    0.000    0.000    0.000    0.000 
#    0.000    0.000    0.000    0.000    0.000    0.000 
#
# Total GULP energy -44790.536247 kJ/mol
# GULP energy per Si atom -5598.817031 kJ/mol
# Density = 2.383189 g / cm^3
# Si number density = 23.886254 Si / 1000 Ang^3
#
#
#
# Elastic Constant Matrix: (Units=GPa)
#
#
# Indices 1 2 3 4 5 6 
#
# 1 159.9048 76.3551 28.6936 -0.0014 -20.4718 0.0015
# 2 76.3551 127.7793 37.8342 -0.0005 -16.0830 0.0005
# 3 28.6936 37.8342 92.5482 -0.0009 2.1064 0.0014
# 4 -0.0014 -0.0005 -0.0009 18.3655 0.0010 -9.0765
# 5 -20.4718 -16.0830 2.1064 0.0010 33.1656 -0.0013
# 6 0.0015 0.0005 0.0014 -9.0765 -0.0013 37.8000
#
#
#
# Elastic Compliance Matrix: (Units=1/GPa)
#
#
# Indices 1 2 3 4 5 6 
#
# 1 0.009125 -0.004738 -0.000969 0.000000 0.003396 0.000000
# 2 -0.004738 0.012109 -0.003553 0.000000 0.003173 0.000000
# 3 -0.000969 -0.003553 0.012629 0.000000 -0.003124 0.000000
# 4 0.000000 0.000000 0.000000 0.061781 -0.000001 0.014835
# 5 0.003396 0.003173 -0.003124 -0.000001 0.033985 0.000001
# 6 0.000000 0.000000 0.000000 0.014835 0.000001 0.030017
#
#
# Mechanical properties :
#
#
# Convention : Reuss Voigt Hill
#
# Bulk Modulus (GPa) = 65.18314 73.99980 69.59147
# Shear Modulus (GPa) = 27.28027 33.68950 30.48488
#
# Velocity S-wave (km/s) = 3.38315 3.75962 3.57634
# Velocity P-wave (km/s) = 6.52757 7.06355 6.80084
#
# Compressibility (1/GPa) = 0.01534139
#
# Stress axis : x y z
#
# Youngs Moduli (GPa) = 109.58924 82.58477 79.18000
#
# Poissons Ratio (x) = 0.39130 0.07676
# Poissons Ratio (y) = 0.51925 0.28135
# Poissons Ratio (z) = 0.10624 0.29345
#
# Static dielectric constant tensor:
#      x y z
#    x 1.897760 0.000000 -0.019630 
#    y 0.000000 1.895810 0.000000 
#    z -0.019630 0.000000 1.884500 
# 
# From -- ./inp_files/18906.got.cif
#   From: 2010.05.17/outbox.cif.g08.bks.cpg/sg5_10_cif.got.tgz:18906.got - 2010.06.03 18:56:24.
