data_PCOD9129121
_publ_section_title
;
Structure prediction by ZEFSAII (Michael W. Deem and Ramdas Pophale) SiO2 
 PCOD9129121
Probable space group: C 2
;
_chemical_formula_sum "Si O2"
_cell_formula_units_Z 28
_cell_length_a 24.142139
_cell_length_b 9.870599
_cell_length_c 5.715182
_cell_angle_alpha 90.000000
_cell_angle_beta 113.616846
_cell_angle_gamma 90.000000
_cell_volume 1247.845819
_symmetry_space_group_name_H-M "C 2"
_symmetry_group_IT_number 5
_symmetry_cell_setting 'monoclinic'
loop_
_space_group_symop_operation_xyz
x,y,z
-x,y,-z
1/2+x,1/2+y,z
1/2-x,1/2+y,-z
loop_
_atom_site_type_symbol
_atom_site_label
_atom_site_fract_x
_atom_site_fract_y
_atom_site_fract_z
Si Si1 0.133708 0.304090 0.606426
Si Si2 0.185005 0.954345 0.304215
Si Si3 0.067669 0.514852 0.190889
Si Si4 0.747271 0.682347 0.584911
Si Si5 0.335962 0.044287 0.048395
Si Si6 0.065804 0.729881 0.529469
Si Si7 0.119272 0.006629 0.695868
O O1 0.084507 0.406475 0.419444
O O2 0.182235 0.252374 0.499808
O O3 0.106418 0.168148 0.675192
O O4 0.172715 0.401629 0.838683
O O5 0.206475 0.802006 0.377875
O O6 0.153605 0.987193 0.502343
O O7 0.240386 0.061984 0.388466
O O8 0.150312 0.972948 0.999652
O O9 0.120486 0.504602 0.092803
O O10 0.069421 0.671856 0.274606
O O11 0.000000 0.484485 0.000000
O O12 0.773350 0.609450 0.860578
O O13 0.377070 0.155182 0.253025
O O14 0.069669 0.888867 0.582789
O O15 0.000000 0.678415 0.500000
#
# Coordination Sequence:
#
# PCOD9129121 Si02
#       7
#     4   4   4   4   4   4   4
#     4  10  27  42  68 107 143 192 238 297 366 438
#     4  11  26  43  69 100 145 187 237 290 359 434
#     4  11  23  46  75 104 140 190 253 299 359 437
#     4  11  24  43  70 104 143 192 236 300 360 440
#     4  11  23  44  72  99 144 189 241 299 361 429
#     4  11  23  44  71 103 133 183 245 305 359 429
#     4  11  26  47  66 103 146 183 238 296 363 429
#
# _framework density 22.438669000000001
#
# number of rings (size 3 to 8) (size 9 to 14) (size 15 to 20)
#    0.000    1.143    2.857    1.714   10.000    2.286 
#    2.571    0.714    0.000    0.000    0.000    0.000 
#    0.000    0.000    0.000    0.000    0.000    0.000 
#
# Total GULP energy -78059.449329 kJ/mol
# GULP energy per Si atom -5575.674952 kJ/mol
# Density = 2.238760 g / cm^3
# Si number density = 22.438669 Si / 1000 Ang^3
#
#
#
# Elastic Constant Matrix: (Units=GPa)
#
#
# Indices 1 2 3 4 5 6 
#
# 1 33.4739 10.7088 24.7148 0.0000 6.3164 0.0000
# 2 10.7088 135.7168 34.1583 0.0000 12.7071 0.0000
# 3 24.7148 34.1583 92.3685 0.0000 9.3967 0.0000
# 4 0.0000 0.0000 0.0000 27.0393 0.0000 2.5565
# 5 6.3164 12.7071 9.3967 0.0000 35.6022 0.0000
# 6 0.0000 0.0000 0.0000 2.5565 0.0000 22.7972
#
#
#
# Elastic Compliance Matrix: (Units=1/GPa)
#
#
# Indices 1 2 3 4 5 6 
#
# 1 0.037820 -0.000174 -0.009637 0.000000 -0.004104 0.000000
# 2 -0.000174 0.008291 -0.002797 0.000000 -0.002190 0.000000
# 3 -0.009637 -0.002797 0.014554 0.000000 -0.001133 0.000000
# 4 0.000000 0.000000 0.000000 0.037380 0.000000 -0.004192
# 5 -0.004104 -0.002190 -0.001133 0.000000 0.029897 0.000000
# 6 0.000000 0.000000 0.000000 -0.004192 0.000000 0.044335
#
#
# Mechanical properties :
#
#
# Convention : Reuss Voigt Hill
#
# Bulk Modulus (GPa) = 28.20993 44.52480 36.36737
# Shear Modulus (GPa) = 23.88806 29.88625 26.88715
#
# Velocity S-wave (km/s) = 3.26635 3.65349 3.46533
# Velocity P-wave (km/s) = 5.17926 6.13867 5.67926
#
# Compressibility (1/GPa) = 0.03544851
#
# Stress axis : x y z
#
# Youngs Moduli (GPa) = 26.44117 120.61314 68.70799
#
# Poissons Ratio (x) = 0.02103 0.66217
# Poissons Ratio (y) = 0.00461 0.19215
# Poissons Ratio (z) = 0.25482 0.33731
#
# Static dielectric constant tensor:
#      x y z
#    x 1.868470 0.000000 -0.028690 
#    y 0.000000 1.861070 0.000000 
#    z -0.028690 0.000000 1.879170 
# 
# From -- ./inp_files/11273.got.cif
#   From: 2010.05.17/outbox.cif.g08.bks.cpg/sg5_6_cif.got.tgz:11273.got - 2010.06.03 18:56:24.
