data_PCOD9129481
_publ_section_title
;
Structure prediction by ZEFSAII (Michael W. Deem and Ramdas Pophale) SiO2 
 PCOD9129481
Probable space group: C 2
;
_chemical_formula_sum "Si O2"
_cell_formula_units_Z 12
_cell_length_a 14.157443
_cell_length_b 6.389667
_cell_length_c 4.479415
_cell_angle_alpha 90.000000
_cell_angle_beta 65.044686
_cell_angle_gamma 90.000000
_cell_volume 367.381973
_symmetry_space_group_name_H-M "C 2"
_symmetry_group_IT_number 5
_symmetry_cell_setting 'monoclinic'
loop_
_space_group_symop_operation_xyz
x,y,z
-x,y,-z
1/2+x,1/2+y,z
1/2-x,1/2+y,-z
loop_
_atom_site_type_symbol
_atom_site_label
_atom_site_fract_x
_atom_site_fract_y
_atom_site_fract_z
Si Si1 0.080741 0.433270 0.135999
Si Si2 0.702880 0.103083 0.423286
Si Si3 0.420304 0.500626 0.348877
O O1 0.172970 0.403265 0.256953
O O2 0.000000 0.521271 0.500000
O O3 0.851784 0.569724 0.185249
O O4 0.000000 0.330402 0.000000
O O5 0.649701 0.321707 0.398876
O O6 0.827391 0.113947 0.283600
O O7 0.500000 0.593772 0.500000
O O8 0.500000 0.408769 0.000000
#
# Coordination Sequence:
#
# PCOD9129481 Si02
#       3
#     4   4   4
#     4   9  17  34  61  93 122 162 211 255 311 377
#     4  11  22  40  66  95 130 170 214 265 322 381
#     4  12  25  44  67  96 132 170 215 268 321 382
#
# _framework density 32.663549000000003
#
# number of rings (size 3 to 8) (size 9 to 14) (size 15 to 20)
#    0.000    1.333    0.000   10.000    0.000    0.000 
#    0.000   13.333    0.000    0.000    0.000    0.000 
#    0.000    0.000    0.000    0.000    0.000    0.000 
#
# Total GULP energy -33458.585284 kJ/mol
# GULP energy per Si atom -5576.430881 kJ/mol
# Density = 3.258921 g / cm^3
# Si number density = 32.663549 Si / 1000 Ang^3
#
#
#
# Elastic Constant Matrix: (Units=GPa)
#
#
# Indices 1 2 3 4 5 6 
#
# 1 362.0029 105.8237 85.0240 0.0000 -17.2073 0.0000
# 2 105.8237 84.5484 -19.0401 0.0000 -15.1741 0.0000
# 3 85.0240 -19.0401 225.2209 0.0000 -5.0063 0.0000
# 4 0.0000 0.0000 0.0000 17.9977 0.0000 5.4394
# 5 -17.2073 -15.1741 -5.0063 0.0000 104.2982 0.0000
# 6 0.0000 0.0000 0.0000 5.4394 0.0000 83.5192
#
#
#
# Elastic Compliance Matrix: (Units=1/GPa)
#
#
# Indices 1 2 3 4 5 6 
#
# 1 0.005696 -0.007824 -0.002819 0.000000 -0.000334 0.000000
# 2 -0.007824 0.023153 0.004962 0.000000 0.002316 0.000000
# 3 -0.002819 0.004962 0.005936 0.000000 0.000542 0.000000
# 4 0.000000 0.000000 0.000000 0.056678 0.000000 -0.003691
# 5 -0.000334 0.002316 0.000542 0.000000 0.009896 0.000000
# 6 0.000000 0.000000 0.000000 -0.003691 0.000000 0.012214
#
#
# Mechanical properties :
#
#
# Convention : Reuss Voigt Hill
#
# Bulk Modulus (GPa) = 42.69117 112.82084 77.75600
# Shear Modulus (GPa) = 37.66721 74.49401 56.08061
#
# Velocity S-wave (km/s) = 3.39955 4.78079 4.14807
# Velocity P-wave (km/s) = 5.33925 8.06783 6.84096
#
# Compressibility (1/GPa) = 0.02342405
#
# Stress axis : x y z
#
# Youngs Moduli (GPa) = 175.56869 43.19047 168.46668
#
# Poissons Ratio (x) = 0.33791 0.47492
# Poissons Ratio (y) = 1.37361 -0.83601
# Poissons Ratio (z) = 0.49494 -0.21433
#
# Static dielectric constant tensor:
#      x y z
#    x 2.761640 0.000000 0.091570 
#    y 0.000000 2.931580 0.000000 
#    z 0.091570 0.000000 2.342710 
# 
# From -- ./inp_files/1535.got.cif
#   From: 2010.05.17/outbox.cif.g08.bks.cpg/sg5_1_cif.got.tgz:1535.got - 2010.06.03 18:56:24.
