data_PCOD9129006
_publ_section_title
;
Structure prediction by ZEFSAII (Michael W. Deem and Ramdas Pophale) SiO2 
 PCOD9129006
Probable space group: C 2
;
_chemical_formula_sum "Si O2"
_cell_formula_units_Z 26
_cell_length_a 21.196199
_cell_length_b 11.440363
_cell_length_c 5.252568
_cell_angle_alpha 90.000000
_cell_angle_beta 75.864190
_cell_angle_gamma 90.000000
_cell_volume 1235.138431
_symmetry_space_group_name_H-M "C 2"
_symmetry_group_IT_number 5
_symmetry_cell_setting 'monoclinic'
loop_
_space_group_symop_operation_xyz
x,y,z
-x,y,-z
1/2+x,1/2+y,z
1/2-x,1/2+y,-z
loop_
_atom_site_type_symbol
_atom_site_label
_atom_site_fract_x
_atom_site_fract_y
_atom_site_fract_z
Si Si1 0.317030 0.767190 0.783077
Si Si2 0.903360 0.924086 0.965282
Si Si3 0.305665 0.996002 0.506764
Si Si4 0.879066 0.724299 0.352848
Si Si5 0.215236 0.866694 0.212955
Si Si6 0.670175 0.617600 0.740686
Si Si7 0.500000 0.340445 0.500000
O O1 0.335136 0.896556 0.662159
O O2 0.325501 0.684943 0.530765
O O3 0.243453 0.791060 0.953347
O O4 0.344978 0.706021 0.010178
O O5 0.843922 0.944646 0.827712
O O6 0.970724 0.921559 0.751184
O O7 0.894205 0.792680 0.079056
O O8 0.885363 0.017740 0.197820
O O9 0.273369 0.935627 0.290546
O O10 0.359109 0.090035 0.371036
O O11 0.241649 0.056377 0.699452
O O12 0.816908 0.785807 0.543334
O O13 0.941560 0.759386 0.459356
#
# Coordination Sequence:
#
# PCOD9129006 Si02
#       7
#     4   4   4   4   4   4   2
#     4  12  24  39  56 102 142 180 225 272 364 437
#     4  11  23  41  68  95 140 179 241 290 352 413
#     4  12  22  38  65 100 144 183 224 290 368 426
#     4  11  23  43  66 100 142 184 231 298 341 431
#     4  11  20  38  58 101 138 181 218 277 359 433
#     4  12  24  38  65  96 146 182 226 287 362 429
#     4  10  26  44  68 108 126 192 250 284 356 400
#
# _framework density 21.050273000000001
#
# number of rings (size 3 to 8) (size 9 to 14) (size 15 to 20)
#    0.000    0.615    6.154    2.308    2.154    2.462 
#    0.000    0.000    0.000    0.923    0.000    0.000 
#    0.000    0.000    0.000    0.000    0.000    0.000 
#
# Total GULP energy -72565.658617 kJ/mol
# GULP energy per Si atom -5581.973740 kJ/mol
# Density = 2.100236 g / cm^3
# Si number density = 21.050273 Si / 1000 Ang^3
#
#
#
# Elastic Constant Matrix: (Units=GPa)
#
#
# Indices 1 2 3 4 5 6 
#
# 1 75.3025 34.1936 33.8600 0.0000 -4.9127 0.0000
# 2 34.1936 108.1467 65.8428 0.0000 -12.4943 0.0000
# 3 33.8600 65.8428 159.6008 0.0000 -9.1535 0.0000
# 4 0.0000 0.0000 0.0000 43.2615 0.0000 -1.8286
# 5 -4.9127 -12.4943 -9.1535 0.0000 36.2715 0.0000
# 6 0.0000 0.0000 0.0000 -1.8286 0.0000 20.3864
#
#
#
# Elastic Compliance Matrix: (Units=1/GPa)
#
#
# Indices 1 2 3 4 5 6 
#
# 1 0.015860 -0.003922 -0.001726 0.000000 0.000362 0.000000
# 2 -0.003922 0.013651 -0.004627 0.000000 0.003003 0.000000
# 3 -0.001726 -0.004627 0.008560 0.000000 0.000332 0.000000
# 4 0.000000 0.000000 0.000000 0.023203 0.000000 0.002081
# 5 0.000362 0.003003 0.000332 0.000000 0.028737 0.000000
# 6 0.000000 0.000000 0.000000 0.002081 0.000000 0.049239
#
#
# Mechanical properties :
#
#
# Convention : Reuss Voigt Hill
#
# Bulk Modulus (GPa) = 57.07647 67.87142 62.47394
# Shear Modulus (GPa) = 30.18562 33.92746 32.05654
#
# Velocity S-wave (km/s) = 3.79090 4.01900 3.90661
# Velocity P-wave (km/s) = 6.80694 7.33819 7.07755
#
# Compressibility (1/GPa) = 0.01752035
#
# Stress axis : x y z
#
# Youngs Moduli (GPa) = 63.04994 73.25467 116.82378
#
# Poissons Ratio (x) = 0.28731 0.20165
# Poissons Ratio (y) = 0.24728 0.54058
# Poissons Ratio (z) = 0.10883 0.33898
#
# Static dielectric constant tensor:
#      x y z
#    x 1.773820 0.000000 0.060650 
#    y 0.000000 1.840810 0.000000 
#    z 0.060650 0.000000 1.833270 
# 
# From -- ./inp_files/9432.got.cif
#   From: 2010.05.17/outbox.cif.g08.bks.cpg/sg5_5_cif.got.tgz:9432.got - 2010.06.03 18:56:24.
