data_PCOD9129934
_publ_section_title
;
Structure prediction by ZEFSAII (Michael W. Deem and Ramdas Pophale) SiO2 
 PCOD9129934
Probable space group: C 2
;
_chemical_formula_sum "Si O2"
_cell_formula_units_Z 20
_cell_length_a 15.327863
_cell_length_b 12.342738
_cell_length_c 4.930945
_cell_angle_alpha 90.000000
_cell_angle_beta 72.969468
_cell_angle_gamma 90.000000
_cell_volume 891.966969
_symmetry_space_group_name_H-M "C 2"
_symmetry_group_IT_number 5
_symmetry_cell_setting 'monoclinic'
loop_
_space_group_symop_operation_xyz
x,y,z
-x,y,-z
1/2+x,1/2+y,z
1/2-x,1/2+y,-z
loop_
_atom_site_type_symbol
_atom_site_label
_atom_site_fract_x
_atom_site_fract_y
_atom_site_fract_z
Si Si1 0.751058 0.420360 0.488087
Si Si2 0.500000 0.359205 0.500000
Si Si3 0.334758 0.213821 0.665176
Si Si4 0.306308 0.557260 0.961290
Si Si5 0.000000 0.011856 0.000000
Si Si6 0.563410 0.011464 0.689188
O O1 0.716445 0.300242 0.473594
O O2 0.732881 0.463199 0.805451
O O3 0.857989 0.425901 0.321712
O O4 0.703338 0.506783 0.327494
O O5 0.419933 0.284139 0.695438
O O6 0.529789 0.434579 0.723023
O O7 0.261834 0.158047 0.930941
O O8 0.382072 0.118038 0.454218
O O9 0.410842 0.574210 0.964709
O O10 0.500000 0.976113 0.500000
O O11 0.500000 0.035246 0.000000
#
# Coordination Sequence:
#
# PCOD9129934 Si02
#       6
#     4   2   4   4   2   4
#     4  11  24  42  63  95 133 162 208 270 317 368
#     4  12  24  38  70  94 120 168 220 260 314 370
#     4  11  24  42  67  97 126 169 211 265 317 375
#     4  11  24  41  64  96 130 165 210 266 315 371
#     4  12  22  44  64  92 128 168 214 264 308 374
#     4  11  24  42  66  94 127 169 215 261 314 378
#
# _framework density 22.422357000000002
#
# number of rings (size 3 to 8) (size 9 to 14) (size 15 to 20)
#    0.000    0.800    5.000    2.400    1.400    6.400 
#    1.800    0.000    2.200    0.000    0.000    0.000 
#    0.000    0.000    0.000    0.000    0.000    0.000 
#
# Total GULP energy -55928.318898 kJ/mol
# GULP energy per Si atom -5592.831890 kJ/mol
# Density = 2.237132 g / cm^3
# Si number density = 22.422357 Si / 1000 Ang^3
#
#
#
# Elastic Constant Matrix: (Units=GPa)
#
#
# Indices 1 2 3 4 5 6 
#
# 1 169.9232 26.7373 22.6923 0.0000 -13.3432 0.0000
# 2 26.7373 13.4780 -10.2458 0.0000 -6.1693 0.0000
# 3 22.6923 -10.2458 70.0745 0.0000 -1.3674 0.0000
# 4 0.0000 0.0000 0.0000 27.6175 0.0000 -40.0140
# 5 -13.3432 -6.1693 -1.3674 0.0000 41.7841 0.0000
# 6 0.0000 0.0000 0.0000 -40.0140 0.0000 115.3564
#
#
#
# Elastic Compliance Matrix: (Units=1/GPa)
#
#
# Indices 1 2 3 4 5 6 
#
# 1 0.011504 -0.029352 -0.008035 0.000000 -0.000923 0.000000
# 2 -0.029352 0.165731 0.034054 0.000000 0.016211 0.000000
# 3 -0.008035 0.034054 0.021914 0.000000 0.003179 0.000000
# 4 0.000000 0.000000 0.000000 0.072792 0.000000 0.025250
# 5 -0.000923 0.016211 0.003179 0.000000 0.026135 0.000000
# 6 0.000000 0.000000 0.000000 0.025250 0.000000 0.017427
#
#
# Mechanical properties :
#
#
# Convention : Reuss Voigt Hill
#
# Bulk Modulus (GPa) = 5.19532 36.87150 21.03341
# Shear Modulus (GPa) = 12.94225 51.23772 32.08999
#
# Velocity S-wave (km/s) = 2.40511 4.78548 3.78717
# Velocity P-wave (km/s) = 3.16778 6.85669 5.34083
#
# Compressibility (1/GPa) = 0.19248074
#
# Stress axis : x y z
#
# Youngs Moduli (GPa) = 86.92509 6.03388 45.63362
#
# Poissons Ratio (x) = 0.17711 0.36667
# Poissons Ratio (y) = 2.55146 -1.55399
# Poissons Ratio (z) = 0.69845 -0.20548
#
# Static dielectric constant tensor:
#      x y z
#    x 1.920570 0.000000 -0.016200 
#    y 0.000000 1.812190 0.000000 
#    z -0.016200 0.000000 1.766430 
# 
# From -- ./inp_files/6497.got.cif
#   From: 2010.05.17/outbox.cif.g08.bks.cpg/sg5_4_cif.got.tgz:6497.got - 2010.06.03 18:56:24.
