data_PCOD9129039
_publ_section_title
;
Structure prediction by ZEFSAII (Michael W. Deem and Ramdas Pophale) SiO2 
 PCOD9129039
Probable space group: C 2
;
_chemical_formula_sum "Si O2"
_cell_formula_units_Z 20
_cell_length_a 21.084364
_cell_length_b 5.877388
_cell_length_c 13.284327
_cell_angle_alpha 90.000000
_cell_angle_beta 29.788173
_cell_angle_gamma 90.000000
_cell_volume 817.827084
_symmetry_space_group_name_H-M "C 2"
_symmetry_group_IT_number 5
_symmetry_cell_setting 'monoclinic'
loop_
_space_group_symop_operation_xyz
x,y,z
-x,y,-z
1/2+x,1/2+y,z
1/2-x,1/2+y,-z
loop_
_atom_site_type_symbol
_atom_site_label
_atom_site_fract_x
_atom_site_fract_y
_atom_site_fract_z
Si Si1 0.500000 0.694460 0.000000
Si Si2 0.754646 0.506775 0.944573
Si Si3 0.590040 0.331777 0.006550
Si Si4 0.178201 0.191658 0.428448
Si Si5 0.500000 0.815161 0.500000
Si Si6 0.644522 0.013409 0.650937
O O1 0.399425 0.528788 0.088913
O O2 0.436193 0.830011 0.176344
O O3 0.629049 0.445695 0.055310
O O4 0.882600 0.467586 0.702145
O O5 0.742973 0.774405 0.989258
O O6 0.700063 0.163663 0.815030
O O7 0.451224 0.225480 0.204608
O O8 0.156603 0.429560 0.519763
O O9 0.059900 0.174547 0.512680
O O10 0.227724 0.047558 0.457891
#
# Coordination Sequence:
#
# PCOD9129039 Si02
#       6
#     2   4   4   4   2   4
#     4  12  22  42  72 102 144 176 242 316 352 434
#     4  11  27  48  76 106 149 201 245 301 376 445
#     4  11  24  45  68 104 141 189 243 305 362 432
#     4  11  23  44  67 105 142 187 240 303 368 439
#     4  10  26  46  72 110 154 194 250 304 374 458
#     4  12  24  42  73 107 141 187 250 300 369 434
#
# _framework density 24.455045999999999
#
# number of rings (size 3 to 8) (size 9 to 14) (size 15 to 20)
#    0.000    0.800    4.000    2.400    5.600    0.800 
#    0.000    2.000    0.000    0.000    0.000    0.000 
#    0.000    0.000    0.000    0.000    0.000    0.000 
#
# Total GULP energy -55684.803373 kJ/mol
# GULP energy per Si atom -5568.480337 kJ/mol
# Density = 2.439939 g / cm^3
# Si number density = 24.455046 Si / 1000 Ang^3
#
#
#
# Elastic Constant Matrix: (Units=GPa)
#
#
# Indices 1 2 3 4 5 6 
#
# 1 165.5439 16.1534 16.2237 -0.0025 -21.8712 0.0002
# 2 16.1534 34.8348 35.1431 -0.0092 1.3735 0.0031
# 3 16.2237 35.1431 121.0576 -0.0030 13.2785 0.0022
# 4 -0.0025 -0.0092 -0.0030 -71.8728 -0.0001 60.5017
# 5 -21.8712 1.3735 13.2785 -0.0001 34.4988 0.0005
# 6 0.0002 0.0031 0.0022 60.5017 0.0005 -2.2513
#
#
#
# Elastic Compliance Matrix: (Units=1/GPa)
#
#
# Indices 1 2 3 4 5 6 
#
# 1 0.007012 -0.002773 -0.000662 0.000000 0.004811 0.000000
# 2 -0.002773 0.042002 -0.011950 -0.000002 0.001169 0.000004
# 3 -0.000662 -0.011950 0.012333 0.000000 -0.004691 -0.000001
# 4 0.000000 -0.000002 0.000000 0.000643 0.000000 0.017293
# 5 0.004811 0.001169 -0.004691 0.000000 0.033795 0.000000
# 6 0.000000 0.000004 -0.000001 0.017293 0.000000 0.020543
#
#
# Mechanical properties :
#
#
# Convention : Reuss Voigt Hill
#
# Bulk Modulus (GPa) = 32.70474 50.71964 41.71219
# Shear Modulus (GPa) = 31.78806 9.00266 20.39536
#
# Velocity S-wave (km/s) = 3.60926 1.92076 2.89103
# Velocity P-wave (km/s) = 5.54721 5.06992 5.31392
#
# Compressibility (1/GPa) = 0.03057661
#
# Stress axis : x y z
#
# Youngs Moduli (GPa) = 142.61803 23.80814 81.08353
#
# Poissons Ratio (x) = 0.06602 0.05371
# Poissons Ratio (y) = 0.39546 0.96895
# Poissons Ratio (z) = 0.09447 0.28451
#
# Static dielectric constant tensor:
#      x y z
#    x 2.062500 0.000000 0.075150 
#    y 0.000000 2.039440 0.000000 
#    z 0.075150 0.000000 2.120630 
# 
# From -- ./inp_files/45366.got.cif
#   From: 2010.05.17/outbox.cif.g08.bks.cpg/sg5_23_cif.got.tgz:45366.got - 2010.06.03 18:56:24.
