data_PCOD9129133
_publ_section_title
;
Structure prediction by ZEFSAII (Michael W. Deem and Ramdas Pophale) SiO2 
 PCOD9129133
Probable space group: C 2
;
_chemical_formula_sum "Si O2"
_cell_formula_units_Z 20
_cell_length_a 18.155812
_cell_length_b 5.029685
_cell_length_c 13.426036
_cell_angle_alpha 90.000000
_cell_angle_beta 39.601848
_cell_angle_gamma 90.000000
_cell_volume 781.537115
_symmetry_space_group_name_H-M "C 2"
_symmetry_group_IT_number 5
_symmetry_cell_setting 'monoclinic'
loop_
_space_group_symop_operation_xyz
x,y,z
-x,y,-z
1/2+x,1/2+y,z
1/2-x,1/2+y,-z
loop_
_atom_site_type_symbol
_atom_site_label
_atom_site_fract_x
_atom_site_fract_y
_atom_site_fract_z
Si Si1 0.232482 0.254680 0.187643
Si Si2 0.492730 0.650975 0.393976
Si Si3 0.388519 0.857762 0.314965
Si Si4 0.013544 0.857583 0.104335
Si Si5 0.189488 0.758736 0.375600
O O1 0.212034 0.511777 0.279473
O O2 0.234208 0.005885 0.261258
O O3 0.355009 0.286640 0.007335
O O4 0.125177 0.194541 0.225663
O O5 0.500000 0.749197 0.500000
O O6 0.404525 0.805055 0.415247
O O7 0.440286 0.354234 0.459333
O O8 0.480490 0.652763 0.171130
O O9 0.268387 0.766348 0.391939
O O10 0.425809 0.150956 0.245557
O O11 0.000000 0.835085 0.000000
#
# Coordination Sequence:
#
# PCOD9129133 Si02
#       5
#     4   4   4   4   4
#     4  11  24  45  73 102 146 187 228 299 363 414
#     4  10  28  46  66 102 148 188 235 289 352 423
#     4  12  25  43  76 107 137 192 242 292 361 423
#     4  12  23  44  76 110 142 178 244 304 354 426
#     4  11  23  45  71  99 139 191 238 288 350 428
#
# _framework density 25.590593999999999
#
# number of rings (size 3 to 8) (size 9 to 14) (size 15 to 20)
#    0.000    0.800    4.000    1.800    0.000   20.000 
#    0.000    0.000    0.000    0.000    0.000    0.000 
#    0.000    0.000    0.000    0.000    0.000    0.000 
#
# Total GULP energy -56023.100141 kJ/mol
# GULP energy per Si atom -5602.310014 kJ/mol
# Density = 2.553235 g / cm^3
# Si number density = 25.590594 Si / 1000 Ang^3
#
#
#
# Elastic Constant Matrix: (Units=GPa)
#
#
# Indices 1 2 3 4 5 6 
#
# 1 182.8485 15.6164 28.7818 -0.0140 -13.4740 -0.0108
# 2 15.6164 116.8868 14.4404 -0.0660 12.0675 -0.0484
# 3 28.7818 14.4404 72.7863 -0.0417 -21.1076 0.0216
# 4 -0.0140 -0.0660 -0.0417 41.2245 0.0242 -3.0182
# 5 -13.4740 12.0675 -21.1076 0.0242 66.2426 -0.0203
# 6 -0.0108 -0.0484 0.0216 -3.0182 -0.0203 33.9863
#
#
#
# Elastic Compliance Matrix: (Units=1/GPa)
#
#
# Indices 1 2 3 4 5 6 
#
# 1 0.005887 -0.000606 -0.002014 -0.000001 0.000666 0.000003
# 2 -0.000606 0.009184 -0.002317 0.000015 -0.002535 0.000014
# 3 -0.002014 -0.002317 0.016526 0.000008 0.005278 -0.000011
# 4 -0.000001 0.000015 0.000008 0.024416 -0.000008 0.002168
# 5 0.000666 -0.002535 0.005278 -0.000008 0.017375 0.000003
# 6 0.000003 0.000014 -0.000011 0.002168 0.000003 0.029616
#
#
# Mechanical properties :
#
#
# Convention : Reuss Voigt Hill
#
# Bulk Modulus (GPa) = 46.03921 54.46651 50.25286
# Shear Modulus (GPa) = 41.62455 49.20288 45.41372
#
# Velocity S-wave (km/s) = 4.03743 4.38961 4.21720
# Velocity P-wave (km/s) = 6.30589 6.85723 6.58733
#
# Compressibility (1/GPa) = 0.02172061
#
# Stress axis : x y z
#
# Youngs Moduli (GPa) = 169.86680 108.88124 60.51128
#
# Poissons Ratio (x) = 0.06603 0.12190
# Poissons Ratio (y) = 0.10301 0.14023
# Poissons Ratio (z) = 0.34218 0.25232
#
# Static dielectric constant tensor:
#      x y z
#    x 2.043920 0.000000 -0.026030 
#    y 0.000000 2.008660 0.000020 
#    z -0.026030 0.000020 2.117450 
# 
# From -- ./inp_files/55118.got.cif
#   From: 2010.05.17/outbox.cif.g08.bks.cpg/sg5_28_cif.got.tgz:55118.got - 2010.06.03 18:56:24.
