data_PCOD9129698
_publ_section_title
;
Structure prediction by ZEFSAII (Michael W. Deem and Ramdas Pophale) SiO2 
 PCOD9129698
Probable space group: C 2
;
_chemical_formula_sum "Si O2"
_cell_formula_units_Z 24
_cell_length_a 7.364841
_cell_length_b 12.025848
_cell_length_c 9.479573
_cell_angle_alpha 90.000000
_cell_angle_beta 93.698131
_cell_angle_gamma 90.000000
_cell_volume 837.842905
_symmetry_space_group_name_H-M "C 2"
_symmetry_group_IT_number 5
_symmetry_cell_setting 'monoclinic'
loop_
_space_group_symop_operation_xyz
x,y,z
-x,y,-z
1/2+x,1/2+y,z
1/2-x,1/2+y,-z
loop_
_atom_site_type_symbol
_atom_site_label
_atom_site_fract_x
_atom_site_fract_y
_atom_site_fract_z
Si Si1 0.352883 0.235340 0.606984
Si Si2 0.768214 0.170298 0.040386
Si Si3 0.157705 0.055010 0.242577
Si Si4 0.485935 0.774177 0.696983
Si Si5 0.419551 0.016212 0.737491
Si Si6 0.432128 0.361936 0.147023
O O1 0.500000 0.270187 0.500000
O O2 0.152165 0.287666 0.594561
O O3 0.345553 0.101236 0.617041
O O4 0.445088 0.275381 0.758001
O O5 0.899802 0.231199 0.159598
O O6 0.645223 0.078798 0.122493
O O7 0.700407 0.272656 0.938297
O O8 0.836803 0.095672 0.916811
O O9 0.361767 0.008545 0.270115
O O10 0.134910 0.165114 0.336806
O O11 0.986044 0.971745 0.246240
O O12 0.368508 0.885095 0.725490
O O13 0.500000 0.406537 0.000000
#
# Coordination Sequence:
#
# PCOD9129698 Si02
#       6
#     4   4   4   4   4   4
#     4  11  25  50  70  94 137 188 233 285 347 407
#     4  11  23  41  65 105 143 177 216 278 346 408
#     4  12  24  39  68 110 137 175 227 284 340 409
#     4  11  25  43  67 105 135 180 234 282 338 414
#     4  11  23  45  68  97 140 184 222 286 344 405
#     4  12  20  43  71  96 138 177 220 274 349 400
#
# _framework density 28.644987
#
# number of rings (size 3 to 8) (size 9 to 14) (size 15 to 20)
#    0.000    0.667    6.667    2.000    0.000    8.000 
#    3.000    0.833    0.000    0.000    0.000    0.000 
#    0.000    0.000    0.000    0.000    0.000    0.000 
#
# Total GULP energy -66898.838432 kJ/mol
# GULP energy per Si atom -5574.903203 kJ/mol
# Density = 2.857979 g / cm^3
# Si number density = 28.644987 Si / 1000 Ang^3
#
#
#
# Elastic Constant Matrix: (Units=GPa)
#
#
# Indices 1 2 3 4 5 6 
#
# 1 109.7630 57.4110 34.7227 0.0000 1.4342 0.0000
# 2 57.4110 250.4392 31.2490 0.0000 -16.2322 0.0000
# 3 34.7227 31.2490 96.5878 0.0000 -13.9740 0.0000
# 4 0.0000 0.0000 0.0000 34.7442 0.0000 -10.3746
# 5 1.4342 -16.2322 -13.9740 0.0000 48.8040 0.0000
# 6 0.0000 0.0000 0.0000 -10.3746 0.0000 71.5427
#
#
#
# Elastic Compliance Matrix: (Units=1/GPa)
#
#
# Indices 1 2 3 4 5 6 
#
# 1 0.011525 -0.002320 -0.003707 0.000000 -0.002172 0.000000
# 2 -0.002320 0.004679 -0.000464 0.000000 0.001492 0.000000
# 3 -0.003707 -0.000464 0.012341 0.000000 0.003488 0.000000
# 4 0.000000 0.000000 0.000000 0.030084 0.000000 0.004363
# 5 -0.002172 0.001492 0.003488 0.000000 0.022049 0.000000
# 6 0.000000 0.000000 0.000000 0.004363 0.000000 0.014610
#
#
# Mechanical properties :
#
#
# Convention : Reuss Voigt Hill
#
# Bulk Modulus (GPa) = 64.25438 78.17283 71.21361
# Shear Modulus (GPa) = 44.06897 53.24533 48.65715
#
# Velocity S-wave (km/s) = 3.92657 4.31606 4.12591
# Velocity P-wave (km/s) = 6.56028 7.22408 6.90016
#
# Compressibility (1/GPa) = 0.01556314
#
# Stress axis : x y z
#
# Youngs Moduli (GPa) = 86.76693 213.69932 81.03345
#
# Poissons Ratio (x) = 0.49584 0.30037
# Poissons Ratio (y) = 0.20132 0.03760
# Poissons Ratio (z) = 0.32162 0.09916
#
# Static dielectric constant tensor:
#      x y z
#    x 2.798620 0.000000 -0.204540 
#    y 0.000000 2.307560 0.000000 
#    z -0.204540 0.000000 2.222660 
# 
# From -- ./inp_files/35404.got.cif
#   From: 2010.05.17/outbox.cif.g08.bks.cpg/sg5_18_cif.got.tgz:35404.got - 2010.06.03 18:56:24.
