data_PCOD9129427
_publ_section_title
;
Structure prediction by ZEFSAII (Michael W. Deem and Ramdas Pophale) SiO2 
 PCOD9129427
Probable space group: C 2
;
_chemical_formula_sum "Si O2"
_cell_formula_units_Z 22
_cell_length_a 18.769903
_cell_length_b 6.412624
_cell_length_c 21.089444
_cell_angle_alpha 90.000000
_cell_angle_beta 19.512848
_cell_angle_gamma 90.000000
_cell_volume 847.877485
_symmetry_space_group_name_H-M "C 2"
_symmetry_group_IT_number 5
_symmetry_cell_setting 'monoclinic'
loop_
_space_group_symop_operation_xyz
x,y,z
-x,y,-z
1/2+x,1/2+y,z
1/2-x,1/2+y,-z
loop_
_atom_site_type_symbol
_atom_site_label
_atom_site_fract_x
_atom_site_fract_y
_atom_site_fract_z
Si Si1 0.975888 0.504970 0.623435
Si Si2 0.957131 0.479608 0.295636
Si Si3 0.689496 0.797974 0.984551
Si Si4 0.313093 0.601898 0.242711
Si Si5 0.018143 0.002393 0.344171
Si Si6 0.500000 0.488077 0.500000
O O1 0.191285 0.484955 0.401544
O O2 0.983804 0.750861 0.636912
O O3 0.984930 0.390425 0.683154
O O4 0.770937 0.491894 0.750007
O O5 0.100228 0.685621 0.165981
O O6 0.708271 0.527026 0.500473
O O7 0.031017 0.339160 0.175411
O O8 0.770844 0.997878 0.876874
O O9 0.558487 0.639387 0.049709
O O10 0.205031 0.833759 0.331325
O O11 0.019207 0.097908 0.414902
#
# Coordination Sequence:
#
# PCOD9129427 Si02
#       6
#     4   4   4   4   4   2
#     4   8  17  33  58  83 121 146 189 261 280 334
#     4  11  22  35  54  95 121 152 193 251 299 342
#     4  11  22  35  63  88 118 157 198 244 295 358
#     4   8  15  34  56  89 107 150 206 236 288 334
#     4   9  19  33  51  85 116 149 188 246 290 330
#     4   8  14  32  56  78 118 140 194 258 276 322
#
# _framework density 25.947146
#
# number of rings (size 3 to 8) (size 9 to 14) (size 15 to 20)
#    0.000    3.273    3.636    0.000    2.545    6.545 
#    0.000    0.000    0.000    0.000   28.364    0.000 
#    0.000    0.000    0.000    0.000    0.000    0.000 
#
# Total GULP energy -61453.219438 kJ/mol
# GULP energy per Si atom -5586.656313 kJ/mol
# Density = 2.588809 g / cm^3
# Si number density = 25.947146 Si / 1000 Ang^3
#
#
#
# Elastic Constant Matrix: (Units=GPa)
#
#
# Indices 1 2 3 4 5 6 
#
# 1 195.1187 10.9709 84.5477 -0.0004 18.9861 -0.0003
# 2 10.9709 35.7271 26.1193 -0.0055 -16.2871 0.0025
# 3 84.5477 26.1193 141.6620 -0.0045 -0.7338 0.0011
# 4 -0.0004 -0.0055 -0.0045 31.5779 0.0003 -1.2272
# 5 18.9861 -16.2871 -0.7338 0.0003 51.1929 0.0002
# 6 -0.0003 0.0025 0.0011 -1.2272 0.0002 27.0463
#
#
#
# Elastic Compliance Matrix: (Units=1/GPa)
#
#
# Indices 1 2 3 4 5 6 
#
# 1 0.007289 -0.000427 -0.004286 -0.000001 -0.002900 0.000000
# 2 -0.000427 0.038762 -0.006828 0.000006 0.012393 -0.000003
# 3 -0.004286 -0.006828 0.010874 0.000000 -0.000427 0.000000
# 4 -0.000001 0.000006 0.000000 0.031724 0.000002 0.001439
# 5 -0.002900 0.012393 -0.000427 0.000002 0.024546 -0.000001
# 6 0.000000 -0.000003 0.000000 0.001439 -0.000001 0.037039
#
#
# Mechanical properties :
#
#
# Convention : Reuss Voigt Hill
#
# Bulk Modulus (GPa) = 29.54848 68.42041 48.98445
# Shear Modulus (GPa) = 27.08603 38.68808 32.88706
#
# Velocity S-wave (km/s) = 3.23444 3.86558 3.56401
# Velocity P-wave (km/s) = 5.03602 6.80808 5.98797
#
# Compressibility (1/GPa) = 0.03384269
#
# Stress axis : x y z
#
# Youngs Moduli (GPa) = 137.19932 25.79829 91.96212
#
# Poissons Ratio (x) = 0.01101 0.39419
# Poissons Ratio (y) = 0.05854 0.62792
# Poissons Ratio (z) = 0.58810 0.17615
#
# Static dielectric constant tensor:
#      x y z
#    x 2.131780 0.000000 0.113600 
#    y 0.000000 2.419870 0.000000 
#    z 0.113600 0.000000 1.981430 
# 
# From -- ./inp_files/66631.got.cif
#   From: 2010.05.17/outbox.cif.g08.bks.cpg/sg5_34_cif.got.tgz:66631.got - 2010.06.03 18:56:24.
