data_PCOD9129891
_publ_section_title
;
Structure prediction by ZEFSAII (Michael W. Deem and Ramdas Pophale) SiO2 
 PCOD9129891
Probable space group: C 2
;
_chemical_formula_sum "Si O2"
_cell_formula_units_Z 24
_cell_length_a 11.610408
_cell_length_b 8.010540
_cell_length_c 11.150335
_cell_angle_alpha 90.000000
_cell_angle_beta 79.164279
_cell_angle_gamma 90.000000
_cell_volume 1018.553768
_symmetry_space_group_name_H-M "C 2"
_symmetry_group_IT_number 5
_symmetry_cell_setting 'monoclinic'
loop_
_space_group_symop_operation_xyz
x,y,z
-x,y,-z
1/2+x,1/2+y,z
1/2-x,1/2+y,-z
loop_
_atom_site_type_symbol
_atom_site_label
_atom_site_fract_x
_atom_site_fract_y
_atom_site_fract_z
Si Si1 0.688965 0.837830 0.145117
Si Si2 0.795112 0.204104 0.113559
Si Si3 0.339820 0.212706 0.312818
Si Si4 0.028081 0.207855 0.697258
Si Si5 0.410594 0.346971 0.705941
Si Si6 0.233407 0.375232 0.538739
O O1 0.978549 0.730827 0.289854
O O2 0.575946 0.835654 0.252901
O O3 0.741275 0.020024 0.117610
O O4 0.656511 0.760494 0.023524
O O5 0.890787 0.203394 0.200064
O O6 0.688392 0.325450 0.173682
O O7 0.281453 0.369500 0.395259
O O8 0.287373 0.223590 0.190726
O O9 0.297933 0.050562 0.393508
O O10 0.116522 0.264692 0.576064
O O11 0.964268 0.032244 0.688260
O O12 0.341662 0.305500 0.597159
#
# Coordination Sequence:
#
# PCOD9129891 Si02
#       6
#     4   4   4   4   4   4
#     4  12  25  45  71 100 138 180 227 282 346 405
#     4  11  26  44  70 100 138 180 229 282 341 406
#     4  12  25  45  71 100 138 180 227 282 346 405
#     4  11  23  47  71  97 137 181 228 282 343 402
#     4  11  23  47  71  97 137 181 228 282 343 402
#     4  11  26  44  70 100 138 180 229 282 341 406
#
# _framework density 23.562819000000001
#
# number of rings (size 3 to 8) (size 9 to 14) (size 15 to 20)
#    0.000    0.667    3.333    4.000    4.667    1.333 
#    6.000    0.000    0.000    0.000    0.000    0.000 
#    0.000    0.000    0.000    0.000    0.000    0.000 
#
# Total GULP energy -67236.913610 kJ/mol
# GULP energy per Si atom -5603.076134 kJ/mol
# Density = 2.350919 g / cm^3
# Si number density = 23.562819 Si / 1000 Ang^3
#
#
#
# Elastic Constant Matrix: (Units=GPa)
#
#
# Indices 1 2 3 4 5 6 
#
# 1 139.7647 9.7051 20.2697 0.0000 -11.9157 0.0000
# 2 9.7051 77.5839 -16.6084 0.0000 -8.1417 0.0000
# 3 20.2697 -16.6084 65.5525 0.0000 -3.5491 0.0000
# 4 0.0000 0.0000 0.0000 28.0931 0.0000 -4.8198
# 5 -11.9157 -8.1417 -3.5491 0.0000 33.0483 0.0000
# 6 0.0000 0.0000 0.0000 -4.8198 0.0000 37.7523
#
#
#
# Elastic Compliance Matrix: (Units=1/GPa)
#
#
# Indices 1 2 3 4 5 6 
#
# 1 0.007816 -0.001308 -0.002628 0.000000 0.002213 0.000000
# 2 -0.001308 0.014326 0.004224 0.000000 0.003511 0.000000
# 3 -0.002628 0.004224 0.017243 0.000000 0.001945 0.000000
# 4 0.000000 0.000000 0.000000 0.036393 0.000000 0.004646
# 5 0.002213 0.003511 0.001945 0.000000 0.032131 0.000000
# 6 0.000000 0.000000 0.000000 0.004646 0.000000 0.027082
#
#
# Mechanical properties :
#
#
# Convention : Reuss Voigt Hill
#
# Bulk Modulus (GPa) = 25.02498 34.40376 29.71437
# Shear Modulus (GPa) = 33.84458 37.74770 35.79614
#
# Velocity S-wave (km/s) = 3.79404 4.00684 3.90189
# Velocity P-wave (km/s) = 5.46229 6.00325 5.73914
#
# Compressibility (1/GPa) = 0.03996008
#
# Stress axis : x y z
#
# Youngs Moduli (GPa) = 127.94947 69.80496 57.99399
#
# Poissons Ratio (x) = 0.09131 0.15242
# Poissons Ratio (y) = 0.16736 -0.24497
# Poissons Ratio (z) = 0.33628 -0.29486
#
# Static dielectric constant tensor:
#      x y z
#    x 1.846160 0.000000 0.012400 
#    y 0.000000 1.937590 0.000000 
#    z 0.012400 0.000000 1.863050 
# 
# From -- ./inp_files/38268.got.cif
#   From: 2010.05.17/outbox.cif.g08.bks.cpg/sg5_20_cif.got.tgz:38268.got - 2010.06.03 18:56:24.
