data_PCOD9129454
_publ_section_title
;
Structure prediction by ZEFSAII (Michael W. Deem and Ramdas Pophale) SiO2 
 PCOD9129454
Probable space group: C 2
;
_chemical_formula_sum "Si O2"
_cell_formula_units_Z 26
_cell_length_a 11.326259
_cell_length_b 16.489114
_cell_length_c 10.429785
_cell_angle_alpha 90.000000
_cell_angle_beta 35.750698
_cell_angle_gamma 90.000000
_cell_volume 1138.059548
_symmetry_space_group_name_H-M "C 2"
_symmetry_group_IT_number 5
_symmetry_cell_setting 'monoclinic'
loop_
_space_group_symop_operation_xyz
x,y,z
-x,y,-z
1/2+x,1/2+y,z
1/2-x,1/2+y,-z
loop_
_atom_site_type_symbol
_atom_site_label
_atom_site_fract_x
_atom_site_fract_y
_atom_site_fract_z
Si Si1 0.955387 0.114280 0.396275
Si Si2 0.686398 0.949561 0.663822
Si Si3 0.672950 0.059277 0.096873
Si Si4 0.000000 0.837543 0.500000
Si Si5 0.916948 0.706746 0.354308
Si Si6 0.708013 0.888027 0.375432
Si Si7 0.000000 0.000073 0.000000
Si Si8 0.500000 0.265960 0.000000
O O1 0.819494 0.182689 0.446363
O O2 0.000000 0.143468 0.500000
O O3 0.828973 0.029559 0.518370
O O4 0.167743 0.096070 0.143468
O O5 0.676413 0.884973 0.554588
O O6 0.802341 0.896740 0.670291
O O7 0.462818 0.990674 0.855265
O O8 0.520738 0.122388 0.295022
O O9 0.815960 0.039014 0.089969
O O10 0.017007 0.777712 0.607871
O O11 0.000300 0.721747 0.135952
O O12 0.500000 0.918055 0.500000
O O13 0.794923 0.817926 0.206244
O O14 0.895496 0.948215 0.202097
#
# Coordination Sequence:
#
# PCOD9129454 Si02
#       8
#     4   4   4   2   4   4   2   2
#     4  11  24  47  74 102 146 196 253 310 362 451
#     4  11  23  46  73 105 148 193 250 311 376 442
#     4  11  25  43  74 109 141 200 247 309 374 453
#     4  12  26  52  70 112 162 192 236 320 390 440
#     4  11  27  46  73 106 153 192 247 305 380 452
#     4  11  22  41  71 104 139 190 245 310 359 440
#     4  11  22  38  74 104 143 182 260 290 377 444
#     4  11  24  46  68 104 141 200 250 290 363 462
#
# _framework density 22.845904999999998
#
# number of rings (size 3 to 8) (size 9 to 14) (size 15 to 20)
#    0.000    0.923    5.385    0.923    2.154    3.692 
#    0.000    1.538    0.000    0.000    0.000    0.000 
#    0.000    0.000    0.000    0.000    0.000    0.000 
#
# Total GULP energy -72392.339823 kJ/mol
# GULP energy per Si atom -5568.641525 kJ/mol
# Density = 2.279391 g / cm^3
# Si number density = 22.845905 Si / 1000 Ang^3
#
#
#
# Elastic Constant Matrix: (Units=GPa)
#
#
# Indices 1 2 3 4 5 6 
#
# 1 123.6300 61.3438 41.4871 -0.0094 -33.3569 0.0308
# 2 61.3438 88.4510 40.6095 -0.0280 -16.6062 0.0840
# 3 41.4871 40.6095 109.4076 0.0214 -23.7363 -0.0680
# 4 -0.0094 -0.0280 0.0214 -259.0979 0.0249 854.0566
# 5 -33.3569 -16.6062 -23.7363 0.0249 31.9990 -0.0713
# 6 0.0308 0.0840 -0.0680 854.0566 -0.0713-2573.1021
#
#
#
# Elastic Compliance Matrix: (Units=1/GPa)
#
#
# Indices 1 2 3 4 5 6 
#
# 1 0.015491 -0.008468 -0.000216 -0.000001 0.011594 -0.000001
# 2 -0.008468 0.018690 -0.004216 0.000000 -0.002254 0.000001
# 3 -0.000216 -0.004216 0.012232 0.000000 0.006661 -0.000001
# 4 -0.000001 0.000000 0.000000 0.041020 -0.000003 0.013615
# 5 0.011594 -0.002254 0.006661 -0.000003 0.047107 -0.000002
# 6 -0.000001 0.000001 -0.000001 0.013615 -0.000002 0.004131
#
#
# Mechanical properties :
#
#
# Convention : Reuss Voigt Hill
#
# Bulk Modulus (GPa) = 48.50874 67.59660 58.05267
# Shear Modulus (GPa) = 29.18153 -548.17033 -259.49440
#
# Velocity S-wave (km/s) = 3.57784 -15.50688 -10.66917
# Velocity P-wave (km/s) = 6.19250 17.05771 11.23874
#
# Compressibility (1/GPa) = 0.02061484
#
# Stress axis : x y z
#
# Youngs Moduli (GPa) = 64.55477 53.50312 81.75443
#
# Poissons Ratio (x) = 0.45304 0.01764
# Poissons Ratio (y) = 0.54662 0.34465
# Poissons Ratio (z) = 0.01393 0.22555
#
# Static dielectric constant tensor:
#      x y z
#    x 2.005250 0.000010 0.113970 
#    y 0.000010 1.986680 0.000110 
#    z 0.113970 0.000110 2.858890 
# 
# From -- ./inp_files/40433.got.cif
#   From: 2010.05.17/outbox.cif.g08.bks.cpg/sg5_21_cif.got.tgz:40433.got - 2010.06.03 18:56:24.
