data_PCOD9129647
_publ_section_title
;
Structure prediction by ZEFSAII (Michael W. Deem and Ramdas Pophale) SiO2 
 PCOD9129647
Probable space group: C 2
;
_chemical_formula_sum "Si O2"
_cell_formula_units_Z 30
_cell_length_a 9.913142
_cell_length_b 13.418667
_cell_length_c 12.180570
_cell_angle_alpha 90.000000
_cell_angle_beta 117.300930
_cell_angle_gamma 90.000000
_cell_volume 1439.790844
_symmetry_space_group_name_H-M "C 2"
_symmetry_group_IT_number 5
_symmetry_cell_setting 'monoclinic'
loop_
_space_group_symop_operation_xyz
x,y,z
-x,y,-z
1/2+x,1/2+y,z
1/2-x,1/2+y,-z
loop_
_atom_site_type_symbol
_atom_site_label
_atom_site_fract_x
_atom_site_fract_y
_atom_site_fract_z
Si Si1 0.713682 0.913170 0.314549
Si Si2 0.384141 0.959334 0.162096
Si Si3 0.685533 0.247835 0.374747
Si Si4 0.500000 0.280170 0.500000
Si Si5 0.850571 0.075109 0.507772
Si Si6 0.671601 0.385313 0.887960
Si Si7 0.019259 0.679284 0.877559
Si Si8 0.344437 0.463723 0.723519
O O1 0.533468 0.893072 0.244251
O O2 0.845562 0.840536 0.411804
O O3 0.761340 0.920326 0.204149
O O4 0.724928 0.011571 0.395153
O O5 0.280601 0.974218 0.230365
O O6 0.433101 0.068478 0.137479
O O7 0.283728 0.910767 0.028406
O O8 0.549489 0.222991 0.409312
O O9 0.826839 0.190947 0.476492
O O10 0.639988 0.204926 0.240072
O O11 0.693988 0.365264 0.362454
O O12 0.000000 0.041095 0.500000
O O13 0.852942 0.050282 0.636504
O O14 0.631340 0.267414 0.877386
O O15 0.509153 0.441147 0.837231
O O16 0.000000 0.687868 0.000000
#
# Coordination Sequence:
#
# PCOD9129647 Si02
#       8
#     4   4   4   2   4   4   4   4
#     4  12  21  42  70  97 136 179 228 278 348 409
#     4  12  27  41  70 107 134 180 236 299 338 415
#     4  11  24  41  70  97 133 184 230 275 355 416
#     4  12  22  46  70  96 140 190 216 286 360 424
#     4  12  23  42  69  99 134 187 230 285 342 423
#     4  11  22  47  71  93 139 188 229 281 356 411
#     4  11  23  43  69  97 134 182 232 278 349 420
#     4  11  24  46  68  98 143 182 230 286 355 413
#
# _framework density 20.836359000000002
#
# number of rings (size 3 to 8) (size 9 to 14) (size 15 to 20)
#    0.000    0.533    7.333    3.200    1.867    1.600 
#    0.000    4.000    0.000    0.000    0.000    0.000 
#    0.000    0.000    0.000    0.000    0.000    0.000 
#
# Total GULP energy -83725.785865 kJ/mol
# GULP energy per Si atom -5581.719058 kJ/mol
# Density = 2.078893 g / cm^3
# Si number density = 20.836359 Si / 1000 Ang^3
#
#
#
# Elastic Constant Matrix: (Units=GPa)
#
#
# Indices 1 2 3 4 5 6 
#
# 1 111.9979 -4.6207 52.5846 0.0000 0.1105 0.0000
# 2 -4.6207 33.4971 14.2014 0.0000 21.9792 0.0000
# 3 52.5846 14.2014 127.5462 0.0000 4.9935 0.0000
# 4 0.0000 0.0000 0.0000 30.8912 0.0000 5.2042
# 5 0.1105 21.9792 4.9935 0.0000 44.8466 0.0000
# 6 0.0000 0.0000 0.0000 5.2042 0.0000 22.3689
#
#
#
# Elastic Compliance Matrix: (Units=1/GPa)
#
#
# Indices 1 2 3 4 5 6 
#
# 1 0.011624 0.005126 -0.005287 0.000000 -0.001952 0.000000
# 2 0.005126 0.048477 -0.006609 0.000000 -0.023035 0.000000
# 3 -0.005287 -0.006609 0.010675 0.000000 0.002063 0.000000
# 4 0.000000 0.000000 0.000000 0.033692 0.000000 -0.007839
# 5 -0.001952 -0.023035 0.002063 0.000000 0.033363 0.000000
# 6 0.000000 0.000000 0.000000 -0.007839 0.000000 0.046529
#
#
# Mechanical properties :
#
#
# Convention : Reuss Voigt Hill
#
# Bulk Modulus (GPa) = 17.47145 44.15242 30.81194
# Shear Modulus (GPa) = 23.04377 33.67974 28.36175
#
# Velocity S-wave (km/s) = 3.32918 4.02480 3.69340
# Velocity P-wave (km/s) = 4.81468 6.54483 5.74526
#
# Compressibility (1/GPa) = 0.05723622
#
# Stress axis : x y z
#
# Youngs Moduli (GPa) = 86.02635 20.62839 93.67685
#
# Poissons Ratio (x) = -0.10574 0.49525
# Poissons Ratio (y) = -0.44095 0.61911
# Poissons Ratio (z) = 0.45480 0.13633
#
# Static dielectric constant tensor:
#      x y z
#    x 1.763910 0.000000 0.016240 
#    y 0.000000 1.774740 0.000000 
#    z 0.016240 0.000000 1.749430 
# 
# From -- ./inp_files/36216.got.cif
#   From: 2010.05.17/outbox.cif.g08.bks.cpg/sg5_19_cif.got.tgz:36216.got - 2010.06.03 18:56:24.
