data_PCOD9129655
_publ_section_title
;
Structure prediction by ZEFSAII (Michael W. Deem and Ramdas Pophale) SiO2 
 PCOD9129655
Probable space group: C 2
;
_chemical_formula_sum "Si O2"
_cell_formula_units_Z 22
_cell_length_a 10.375190
_cell_length_b 11.595546
_cell_length_c 14.217670
_cell_angle_alpha 90.000000
_cell_angle_beta 148.407560
_cell_angle_gamma 90.000000
_cell_volume 896.070412
_symmetry_space_group_name_H-M "C 2"
_symmetry_group_IT_number 5
_symmetry_cell_setting 'monoclinic'
loop_
_space_group_symop_operation_xyz
x,y,z
-x,y,-z
1/2+x,1/2+y,z
1/2-x,1/2+y,-z
loop_
_atom_site_type_symbol
_atom_site_label
_atom_site_fract_x
_atom_site_fract_y
_atom_site_fract_z
Si Si1 0.000000 0.566951 0.500000
Si Si2 0.862904 0.422696 0.148865
Si Si3 0.539040 0.165069 0.339759
Si Si4 0.721379 0.492713 0.714631
Si Si5 0.920784 0.231745 0.345618
Si Si6 0.480944 0.416015 0.757263
O O1 0.082606 0.653110 0.633957
O O2 0.777289 0.484851 0.397038
O O3 0.865916 0.330951 0.235833
O O4 0.945891 0.548071 0.235574
O O5 0.068078 0.408593 0.194108
O O6 0.605580 0.428612 0.936026
O O7 0.505125 0.280752 0.260185
O O8 0.833216 0.168687 0.538544
O O9 0.500000 0.484741 0.500000
O O10 0.777642 0.630456 0.760091
O O11 0.635059 0.463455 0.765226
O O12 0.000000 0.270992 0.500000
#
# Coordination Sequence:
#
# PCOD9129655 Si02
#       6
#     2   4   4   4   4   4
#     4  12  28  56  80 108 162 220 260 322 398 476
#     4  12  28  49  78 122 157 200 264 336 385 464
#     4  12  27  48  79 109 153 215 259 318 395 469
#     4  11  22  51  80 108 153 212 259 313 396 473
#     4  11  24  50  83 110 155 213 264 312 401 478
#     4  12  30  49  77 120 157 203 269 328 392 463
#
# _framework density 24.551642000000001
#
# number of rings (size 3 to 8) (size 9 to 14) (size 15 to 20)
#    0.000    0.364    5.455    2.727   11.455    0.727 
#    3.273    0.000    0.000    0.000    0.000    0.000 
#    0.000    0.000    0.000    0.000    0.000    0.000 
#
# Total GULP energy -61446.456025 kJ/mol
# GULP energy per Si atom -5586.041457 kJ/mol
# Density = 2.449576 g / cm^3
# Si number density = 24.551642 Si / 1000 Ang^3
#
#
#
# Elastic Constant Matrix: (Units=GPa)
#
#
# Indices 1 2 3 4 5 6 
#
# 1 140.7937 51.3733 33.1627 0.0030 -22.0513 -0.0023
# 2 51.3733 123.6618 58.0450 0.0083 -8.3811 -0.0002
# 3 33.1627 58.0450 104.2637 0.0144 -27.1995 0.0028
# 4 0.0030 0.0083 0.0144 0.5249 0.0054 -25.9527
# 5 -22.0513 -8.3811 -27.1995 0.0054 30.0525 -0.0007
# 6 -0.0023 -0.0002 0.0028 -25.9527 -0.0007 50.2045
#
#
#
# Elastic Compliance Matrix: (Units=1/GPa)
#
#
# Indices 1 2 3 4 5 6 
#
# 1 0.009327 -0.003847 0.000891 0.000003 0.006577 0.000002
# 2 -0.003847 0.012778 -0.007458 -0.000004 -0.006009 -0.000002
# 3 0.000891 -0.007458 0.017133 0.000022 0.014080 0.000011
# 4 0.000003 -0.000004 0.000022 -0.077573 0.000034 -0.040100
# 5 0.006577 -0.006009 0.014080 0.000034 0.049169 0.000018
# 6 0.000002 -0.000002 0.000011 -0.040100 0.000018 -0.000811
#
#
# Mechanical properties :
#
#
# Convention : Reuss Voigt Hill
#
# Bulk Modulus (GPa) = 54.31905 72.65345 63.48625
# Shear Modulus (GPa) = 135.18522 31.23226 83.20874
#
# Velocity S-wave (km/s) = 7.42840 3.57053 5.82794
# Velocity P-wave (km/s) = 9.78505 6.83041 8.43806
#
# Compressibility (1/GPa) = 0.01840975
#
# Stress axis : x y z
#
# Youngs Moduli (GPa) = 107.22088 78.25939 58.36841
#
# Poissons Ratio (x) = 0.30107 -0.05201
# Poissons Ratio (y) = 0.41248 0.43529
# Poissons Ratio (z) = -0.09553 0.58363
#
# Static dielectric constant tensor:
#      x y z
#    x 2.119620 0.000000 0.031400 
#    y 0.000000 1.986590 -0.000010 
#    z 0.031400 -0.000010 2.036410 
# 
# From -- ./inp_files/52922.got.cif
#   From: 2010.05.17/outbox.cif.g08.bks.cpg/sg5_27_cif.got.tgz:52922.got - 2010.06.03 18:56:24.
