data_PCOD9129930
_publ_section_title
;
Structure prediction by ZEFSAII (Michael W. Deem and Ramdas Pophale) SiO2 
 PCOD9129930
Probable space group: C 2
;
_chemical_formula_sum "Si O2"
_cell_formula_units_Z 20
_cell_length_a 12.721716
_cell_length_b 5.184362
_cell_length_c 22.741309
_cell_angle_alpha 90.000000
_cell_angle_beta 35.984256
_cell_angle_gamma 90.000000
_cell_volume 881.273798
_symmetry_space_group_name_H-M "C 2"
_symmetry_group_IT_number 5
_symmetry_cell_setting 'monoclinic'
loop_
_space_group_symop_operation_xyz
x,y,z
-x,y,-z
1/2+x,1/2+y,z
1/2-x,1/2+y,-z
loop_
_atom_site_type_symbol
_atom_site_label
_atom_site_fract_x
_atom_site_fract_y
_atom_site_fract_z
Si Si1 0.833348 0.941250 0.203349
Si Si2 0.537500 0.518604 0.724636
Si Si3 0.046371 0.603653 0.614415
Si Si4 0.369520 0.967899 0.112619
Si Si5 0.651849 0.374804 0.463294
O O1 0.897888 0.921930 0.241009
O O2 0.926581 0.718033 0.123899
O O3 0.616942 0.908775 0.300104
O O4 0.859816 0.221905 0.161062
O O5 0.543835 0.315595 0.667752
O O6 0.323886 0.553188 0.825889
O O7 0.679138 0.749229 0.646501
O O8 0.248539 0.510384 0.528465
O O9 0.023362 0.680156 0.556813
O O10 0.500000 0.907529 0.000000
O O11 0.500000 0.542336 0.500000
#
# Coordination Sequence:
#
# PCOD9129930 Si02
#       5
#     4   4   4   4   4
#     4  11  25  44  71  99 134 174 226 279 336 398
#     4  11  25  41  66  97 135 175 227 275 329 397
#     4  11  24  39  62  96 137 180 224 273 325 394
#     4  11  26  47  71 100 134 173 223 284 342 400
#     4  12  23  38  62  95 134 179 223 267 327 392
#
# _framework density 22.694423
#
# number of rings (size 3 to 8) (size 9 to 14) (size 15 to 20)
#    0.000    0.800    6.000    0.600    2.800    4.000 
#    0.000    0.000    0.000    0.000    0.000    0.000 
#    0.000    0.000    0.000    0.000    0.000    0.000 
#
# Total GULP energy -55719.320303 kJ/mol
# GULP energy per Si atom -5571.932030 kJ/mol
# Density = 2.264277 g / cm^3
# Si number density = 22.694423 Si / 1000 Ang^3
#
#
#
# Elastic Constant Matrix: (Units=GPa)
#
#
# Indices 1 2 3 4 5 6 
#
# 1 105.1543 7.5838 40.9966 0.0016 -0.0198 0.0086
# 2 7.5838 62.0868 3.7987 0.0074 4.0818 0.0149
# 3 40.9966 3.7987 99.8475 -0.0017 4.2005 -0.0007
# 4 0.0016 0.0074 -0.0017 28.5989 -0.0001 5.8632
# 5 -0.0198 4.0818 4.2005 -0.0001 27.8884 -0.0003
# 6 0.0086 0.0149 -0.0007 5.8632 -0.0003 17.8185
#
#
#
# Elastic Compliance Matrix: (Units=1/GPa)
#
#
# Indices 1 2 3 4 5 6 
#
# 1 0.011419 -0.001167 -0.004681 0.000000 0.000884 -0.000005
# 2 -0.001167 0.016409 -0.000045 -0.000002 -0.002396 -0.000013
# 3 -0.004681 -0.000045 0.012015 0.000000 -0.001807 0.000003
# 4 0.000000 -0.000002 0.000000 0.037496 0.000000 -0.012338
# 5 0.000884 -0.002396 -0.001807 0.000000 0.036481 0.000002
# 6 -0.000005 -0.000013 0.000003 -0.012338 0.000002 0.060181
#
#
# Mechanical properties :
#
#
# Convention : Reuss Voigt Hill
#
# Bulk Modulus (GPa) = 35.63974 41.31632 38.47803
# Shear Modulus (GPa) = 25.62272 29.17512 27.39892
#
# Velocity S-wave (km/s) = 3.36375 3.58937 3.47839
# Velocity P-wave (km/s) = 5.55200 5.95173 5.75534
#
# Compressibility (1/GPa) = 0.02805857
#
# Stress axis : x y z
#
# Youngs Moduli (GPa) = 87.57100 60.94137 83.22824
#
# Poissons Ratio (x) = 0.07109 0.38963
# Poissons Ratio (y) = 0.10216 0.00371
# Poissons Ratio (z) = 0.40996 0.00271
#
# Static dielectric constant tensor:
#      x y z
#    x 1.813790 0.000000 -0.020310 
#    y 0.000000 1.991410 0.000000 
#    z -0.020310 0.000000 1.832520 
# 
# From -- ./inp_files/47760.got.cif
#   From: 2010.05.17/outbox.cif.g08.bks.cpg/sg5_24_cif.got.tgz:47760.got - 2010.06.03 18:56:24.
