data_PCOD9129411
_publ_section_title
;
Structure prediction by ZEFSAII (Michael W. Deem and Ramdas Pophale) SiO2 
 PCOD9129411
Probable space group: C 2
;
_chemical_formula_sum "Si O2"
_cell_formula_units_Z 22
_cell_length_a 16.834780
_cell_length_b 7.862073
_cell_length_c 12.141803
_cell_angle_alpha 90.000000
_cell_angle_beta 151.303796
_cell_angle_gamma 90.000000
_cell_volume 771.646777
_symmetry_space_group_name_H-M "C 2"
_symmetry_group_IT_number 5
_symmetry_cell_setting 'monoclinic'
loop_
_space_group_symop_operation_xyz
x,y,z
-x,y,-z
1/2+x,1/2+y,z
1/2-x,1/2+y,-z
loop_
_atom_site_type_symbol
_atom_site_label
_atom_site_fract_x
_atom_site_fract_y
_atom_site_fract_z
Si Si1 0.027849 0.484400 0.656170
Si Si2 0.418674 0.368938 0.628801
Si Si3 0.000000 0.034935 0.500000
Si Si4 0.224028 0.086811 0.192334
Si Si5 0.946655 0.250160 0.759608
Si Si6 0.368642 0.205553 0.927998
O O1 0.774680 0.325957 0.589109
O O2 0.876870 0.616099 0.460995
O O3 0.000000 0.396966 0.500000
O O4 0.202812 0.565548 0.842579
O O5 0.497186 0.426222 0.608386
O O6 0.424817 0.552572 0.701758
O O7 0.534254 0.236423 0.839034
O O8 0.809808 0.116026 0.275076
O O9 0.163909 0.899617 0.153757
O O10 0.096890 0.237081 0.027821
O O11 0.007497 0.356098 0.728401
O O12 0.500000 0.129274 0.000000
#
# Coordination Sequence:
#
# PCOD9129411 Si02
#       6
#     4   4   2   4   4   4
#     4   8  18  39  75 115 151 208 259 326 399 475
#     4  11  26  45  85 118 161 214 278 335 410 495
#     4  12  26  54  82 118 174 216 266 348 416 478
#     4   8  18  35  69 115 152 201 256 322 393 474
#     4  11  21  44  76 117 155 209 271 330 403 484
#     4  11  22  45  82 119 156 216 273 330 408 489
#
# _framework density 28.510452999999998
#
# number of rings (size 3 to 8) (size 9 to 14) (size 15 to 20)
#    1.091    0.727    0.000    5.455    1.273    0.000 
#    0.000   27.273    2.000   12.000    0.000    0.000 
#    0.000    0.000    0.000    0.000    0.000    0.000 
#
# Total GULP energy -61538.078036 kJ/mol
# GULP energy per Si atom -5594.370731 kJ/mol
# Density = 2.844556 g / cm^3
# Si number density = 28.510453 Si / 1000 Ang^3
#
#
#
# Elastic Constant Matrix: (Units=GPa)
#
#
# Indices 1 2 3 4 5 6 
#
# 1 226.8984 63.9658 103.5562 0.0000 33.9824 0.0000
# 2 63.9658 110.6899 86.1574 0.0000 29.4848 0.0000
# 3 103.5562 86.1574 232.3834 0.0000 23.7084 0.0000
# 4 0.0000 0.0000 0.0000 48.7682 0.0000 15.4502
# 5 33.9824 29.4848 23.7084 0.0000 58.2161 0.0000
# 6 0.0000 0.0000 0.0000 15.4502 0.0000 31.7387
#
#
#
# Elastic Compliance Matrix: (Units=1/GPa)
#
#
# Indices 1 2 3 4 5 6 
#
# 1 0.005991 -0.001424 -0.001939 0.000000 -0.001986 0.000000
# 2 -0.001424 0.014409 -0.004223 0.000000 -0.004747 0.000000
# 3 -0.001939 -0.004223 0.006677 0.000000 0.000552 0.000000
# 4 0.000000 0.000000 0.000000 0.024244 0.000000 -0.011802
# 5 -0.001986 -0.004747 0.000552 0.000000 0.020516 0.000000
# 6 0.000000 0.000000 0.000000 -0.011802 0.000000 0.037252
#
#
# Mechanical properties :
#
#
# Convention : Reuss Voigt Hill
#
# Bulk Modulus (GPa) = 84.00439 119.70338 101.85388
# Shear Modulus (GPa) = 38.99232 48.83077 43.91154
#
# Velocity S-wave (km/s) = 3.70219 4.14301 3.92878
# Velocity P-wave (km/s) = 6.91399 8.05996 7.50887
#
# Compressibility (1/GPa) = 0.01190414
#
# Stress axis : x y z
#
# Youngs Moduli (GPa) = 166.91091 69.40281 149.76690
#
# Poissons Ratio (x) = 0.09880 0.29046
# Poissons Ratio (y) = 0.23760 0.63253
# Poissons Ratio (z) = 0.32371 0.29312
#
# Static dielectric constant tensor:
#      x y z
#    x 2.313850 0.000000 -0.013550 
#    y 0.000000 2.460310 0.000000 
#    z -0.013550 0.000000 2.395630 
# 
# From -- ./inp_files/39351.got.cif
#   From: 2010.05.17/outbox.cif.g08.bks.cpg/sg5_20_cif.got.tgz:39351.got - 2010.06.03 18:56:24.
