data_PCOD9129170
_publ_section_title
;
Structure prediction by ZEFSAII (Michael W. Deem and Ramdas Pophale) SiO2 
 PCOD9129170
Probable space group: C 2
;
_chemical_formula_sum "Si O2"
_cell_formula_units_Z 32
_cell_length_a 14.437385
_cell_length_b 21.606629
_cell_length_c 15.217720
_cell_angle_alpha 90.000000
_cell_angle_beta 159.609578
_cell_angle_gamma 90.000000
_cell_volume 1653.950218
_symmetry_space_group_name_H-M "C 2"
_symmetry_group_IT_number 5
_symmetry_cell_setting 'monoclinic'
loop_
_space_group_symop_operation_xyz
x,y,z
-x,y,-z
1/2+x,1/2+y,z
1/2-x,1/2+y,-z
loop_
_atom_site_type_symbol
_atom_site_label
_atom_site_fract_x
_atom_site_fract_y
_atom_site_fract_z
Si Si1 0.817259 0.272370 0.912599
Si Si2 0.048988 0.665175 0.436690
Si Si3 0.203980 0.542696 0.761366
Si Si4 0.201177 0.279529 0.756339
Si Si5 0.101436 0.260987 0.334576
Si Si6 0.886477 0.882638 0.641111
Si Si7 0.803903 0.906304 0.249975
Si Si8 0.210766 0.408955 0.846221
O O1 0.636460 0.215196 0.774499
O O2 0.698428 0.331058 0.755699
O O3 0.000000 0.244017 0.000000
O O4 0.964788 0.295898 0.130445
O O5 0.957497 0.596418 0.331479
O O6 0.000000 0.669553 0.500000
O O7 0.321227 0.695082 0.641700
O O8 0.259899 0.477982 0.857544
O O9 0.000000 0.528948 0.500000
O O10 0.500000 0.567717 0.000000
O O11 0.201608 0.354534 0.765872
O O12 0.000000 0.261903 0.500000
O O13 0.090100 0.256015 0.751686
O O14 0.500000 0.259489 0.000000
O O15 0.330787 0.309768 0.569770
O O16 0.587816 0.908610 0.380069
O O17 0.061381 0.918415 0.723996
O O18 0.055013 0.889088 0.879487
O O19 0.000000 0.928023 0.500000
O O20 0.500000 0.924824 0.000000
#
# Coordination Sequence:
#
# PCOD9129170 Si02
#       8
#     4   4   4   4   4   4   4   4
#     4  11  19  31  53  81 126 164 188 224 295 373
#     4  11  22  36  58  89 129 164 195 237 297 380
#     4  11  24  41  61  88 120 161 204 240 290 364
#     4  11  23  38  57  83 115 157 205 253 302 344
#     4  11  23  35  56  87 123 161 200 250 302 366
#     4  11  21  36  55  86 114 156 201 245 303 361
#     4  11  20  30  49  80 121 154 186 227 291 368
#     4  11  22  39  61  80 116 155 205 258 296 342
#
# _framework density 19.347619999999999
#
# number of rings (size 3 to 8) (size 9 to 14) (size 15 to 20)
#    0.000    1.000    2.500    7.500    3.500    0.000 
#    0.000    0.000    0.000    0.000    0.000    3.500 
#    0.000    0.000    0.000    0.000    0.000    0.000 
#
# Total GULP energy -89126.070971 kJ/mol
# GULP energy per Si atom -5570.379436 kJ/mol
# Density = 1.930358 g / cm^3
# Si number density = 19.347620 Si / 1000 Ang^3
#
#
#
# Elastic Constant Matrix: (Units=GPa)
#
#
# Indices 1 2 3 4 5 6 
#
# 1 115.7968 12.3285 45.2984 -0.0011 11.7169 -0.0010
# 2 12.3285 69.5331 10.9912 -0.0011 -3.0061 -0.0004
# 3 45.2984 10.9912 131.7552 -0.0036 -7.3691 -0.0026
# 4 -0.0011 -0.0011 -0.0036 20.3142 -0.0011 4.0799
# 5 11.7169 -3.0061 -7.3691 -0.0011 40.8354 -0.0013
# 6 -0.0010 -0.0004 -0.0026 4.0799 -0.0013 17.3488
#
#
#
# Elastic Compliance Matrix: (Units=1/GPa)
#
#
# Indices 1 2 3 4 5 6 
#
# 1 0.010648 -0.001461 -0.003754 0.000000 -0.003840 0.000000
# 2 -0.001461 0.014804 -0.000655 0.000001 0.001391 0.000000
# 3 -0.003754 -0.000655 0.009084 0.000001 0.002668 0.000001
# 4 0.000000 0.000001 0.000001 0.051667 0.000001 -0.012151
# 5 -0.003840 0.001391 0.002668 0.000001 0.026174 0.000002
# 6 0.000000 0.000000 0.000001 -0.012151 0.000002 0.060498
#
#
# Mechanical properties :
#
#
# Convention : Reuss Voigt Hill
#
# Bulk Modulus (GPa) = 43.86387 50.48016 47.17202
# Shear Modulus (GPa) = 26.01251 32.26415 29.13833
#
# Velocity S-wave (km/s) = 3.67069 4.08806 3.88499
# Velocity P-wave (km/s) = 6.37856 6.95922 6.67521
#
# Compressibility (1/GPa) = 0.02279780
#
# Stress axis : x y z
#
# Youngs Moduli (GPa) = 93.91076 67.54798 110.07952
#
# Poissons Ratio (x) = 0.09866 0.41323
# Poissons Ratio (y) = 0.13717 0.07211
# Poissons Ratio (z) = 0.35254 0.04425
#
# Static dielectric constant tensor:
#      x y z
#    x 1.789470 0.000000 0.101750 
#    y 0.000000 1.666400 0.000000 
#    z 0.101750 0.000000 1.836450 
# 
# From -- ./inp_files/55032.got.cif
#   From: 2010.05.17/outbox.cif.g08.bks.cpg/sg5_28_cif.got.tgz:55032.got - 2010.06.03 18:56:24.
