data_PCOD9129822
_publ_section_title
;
Structure prediction by ZEFSAII (Michael W. Deem and Ramdas Pophale) SiO2 
 PCOD9129822
Probable space group: C 2
;
_chemical_formula_sum "Si O2"
_cell_formula_units_Z 22
_cell_length_a 12.715076
_cell_length_b 7.185415
_cell_length_c 17.776718
_cell_angle_alpha 90.000000
_cell_angle_beta 37.711083
_cell_angle_gamma 90.000000
_cell_volume 993.451652
_symmetry_space_group_name_H-M "C 2"
_symmetry_group_IT_number 5
_symmetry_cell_setting 'monoclinic'
loop_
_space_group_symop_operation_xyz
x,y,z
-x,y,-z
1/2+x,1/2+y,z
1/2-x,1/2+y,-z
loop_
_atom_site_type_symbol
_atom_site_label
_atom_site_fract_x
_atom_site_fract_y
_atom_site_fract_z
Si Si1 0.000000 0.125000 0.500000
Si Si2 0.615166 0.037771 0.705425
Si Si3 0.601540 0.502789 0.866596
Si Si4 0.078628 0.898048 0.188626
Si Si5 0.556846 0.759588 0.306207
Si Si6 0.530621 0.903199 0.060398
O O1 0.981363 0.230903 0.431725
O O2 0.184471 0.027579 0.387983
O O3 0.569700 0.873293 0.675396
O O4 0.508261 0.014982 0.843070
O O5 0.541206 0.230712 0.713911
O O6 0.510384 0.459321 0.839146
O O7 0.776328 0.388414 0.775096
O O8 0.599899 0.728286 0.867435
O O9 0.500000 0.454808 0.000000
O O10 0.091081 0.066025 0.242102
O O11 0.271566 0.838328 0.055372
O O12 0.500000 0.011554 0.000000
#
# Coordination Sequence:
#
# PCOD9129822 Si02
#       6
#     2   4   4   4   4   4
#     4  12  30  50  72 110 144 204 264 298 362 448
#     4  12  27  49  76 110 151 200 251 306 379 444
#     4  11  24  45  74 111 154 191 240 311 380 447
#     4  12  25  47  78 113 151 191 251 313 382 450
#     4  12  28  52  73 107 149 200 256 313 366 441
#     4  11  23  44  75 116 150 191 241 310 386 448
#
# _framework density 22.145012999999999
#
# number of rings (size 3 to 8) (size 9 to 14) (size 15 to 20)
#    0.000    0.364    3.636    5.455    5.091    0.000 
#    0.000    1.818    0.000    0.000    0.000    0.000 
#    0.000    0.000    0.000    0.000    0.000    0.000 
#
# Total GULP energy -61485.168989 kJ/mol
# GULP energy per Si atom -5589.560817 kJ/mol
# Density = 2.209461 g / cm^3
# Si number density = 22.145013 Si / 1000 Ang^3
#
#
#
# Elastic Constant Matrix: (Units=GPa)
#
#
# Indices 1 2 3 4 5 6 
#
# 1 126.5103 34.1676 43.2436 0.0000 7.9500 0.0000
# 2 34.1676 114.2872 25.1594 0.0000 0.2799 0.0000
# 3 43.2436 25.1594 85.1360 0.0000 0.2233 0.0000
# 4 0.0000 0.0000 0.0000 -34.7146 0.0000 -26.6040
# 5 7.9500 0.2799 0.2233 0.0000 54.2540 0.0000
# 6 0.0000 0.0000 0.0000 -26.6040 0.0000 13.5400
#
#
#
# Elastic Compliance Matrix: (Units=1/GPa)
#
#
# Indices 1 2 3 4 5 6 
#
# 1 0.010086 -0.002016 -0.004524 0.000000 -0.001449 0.000000
# 2 -0.002016 0.009762 -0.001861 0.000000 0.000253 0.000000
# 3 -0.004524 -0.001861 0.014592 0.000000 0.000612 0.000000
# 4 0.000000 0.000000 0.000000 -0.011496 0.000000 -0.022588
# 5 -0.001449 0.000253 0.000612 0.000000 0.018640 0.000000
# 6 0.000000 0.000000 0.000000 -0.022588 0.000000 0.029474
#
#
# Mechanical properties :
#
#
# Convention : Reuss Voigt Hill
#
# Bulk Modulus (GPa) = 56.69583 59.00830 57.85206
# Shear Modulus (GPa) = 53.33907 21.50675 37.42291
#
# Velocity S-wave (km/s) = 4.91310 3.11975 4.11530
# Velocity P-wave (km/s) = 7.60542 6.29931 6.98297
#
# Compressibility (1/GPa) = 0.01763798
#
# Stress axis : x y z
#
# Youngs Moduli (GPa) = 99.14452 102.44043 68.53025
#
# Poissons Ratio (x) = 0.20652 0.31000
# Poissons Ratio (y) = 0.19988 0.12757
# Poissons Ratio (z) = 0.44849 0.19069
#
# Static dielectric constant tensor:
#      x y z
#    x 1.854280 0.000000 -0.028470 
#    y 0.000000 1.860370 0.000000 
#    z -0.028470 0.000000 1.845690 
# 
# From -- ./inp_files/60175.got.cif
#   From: 2010.05.17/outbox.cif.g08.bks.cpg/sg5_31_cif.got.tgz:60175.got - 2010.06.03 18:56:24.
