data_PCOD9129796
_publ_section_title
;
Structure prediction by ZEFSAII (Michael W. Deem and Ramdas Pophale) SiO2 
 PCOD9129796
Probable space group: C 2
;
_chemical_formula_sum "Si O2"
_cell_formula_units_Z 20
_cell_length_a 8.908827
_cell_length_b 21.647501
_cell_length_c 8.824074
_cell_angle_alpha 90.000000
_cell_angle_beta 31.529239
_cell_angle_gamma 90.000000
_cell_volume 889.905711
_symmetry_space_group_name_H-M "C 2"
_symmetry_group_IT_number 5
_symmetry_cell_setting 'monoclinic'
loop_
_space_group_symop_operation_xyz
x,y,z
-x,y,-z
1/2+x,1/2+y,z
1/2-x,1/2+y,-z
loop_
_atom_site_type_symbol
_atom_site_label
_atom_site_fract_x
_atom_site_fract_y
_atom_site_fract_z
Si Si1 0.256417 0.299170 0.079174
Si Si2 0.518402 0.545823 0.805300
Si Si3 0.840220 0.854043 0.488570
Si Si4 0.200151 0.165244 0.183488
Si Si5 0.528324 0.984004 0.799732
O O1 0.242046 0.226821 0.047133
O O2 0.920999 0.318191 0.371122
O O3 0.500000 0.298013 0.000000
O O4 0.393466 0.350152 0.852672
O O5 0.415631 0.607704 0.809737
O O6 0.803250 0.526307 0.467885
O O7 0.500000 0.557769 0.000000
O O8 0.298370 0.488931 0.972270
O O9 0.701623 0.919738 0.649972
O O10 0.000000 0.826896 0.500000
O O11 0.000000 0.181771 0.500000
O O12 0.500000 0.147779 0.000000
O O13 0.500000 0.004201 0.000000
#
# Coordination Sequence:
#
# PCOD9129796 Si02
#       5
#     4   4   4   4   4
#     4  11  24  43  67  97 133 177 225 277 338 402
#     4  12  26  42  68 104 135 172 228 292 346 392
#     4  12  25  42  67  98 133 176 227 279 336 400
#     4  11  23  44  69  94 131 181 227 271 337 420
#     4  12  25  45  68  95 137 186 227 271 341 424
#
# _framework density 22.474291000000001
#
# number of rings (size 3 to 8) (size 9 to 14) (size 15 to 20)
#    0.000    0.400    0.000   11.400    0.000    6.400 
#    0.000    0.000    0.000    0.000    0.000    0.000 
#    0.000    0.000    0.000    0.000    0.000    0.000 
#
# Total GULP energy -55721.810386 kJ/mol
# GULP energy per Si atom -5572.181039 kJ/mol
# Density = 2.242314 g / cm^3
# Si number density = 22.474291 Si / 1000 Ang^3
#
#
#
# Elastic Constant Matrix: (Units=GPa)
#
#
# Indices 1 2 3 4 5 6 
#
# 1 70.5348 22.5634 18.6530 0.0000 -3.9597 0.0000
# 2 22.5634 103.9190 28.8479 0.0000 10.7318 0.0000
# 3 18.6530 28.8479 132.4720 0.0000 -3.6463 0.0000
# 4 0.0000 0.0000 0.0000 23.7778 0.0000 -4.4493
# 5 -3.9597 10.7318 -3.6463 0.0000 36.7297 0.0000
# 6 0.0000 0.0000 0.0000 -4.4493 0.0000 12.9939
#
#
#
# Elastic Compliance Matrix: (Units=1/GPa)
#
#
# Indices 1 2 3 4 5 6 
#
# 1 0.015747 -0.003281 -0.001434 0.000000 0.002514 0.000000
# 2 -0.003281 0.011321 -0.002110 0.000000 -0.003871 0.000000
# 3 -0.001434 -0.002110 0.008245 0.000000 0.001280 0.000000
# 4 0.000000 0.000000 0.000000 0.044935 0.000000 0.015386
# 5 0.002514 -0.003871 0.001280 0.000000 0.028755 0.000000
# 6 0.000000 0.000000 0.000000 0.015386 0.000000 0.082228
#
#
# Mechanical properties :
#
#
# Convention : Reuss Voigt Hill
#
# Bulk Modulus (GPa) = 46.15822 49.67271 47.91546
# Shear Modulus (GPa) = 23.57366 30.49105 27.03235
#
# Velocity S-wave (km/s) = 3.24221 3.68735 3.47192
# Velocity P-wave (km/s) = 5.88207 6.34655 6.11872
#
# Compressibility (1/GPa) = 0.02166462
#
# Stress axis : x y z
#
# Youngs Moduli (GPa) = 63.50364 88.33424 121.28069
#
# Poissons Ratio (x) = 0.28980 0.17388
# Poissons Ratio (y) = 0.20834 0.25588
# Poissons Ratio (z) = 0.09104 0.18637
#
# Static dielectric constant tensor:
#      x y z
#    x 1.829990 0.000000 -0.040650 
#    y 0.000000 1.835890 0.000000 
#    z -0.040650 0.000000 1.766310 
# 
# From -- ./inp_files/17266.got.cif
#   From: 2010.05.17/outbox.cif.g08.bks.cpg/sg5_9_cif.got.tgz:17266.got - 2010.06.03 18:56:24.
