data_PCOD9129821
_publ_section_title
;
Structure prediction by ZEFSAII (Michael W. Deem and Ramdas Pophale) SiO2 
 PCOD9129821
Probable space group: C 2
;
_chemical_formula_sum "Si O2"
_cell_formula_units_Z 16
_cell_length_a 5.060072
_cell_length_b 13.249210
_cell_length_c 8.908648
_cell_angle_alpha 90.000000
_cell_angle_beta 87.251019
_cell_angle_gamma 90.000000
_cell_volume 596.565897
_symmetry_space_group_name_H-M "C 2"
_symmetry_group_IT_number 5
_symmetry_cell_setting 'monoclinic'
loop_
_space_group_symop_operation_xyz
x,y,z
-x,y,-z
1/2+x,1/2+y,z
1/2-x,1/2+y,-z
loop_
_atom_site_type_symbol
_atom_site_label
_atom_site_fract_x
_atom_site_fract_y
_atom_site_fract_z
Si Si1 0.391592 0.950700 0.166608
Si Si2 0.759314 0.886235 0.402162
Si Si3 0.764902 0.743584 0.896859
Si Si4 0.521656 0.599040 0.657943
O O1 0.181489 0.858003 0.161681
O O2 0.633283 0.887460 0.237629
O O3 0.234023 0.043079 0.254662
O O4 0.500000 0.981581 0.000000
O O5 0.500000 0.862719 0.500000
O O6 0.806004 0.005736 0.402336
O O7 0.000000 0.843261 0.500000
O O8 0.690003 0.665330 0.768823
O O9 0.500000 0.748081 0.000000
O O10 0.000000 0.712493 0.000000
O O11 0.500000 0.656965 0.500000
#
# Coordination Sequence:
#
# PCOD9129821 Si02
#       4
#     4   4   4   4
#     4  11  27  50  80 115 158 207 260 322 395 466
#     4  11  23  44  75 110 149 195 257 309 385 463
#     4  11  30  50  74 117 159 201 263 323 385 469
#     4  11  26  51  79 113 152 208 258 319 393 461
#
# _framework density 26.820171999999999
#
# number of rings (size 3 to 8) (size 9 to 14) (size 15 to 20)
#    0.000    1.000    5.000    0.000   14.000    1.000 
#    0.000    1.250    0.000    0.000    0.000    0.000 
#    0.000    0.000    0.000    0.000    0.000    0.000 
#
# Total GULP energy -44559.877805 kJ/mol
# GULP energy per Si atom -5569.984726 kJ/mol
# Density = 2.675913 g / cm^3
# Si number density = 26.820172 Si / 1000 Ang^3
#
#
#
# Elastic Constant Matrix: (Units=GPa)
#
#
# Indices 1 2 3 4 5 6 
#
# 1 198.8025 51.2669 100.7738 0.0000 32.2196 0.0000
# 2 51.2669 119.6982 51.2230 0.0000 -6.1440 0.0000
# 3 100.7738 51.2230 259.0123 0.0000 20.2734 0.0000
# 4 0.0000 0.0000 0.0000 -14.8857 0.0000 79.0728
# 5 32.2196 -6.1440 20.2734 0.0000 49.7082 0.0000
# 6 0.0000 0.0000 0.0000 79.0728 0.0000 -48.1626
#
#
#
# Elastic Compliance Matrix: (Units=1/GPa)
#
#
# Indices 1 2 3 4 5 6 
#
# 1 0.007412 -0.002517 -0.002051 0.000000 -0.004279 0.000000
# 2 -0.002517 0.010163 -0.001298 0.000000 0.003417 0.000000
# 3 -0.002051 -0.001298 0.004983 0.000000 -0.000863 0.000000
# 4 0.000000 0.000000 0.000000 0.008701 0.000000 0.014284
# 5 -0.004279 0.003417 -0.000863 0.000000 0.023665 0.000000
# 6 0.000000 0.000000 0.000000 0.014284 0.000000 0.002689
#
#
# Mechanical properties :
#
#
# Convention : Reuss Voigt Hill
#
# Bulk Modulus (GPa) = 92.36543 109.33783 100.85163
# Shear Modulus (GPa) = 68.53566 22.28194 45.40880
#
# Velocity S-wave (km/s) = 5.06056 2.88547 4.11917
# Velocity P-wave (km/s) = 8.28609 7.20810 7.76582
#
# Compressibility (1/GPa) = 0.01082656
#
# Stress axis : x y z
#
# Youngs Moduli (GPa) = 134.90932 98.39509 200.67259
#
# Poissons Ratio (x) = 0.24761 0.41165
# Poissons Ratio (y) = 0.33950 0.26052
# Poissons Ratio (z) = 0.27674 0.12774
#
# Static dielectric constant tensor:
#      x y z
#    x 2.899900 0.000000 0.762840 
#    y 0.000000 2.126900 0.000000 
#    z 0.762840 0.000000 3.331780 
# 
# From -- ./inp_files/11714.got.cif
#   From: 2010.05.17/outbox.cif.g08.bks.cpg/sg5_6_cif.got.tgz:11714.got - 2010.06.03 18:56:24.
