data_PCOD9129878
_publ_section_title
;
Structure prediction by ZEFSAII (Michael W. Deem and Ramdas Pophale) SiO2 
 PCOD9129878
Probable space group: C 2
;
_chemical_formula_sum "Si O2"
_cell_formula_units_Z 20
_cell_length_a 10.844693
_cell_length_b 11.628676
_cell_length_c 10.211580
_cell_angle_alpha 90.000000
_cell_angle_beta 140.439922
_cell_angle_gamma 90.000000
_cell_volume 820.168030
_symmetry_space_group_name_H-M "C 2"
_symmetry_group_IT_number 5
_symmetry_cell_setting 'monoclinic'
loop_
_space_group_symop_operation_xyz
x,y,z
-x,y,-z
1/2+x,1/2+y,z
1/2-x,1/2+y,-z
loop_
_atom_site_type_symbol
_atom_site_label
_atom_site_fract_x
_atom_site_fract_y
_atom_site_fract_z
Si Si1 0.284397 0.934570 0.769191
Si Si2 0.397619 0.650984 0.277968
Si Si3 0.382495 0.977525 0.558015
Si Si4 0.660661 0.681557 0.244054
Si Si5 0.283224 0.371048 0.813499
O O1 0.299643 0.986722 0.635495
O O2 0.236278 0.800463 0.712823
O O3 0.161369 0.017110 0.762704
O O4 0.500000 0.935345 0.000000
O O5 0.500000 0.671303 0.500000
O O6 0.528034 0.689161 0.264559
O O7 0.222018 0.741815 0.135308
O O8 0.610388 0.943452 0.743341
O O9 0.277744 0.877316 0.388849
O O10 0.315863 0.087235 0.418176
O O11 0.500000 0.656580 0.000000
O O12 0.500000 0.415747 0.000000
#
# Coordination Sequence:
#
# PCOD9129878 Si02
#       5
#     4   4   4   4   4
#     4  11  25  45  77 117 152 207 269 326 396 475
#     4  12  22  47  79 111 156 212 262 327 403 471
#     4  11  23  46  76 106 161 203 263 328 396 465
#     4  11  25  49  76 119 167 201 266 336 395 475
#     4  11  24  45  75 111 150 210 265 319 396 479
#
# _framework density 24.385248000000001
#
# number of rings (size 3 to 8) (size 9 to 14) (size 15 to 20)
#    0.000    0.800    6.000    1.200    0.000    4.800 
#    3.600    0.000    0.000    0.000    0.000    0.000 
#    0.000    0.000    0.000    0.000    0.000    0.000 
#
# Total GULP energy -55864.814423 kJ/mol
# GULP energy per Si atom -5586.481442 kJ/mol
# Density = 2.432975 g / cm^3
# Si number density = 24.385248 Si / 1000 Ang^3
#
#
#
# Elastic Constant Matrix: (Units=GPa)
#
#
# Indices 1 2 3 4 5 6 
#
# 1 67.1746 15.0122 32.5464 0.0000 11.1200 0.0001
# 2 15.0122 187.1410 31.7487 0.0000 16.0891 0.0000
# 3 32.5464 31.7487 117.4134 0.0000 21.3078 0.0001
# 4 0.0000 0.0000 0.0000 17.1022 0.0000 13.6986
# 5 11.1200 16.0891 21.3078 0.0000 48.8081 0.0002
# 6 0.0001 0.0000 0.0001 13.6986 0.0002 32.1159
#
#
#
# Elastic Compliance Matrix: (Units=1/GPa)
#
#
# Indices 1 2 3 4 5 6 
#
# 1 0.017420 -0.000496 -0.004349 0.000000 -0.001907 0.000000
# 2 -0.000496 0.005690 -0.001174 0.000000 -0.001250 0.000000
# 3 -0.004349 -0.001174 0.010632 0.000000 -0.003264 0.000000
# 4 0.000000 0.000000 0.000000 0.088815 0.000000 -0.037883
# 5 -0.001907 -0.001250 -0.003264 0.000000 0.022760 0.000000
# 6 0.000000 0.000000 0.000000 -0.037883 0.000000 0.047296
#
#
# Mechanical properties :
#
#
# Convention : Reuss Voigt Hill
#
# Bulk Modulus (GPa) = 46.07267 58.92707 52.49987
# Shear Modulus (GPa) = 23.59771 39.10002 31.34887
#
# Velocity S-wave (km/s) = 3.11417 4.00863 3.58937
# Velocity P-wave (km/s) = 5.64495 6.75596 6.22529
#
# Compressibility (1/GPa) = 0.02170484
#
# Stress axis : x y z
#
# Youngs Moduli (GPa) = 57.40537 175.74609 94.05422
#
# Poissons Ratio (x) = 0.08712 0.40901
# Poissons Ratio (y) = 0.02846 0.11045
# Poissons Ratio (z) = 0.24963 0.20638
#
# Static dielectric constant tensor:
#      x y z
#    x 1.951030 0.000000 0.004160 
#    y 0.000000 2.063910 0.000000 
#    z 0.004160 0.000000 1.960270 
# 
# From -- ./inp_files/39328.got.cif
#   From: 2010.05.17/outbox.cif.g08.bks.cpg/sg5_20_cif.got.tgz:39328.got - 2010.06.03 18:56:24.
