data_PCOD9129026
_publ_section_title
;
Structure prediction by ZEFSAII (Michael W. Deem and Ramdas Pophale) SiO2 
 PCOD9129026
Probable space group: C 2
;
_chemical_formula_sum "Si O2"
_cell_formula_units_Z 20
_cell_length_a 13.112935
_cell_length_b 4.844195
_cell_length_c 12.503615
_cell_angle_alpha 90.000000
_cell_angle_beta 82.682972
_cell_angle_gamma 90.000000
_cell_volume 787.781942
_symmetry_space_group_name_H-M "C 2"
_symmetry_group_IT_number 5
_symmetry_cell_setting 'monoclinic'
loop_
_space_group_symop_operation_xyz
x,y,z
-x,y,-z
1/2+x,1/2+y,z
1/2-x,1/2+y,-z
loop_
_atom_site_type_symbol
_atom_site_label
_atom_site_fract_x
_atom_site_fract_y
_atom_site_fract_z
Si Si1 0.366162 0.230760 0.874577
Si Si2 0.019469 0.681916 0.337226
Si Si3 0.172050 0.565125 0.886798
Si Si4 0.325687 0.093064 0.491181
Si Si5 0.552972 0.562653 0.823262
O O1 0.415417 0.059535 0.770914
O O2 0.277487 0.424092 0.839927
O O3 0.455618 0.440175 0.899372
O O4 0.330710 0.071108 0.983983
O O5 0.101526 0.695483 0.421383
O O6 0.912838 0.543701 0.388972
O O7 0.980688 0.975212 0.292637
O O8 0.148934 0.864331 0.842135
O O9 0.084381 0.363107 0.854711
O O10 0.241635 0.324733 0.473516
#
# Coordination Sequence:
#
# PCOD9129026 Si02
#       5
#     4   4   4   4   4
#     4  10  26  45  68 105 146 189 242 288 340 438
#     4   9  26  48  72 115 138 189 242 297 360 434
#     4  12  24  46  67 102 142 197 233 286 347 415
#     4  11  26  50  79 107 142 184 239 308 365 431
#     4  10  27  43  70  98 146 187 236 289 349 415
#
# _framework density 25.387733999999998
#
# number of rings (size 3 to 8) (size 9 to 14) (size 15 to 20)
#    1.200    0.400    0.000    1.800    5.600   12.800 
#    0.000    0.000    0.000    0.000    0.000    0.000 
#    0.000    0.000    0.000    0.000    0.000    0.000 
#
# Total GULP energy -55907.594572 kJ/mol
# GULP energy per Si atom -5590.759457 kJ/mol
# Density = 2.532995 g / cm^3
# Si number density = 25.387734 Si / 1000 Ang^3
#
#
#
# Elastic Constant Matrix: (Units=GPa)
#
#
# Indices 1 2 3 4 5 6 
#
# 1 147.4723 16.2471 30.6429 0.0000 -10.6615 0.0000
# 2 16.2471 87.8137 16.4118 0.0000 -0.7472 0.0000
# 3 30.6429 16.4118 82.9343 0.0000 -9.6591 0.0000
# 4 0.0000 0.0000 0.0000 27.8426 0.0000 2.9249
# 5 -10.6615 -0.7472 -9.6591 0.0000 38.7790 0.0000
# 6 0.0000 0.0000 0.0000 2.9249 0.0000 27.0731
#
#
#
# Elastic Compliance Matrix: (Units=1/GPa)
#
#
# Indices 1 2 3 4 5 6 
#
# 1 0.007489 -0.000922 -0.002417 0.000000 0.001439 0.000000
# 2 -0.000922 0.011944 -0.002086 0.000000 -0.000543 0.000000
# 3 -0.002417 -0.002086 0.013678 0.000000 0.002702 0.000000
# 4 0.000000 0.000000 0.000000 0.036328 0.000000 -0.003925
# 5 0.001439 -0.000543 0.002702 0.000000 0.026845 0.000000
# 6 0.000000 0.000000 0.000000 -0.003925 0.000000 0.037361
#
#
# Mechanical properties :
#
#
# Convention : Reuss Voigt Hill
#
# Bulk Modulus (GPa) = 44.92151 49.42486 47.17318
# Shear Modulus (GPa) = 32.91302 35.73350 34.32326
#
# Velocity S-wave (km/s) = 3.60448 3.75575 3.68089
# Velocity P-wave (km/s) = 5.92078 6.19014 6.05696
#
# Compressibility (1/GPa) = 0.02226105
#
# Stress axis : x y z
#
# Youngs Moduli (GPa) = 133.53410 83.72733 73.10826
#
# Poissons Ratio (x) = 0.07716 0.17670
# Poissons Ratio (y) = 0.12306 0.15252
# Poissons Ratio (z) = 0.32275 0.17467
#
# Static dielectric constant tensor:
#      x y z
#    x 1.976270 0.000000 -0.003890 
#    y 0.000000 1.958060 0.000000 
#    z -0.003890 0.000000 2.074440 
# 
# From -- ./inp_files/41113.got.cif
#   From: 2010.05.17/outbox.cif.g08.bks.cpg/sg5_21_cif.got.tgz:41113.got - 2010.06.03 18:56:24.
