data_PCOD9129608
_publ_section_title
;
Structure prediction by ZEFSAII (Michael W. Deem and Ramdas Pophale) SiO2 
 PCOD9129608
Probable space group: C 2
;
_chemical_formula_sum "Si O2"
_cell_formula_units_Z 30
_cell_length_a 6.774372
_cell_length_b 17.293918
_cell_length_c 14.486110
_cell_angle_alpha 90.000000
_cell_angle_beta 54.432987
_cell_angle_gamma 90.000000
_cell_volume 1380.503408
_symmetry_space_group_name_H-M "C 2"
_symmetry_group_IT_number 5
_symmetry_cell_setting 'monoclinic'
loop_
_space_group_symop_operation_xyz
x,y,z
-x,y,-z
1/2+x,1/2+y,z
1/2-x,1/2+y,-z
loop_
_atom_site_type_symbol
_atom_site_label
_atom_site_fract_x
_atom_site_fract_y
_atom_site_fract_z
Si Si1 0.444751 0.090550 0.829977
Si Si2 0.517112 0.548018 0.686521
Si Si3 0.313226 0.780767 0.796048
Si Si4 0.729761 0.949754 0.235851
Si Si5 0.724765 0.192958 0.292265
Si Si6 0.747641 0.766758 0.405209
Si Si7 0.762597 0.927795 0.507066
Si Si8 0.500000 0.163560 0.000000
O O1 0.336747 0.157634 0.792460
O O2 0.737776 0.073029 0.744219
O O3 0.323275 0.013727 0.825553
O O4 0.385025 0.111503 0.951425
O O5 0.556881 0.483322 0.756659
O O6 0.658101 0.623647 0.682413
O O7 0.660988 0.507386 0.563871
O O8 0.230667 0.868869 0.825807
O O9 0.593280 0.765262 0.745723
O O10 0.253919 0.764921 0.704900
O O11 0.179479 0.719525 0.896571
O O12 0.481479 0.939351 0.365869
O O13 0.465368 0.222804 0.393426
O O14 0.500000 0.726586 0.500000
O O15 0.743319 0.854892 0.443058
O O16 0.000000 0.907619 0.500000
#
# Coordination Sequence:
#
# PCOD9129608 Si02
#       8
#     4   4   4   4   4   4   4   2
#     4  11  25  50  69 102 142 190 251 304 366 433
#     4  11  22  45  69 102 148 190 240 299 366 445
#     4  12  25  50  74 106 146 191 253 307 370 435
#     4  11  24  46  72 106 142 189 245 297 371 445
#     4  11  25  46  70 105 145 196 244 304 367 442
#     4  12  24  44  69 109 152 188 240 304 368 449
#     4  12  22  42  75 104 149 196 233 300 373 447
#     4  12  26  54  74 100 150 194 246 320 356 430
#
# _framework density 21.731204000000002
#
# number of rings (size 3 to 8) (size 9 to 14) (size 15 to 20)
#    0.000    0.533    6.667    1.200    0.000    0.533 
#   19.200    0.000    0.000    0.000    0.000    0.000 
#    0.000    0.000    0.000    0.000    0.000    0.000 
#
# Total GULP energy -83784.867415 kJ/mol
# GULP energy per Si atom -5585.657828 kJ/mol
# Density = 2.168174 g / cm^3
# Si number density = 21.731204 Si / 1000 Ang^3
#
#
#
# Elastic Constant Matrix: (Units=GPa)
#
#
# Indices 1 2 3 4 5 6 
#
# 1 121.0063 16.9089 6.0177 0.0000 11.0821 0.0000
# 2 16.9089 81.0911 6.8289 0.0000 23.0449 0.0000
# 3 6.0177 6.8289 57.5160 0.0000 23.3149 0.0000
# 4 0.0000 0.0000 0.0000 34.0105 0.0000 -21.6987
# 5 11.0821 23.0449 23.3149 0.0000 27.8721 0.0000
# 6 0.0000 0.0000 0.0000 -21.6987 0.0000 -113.5336
#
#
#
# Elastic Compliance Matrix: (Units=1/GPa)
#
#
# Indices 1 2 3 4 5 6 
#
# 1 0.008654 -0.000998 0.000414 0.000000 -0.002962 0.000000
# 2 -0.000998 0.017368 0.005602 0.000000 -0.018649 0.000000
# 3 0.000414 0.005602 0.028177 0.000000 -0.028366 0.000000
# 4 0.000000 0.000000 0.000000 0.026207 0.000000 -0.005009
# 5 -0.002962 -0.018649 -0.028366 0.000000 0.076203 0.000000
# 6 0.000000 0.000000 0.000000 -0.005009 0.000000 -0.007851
#
#
# Mechanical properties :
#
#
# Convention : Reuss Voigt Hill
#
# Bulk Modulus (GPa) = 15.56778 35.45827 25.51302
# Shear Modulus (GPa) = 31.22393 4.99366 18.10879
#
# Velocity S-wave (km/s) = 3.79466 1.51753 2.88984
# Velocity P-wave (km/s) = 5.13601 4.40712 4.78546
#
# Compressibility (1/GPa) = 0.06423525
#
# Stress axis : x y z
#
# Youngs Moduli (GPa) = 115.55160 57.57735 35.49050
#
# Poissons Ratio (x) = 0.05744 -0.01469
# Poissons Ratio (y) = 0.11527 -0.19882
# Poissons Ratio (z) = -0.04781 -0.32255
#
# Static dielectric constant tensor:
#      x y z
#    x 1.895710 0.000000 0.011530 
#    y 0.000000 1.813810 0.000000 
#    z 0.011530 0.000000 1.838090 
# 
# From -- ./inp_files/49299.got.cif
#   From: 2010.05.17/outbox.cif.g08.bks.cpg/sg5_25_cif.got.tgz:49299.got - 2010.06.03 18:56:24.
