data_PCOD9129496
_publ_section_title
;
Structure prediction by ZEFSAII (Michael W. Deem and Ramdas Pophale) SiO2 
 PCOD9129496
Probable space group: C 2
;
_chemical_formula_sum "Si O2"
_cell_formula_units_Z 30
_cell_length_a 24.965686
_cell_length_b 9.991563
_cell_length_c 8.975704
_cell_angle_alpha 90.000000
_cell_angle_beta 142.294091
_cell_angle_gamma 90.000000
_cell_volume 1369.364506
_symmetry_space_group_name_H-M "C 2"
_symmetry_group_IT_number 5
_symmetry_cell_setting 'monoclinic'
loop_
_space_group_symop_operation_xyz
x,y,z
-x,y,-z
1/2+x,1/2+y,z
1/2-x,1/2+y,-z
loop_
_atom_site_type_symbol
_atom_site_label
_atom_site_fract_x
_atom_site_fract_y
_atom_site_fract_z
Si Si1 0.902179 0.740940 0.237507
Si Si2 0.197435 0.564026 0.519357
Si Si3 0.215470 0.586930 0.226313
Si Si4 0.596878 0.746785 0.723665
Si Si5 0.000000 0.130114 0.000000
Si Si6 0.856961 0.289296 0.509445
Si Si7 0.898381 0.004265 0.042477
Si Si8 0.284907 0.327470 0.260542
O O1 0.843305 0.802318 0.242227
O O2 0.000000 0.705751 0.500000
O O3 0.909516 0.856667 0.129849
O O4 0.851961 0.616063 0.054277
O O5 0.174828 0.550018 0.295714
O O6 0.146138 0.449337 0.496046
O O7 0.186537 0.712023 0.561452
O O8 0.300025 0.530543 0.768492
O O9 0.265237 0.727223 0.359420
O O10 0.285985 0.474611 0.333725
O O11 0.500000 0.812575 0.500000
O O12 0.626639 0.735001 0.619350
O O13 0.584629 0.607788 0.784810
O O14 0.681300 0.810259 0.992032
O O15 0.926715 0.227807 0.773759
O O16 0.037257 0.040713 0.949292
#
# Coordination Sequence:
#
# PCOD9129496 Si02
#       8
#     4   4   4   4   2   4   4   4
#     4  12  28  47  72 108 149 195 248 300 361 430
#     4  11  25  46  73 100 144 189 240 295 369 429
#     4  12  25  46  73 102 144 195 236 298 368 434
#     4  11  22  40  73 101 139 183 239 292 349 429
#     4  12  26  40  74 112 140 184 242 300 366 446
#     4  12  24  45  70 106 139 187 241 297 362 431
#     4  11  23  43  71 110 138 184 243 298 359 433
#     4  11  27  46  71 104 142 191 241 294 366 431
#
# _framework density 21.907972000000001
#
# number of rings (size 3 to 8) (size 9 to 14) (size 15 to 20)
#    0.000    0.533    5.333    2.000    7.467    0.533 
#    2.400    0.000    0.000    0.000    0.000    0.000 
#    0.000    0.000    0.000    0.000    0.000    0.000 
#
# Total GULP energy -83886.539679 kJ/mol
# GULP energy per Si atom -5592.435979 kJ/mol
# Density = 2.185811 g / cm^3
# Si number density = 21.907972 Si / 1000 Ang^3
#
#
#
# Elastic Constant Matrix: (Units=GPa)
#
#
# Indices 1 2 3 4 5 6 
#
# 1 102.1452 49.0879 26.7013 0.0000 -17.9719 0.0000
# 2 49.0879 121.2072 17.7243 0.0000 -20.9671 0.0000
# 3 26.7013 17.7243 47.9957 0.0000 -16.5916 0.0000
# 4 0.0000 0.0000 0.0000 17.3392 0.0000 -4.9826
# 5 -17.9719 -20.9671 -16.5916 0.0000 28.4852 0.0000
# 6 0.0000 0.0000 0.0000 -4.9826 0.0000 10.1933
#
#
#
# Elastic Compliance Matrix: (Units=1/GPa)
#
#
# Indices 1 2 3 4 5 6 
#
# 1 0.013656 -0.004361 -0.005156 0.000000 0.002403 0.000000
# 2 -0.004361 0.010918 0.000277 0.000000 0.005446 0.000000
# 3 -0.005156 0.000277 0.028232 0.000000 0.013395 0.000000
# 4 0.000000 0.000000 0.000000 0.067097 0.000000 0.032798
# 5 0.002403 0.005446 0.013395 0.000000 0.048433 0.000000
# 6 0.000000 0.000000 0.000000 0.032798 0.000000 0.114135
#
#
# Mechanical properties :
#
#
# Convention : Reuss Voigt Hill
#
# Bulk Modulus (GPa) = 29.13280 50.93058 40.03169
# Shear Modulus (GPa) = 16.00540 23.05920 19.53230
#
# Velocity S-wave (km/s) = 2.70585 3.24782 2.98914
# Velocity P-wave (km/s) = 4.80508 6.11248 5.49778
#
# Compressibility (1/GPa) = 0.03432557
#
# Stress axis : x y z
#
# Youngs Moduli (GPa) = 73.22550 91.59031 35.42089
#
# Poissons Ratio (x) = 0.39944 0.18264
# Poissons Ratio (y) = 0.31934 -0.00981
# Poissons Ratio (z) = 0.37758 -0.02537
#
# Static dielectric constant tensor:
#      x y z
#    x 1.797330 0.000000 0.013280 
#    y 0.000000 1.769290 0.000000 
#    z 0.013280 0.000000 1.843670 
# 
# From -- ./inp_files/31805.got.cif
#   From: 2010.05.17/outbox.cif.g08.bks.cpg/sg5_16_cif.got.tgz:31805.got - 2010.06.03 18:56:24.
