data_PCOD9129068
_publ_section_title
;
Structure prediction by ZEFSAII (Michael W. Deem and Ramdas Pophale) SiO2 
 PCOD9129068
Probable space group: C 2
;
_chemical_formula_sum "Si O2"
_cell_formula_units_Z 22
_cell_length_a 15.092944
_cell_length_b 8.888249
_cell_length_c 8.857189
_cell_angle_alpha 90.000000
_cell_angle_beta 41.237628
_cell_angle_gamma 90.000000
_cell_volume 783.235534
_symmetry_space_group_name_H-M "C 2"
_symmetry_group_IT_number 5
_symmetry_cell_setting 'monoclinic'
loop_
_space_group_symop_operation_xyz
x,y,z
-x,y,-z
1/2+x,1/2+y,z
1/2-x,1/2+y,-z
loop_
_atom_site_type_symbol
_atom_site_label
_atom_site_fract_x
_atom_site_fract_y
_atom_site_fract_z
Si Si1 0.530109 0.356430 0.125754
Si Si2 0.000000 0.397355 0.000000
Si Si3 0.191244 0.200470 0.229667
Si Si4 0.146588 0.139448 0.639314
Si Si5 0.627939 0.163810 0.430952
Si Si6 0.302575 0.895402 0.008806
O O1 0.477229 0.525459 0.190647
O O2 0.443022 0.278690 0.364777
O O3 0.684203 0.316825 0.953922
O O4 0.500000 0.291092 0.000000
O O5 0.897262 0.292391 0.224387
O O6 0.911022 0.473322 0.986260
O O7 0.177406 0.166050 0.423617
O O8 0.102223 0.307950 0.235534
O O9 0.269812 0.075800 0.587060
O O10 0.205499 0.041250 0.126722
O O11 0.500000 0.098940 0.500000
O O12 0.720852 0.262727 0.200275
#
# Coordination Sequence:
#
# PCOD9129068 Si02
#       6
#     4   2   4   4   4   4
#     4  12  24  46  81 116 154 213 269 326 402 480
#     4  10  26  48  72 112 162 208 266 338 400 492
#     4  12  27  47  82 119 158 218 270 329 410 478
#     4  11  25  47  81 117 161 214 271 332 410 475
#     4  11  23  47  73 117 165 208 263 340 398 477
#     4  11  27  48  75 114 165 209 273 336 404 484
#
# _framework density 28.088612000000001
#
# number of rings (size 3 to 8) (size 9 to 14) (size 15 to 20)
#    0.000    0.727    6.364    0.000    3.818    0.727 
#    0.000    1.818    0.000    0.000    0.000    0.000 
#    0.000    0.000    0.000    0.000    0.000    0.000 
#
# Total GULP energy -61506.457049 kJ/mol
# GULP energy per Si atom -5591.496095 kJ/mol
# Density = 2.802468 g / cm^3
# Si number density = 28.088612 Si / 1000 Ang^3
#
#
#
# Elastic Constant Matrix: (Units=GPa)
#
#
# Indices 1 2 3 4 5 6 
#
# 1 130.1564 26.3499 33.2664 0.0000 13.5583 0.0000
# 2 26.3499 104.8466 53.7242 0.0000 25.0172 0.0000
# 3 33.2664 53.7242 160.1355 0.0000 45.8625 0.0000
# 4 0.0000 0.0000 0.0000 45.4269 0.0000 0.2685
# 5 13.5583 25.0172 45.8625 0.0000 64.8941 0.0000
# 6 0.0000 0.0000 0.0000 0.2685 0.0000 3.7568
#
#
#
# Elastic Compliance Matrix: (Units=1/GPa)
#
#
# Indices 1 2 3 4 5 6 
#
# 1 0.008300 -0.001409 -0.001141 0.000000 -0.000384 0.000000
# 2 -0.001409 0.012000 -0.003125 0.000000 -0.002123 0.000000
# 3 -0.001141 -0.003125 0.008923 0.000000 -0.004863 0.000000
# 4 0.000000 0.000000 0.000000 0.022023 0.000000 -0.001574
# 5 -0.000384 -0.002123 -0.004863 0.000000 0.019745 0.000000
# 6 0.000000 0.000000 0.000000 -0.001574 0.000000 0.266299
#
#
# Mechanical properties :
#
#
# Convention : Reuss Voigt Hill
#
# Bulk Modulus (GPa) = 55.95593 69.09105 62.52349
# Shear Modulus (GPa) = 14.10044 41.60209 27.85127
#
# Velocity S-wave (km/s) = 2.24296 3.85268 3.15230
# Velocity P-wave (km/s) = 5.16452 6.66647 5.96297
#
# Compressibility (1/GPa) = 0.01787121
#
# Stress axis : x y z
#
# Youngs Moduli (GPa) = 120.47979 83.33460 112.07027
#
# Poissons Ratio (x) = 0.11746 0.12791
# Poissons Ratio (y) = 0.16981 0.35022
# Poissons Ratio (z) = 0.13751 0.26042
#
# Static dielectric constant tensor:
#      x y z
#    x 99.292920 0.000000 31.534320 
#    y 0.000000 2.071730 0.000000 
#    z 31.534320 0.000000 12.403650 
# 
# From -- ./inp_files/23992.got.cif
#   From: 2010.05.17/outbox.cif.g08.bks.cpg/sg5_12_cif.got.tgz:23992.got - 2010.06.03 18:56:24.
