data_PCOD9129215
_publ_section_title
;
Structure prediction by ZEFSAII (Michael W. Deem and Ramdas Pophale) SiO2 
 PCOD9129215
Probable space group: C 2
;
_chemical_formula_sum "Si O2"
_cell_formula_units_Z 22
_cell_length_a 23.647827
_cell_length_b 4.794481
_cell_length_c 21.179119
_cell_angle_alpha 90.000000
_cell_angle_beta 160.171006
_cell_angle_gamma 90.000000
_cell_volume 814.543910
_symmetry_space_group_name_H-M "C 2"
_symmetry_group_IT_number 5
_symmetry_cell_setting 'monoclinic'
loop_
_space_group_symop_operation_xyz
x,y,z
-x,y,-z
1/2+x,1/2+y,z
1/2-x,1/2+y,-z
loop_
_atom_site_type_symbol
_atom_site_label
_atom_site_fract_x
_atom_site_fract_y
_atom_site_fract_z
Si Si1 0.023201 0.236560 0.147686
Si Si2 0.526553 0.490924 0.420955
Si Si3 0.801823 0.477248 0.357337
Si Si4 0.251281 0.168659 0.048796
Si Si5 0.500000 0.110624 0.000000
Si Si6 0.274015 0.146569 0.567828
O O1 0.063715 0.490680 0.237491
O O2 0.883415 0.077207 0.040056
O O3 0.980419 0.404235 0.038818
O O4 0.177400 0.044263 0.286810
O O5 0.531219 0.788756 0.460051
O O6 0.384630 0.326773 0.234172
O O7 0.646665 0.583960 0.489759
O O8 0.622215 0.284287 0.569713
O O9 0.664456 0.308506 0.172939
O O10 0.198170 0.395919 0.938969
O O11 0.212072 0.950483 0.445571
#
# Coordination Sequence:
#
# PCOD9129215 Si02
#       6
#     4   4   4   4   2   4
#     4  11  26  45  76 109 142 198 251 304 375 444
#     4  11  23  42  66 103 146 187 237 309 367 442
#     4  11  23  44  73 100 142 188 255 307 355 434
#     4  12  27  47  75 110 161 197 239 305 394 463
#     4  12  24  48  78 106 140 200 260 318 354 438
#     4  11  20  35  63  96 132 175 236 291 347 419
#
# _framework density 27.008977000000002
#
# number of rings (size 3 to 8) (size 9 to 14) (size 15 to 20)
#    0.000    0.727    3.636    6.000    2.545    0.000 
#    0.000    0.909    4.000    0.000    0.000    0.000 
#    0.000    0.000    0.000    0.000    0.000    0.000 
#
# Total GULP energy -61389.572812 kJ/mol
# GULP energy per Si atom -5580.870256 kJ/mol
# Density = 2.694750 g / cm^3
# Si number density = 27.008977 Si / 1000 Ang^3
#
#
#
# Elastic Constant Matrix: (Units=GPa)
#
#
# Indices 1 2 3 4 5 6 
#
# 1 121.0853 14.6211 6.4170 0.0003 -0.2460 -0.0001
# 2 14.6211 132.5687 48.3539 0.0008 -4.5048 -0.0003
# 3 6.4170 48.3539 81.8221 0.0002 -17.9451 0.0001
# 4 0.0003 0.0008 0.0002 79.7917 0.0000 -21.1670
# 5 -0.2460 -4.5048 -17.9451 0.0000 45.8317 0.0000
# 6 -0.0001 -0.0003 0.0001 -21.1670 0.0000 26.0268
#
#
#
# Elastic Compliance Matrix: (Units=1/GPa)
#
#
# Indices 1 2 3 4 5 6 
#
# 1 0.008372 -0.000866 -0.000168 0.000000 -0.000106 0.000000
# 2 -0.000866 0.009788 -0.006024 0.000000 -0.001401 0.000000
# 3 -0.000168 -0.006024 0.017136 0.000000 0.006117 0.000000
# 4 0.000000 0.000000 0.000000 0.015980 0.000000 0.012996
# 5 -0.000106 -0.001401 0.006117 0.000000 0.024076 0.000000
# 6 0.000000 0.000000 0.000000 0.012996 0.000000 0.048992
#
#
# Mechanical properties :
#
#
# Convention : Reuss Voigt Hill
#
# Bulk Modulus (GPa) = 47.21262 52.69555 49.95408
# Shear Modulus (GPa) = 34.35953 48.06896 41.21424
#
# Velocity S-wave (km/s) = 3.57059 4.22327 3.91057
# Velocity P-wave (km/s) = 5.87513 6.58287 6.23904
#
# Compressibility (1/GPa) = 0.02118078
#
# Stress axis : x y z
#
# Youngs Moduli (GPa) = 119.44772 102.16250 58.35574
#
# Poissons Ratio (x) = 0.08843 0.00982
# Poissons Ratio (y) = 0.10339 0.35153
# Poissons Ratio (z) = 0.02011 0.61542
#
# Static dielectric constant tensor:
#      x y z
#    x 2.107630 0.000000 -0.097740 
#    y 0.000000 2.223160 0.000000 
#    z -0.097740 0.000000 2.321260 
# 
# From -- ./inp_files/69843.got.cif
#   From: 2010.05.17/outbox.cif.g08.bks.cpg/sg5_35_cif.got.tgz:69843.got - 2010.06.03 18:56:24.
