data_PCOD9129843
_publ_section_title
;
Structure prediction by ZEFSAII (Michael W. Deem and Ramdas Pophale) SiO2 
 PCOD9129843
Probable space group: C 2
;
_chemical_formula_sum "Si O2"
_cell_formula_units_Z 24
_cell_length_a 20.237982
_cell_length_b 5.046954
_cell_length_c 11.506257
_cell_angle_alpha 90.000000
_cell_angle_beta 61.773799
_cell_angle_gamma 90.000000
_cell_volume 1035.498672
_symmetry_space_group_name_H-M "C 2"
_symmetry_group_IT_number 5
_symmetry_cell_setting 'monoclinic'
loop_
_space_group_symop_operation_xyz
x,y,z
-x,y,-z
1/2+x,1/2+y,z
1/2-x,1/2+y,-z
loop_
_atom_site_type_symbol
_atom_site_label
_atom_site_fract_x
_atom_site_fract_y
_atom_site_fract_z
Si Si1 0.220839 0.250000 0.085313
Si Si2 0.151852 0.933806 0.618990
Si Si3 0.443595 0.968706 0.806867
Si Si4 0.496755 0.491020 0.131913
Si Si5 0.297295 0.782576 0.639071
Si Si6 0.559354 0.068858 0.536029
O O1 0.141877 0.400426 0.142776
O O2 0.231111 0.181108 0.212937
O O3 0.276268 0.478649 0.990687
O O4 0.087699 0.046496 0.755204
O O5 0.226912 0.911670 0.631491
O O6 0.108211 0.680271 0.603501
O O7 0.172828 0.076847 0.481492
O O8 0.464208 0.774330 0.894538
O O9 0.499035 0.884972 0.653776
O O10 0.462202 0.274228 0.819818
O O11 0.500000 0.381761 0.000000
O O12 0.371660 0.959175 0.596344
O O13 0.500000 0.223200 0.500000
#
# Coordination Sequence:
#
# PCOD9129843 Si02
#       6
#     4   4   4   4   4   4
#     4  12  30  49  74 108 151 205 252 309 380 449
#     4  11  26  43  75 109 146 196 246 306 390 436
#     4  11  24  46  71 102 142 185 260 291 374 441
#     4  11  25  45  72 105 145 194 240 313 367 450
#     4  12  25  47  73 106 153 191 251 314 372 456
#     4  11  23  45  72 106 140 190 243 310 368 444
#
# _framework density 23.177240999999999
#
# number of rings (size 3 to 8) (size 9 to 14) (size 15 to 20)
#    0.000    0.667    5.000    1.500    7.000    3.333 
#    0.000    0.000    0.000    0.000    0.000    0.000 
#    0.000    0.000    0.000    0.000    0.000    0.000 
#
# Total GULP energy -66861.758895 kJ/mol
# GULP energy per Si atom -5571.813241 kJ/mol
# Density = 2.312449 g / cm^3
# Si number density = 23.177241 Si / 1000 Ang^3
#
#
#
# Elastic Constant Matrix: (Units=GPa)
#
#
# Indices 1 2 3 4 5 6 
#
# 1 144.2741 14.9860 33.4631 0.0000 -17.7650 0.0000
# 2 14.9860 54.5570 15.5889 0.0000 -8.3755 0.0000
# 3 33.4631 15.5889 135.9588 0.0000 8.0795 0.0000
# 4 0.0000 0.0000 0.0000 20.4633 0.0000 -9.9481
# 5 -17.7650 -8.3755 8.0795 0.0000 31.3417 0.0000
# 6 0.0000 0.0000 0.0000 -9.9481 0.0000 12.5707
#
#
#
# Elastic Compliance Matrix: (Units=1/GPa)
#
#
# Indices 1 2 3 4 5 6 
#
# 1 0.008140 -0.000846 -0.002201 0.000000 0.004955 0.000000
# 2 -0.000846 0.020102 -0.002424 0.000000 0.005517 0.000000
# 3 -0.002201 -0.002424 0.008416 0.000000 -0.004065 0.000000
# 4 0.000000 0.000000 0.000000 0.079424 0.000000 0.062854
# 5 0.004955 0.005517 -0.004065 0.000000 0.037237 0.000000
# 6 0.000000 0.000000 0.000000 0.062854 0.000000 0.129291
#
#
# Mechanical properties :
#
#
# Convention : Reuss Voigt Hill
#
# Bulk Modulus (GPa) = 38.88826 51.42952 45.15889
# Shear Modulus (GPa) = 16.54944 30.92525 23.73735
#
# Velocity S-wave (km/s) = 2.67505 3.65676 3.20373
# Velocity P-wave (km/s) = 5.13383 6.32985 5.76295
#
# Compressibility (1/GPa) = 0.02571470
#
# Stress axis : x y z
#
# Youngs Moduli (GPa) = 122.85409 49.74715 118.81571
#
# Poissons Ratio (x) = 0.04210 0.26149
# Poissons Ratio (y) = 0.10398 0.28806
# Poissons Ratio (z) = 0.27038 0.12061
#
# Static dielectric constant tensor:
#      x y z
#    x 1.939630 0.000000 0.018300 
#    y 0.000000 1.945710 0.000000 
#    z 0.018300 0.000000 1.952000 
# 
# From -- ./inp_files/45379.got.cif
#   From: 2010.05.17/outbox.cif.g08.bks.cpg/sg5_23_cif.got.tgz:45379.got - 2010.06.03 18:56:24.
