data_PCOD9129792
_publ_section_title
;
Structure prediction by ZEFSAII (Michael W. Deem and Ramdas Pophale) SiO2 
 PCOD9129792
Probable space group: C 2
;
_chemical_formula_sum "Si O2"
_cell_formula_units_Z 26
_cell_length_a 7.935785
_cell_length_b 22.250001
_cell_length_c 7.780948
_cell_angle_alpha 90.000000
_cell_angle_beta 124.926275
_cell_angle_gamma 90.000000
_cell_volume 1126.439105
_symmetry_space_group_name_H-M "C 2"
_symmetry_group_IT_number 5
_symmetry_cell_setting 'monoclinic'
loop_
_space_group_symop_operation_xyz
x,y,z
-x,y,-z
1/2+x,1/2+y,z
1/2-x,1/2+y,-z
loop_
_atom_site_type_symbol
_atom_site_label
_atom_site_fract_x
_atom_site_fract_y
_atom_site_fract_z
Si Si1 0.104625 0.706220 0.342389
Si Si2 0.016430 0.432026 0.816656
Si Si3 0.144031 0.974643 0.416761
Si Si4 0.097174 0.107422 0.363416
Si Si5 0.500000 0.421315 0.000000
Si Si6 0.600045 0.805506 0.367688
Si Si7 0.695872 0.704797 0.923412
O O1 0.199435 0.648036 0.491721
O O2 0.195602 0.766543 0.480255
O O3 0.196988 0.704849 0.202538
O O4 0.862954 0.706689 0.169810
O O5 0.880265 0.472764 0.612568
O O6 0.897884 0.368376 0.727060
O O7 0.000000 0.455406 0.000000
O O8 0.253598 0.424459 0.909680
O O9 0.071479 0.923602 0.244566
O O10 0.000000 0.972041 0.500000
O O11 0.115088 0.039587 0.310089
O O12 0.000000 0.104278 0.500000
O O13 0.941741 0.145623 0.157818
O O14 0.500000 0.815098 0.500000
O O15 0.448957 0.762370 0.172262
#
# Coordination Sequence:
#
# PCOD9129792 Si02
#       7
#     4   4   4   4   2   4   4
#     4   8  14  28  52  87 127 165 210 270 336 403
#     4  12  26  46  67  99 139 187 237 288 346 414
#     4  11  23  44  68 100 137 182 236 285 350 414
#     4   8  16  30  54  88 128 164 215 277 329 407
#     4  12  26  46  72  96 138 186 230 296 346 406
#     4   9  18  33  57  88 128 169 217 278 332 403
#     4   8  14  27  51  89 121 165 216 261 342 403
#
# _framework density 23.081585
#
# number of rings (size 3 to 8) (size 9 to 14) (size 15 to 20)
#    0.000    2.462    1.538    3.231    0.000    4.923 
#    2.769    0.000    6.769    0.000    0.000    0.000 
#    0.000    0.000    0.000    0.000    0.000    0.000 
#
# Total GULP energy -72406.754808 kJ/mol
# GULP energy per Si atom -5569.750370 kJ/mol
# Density = 2.302905 g / cm^3
# Si number density = 23.081585 Si / 1000 Ang^3
#
#
#
# Elastic Constant Matrix: (Units=GPa)
#
#
# Indices 1 2 3 4 5 6 
#
# 1 108.3637 -66.3732 17.4306 0.0000 4.8758 0.0000
# 2 -66.3732 177.0433 57.4704 0.0000 -1.1000 0.0000
# 3 17.4306 57.4704 165.4314 0.0000 27.3215 0.0000
# 4 0.0000 0.0000 0.0000 -20.6708 0.0000 9.3847
# 5 4.8758 -1.1000 27.3215 0.0000 47.7401 0.0000
# 6 0.0000 0.0000 0.0000 9.3847 0.0000 -6.2696
#
#
#
# Elastic Compliance Matrix: (Units=1/GPa)
#
#
# Indices 1 2 3 4 5 6 
#
# 1 0.013711 0.006385 -0.003816 0.000000 0.000931 0.000000
# 2 0.006385 0.009446 -0.004288 0.000000 0.002020 0.000000
# 3 -0.003816 -0.004288 0.008712 0.000000 -0.004695 0.000000
# 4 0.000000 0.000000 0.000000 -0.150983 0.000000 -0.225998
# 5 0.000931 0.002020 -0.004695 0.000000 0.023585 0.000000
# 6 0.000000 0.000000 0.000000 -0.225998 0.000000 -0.497784
#
#
# Mechanical properties :
#
#
# Convention : Reuss Voigt Hill
#
# Bulk Modulus (GPa) = 35.17384 51.98821 43.58102
# Shear Modulus (GPa) = -8.61480 33.64731 12.51626
#
# Velocity S-wave (km/s) = -1.93402 3.82220 2.33118
# Velocity P-wave (km/s) = 3.20699 6.48471 5.11548
#
# Compressibility (1/GPa) = 0.02843022
#
# Stress axis : x y z
#
# Youngs Moduli (GPa) = 72.93440 105.85948 114.78540
#
# Poissons Ratio (x) = -0.67590 0.43808
# Poissons Ratio (y) = -0.46568 0.49219
# Poissons Ratio (z) = 0.27835 0.45392
#
# Static dielectric constant tensor:
#      x y z
#    x 1.913130 0.000000 -0.024760 
#    y 0.000000 1.870880 0.000000 
#    z -0.024760 0.000000 1.861870 
# 
# From -- ./inp_files/17358.got.cif
#   From: 2010.05.17/outbox.cif.g08.bks.cpg/sg5_9_cif.got.tgz:17358.got - 2010.06.03 18:56:24.
