data_PCOD9129172
_publ_section_title
;
Structure prediction by ZEFSAII (Michael W. Deem and Ramdas Pophale) SiO2 
 PCOD9129172
Probable space group: C 2
;
_chemical_formula_sum "Si O2"
_cell_formula_units_Z 24
_cell_length_a 12.106027
_cell_length_b 17.125950
_cell_length_c 10.679883
_cell_angle_alpha 90.000000
_cell_angle_beta 33.922648
_cell_angle_gamma 90.000000
_cell_volume 1235.702532
_symmetry_space_group_name_H-M "C 2"
_symmetry_group_IT_number 5
_symmetry_cell_setting 'monoclinic'
loop_
_space_group_symop_operation_xyz
x,y,z
-x,y,-z
1/2+x,1/2+y,z
1/2-x,1/2+y,-z
loop_
_atom_site_type_symbol
_atom_site_label
_atom_site_fract_x
_atom_site_fract_y
_atom_site_fract_z
Si Si1 0.132275 0.217760 0.487337
Si Si2 0.070286 0.637341 0.615718
Si Si3 0.168617 0.320873 0.063215
Si Si4 0.420142 0.358152 0.201885
Si Si5 0.563563 0.952828 0.585326
Si Si6 0.713843 0.702324 0.828299
O O1 0.289594 0.159346 0.400797
O O2 0.270191 0.288312 0.307420
O O3 0.000000 0.184782 0.500000
O O4 0.979980 0.259126 0.728256
O O5 0.067604 0.545310 0.595653
O O6 0.169507 0.687163 0.409398
O O7 0.840971 0.662900 0.820249
O O8 0.078021 0.404714 0.187733
O O9 0.393760 0.323846 0.900253
O O10 0.182241 0.290254 0.908087
O O11 0.283141 0.419280 0.401437
O O12 0.500000 0.395907 0.000000
O O13 0.500000 0.935309 0.500000
O O14 0.500000 0.666834 0.000000
#
# Coordination Sequence:
#
# PCOD9129172 Si02
#       6
#     4   4   4   4   4   4
#     4  11  21  37  63  88 119 156 218 261 299 372
#     4  11  24  39  60  96 124 163 207 267 313 366
#     4  11  21  37  60  93 118 164 207 255 308 376
#     4  11  19  34  60  90 116 157 198 256 313 362
#     4  11  22  36  58  93 130 154 208 267 314 362
#     4  11  22  38  65  90 124 164 209 254 312 380
#
# _framework density 19.422149999999998
#
# number of rings (size 3 to 8) (size 9 to 14) (size 15 to 20)
#    0.000    1.000    8.333    1.000    0.000    2.000 
#    0.000    0.000    3.667    0.000    0.000    0.000 
#    0.000    0.000    0.000    0.000    0.000    0.000 
#
# Total GULP energy -66848.489443 kJ/mol
# GULP energy per Si atom -5570.707454 kJ/mol
# Density = 1.937794 g / cm^3
# Si number density = 19.422150 Si / 1000 Ang^3
#
#
#
# Elastic Constant Matrix: (Units=GPa)
#
#
# Indices 1 2 3 4 5 6 
#
# 1 105.2884 50.9800 33.9845 -0.0075 -38.2890 -0.0075
# 2 50.9800 96.9026 32.4447 -0.0073 -0.2120 -0.0115
# 3 33.9845 32.4447 88.5352 -0.0072 -29.1138 -0.0105
# 4 -0.0075 -0.0073 -0.0072 54.9134 0.0030 10.9913
# 5 -38.2890 -0.2120 -29.1138 0.0030 44.9360 0.0064
# 6 -0.0075 -0.0115 -0.0105 10.9913 0.0064 25.5755
#
#
#
# Elastic Compliance Matrix: (Units=1/GPa)
#
#
# Indices 1 2 3 4 5 6 
#
# 1 0.022217 -0.012623 0.002927 0.000001 0.020768 -0.000004
# 2 -0.012623 0.019379 -0.007323 0.000000 -0.015409 0.000006
# 3 0.002927 -0.007323 0.017363 0.000001 0.013709 0.000001
# 4 0.000001 0.000000 0.000001 0.019924 0.000002 -0.008563
# 5 0.020768 -0.015409 0.013709 0.000002 0.048759 -0.000008
# 6 -0.000004 0.000006 0.000001 -0.008563 -0.000008 0.042780
#
#
# Mechanical properties :
#
#
# Convention : Reuss Voigt Hill
#
# Bulk Modulus (GPa) = 40.12772 58.39383 49.26077
# Shear Modulus (GPa) = 23.49984 36.63944 30.06964
#
# Velocity S-wave (km/s) = 3.48221 4.34807 3.93900
# Velocity P-wave (km/s) = 6.07234 7.43898 6.79013
#
# Compressibility (1/GPa) = 0.02492043
#
# Stress axis : x y z
#
# Youngs Moduli (GPa) = 45.01019 51.60300 57.59312
#
# Poissons Ratio (x) = 0.65138 -0.16856
# Poissons Ratio (y) = 0.56816 0.42177
# Poissons Ratio (z) = -0.13174 0.37790
#
# Static dielectric constant tensor:
#      x y z
#    x 1.729790 0.000000 0.003260 
#    y 0.000000 1.673310 0.000000 
#    z 0.003260 0.000000 1.722900 
# 
# From -- ./inp_files/40406.got.cif
#   From: 2010.05.17/outbox.cif.g08.bks.cpg/sg5_21_cif.got.tgz:40406.got - 2010.06.03 18:56:24.
