data_PCOD9129694
_publ_section_title
;
Structure prediction by ZEFSAII (Michael W. Deem and Ramdas Pophale) SiO2 
 PCOD9129694
Probable space group: C 2
;
_chemical_formula_sum "Si O2"
_cell_formula_units_Z 26
_cell_length_a 22.619144
_cell_length_b 8.378459
_cell_length_c 16.179379
_cell_angle_alpha 90.000000
_cell_angle_beta 160.189406
_cell_angle_gamma 90.000000
_cell_volume 1039.175645
_symmetry_space_group_name_H-M "C 2"
_symmetry_group_IT_number 5
_symmetry_cell_setting 'monoclinic'
loop_
_space_group_symop_operation_xyz
x,y,z
-x,y,-z
1/2+x,1/2+y,z
1/2-x,1/2+y,-z
loop_
_atom_site_type_symbol
_atom_site_label
_atom_site_fract_x
_atom_site_fract_y
_atom_site_fract_z
Si Si1 0.961979 0.165480 0.786336
Si Si2 0.268298 0.096906 0.791148
Si Si3 0.240628 0.032656 0.044579
Si Si4 0.000000 0.332352 0.500000
Si Si5 0.000000 0.378972 0.000000
Si Si6 0.996382 0.750840 0.319412
Si Si7 0.886601 0.788945 0.697850
Si Si8 0.500000 0.357356 0.500000
O O1 0.804014 0.237432 0.523680
O O2 0.921945 0.977755 0.753820
O O3 0.137063 0.161839 0.962284
O O4 0.990584 0.270846 0.905812
O O5 0.117002 0.229734 0.589443
O O6 0.170014 0.972604 0.723156
O O7 0.446704 0.188304 0.051903
O O8 0.332460 0.993366 0.796872
O O9 0.354497 0.113256 0.124187
O O10 0.361959 0.930894 0.265027
O O11 0.096558 0.918649 0.817172
O O12 0.129159 0.739879 0.420004
O O13 0.038726 0.749427 0.471193
#
# Coordination Sequence:
#
# PCOD9129694 Si02
#       8
#     4   4   4   2   2   4   4   2
#     4  11  25  47  72 105 152 194 249 303 369 449
#     4  11  24  46  72 105 148 194 250 304 374 434
#     4  11  25  46  73 105 146 192 251 300 373 436
#     4  11  23  50  74 103 153 194 250 307 361 460
#     4  12  26  46  74 112 146 196 252 308 384 432
#     4  11  23  43  70 109 138 193 245 306 371 433
#     4  11  24  48  69 104 150 197 248 298 373 447
#     4  11  23  40  76 103 149 186 252 309 367 444
#
# _framework density 25.019832000000001
#
# number of rings (size 3 to 8) (size 9 to 14) (size 15 to 20)
#    0.000    0.923    3.077    4.154    2.154    4.308 
#    2.769    0.000    0.000    0.000    0.000    0.000 
#    0.000    0.000    0.000    0.000    0.000    0.000 
#
# Total GULP energy -72677.527926 kJ/mol
# GULP energy per Si atom -5590.579071 kJ/mol
# Density = 2.496289 g / cm^3
# Si number density = 25.019832 Si / 1000 Ang^3
#
#
#
# Elastic Constant Matrix: (Units=GPa)
#
#
# Indices 1 2 3 4 5 6 
#
# 1 91.9397 19.7253 19.1537 0.0000 11.9468 0.0000
# 2 19.7253 84.8440 21.5290 0.0000 13.7382 0.0000
# 3 19.1537 21.5290 97.5215 0.0000 25.2078 0.0000
# 4 0.0000 0.0000 0.0000 45.9959 0.0000 6.3515
# 5 11.9468 13.7382 25.2078 0.0000 33.8546 0.0000
# 6 0.0000 0.0000 0.0000 6.3515 0.0000 44.4249
#
#
#
# Elastic Compliance Matrix: (Units=1/GPa)
#
#
# Indices 1 2 3 4 5 6 
#
# 1 0.011894 -0.002053 -0.001255 0.000000 -0.002430 0.000000
# 2 -0.002053 0.013233 -0.001631 0.000000 -0.003431 0.000000
# 3 -0.001255 -0.001631 0.013096 0.000000 -0.008646 0.000000
# 4 0.000000 0.000000 0.000000 0.022179 0.000000 -0.003171
# 5 -0.002430 -0.003431 -0.008646 0.000000 0.038226 0.000000
# 6 0.000000 0.000000 0.000000 -0.003171 0.000000 0.022963
#
#
# Mechanical properties :
#
#
# Convention : Reuss Voigt Hill
#
# Bulk Modulus (GPa) = 35.28055 43.90234 39.59144
# Shear Modulus (GPa) = 35.48163 39.11489 37.29826
#
# Velocity S-wave (km/s) = 3.76991 3.95822 3.86521
# Velocity P-wave (km/s) = 5.75163 6.20283 5.98149
#
# Compressibility (1/GPa) = 0.02834423
#
# Stress axis : x y z
#
# Youngs Moduli (GPa) = 84.07332 75.56758 76.36151
#
# Poissons Ratio (x) = 0.15518 0.09581
# Poissons Ratio (y) = 0.17264 0.12457
# Poissons Ratio (z) = 0.10549 0.12327
#
# Static dielectric constant tensor:
#      x y z
#    x 2.026320 0.000000 -0.030870 
#    y 0.000000 2.004620 0.000000 
#    z -0.030870 0.000000 2.016350 
# 
# From -- ./inp_files/63307.got.cif
#   From: 2010.05.17/outbox.cif.g08.bks.cpg/sg5_32_cif.got.tgz:63307.got - 2010.06.03 18:56:24.
