data_PCOD9129218
_publ_section_title
;
Structure prediction by ZEFSAII (Michael W. Deem and Ramdas Pophale) SiO2 
 PCOD9129218
Probable space group: C 2
;
_chemical_formula_sum "Si O2"
_cell_formula_units_Z 24
_cell_length_a 12.096560
_cell_length_b 18.740742
_cell_length_c 14.092017
_cell_angle_alpha 90.000000
_cell_angle_beta 159.655394
_cell_angle_gamma 90.000000
_cell_volume 1110.666536
_symmetry_space_group_name_H-M "C 2"
_symmetry_group_IT_number 5
_symmetry_cell_setting 'monoclinic'
loop_
_space_group_symop_operation_xyz
x,y,z
-x,y,-z
1/2+x,1/2+y,z
1/2-x,1/2+y,-z
loop_
_atom_site_type_symbol
_atom_site_label
_atom_site_fract_x
_atom_site_fract_y
_atom_site_fract_z
Si Si1 0.880313 0.295930 0.301174
Si Si2 0.606646 0.656632 0.986295
Si Si3 0.843378 0.431536 0.565310
Si Si4 0.502287 0.492697 0.893501
Si Si5 0.874396 0.019298 0.294282
Si Si6 0.365578 0.660102 0.592024
O O1 0.000000 0.319242 0.500000
O O2 0.024500 0.352146 0.342157
O O3 0.020815 0.218324 0.391933
O O4 0.500000 0.293777 0.000000
O O5 0.453520 0.577150 0.861406
O O6 0.986796 0.651645 0.288802
O O7 0.500000 0.690579 0.000000
O O8 0.483717 0.688543 0.789188
O O9 0.544383 0.448418 0.390925
O O10 0.135126 0.476760 0.843639
O O11 0.737319 0.460366 0.375748
O O12 0.500000 0.463312 0.000000
O O13 0.000000 0.036542 0.500000
O O14 0.974252 0.084384 0.305043
O O15 0.500000 0.012067 0.000000
#
# Coordination Sequence:
#
# PCOD9129218 Si02
#       6
#     4   4   4   4   4   4
#     4  12  26  45  68 100 134 176 218 272 338 399
#     4  11  22  39  66 101 133 168 221 271 330 382
#     4  12  23  41  63  96 129 169 217 273 325 390
#     4  11  20  36  63  96 129 162 208 272 329 379
#     4  12  24  41  64  93 126 173 223 267 324 386
#     4  12  23  44  66  98 137 174 219 273 328 394
#
# _framework density 21.608646
#
# number of rings (size 3 to 8) (size 9 to 14) (size 15 to 20)
#    0.000    0.333    3.333    7.500    0.000    2.667 
#    0.000    2.500    0.000    0.000    0.000    0.000 
#    0.000    0.000    0.000    0.000    0.000    0.000 
#
# Total GULP energy -67131.667541 kJ/mol
# GULP energy per Si atom -5594.305628 kJ/mol
# Density = 2.155946 g / cm^3
# Si number density = 21.608646 Si / 1000 Ang^3
#
#
#
# Elastic Constant Matrix: (Units=GPa)
#
#
# Indices 1 2 3 4 5 6 
#
# 1 90.5117 12.6162 17.6570 0.0109 -1.1630 -0.0684
# 2 12.6162 60.2558 8.9290 -0.0025 25.5544 0.0137
# 3 17.6570 8.9290 123.2287 -0.0115 14.1507 0.1208
# 4 0.0109 -0.0025 -0.0115 14.2432 0.0124 -7.8407
# 5 -1.1630 25.5544 14.1507 0.0124 36.8563 -0.0562
# 6 -0.0684 0.0137 0.1208 -7.8407 -0.0562 37.5929
#
#
#
# Elastic Compliance Matrix: (Units=1/GPa)
#
#
# Indices 1 2 3 4 5 6 
#
# 1 0.011995 -0.003824 -0.001872 0.000005 0.003749 0.000036
# 2 -0.003824 0.024731 0.000773 -0.000002 -0.017565 -0.000045
# 3 -0.001872 0.000773 0.008783 -0.000010 -0.003967 -0.000040
# 4 0.000005 -0.000002 -0.000010 0.079315 0.000004 0.016543
# 5 0.003749 -0.017565 -0.003967 0.000004 0.040953 0.000088
# 6 0.000036 -0.000045 -0.000040 0.016543 0.000088 0.030051
#
#
# Mechanical properties :
#
#
# Convention : Reuss Voigt Hill
#
# Bulk Modulus (GPa) = 28.04027 39.15561 33.59794
# Shear Modulus (GPa) = 22.98200 33.39143 28.18671
#
# Velocity S-wave (km/s) = 3.26476 3.93527 3.61559
# Velocity P-wave (km/s) = 5.21691 6.22962 5.74562
#
# Compressibility (1/GPa) = 0.03566299
#
# Stress axis : x y z
#
# Youngs Moduli (GPa) = 83.37034 40.43472 113.85854
#
# Poissons Ratio (x) = 0.15461 0.21315
# Poissons Ratio (y) = 0.31879 -0.08801
# Poissons Ratio (z) = 0.15608 -0.03125
#
# Static dielectric constant tensor:
#      x y z
#    x 1.725450 0.000210 0.035450 
#    y 0.000210 1.767310 -0.000070 
#    z 0.035450 -0.000070 1.749680 
# 
# From -- ./inp_files/43469.got.cif
#   From: 2010.05.17/outbox.cif.g08.bks.cpg/sg5_22_cif.got.tgz:43469.got - 2010.06.03 18:56:24.
