data_PCOD9129639
_publ_section_title
;
Structure prediction by ZEFSAII (Michael W. Deem and Ramdas Pophale) SiO2 
 PCOD9129639
Probable space group: C 2
;
_chemical_formula_sum "Si O2"
_cell_formula_units_Z 28
_cell_length_a 14.958051
_cell_length_b 10.458859
_cell_length_c 9.461072
_cell_angle_alpha 90.000000
_cell_angle_beta 55.642138
_cell_angle_gamma 90.000000
_cell_volume 1221.889359
_symmetry_space_group_name_H-M "C 2"
_symmetry_group_IT_number 5
_symmetry_cell_setting 'monoclinic'
loop_
_space_group_symop_operation_xyz
x,y,z
-x,y,-z
1/2+x,1/2+y,z
1/2-x,1/2+y,-z
loop_
_atom_site_type_symbol
_atom_site_label
_atom_site_fract_x
_atom_site_fract_y
_atom_site_fract_z
Si Si1 0.798229 0.029260 0.870781
Si Si2 0.649265 0.193843 0.679007
Si Si3 0.645734 0.584807 0.604000
Si Si4 0.870189 0.936572 0.112744
Si Si5 0.950243 0.509834 0.896121
Si Si6 0.965192 0.264563 0.693319
Si Si7 0.109703 0.858075 0.455156
O O1 0.870960 0.157338 0.786789
O O2 0.827099 0.918427 0.731731
O O3 0.825545 0.969462 0.999794
O O4 0.671083 0.060145 0.974444
O O5 0.750433 0.099640 0.588322
O O6 0.652003 0.297230 0.801339
O O7 0.668714 0.267437 0.512992
O O8 0.535608 0.120244 0.778004
O O9 0.676982 0.533782 0.728822
O O10 0.571206 0.707729 0.675883
O O11 0.574548 0.477053 0.587231
O O12 0.000000 0.953603 0.000000
O O13 0.940154 0.397434 0.790953
O O14 0.000000 0.459616 0.000000
O O15 0.000000 0.281937 0.500000
O O16 0.000000 0.793495 0.500000
#
# Coordination Sequence:
#
# PCOD9129639 Si02
#       7
#     4   4   4   4   4   4   4
#     4  12  25  49  75 116 142 192 253 313 372 438
#     4  11  28  47  73 103 154 196 245 296 374 447
#     4  11  23  45  74 105 143 194 245 297 362 445
#     4  11  24  45  78 109 140 193 249 307 372 433
#     4  12  32  49  71 114 159 194 243 318 378 428
#     4  12  27  49  79 106 150 197 253 304 370 456
#     4  11  22  46  75 103 136 197 246 295 360 448
#
# _framework density 22.915331999999999
#
# number of rings (size 3 to 8) (size 9 to 14) (size 15 to 20)
#    0.000    0.571    4.286    2.143   10.000    4.000 
#    0.000    0.000    0.000    0.000    0.000    0.000 
#    0.000    0.000    0.000    0.000    0.000    0.000 
#
# Total GULP energy -78356.344510 kJ/mol
# GULP energy per Si atom -5596.881751 kJ/mol
# Density = 2.286318 g / cm^3
# Si number density = 22.915332 Si / 1000 Ang^3
#
#
#
# Elastic Constant Matrix: (Units=GPa)
#
#
# Indices 1 2 3 4 5 6 
#
# 1 124.1121 39.0238 64.0692 0.0000 -4.2051 0.0000
# 2 39.0238 100.0985 79.3623 0.0000 9.6150 0.0000
# 3 64.0692 79.3623 148.9547 0.0000 5.7834 0.0000
# 4 0.0000 0.0000 0.0000 45.1624 0.0000 5.6736
# 5 -4.2051 9.6150 5.7834 0.0000 53.3295 0.0000
# 6 0.0000 0.0000 0.0000 5.6736 0.0000 23.0089
#
#
#
# Elastic Compliance Matrix: (Units=1/GPa)
#
#
# Indices 1 2 3 4 5 6 
#
# 1 0.010511 -0.001053 -0.004016 0.000000 0.001454 0.000000
# 2 -0.001053 0.017646 -0.008859 0.000000 -0.002304 0.000000
# 3 -0.004016 -0.008859 0.013167 0.000000 -0.000147 0.000000
# 4 0.000000 0.000000 0.000000 0.022850 0.000000 -0.005634
# 5 0.001454 -0.002304 -0.000147 0.000000 0.019297 0.000000
# 6 0.000000 0.000000 0.000000 -0.005634 0.000000 0.044851
#
#
# Mechanical properties :
#
#
# Convention : Reuss Voigt Hill
#
# Bulk Modulus (GPa) = 74.25923 82.00843 78.13383
# Shear Modulus (GPa) = 31.11994 37.01417 34.06706
#
# Velocity S-wave (km/s) = 3.68916 4.02339 3.85989
# Velocity P-wave (km/s) = 7.11497 7.57950 7.35090
#
# Compressibility (1/GPa) = 0.01346634
#
# Stress axis : x y z
#
# Youngs Moduli (GPa) = 95.13874 56.66994 75.94764
#
# Poissons Ratio (x) = 0.05967 0.30504
# Poissons Ratio (y) = 0.10018 0.67285
# Poissons Ratio (z) = 0.38212 0.50206
#
# Static dielectric constant tensor:
#      x y z
#    x 1.895440 0.000000 0.000770 
#    y 0.000000 1.837010 0.000000 
#    z 0.000770 0.000000 1.869060 
# 
# From -- ./inp_files/23754.got.cif
#   From: 2010.05.17/outbox.cif.g08.bks.cpg/sg5_12_cif.got.tgz:23754.got - 2010.06.03 18:56:24.
