data_PCOD9129745
_publ_section_title
;
Structure prediction by ZEFSAII (Michael W. Deem and Ramdas Pophale) SiO2 
 PCOD9129745
Probable space group: C 2
;
_chemical_formula_sum "Si O2"
_cell_formula_units_Z 24
_cell_length_a 19.421885
_cell_length_b 8.521468
_cell_length_c 13.643033
_cell_angle_alpha 90.000000
_cell_angle_beta 156.327712
_cell_angle_gamma 90.000000
_cell_volume 906.582907
_symmetry_space_group_name_H-M "C 2"
_symmetry_group_IT_number 5
_symmetry_cell_setting 'monoclinic'
loop_
_space_group_symop_operation_xyz
x,y,z
-x,y,-z
1/2+x,1/2+y,z
1/2-x,1/2+y,-z
loop_
_atom_site_type_symbol
_atom_site_label
_atom_site_fract_x
_atom_site_fract_y
_atom_site_fract_z
Si Si1 0.527559 0.391190 0.707659
Si Si2 0.694780 0.083538 0.848209
Si Si3 0.949373 0.281901 0.530704
Si Si4 0.194782 0.508911 0.348211
Si Si5 0.050627 0.810547 0.969296
Si Si6 0.527558 0.701258 0.207657
O O1 0.584086 0.237966 0.724040
O O2 0.334998 0.459713 0.447257
O O3 0.678475 0.521979 0.898791
O O4 0.535969 0.343066 0.834033
O O5 0.567109 0.937927 0.673659
O O6 0.834997 0.132736 0.947255
O O7 0.750000 0.296224 0.250000
O O8 0.964032 0.249382 0.665969
O O9 0.000000 0.180165 0.500000
O O10 0.321527 0.570469 0.601211
O O11 0.084086 0.354483 0.224041
O O12 0.067111 0.654521 0.173661
O O13 0.000000 0.912283 0.000000
#
# Coordination Sequence:
#
# PCOD9129745 Si02
#       6
#     4   4   4   4   4   4
#     4  11  23  42  73  97 134 176 233 265 330 407
#     4  11  23  42  70 102 129 182 224 274 326 405
#     4  12  23  42  68  98 134 175 222 272 340 393
#     4  11  23  42  70 102 129 182 224 274 326 405
#     4  12  23  42  68  98 134 175 222 272 340 393
#     4  11  23  42  73  97 134 176 233 265 330 407
#
# _framework density 26.473033000000001
#
# number of rings (size 3 to 8) (size 9 to 14) (size 15 to 20)
#    0.000    0.667    6.667    1.000    0.000    0.000 
#    0.000    1.667    0.000    0.000    0.000    0.000 
#    0.000    0.000    0.000    0.000    0.000    0.000 
#
# Total GULP energy -66849.044660 kJ/mol
# GULP energy per Si atom -5570.753722 kJ/mol
# Density = 2.641278 g / cm^3
# Si number density = 26.473033 Si / 1000 Ang^3
#
#
#
# Elastic Constant Matrix: (Units=GPa)
#
#
# Indices 1 2 3 4 5 6 
#
# 1 76.5425 -5.8165 28.7380 0.0000 14.8985 0.0000
# 2 -5.8165 112.6008 35.3830 0.0000 24.2975 0.0000
# 3 28.7380 35.3830 158.7743 0.0000 33.7842 0.0000
# 4 0.0000 0.0000 0.0000 65.4236 0.0000 19.7931
# 5 14.8985 24.2975 33.7842 0.0000 42.1461 0.0000
# 6 0.0000 0.0000 0.0000 19.7931 0.0000 38.5349
#
#
#
# Elastic Compliance Matrix: (Units=1/GPa)
#
#
# Indices 1 2 3 4 5 6 
#
# 1 0.015074 0.002563 -0.002232 0.000000 -0.005017 0.000000
# 2 0.002563 0.010780 -0.001629 0.000000 -0.005815 0.000000
# 3 -0.002232 -0.001629 0.008075 0.000000 -0.004745 0.000000
# 4 0.000000 0.000000 0.000000 0.018097 0.000000 -0.009295
# 5 -0.005017 -0.005815 -0.004745 0.000000 0.032656 0.000000
# 6 0.000000 0.000000 0.000000 -0.009295 0.000000 0.030725
#
#
# Mechanical properties :
#
#
# Convention : Reuss Voigt Hill
#
# Bulk Modulus (GPa) = 31.91623 51.61408 41.76516
# Shear Modulus (GPa) = 38.92647 48.52845 43.72746
#
# Velocity S-wave (km/s) = 3.83877 4.28615 4.06861
# Velocity P-wave (km/s) = 5.63298 6.63581 6.15485
#
# Compressibility (1/GPa) = 0.03133202
#
# Stress axis : x y z
#
# Youngs Moduli (GPa) = 66.34019 92.76530 123.84198
#
# Poissons Ratio (x) = -0.23771 0.27641
# Poissons Ratio (y) = -0.17000 0.20172
# Poissons Ratio (z) = 0.14807 0.15110
#
# Static dielectric constant tensor:
#      x y z
#    x 2.183260 0.000000 -0.034230 
#    y 0.000000 2.322750 0.000000 
#    z -0.034230 0.000000 2.108380 
# 
# From -- ./inp_files/63308.got.cif
#   From: 2010.05.17/outbox.cif.g08.bks.cpg/sg5_32_cif.got.tgz:63308.got - 2010.06.03 18:56:24.
