data_PCOD9129550
_publ_section_title
;
Structure prediction by ZEFSAII (Michael W. Deem and Ramdas Pophale) SiO2 
 PCOD9129550
Probable space group: C 2
;
_chemical_formula_sum "Si O2"
_cell_formula_units_Z 30
_cell_length_a 9.088962
_cell_length_b 14.264476
_cell_length_c 11.831538
_cell_angle_alpha 90.000000
_cell_angle_beta 119.082124
_cell_angle_gamma 90.000000
_cell_volume 1340.555927
_symmetry_space_group_name_H-M "C 2"
_symmetry_group_IT_number 5
_symmetry_cell_setting 'monoclinic'
loop_
_space_group_symop_operation_xyz
x,y,z
-x,y,-z
1/2+x,1/2+y,z
1/2-x,1/2+y,-z
loop_
_atom_site_type_symbol
_atom_site_label
_atom_site_fract_x
_atom_site_fract_y
_atom_site_fract_z
Si Si1 0.667352 0.678570 0.112846
Si Si2 0.000000 0.359628 0.500000
Si Si3 0.493789 0.207086 0.629210
Si Si4 0.768438 0.802285 0.735842
Si Si5 0.724114 0.013320 0.458050
Si Si6 0.591484 0.515498 0.700007
Si Si7 0.563053 0.474761 0.145838
Si Si8 0.682038 0.149533 0.075170
O O1 0.600852 0.584740 0.150401
O O2 0.816942 0.713493 0.249273
O O3 0.500000 0.730967 0.000000
O O4 0.755765 0.650680 0.028701
O O5 0.920496 0.291209 0.376698
O O6 0.868824 0.428470 0.513759
O O7 0.500000 0.236123 0.500000
O O8 0.380517 0.268756 0.671681
O O9 0.403385 0.102888 0.597550
O O10 0.831334 0.750388 0.870636
O O11 0.778060 0.912725 0.764808
O O12 0.794965 0.982655 0.361705
O O13 0.900424 0.037113 0.588326
O O14 0.567609 0.452355 0.802842
O O15 0.692387 0.601453 0.790697
O O16 0.500000 0.447096 0.000000
O O17 0.500000 0.102808 0.000000
#
# Coordination Sequence:
#
# PCOD9129550 Si02
#       8
#     4   2   4   4   4   4   4   4
#     4  11  23  43  73 100 130 192 238 286 335 436
#     4  12  26  46  70 104 142 186 230 290 372 416
#     4  12  25  41  70 105 143 182 239 286 355 422
#     4  12  27  41  68 104 144 178 226 301 364 411
#     4  11  23  43  74 101 142 185 242 287 341 440
#     4  11  22  42  73 103 134 187 241 285 340 421
#     4  11  22  42  71  97 135 182 229 286 353 413
#     4  12  23  43  68 104 139 179 242 289 348 419
#
# _framework density 22.378775000000001
#
# number of rings (size 3 to 8) (size 9 to 14) (size 15 to 20)
#    0.000    0.533    7.333    2.000    1.867    1.067 
#    0.000    0.000    0.000    0.800    0.000    0.000 
#    0.000    0.000    0.000    0.000    0.000    0.000 
#
# Total GULP energy -83627.236686 kJ/mol
# GULP energy per Si atom -5575.149112 kJ/mol
# Density = 2.232784 g / cm^3
# Si number density = 22.378775 Si / 1000 Ang^3
#
#
#
# Elastic Constant Matrix: (Units=GPa)
#
#
# Indices 1 2 3 4 5 6 
#
# 1 108.5575 2.7844 55.8349 0.0000 -8.3350 0.0000
# 2 2.7844 37.5988 23.0003 0.0000 4.5714 0.0000
# 3 55.8349 23.0003 158.8162 0.0000 5.2347 0.0000
# 4 0.0000 0.0000 0.0000 11.4753 0.0000 10.7549
# 5 -8.3350 4.5714 5.2347 0.0000 57.7590 0.0000
# 6 0.0000 0.0000 0.0000 10.7549 0.0000 16.0672
#
#
#
# Elastic Compliance Matrix: (Units=1/GPa)
#
#
# Indices 1 2 3 4 5 6 
#
# 1 0.011561 0.001573 -0.004356 0.000000 0.001939 0.000000
# 2 0.001573 0.029613 -0.004786 0.000000 -0.001683 0.000000
# 3 -0.004356 -0.004786 0.008555 0.000000 -0.001025 0.000000
# 4 0.000000 0.000000 0.000000 0.233849 0.000000 -0.156533
# 5 0.001939 -0.001683 -0.001025 0.000000 0.017819 0.000000
# 6 0.000000 0.000000 0.000000 -0.156533 0.000000 0.167018
#
#
# Mechanical properties :
#
#
# Convention : Reuss Voigt Hill
#
# Bulk Modulus (GPa) = 28.91036 52.02351 40.46694
# Shear Modulus (GPa) = 10.09932 31.95050 21.02491
#
# Velocity S-wave (km/s) = 2.12666 3.78261 3.06846
# Velocity P-wave (km/s) = 4.35626 6.50959 5.53858
#
# Compressibility (1/GPa) = 0.03458967
#
# Stress axis : x y z
#
# Youngs Moduli (GPa) = 86.50005 33.76950 116.89106
#
# Poissons Ratio (x) = -0.05312 0.50919
# Poissons Ratio (y) = -0.13606 0.55945
# Poissons Ratio (z) = 0.37680 0.16162
#
# Static dielectric constant tensor:
#      x y z
#    x 1.895920 0.000000 0.045500 
#    y 0.000000 1.860170 0.000000 
#    z 0.045500 0.000000 1.870090 
# 
# From -- ./inp_files/37026.got.cif
#   From: 2010.05.17/outbox.cif.g08.bks.cpg/sg5_19_cif.got.tgz:37026.got - 2010.06.03 18:56:24.
