data_PCOD9129034
_publ_section_title
;
Structure prediction by ZEFSAII (Michael W. Deem and Ramdas Pophale) SiO2 
 PCOD9129034
Probable space group: C 2
;
_chemical_formula_sum "Si O2"
_cell_formula_units_Z 22
_cell_length_a 23.285212
_cell_length_b 5.235562
_cell_length_c 10.316491
_cell_angle_alpha 90.000000
_cell_angle_beta 50.462604
_cell_angle_gamma 90.000000
_cell_volume 969.946417
_symmetry_space_group_name_H-M "C 2"
_symmetry_group_IT_number 5
_symmetry_cell_setting 'monoclinic'
loop_
_space_group_symop_operation_xyz
x,y,z
-x,y,-z
1/2+x,1/2+y,z
1/2-x,1/2+y,-z
loop_
_atom_site_type_symbol
_atom_site_label
_atom_site_fract_x
_atom_site_fract_y
_atom_site_fract_z
Si Si1 0.500000 0.381840 0.500000
Si Si2 0.127120 0.114038 0.975388
Si Si3 0.300418 0.687673 0.408768
Si Si4 0.352518 0.583597 0.602932
Si Si5 0.082228 0.613227 0.158009
Si Si6 0.788349 0.585034 0.819510
O O1 0.430625 0.557636 0.563087
O O2 0.520359 0.201912 0.349482
O O3 0.158925 0.169708 0.787416
O O4 0.200381 0.109072 0.963172
O O5 0.074894 0.339364 0.102530
O O6 0.090443 0.837906 0.041542
O O7 0.239393 0.460469 0.511464
O O8 0.357636 0.634681 0.443500
O O9 0.312350 0.315718 0.690384
O O10 0.305483 0.815694 0.728499
O O11 0.158806 0.607915 0.132142
#
# Coordination Sequence:
#
# PCOD9129034 Si02
#       6
#     2   4   4   4   4   4
#     4  10  26  46  68  90 138 182 234 258 322 398
#     4  12  22  38  64  99 132 161 219 274 337 383
#     4  12  22  41  66  97 137 168 211 269 342 403
#     4  11  22  41  67  96 127 182 215 263 320 403
#     4  11  24  39  62  94 130 177 215 272 318 388
#     4  11  21  38  64  97 133 163 213 277 340 382
#
# _framework density 22.681666
#
# number of rings (size 3 to 8) (size 9 to 14) (size 15 to 20)
#    0.000    0.727    3.636    5.455    0.000    6.545 
#    0.000    0.909    0.000    4.364    0.000    0.000 
#    0.000    0.000    0.000    0.000    0.000    0.000 
#
# Total GULP energy -61605.618307 kJ/mol
# GULP energy per Si atom -5600.510755 kJ/mol
# Density = 2.263004 g / cm^3
# Si number density = 22.681666 Si / 1000 Ang^3
#
#
#
# Elastic Constant Matrix: (Units=GPa)
#
#
# Indices 1 2 3 4 5 6 
#
# 1 18.4844 3.6482 -7.8369 0.0000 -1.4217 0.0000
# 2 3.6482 95.7682 26.4415 0.0000 -1.9272 0.0000
# 3 -7.8369 26.4415 101.5584 0.0000 11.4132 0.0000
# 4 0.0000 0.0000 0.0000 20.0807 0.0000 5.9153
# 5 -1.4217 -1.9272 11.4132 0.0000 34.2767 0.0000
# 6 0.0000 0.0000 0.0000 5.9153 0.0000 13.8841
#
#
#
# Elastic Compliance Matrix: (Units=1/GPa)
#
#
# Indices 1 2 3 4 5 6 
#
# 1 0.057097 -0.003632 0.005307 0.000000 0.000397 0.000000
# 2 -0.003632 0.011575 -0.003480 0.000000 0.001659 0.000000
# 3 0.005307 -0.003480 0.011593 0.000000 -0.003836 0.000000
# 4 0.000000 0.000000 0.000000 0.056946 0.000000 -0.024262
# 5 0.000397 0.001659 -0.003836 0.000000 0.030561 0.000000
# 6 0.000000 0.000000 0.000000 -0.024262 0.000000 0.082361
#
#
# Mechanical properties :
#
#
# Convention : Reuss Voigt Hill
#
# Bulk Modulus (GPa) = 13.04565 28.92406 20.98486
# Shear Modulus (GPa) = 17.90217 26.55218 22.22718
#
# Velocity S-wave (km/s) = 2.81246 3.42518 3.13383
# Velocity P-wave (km/s) = 4.03865 5.33126 4.72933
#
# Compressibility (1/GPa) = 0.07665389
#
# Stress axis : x y z
#
# Youngs Moduli (GPa) = 17.51401 86.39662 86.25705
#
# Poissons Ratio (x) = 0.31382 -0.45777
# Poissons Ratio (y) = 0.06362 0.30020
# Poissons Ratio (z) = -0.09295 0.30068
#
# Static dielectric constant tensor:
#      x y z
#    x 1.851280 0.000000 0.034420 
#    y 0.000000 1.852050 0.000000 
#    z 0.034420 0.000000 1.836860 
# 
# From -- ./inp_files/32023.got.cif
#   From: 2010.05.17/outbox.cif.g08.bks.cpg/sg5_17_cif.got.tgz:32023.got - 2010.06.03 18:56:24.
