data_PCOD9129083
_publ_section_title
;
Structure prediction by ZEFSAII (Michael W. Deem and Ramdas Pophale) SiO2 
 PCOD9129083
Probable space group: C 2
;
_chemical_formula_sum "Si O2"
_cell_formula_units_Z 16
_cell_length_a 30.301427
_cell_length_b 4.822915
_cell_length_c 5.694290
_cell_angle_alpha 90.000000
_cell_angle_beta 43.015283
_cell_angle_gamma 90.000000
_cell_volume 567.701176
_symmetry_space_group_name_H-M "C 2"
_symmetry_group_IT_number 5
_symmetry_cell_setting 'monoclinic'
loop_
_space_group_symop_operation_xyz
x,y,z
-x,y,-z
1/2+x,1/2+y,z
1/2-x,1/2+y,-z
loop_
_atom_site_type_symbol
_atom_site_label
_atom_site_fract_x
_atom_site_fract_y
_atom_site_fract_z
Si Si1 0.893395 0.271160 0.664348
Si Si2 0.144446 0.782679 0.881532
Si Si3 0.515991 0.388538 0.178070
Si Si4 0.714032 0.986703 0.232431
O O1 0.887052 0.511848 0.879263
O O2 0.857018 0.398431 0.582877
O O3 0.851721 0.014989 0.932459
O O4 0.965458 0.146847 0.358430
O O5 0.204743 0.661482 0.505619
O O6 0.092992 0.917841 0.897584
O O7 0.500000 0.278390 0.500000
O O8 0.500000 0.228831 0.000000
O O9 0.746933 0.200286 0.922236
#
# Coordination Sequence:
#
# PCOD9129083 Si02
#       4
#     4   4   4   4
#     4  11  27  51  79 120 162 214 272 347 423 502
#     4  11  27  51  79 120 162 214 272 347 423 502
#     4  10  26  48  80 120 162 210 260 342 422 504
#     4  12  28  50  85 115 162 224 284 344 412 498
#
# _framework density 28.183844000000001
#
# number of rings (size 3 to 8) (size 9 to 14) (size 15 to 20)
#    0.000    1.000    0.000    3.000   17.500   13.000 
#    0.000    0.000    0.000    0.000    0.000    0.000 
#    0.000    0.000    0.000    0.000    0.000    0.000 
#
# Total GULP energy -44771.411743 kJ/mol
# GULP energy per Si atom -5596.426468 kJ/mol
# Density = 2.811970 g / cm^3
# Si number density = 28.183844 Si / 1000 Ang^3
#
#
#
# Elastic Constant Matrix: (Units=GPa)
#
#
# Indices 1 2 3 4 5 6 
#
# 1 88.1291 20.4612 16.0389 0.0000 1.1206 0.0000
# 2 20.4612 202.6595 71.9060 0.0000 -13.1588 0.0000
# 3 16.0389 71.9060 138.2689 0.0000 9.1522 0.0000
# 4 0.0000 0.0000 0.0000 49.2973 0.0000 -18.2583
# 5 1.1206 -13.1588 9.1522 0.0000 54.1264 0.0000
# 6 0.0000 0.0000 0.0000 -18.2583 0.0000 51.9454
#
#
#
# Elastic Compliance Matrix: (Units=1/GPa)
#
#
# Indices 1 2 3 4 5 6 
#
# 1 0.011717 -0.000893 -0.000874 0.000000 -0.000312 0.000000
# 2 -0.000893 0.006347 -0.003338 0.000000 0.002126 0.000000
# 3 -0.000874 -0.003338 0.009225 0.000000 -0.002353 0.000000
# 4 0.000000 0.000000 0.000000 0.023321 0.000000 0.008197
# 5 -0.000312 0.002126 -0.002353 0.000000 0.019396 0.000000
# 6 0.000000 0.000000 0.000000 0.008197 0.000000 0.022132
#
#
# Mechanical properties :
#
#
# Convention : Reuss Voigt Hill
#
# Bulk Modulus (GPa) = 58.54965 71.76329 65.15647
# Shear Modulus (GPa) = 46.27813 52.45058 49.36436
#
# Velocity S-wave (km/s) = 4.05657 4.31863 4.18965
# Velocity P-wave (km/s) = 6.53913 7.09826 6.82442
#
# Compressibility (1/GPa) = 0.01707952
#
# Stress axis : x y z
#
# Youngs Moduli (GPa) = 85.34322 157.55791 108.39847
#
# Poissons Ratio (x) = 0.14072 0.09475
# Poissons Ratio (y) = 0.07622 0.36181
# Poissons Ratio (z) = 0.07460 0.52589
#
# Static dielectric constant tensor:
#      x y z
#    x 2.259140 0.000000 -0.049940 
#    y 0.000000 2.065340 0.000000 
#    z -0.049940 0.000000 2.306140 
# 
# From -- ./inp_files/10563.got.cif
#   From: 2010.05.17/outbox.cif.g08.bks.cpg/sg5_6_cif.got.tgz:10563.got - 2010.06.03 18:56:24.
