data_PCOD9129827
_publ_section_title
;
Structure prediction by ZEFSAII (Michael W. Deem and Ramdas Pophale) SiO2 
 PCOD9129827
Probable space group: C 2
;
_chemical_formula_sum "Si O2"
_cell_formula_units_Z 24
_cell_length_a 11.492716
_cell_length_b 10.977469
_cell_length_c 18.131180
_cell_angle_alpha 90.000000
_cell_angle_beta 27.511807
_cell_angle_gamma 90.000000
_cell_volume 1056.643387
_symmetry_space_group_name_H-M "C 2"
_symmetry_group_IT_number 5
_symmetry_cell_setting 'monoclinic'
loop_
_space_group_symop_operation_xyz
x,y,z
-x,y,-z
1/2+x,1/2+y,z
1/2-x,1/2+y,-z
loop_
_atom_site_type_symbol
_atom_site_label
_atom_site_fract_x
_atom_site_fract_y
_atom_site_fract_z
Si Si1 0.024468 0.612500 0.323007
Si Si2 0.757123 0.960879 0.310911
Si Si3 0.181385 0.846702 0.329692
Si Si4 0.914952 0.190143 0.827567
Si Si5 0.425552 0.595311 0.665695
Si Si6 0.003809 0.705899 0.818475
O O1 0.725981 0.588779 0.490456
O O2 0.102948 0.651321 0.197062
O O3 0.172500 0.499880 0.276167
O O4 0.074997 0.728227 0.347668
O O5 0.500000 0.934883 0.500000
O O6 0.948675 0.849912 0.210107
O O7 0.889564 0.079235 0.270638
O O8 0.444667 0.809421 0.219537
O O9 0.000000 0.878600 0.500000
O O10 0.180703 0.957768 0.272868
O O11 0.860725 0.181211 0.771703
O O12 0.674975 0.170633 0.013617
O O13 0.278936 0.651899 0.679526
#
# Coordination Sequence:
#
# PCOD9129827 Si02
#       6
#     4   4   4   4   4   4
#     4  11  23  45  73 104 139 186 248 292 351 439
#     4  11  23  48  78  97 141 200 237 294 359 430
#     4  11  23  44  77 101 138 193 239 298 355 423
#     4  11  25  49  68 105 147 183 238 300 365 426
#     4  12  24  44  71 101 141 189 238 289 358 437
#     4  12  28  42  69 110 146 179 240 301 368 421
#
# _framework density 22.713435
#
# number of rings (size 3 to 8) (size 9 to 14) (size 15 to 20)
#    0.000    0.667    3.333    5.000    4.667    4.000 
#    6.000    0.000    0.000    0.000    0.000    0.000 
#    0.000    0.000    0.000    0.000    0.000    0.000 
#
# Total GULP energy -67135.519105 kJ/mol
# GULP energy per Si atom -5594.626592 kJ/mol
# Density = 2.266174 g / cm^3
# Si number density = 22.713435 Si / 1000 Ang^3
#
#
#
# Elastic Constant Matrix: (Units=GPa)
#
#
# Indices 1 2 3 4 5 6 
#
# 1 110.3867 14.0542 2.4876 0.0008 6.4148 0.0055
# 2 14.0542 70.1786 -13.4340 -0.0086 0.0747 0.0065
# 3 2.4876 -13.4340 64.7051 0.0064 8.1690 -0.0260
# 4 0.0008 -0.0086 0.0064 6.9140 -0.0097 7.4040
# 5 6.4148 0.0747 8.1690 -0.0097 21.1229 0.0165
# 6 0.0055 0.0065 -0.0260 7.4040 0.0165 13.2169
#
#
#
# Elastic Compliance Matrix: (Units=1/GPa)
#
#
# Indices 1 2 3 4 5 6 
#
# 1 0.009478 -0.001978 -0.000434 -0.000016 -0.002704 0.000009
# 2 -0.001978 0.015286 0.003344 0.000035 -0.000747 -0.000019
# 3 -0.000434 0.003344 0.016980 -0.000159 -0.006447 0.000129
# 4 -0.000016 0.000035 -0.000159 0.361497 0.000391 -0.202510
# 5 -0.002704 -0.000747 -0.006447 0.000391 0.050659 -0.000293
# 6 0.000009 -0.000019 0.000129 -0.202510 -0.000293 0.189107
#
#
# Mechanical properties :
#
#
# Convention : Reuss Voigt Hill
#
# Bulk Modulus (GPa) = 22.93155 27.94290 25.43723
# Shear Modulus (GPa) = 7.62568 24.39493 16.01030
#
# Velocity S-wave (km/s) = 1.83429 3.28080 2.65784
# Velocity P-wave (km/s) = 3.82153 5.16532 4.54339
#
# Compressibility (1/GPa) = 0.04360804
#
# Stress axis : x y z
#
# Youngs Moduli (GPa) = 105.50962 65.41742 58.89397
#
# Poissons Ratio (x) = 0.12941 0.02555
# Poissons Ratio (y) = 0.20872 -0.19694
# Poissons Ratio (z) = 0.04577 -0.21876
#
# Static dielectric constant tensor:
#      x y z
#    x 1.855560 0.000000 0.008700 
#    y 0.000000 1.892270 0.000000 
#    z 0.008700 0.000000 1.819940 
# 
# From -- ./inp_files/39094.got.cif
#   From: 2010.05.17/outbox.cif.g08.bks.cpg/sg5_20_cif.got.tgz:39094.got - 2010.06.03 18:56:24.
