data_PCOD9129186
_publ_section_title
;
Structure prediction by ZEFSAII (Michael W. Deem and Ramdas Pophale) SiO2 
 PCOD9129186
Probable space group: C 2
;
_chemical_formula_sum "Si O2"
_cell_formula_units_Z 18
_cell_length_a 10.938078
_cell_length_b 13.488146
_cell_length_c 11.023395
_cell_angle_alpha 90.000000
_cell_angle_beta 28.787265
_cell_angle_gamma 90.000000
_cell_volume 783.173613
_symmetry_space_group_name_H-M "C 2"
_symmetry_group_IT_number 5
_symmetry_cell_setting 'monoclinic'
loop_
_space_group_symop_operation_xyz
x,y,z
-x,y,-z
1/2+x,1/2+y,z
1/2-x,1/2+y,-z
loop_
_atom_site_type_symbol
_atom_site_label
_atom_site_fract_x
_atom_site_fract_y
_atom_site_fract_z
Si Si1 0.837007 0.155500 0.032751
Si Si2 0.261879 0.099910 0.133565
Si Si3 0.000000 0.944989 0.500000
Si Si4 0.822113 0.771287 0.507355
Si Si5 0.233130 0.812098 0.729576
O O1 0.703942 0.097532 0.039305
O O2 0.064989 0.212342 0.762705
O O3 0.599897 0.220410 0.288592
O O4 0.000000 0.108553 0.000000
O O5 0.228520 0.209407 0.223944
O O6 0.047011 0.022719 0.351700
O O7 0.500000 0.058412 0.000000
O O8 0.192608 0.869427 0.397486
O O9 0.827815 0.790068 0.357239
O O10 0.500000 0.867296 0.500000
O O11 0.000000 0.862718 0.000000
#
# Coordination Sequence:
#
# PCOD9129186 Si02
#       5
#     4   4   2   4   4
#     4  12  23  43  68  97 128 182 228 266 317 414
#     4  11  23  42  70  93 134 174 229 262 337 393
#     4  12  26  40  66 102 140 166 218 290 348 374
#     4  12  23  39  66 101 132 169 223 279 327 386
#     4  11  19  39  67  91 120 177 226 255 307 409
#
# _framework density 22.983409999999999
#
# number of rings (size 3 to 8) (size 9 to 14) (size 15 to 20)
#    0.000    0.444   10.000    0.000    3.111    0.000 
#    0.000    1.111    0.000    0.000    0.000    0.000 
#    0.000    0.000    0.000    0.000    0.000    0.000 
#
# Total GULP energy -50105.927054 kJ/mol
# GULP energy per Si atom -5567.325228 kJ/mol
# Density = 2.293110 g / cm^3
# Si number density = 22.983410 Si / 1000 Ang^3
#
#
#
# Elastic Constant Matrix: (Units=GPa)
#
#
# Indices 1 2 3 4 5 6 
#
# 1 158.8883 13.8500 11.9193 -0.0058 13.0962 -0.0202
# 2 13.8500 35.0524 4.4983 -0.0723 9.3071 0.0496
# 3 11.9193 4.4983 141.9018 -0.0484 -3.0296 0.0430
# 4 -0.0058 -0.0723 -0.0484 -6.4370 0.0445 -2.6587
# 5 13.0962 9.3071 -3.0296 0.0445 50.7436 -0.0140
# 6 -0.0202 0.0496 0.0430 -2.6587 -0.0140 -13.8288
#
#
#
# Elastic Compliance Matrix: (Units=1/GPa)
#
#
# Indices 1 2 3 4 5 6 
#
# 1 0.006635 -0.002199 -0.000516 0.000022 -0.001340 -0.000022
# 2 -0.002199 0.030880 -0.000904 -0.000458 -0.005150 0.000204
# 3 -0.000516 -0.000904 0.007135 -0.000050 0.000725 0.000029
# 4 0.000022 -0.000458 -0.000050 -0.168745 0.000232 0.032440
# 5 -0.001340 -0.005150 0.000725 0.000232 0.021040 -0.000080
# 6 -0.000022 0.000204 0.000029 0.032440 -0.000080 -0.078549
#
#
# Mechanical properties :
#
#
# Convention : Reuss Voigt Hill
#
# Bulk Modulus (GPa) = 26.73131 44.04198 35.38664
# Shear Modulus (GPa) = -30.88428 26.46724 -2.20852
#
# Velocity S-wave (km/s) = -3.66972 3.39718 -0.98133
# Velocity P-wave (km/s) = 2.50994 5.88148 3.76112
#
# Compressibility (1/GPa) = 0.03740931
#
# Stress axis : x y z
#
# Youngs Moduli (GPa) = 150.72515 32.38350 140.16200
#
# Poissons Ratio (x) = 0.07123 0.07234
# Poissons Ratio (y) = 0.33151 0.12675
# Poissons Ratio (z) = 0.07780 0.02928
#
# Static dielectric constant tensor:
#      x y z
#    x 2.058000 0.000010 -0.061980 
#    y 0.000010 1.803320 0.000030 
#    z -0.061980 0.000030 2.241090 
# 
# From -- ./inp_files/4623.got.cif
#   From: 2010.05.17/outbox.cif.g08.bks.cpg/sg5_3_cif.got.tgz:4623.got - 2010.06.03 18:56:24.
