data_PCOD9129595
_publ_section_title
;
Structure prediction by ZEFSAII (Michael W. Deem and Ramdas Pophale) SiO2 
 PCOD9129595
Probable space group: C 2
;
_chemical_formula_sum "Si O2"
_cell_formula_units_Z 20
_cell_length_a 9.268150
_cell_length_b 21.192050
_cell_length_c 5.097827
_cell_angle_alpha 90.000000
_cell_angle_beta 122.382854
_cell_angle_gamma 90.000000
_cell_volume 845.560567
_symmetry_space_group_name_H-M "C 2"
_symmetry_group_IT_number 5
_symmetry_cell_setting 'monoclinic'
loop_
_space_group_symop_operation_xyz
x,y,z
-x,y,-z
1/2+x,1/2+y,z
1/2-x,1/2+y,-z
loop_
_atom_site_type_symbol
_atom_site_label
_atom_site_fract_x
_atom_site_fract_y
_atom_site_fract_z
Si Si1 0.851832 0.070110 0.159017
Si Si2 0.186696 0.856266 0.046648
Si Si3 0.500000 0.466450 0.000000
Si Si4 0.000000 0.184994 0.000000
Si Si5 0.500000 0.943498 0.500000
Si Si6 0.000000 0.531391 0.000000
Si Si7 0.183757 0.770465 0.558010
O O1 0.908503 0.137835 0.113567
O O2 0.669279 0.071462 0.114622
O O3 0.000000 0.046675 0.500000
O O4 0.854308 0.018388 0.926110
O O5 0.339432 0.898487 0.301677
O O6 0.160271 0.803745 0.252230
O O7 0.232797 0.821970 0.824522
O O8 0.043403 0.910207 0.835492
O O9 0.154453 0.223668 0.283693
O O10 0.526613 0.986639 0.273475
O O11 0.000000 0.745840 0.500000
#
# Coordination Sequence:
#
# PCOD9129595 Si02
#       7
#     4   4   2   2   2   2   4
#     4  11  27  48  77 105 149 201 245 314 359 444
#     4  12  24  43  74 108 151 188 233 306 373 445
#     4  11  22  44  71 113 146 181 238 294 388 433
#     4  11  30  51  72 106 145 203 260 306 356 431
#     4  12  24  42  70 110 154 186 234 300 362 470
#     4  12  26  45  73 111 145 190 248 292 382 430
#     4  12  26  47  73 107 145 198 249 299 365 437
#
# _framework density 23.652944999999999
#
# number of rings (size 3 to 8) (size 9 to 14) (size 15 to 20)
#    0.000    0.400    4.000    3.600    8.400    1.600 
#    0.000    0.000    0.000    0.000    0.000    0.000 
#    0.000    0.000    0.000    0.000    0.000    0.000 
#
# Total GULP energy -55766.018230 kJ/mol
# GULP energy per Si atom -5576.601823 kJ/mol
# Density = 2.359911 g / cm^3
# Si number density = 23.652945 Si / 1000 Ang^3
#
#
#
# Elastic Constant Matrix: (Units=GPa)
#
#
# Indices 1 2 3 4 5 6 
#
# 1 175.4197 73.8567 63.2956 0.0000 20.8999 0.0000
# 2 73.8567 139.9622 57.1234 0.0000 8.4447 0.0000
# 3 63.2956 57.1234 146.8082 0.0000 -1.0722 0.0000
# 4 0.0000 0.0000 0.0000 18.7676 0.0000 -4.2718
# 5 20.8999 8.4447 -1.0722 0.0000 51.1723 0.0000
# 6 0.0000 0.0000 0.0000 -4.2718 0.0000 70.2508
#
#
#
# Elastic Compliance Matrix: (Units=1/GPa)
#
#
# Indices 1 2 3 4 5 6 
#
# 1 0.008239 -0.003228 -0.002317 0.000000 -0.002881 0.000000
# 2 -0.003228 0.009871 -0.002452 0.000000 -0.000362 0.000000
# 3 -0.002317 -0.002452 0.008776 0.000000 0.001535 0.000000
# 4 0.000000 0.000000 0.000000 0.054031 0.000000 0.003286
# 5 -0.002881 -0.000362 0.001535 0.000000 0.020810 0.000000
# 6 0.000000 0.000000 0.000000 0.003286 0.000000 0.014434
#
#
# Mechanical properties :
#
#
# Convention : Reuss Voigt Hill
#
# Bulk Modulus (GPa) = 91.81276 94.52685 93.16981
# Shear Modulus (GPa) = 36.82270 45.89910 41.36090
#
# Velocity S-wave (km/s) = 3.94990 4.40992 4.18623
# Velocity P-wave (km/s) = 7.72678 8.12285 7.92729
#
# Compressibility (1/GPa) = 0.01089173
#
# Stress axis : x y z
#
# Youngs Moduli (GPa) = 121.37271 101.31067 113.95013
#
# Poissons Ratio (x) = 0.32704 0.26405
# Poissons Ratio (y) = 0.39181 0.27935
# Poissons Ratio (z) = 0.28125 0.24837
#
# Static dielectric constant tensor:
#      x y z
#    x 2.071450 0.000000 0.080370 
#    y 0.000000 1.861770 0.000000 
#    z 0.080370 0.000000 2.000960 
# 
# From -- ./inp_files/2647.got.cif
#   From: 2010.05.17/outbox.cif.g08.bks.cpg/sg5_2_cif.got.tgz:2647.got - 2010.06.03 18:56:24.
