data_PCOD9129300
_publ_section_title
;
Structure prediction by ZEFSAII (Michael W. Deem and Ramdas Pophale) SiO2 
 PCOD9129300
Probable space group: C 2
;
_chemical_formula_sum "Si O2"
_cell_formula_units_Z 32
_cell_length_a 27.001743
_cell_length_b 8.185126
_cell_length_c 14.304423
_cell_angle_alpha 90.000000
_cell_angle_beta 150.660633
_cell_angle_gamma 90.000000
_cell_volume 1549.056342
_symmetry_space_group_name_H-M "C 2"
_symmetry_group_IT_number 5
_symmetry_cell_setting 'monoclinic'
loop_
_space_group_symop_operation_xyz
x,y,z
-x,y,-z
1/2+x,1/2+y,z
1/2-x,1/2+y,-z
loop_
_atom_site_type_symbol
_atom_site_label
_atom_site_fract_x
_atom_site_fract_y
_atom_site_fract_z
Si Si1 0.602724 0.601220 0.715528
Si Si2 0.926861 0.734432 0.800926
Si Si3 0.768994 0.263363 0.400181
Si Si4 0.097356 0.292797 0.895033
Si Si5 0.087868 0.535525 0.416474
Si Si6 0.533078 0.553607 0.236960
Si Si7 0.973915 0.812985 0.299757
Si Si8 0.293854 0.117945 0.898241
O O1 0.500000 0.666616 0.500000
O O2 0.627598 0.693283 0.852914
O O3 0.578487 0.411715 0.702241
O O4 0.692802 0.629995 0.792445
O O5 0.815743 0.762232 0.659739
O O6 0.928118 0.625528 0.709667
O O7 0.968265 0.912386 0.840916
O O8 0.000000 0.661238 0.000000
O O9 0.807719 0.438898 0.425429
O O10 0.865825 0.161533 0.596646
O O11 0.723133 0.176195 0.234280
O O12 0.995143 0.394453 0.704438
O O13 0.064281 0.169874 0.922223
O O14 0.176231 0.428519 0.052876
O O15 0.060834 0.673457 0.449563
O O16 0.525138 0.456723 0.322639
O O17 0.883558 0.723149 0.094123
#
# Coordination Sequence:
#
# PCOD9129300 Si02
#       8
#     4   4   4   4   4   4   4   4
#     4  11  21  37  58  84 116 152 190 239 290 343
#     4  11  21  37  58  84 116 152 190 239 290 343
#     4  11  21  37  60  85 114 153 193 239 290 344
#     4   9  19  37  58  82 112 148 189 236 286 342
#     4   9  19  37  58  82 112 148 189 236 286 342
#     4   9  19  37  56  81 115 147 188 240 286 339
#     4   9  19  37  56  81 115 147 188 240 286 339
#     4  11  21  37  60  85 114 153 193 239 290 344
#
# _framework density 20.657738999999999
#
# number of rings (size 3 to 8) (size 9 to 14) (size 15 to 20)
#    0.000    2.000    0.000    6.000    0.000    0.000 
#    0.000   23.750    0.000    0.000    0.000    0.000 
#    0.000    0.000    0.000    0.000    0.000    0.000 
#
# Total GULP energy -89258.666689 kJ/mol
# GULP energy per Si atom -5578.666668 kJ/mol
# Density = 2.061072 g / cm^3
# Si number density = 20.657739 Si / 1000 Ang^3
#
#
#
# Elastic Constant Matrix: (Units=GPa)
#
#
# Indices 1 2 3 4 5 6 
#
# 1 76.1790 12.7131 6.6441 0.0000 19.6782 0.0000
# 2 12.7131 80.8031 7.6628 0.0000 0.5380 0.0000
# 3 6.6441 7.6628 45.5860 0.0000 4.8779 0.0000
# 4 0.0000 0.0000 0.0000 24.9304 0.0000 6.8350
# 5 19.6782 0.5380 4.8779 0.0000 38.7715 0.0000
# 6 0.0000 0.0000 0.0000 6.8350 0.0000 34.3837
#
#
#
# Elastic Compliance Matrix: (Units=1/GPa)
#
#
# Indices 1 2 3 4 5 6 
#
# 1 0.015607 -0.002304 -0.001058 0.000000 -0.007756 0.000000
# 2 -0.002304 0.012917 -0.001968 0.000000 0.001238 0.000000
# 3 -0.001058 -0.001968 0.022666 0.000000 -0.002288 0.000000
# 4 0.000000 0.000000 0.000000 0.042424 0.000000 -0.008433
# 5 -0.007756 0.001238 -0.002288 0.000000 0.029999 0.000000
# 6 0.000000 0.000000 0.000000 -0.008433 0.000000 0.030760
#
#
# Mechanical properties :
#
#
# Convention : Reuss Voigt Hill
#
# Bulk Modulus (GPa) = 24.67190 28.51203 26.59197
# Shear Modulus (GPa) = 28.00463 31.32033 29.66248
#
# Velocity S-wave (km/s) = 3.68591 3.89801 3.79344
# Velocity P-wave (km/s) = 5.48486 5.83878 5.66458
#
# Compressibility (1/GPa) = 0.04053194
#
# Stress axis : x y z
#
# Youngs Moduli (GPa) = 64.07279 77.41989 44.11844
#
# Poissons Ratio (x) = 0.17835 0.04666
# Poissons Ratio (y) = 0.14760 0.08682
# Poissons Ratio (z) = 0.06776 0.15235
#
# Static dielectric constant tensor:
#      x y z
#    x 1.739300 0.000000 0.007560 
#    y 0.000000 1.764540 0.000000 
#    z 0.007560 0.000000 1.754620 
# 
# From -- ./inp_files/58115.got.cif
#   From: 2010.05.17/outbox.cif.g08.bks.cpg/sg5_30_cif.got.tgz:58115.got - 2010.06.03 18:56:24.
