data_PCOD9129742
_publ_section_title
;
Structure prediction by ZEFSAII (Michael W. Deem and Ramdas Pophale) SiO2 
 PCOD9129742
Probable space group: C 2
;
_chemical_formula_sum "Si O2"
_cell_formula_units_Z 28
_cell_length_a 20.381322
_cell_length_b 9.541507
_cell_length_c 7.459700
_cell_angle_alpha 90.000000
_cell_angle_beta 122.352942
_cell_angle_gamma 90.000000
_cell_volume 1225.484996
_symmetry_space_group_name_H-M "C 2"
_symmetry_group_IT_number 5
_symmetry_cell_setting 'monoclinic'
loop_
_space_group_symop_operation_xyz
x,y,z
-x,y,-z
1/2+x,1/2+y,z
1/2-x,1/2+y,-z
loop_
_atom_site_type_symbol
_atom_site_label
_atom_site_fract_x
_atom_site_fract_y
_atom_site_fract_z
Si Si1 0.000000 0.387640 0.000000
Si Si2 0.691339 0.359757 0.151107
Si Si3 0.908115 0.797409 0.319946
Si Si4 0.554761 0.745284 0.434196
Si Si5 0.000000 0.856575 0.000000
Si Si6 0.847588 0.505774 0.335717
Si Si7 0.621102 0.486002 0.397606
Si Si8 0.128964 0.612429 0.227765
O O1 0.012350 0.296733 0.194077
O O2 0.076818 0.483939 0.080716
O O3 0.766494 0.430509 0.173706
O O4 0.674058 0.449710 0.305225
O O5 0.695920 0.195377 0.217463
O O6 0.618890 0.365767 0.906556
O O7 0.867064 0.880687 0.420625
O O8 0.000000 0.792055 0.500000
O O9 0.933057 0.739997 0.859999
O O10 0.500000 0.671920 0.500000
O O11 0.588733 0.884067 0.575882
O O12 0.622977 0.642705 0.472406
O O13 0.967603 0.964132 0.802673
O O14 0.845796 0.564062 0.538232
O O15 0.875483 0.639221 0.264671
#
# Coordination Sequence:
#
# PCOD9129742 Si02
#       8
#     2   4   4   4   2   4   4   4
#     4   9  21  40  66 102 134 184 244 298 350 432
#     4  11  26  43  73 102 143 193 241 301 365 432
#     4  12  25  45  78 105 139 196 253 297 348 450
#     4  11  25  41  66 107 149 182 234 310 365 420
#     4   9  15  36  68  96 122 174 238 286 326 414
#     4  11  25  46  68 105 146 191 246 296 371 438
#     4  11  23  42  69 104 144 180 242 299 362 423
#     4   9  19  40  69  94 133 184 239 287 353 426
#
# _framework density 22.848096000000002
#
# number of rings (size 3 to 8) (size 9 to 14) (size 15 to 20)
#    0.000    1.429    2.857    3.000    8.000    2.286 
#    0.000    0.000    0.000    0.000    0.000    0.000 
#    0.000    0.000    0.000    0.000    0.000    0.000 
#
# Total GULP energy -78029.285012 kJ/mol
# GULP energy per Si atom -5573.520358 kJ/mol
# Density = 2.279609 g / cm^3
# Si number density = 22.848096 Si / 1000 Ang^3
#
#
#
# Elastic Constant Matrix: (Units=GPa)
#
#
# Indices 1 2 3 4 5 6 
#
# 1 69.6244 11.5338 17.6508 0.0000 11.6906 0.0000
# 2 11.5338 89.0947 15.1265 0.0000 -3.2402 0.0000
# 3 17.6508 15.1265 49.0994 0.0000 -8.6228 0.0000
# 4 0.0000 0.0000 0.0000 14.6839 0.0000 -4.1035
# 5 11.6906 -3.2402 -8.6228 0.0000 31.9588 0.0000
# 6 0.0000 0.0000 0.0000 -4.1035 0.0000 27.0888
#
#
#
# Elastic Compliance Matrix: (Units=1/GPa)
#
#
# Indices 1 2 3 4 5 6 
#
# 1 0.017982 -0.001359 -0.007584 0.000000 -0.008762 0.000000
# 2 -0.001359 0.011948 -0.003036 0.000000 0.000889 0.000000
# 3 -0.007584 -0.003036 0.025679 0.000000 0.009395 0.000000
# 4 0.000000 0.000000 0.000000 0.071112 0.000000 0.010772
# 5 -0.008762 0.000889 0.009395 0.000000 0.037120 0.000000
# 6 0.000000 0.000000 0.000000 0.010772 0.000000 0.038547
#
#
# Mechanical properties :
#
#
# Convention : Reuss Voigt Hill
#
# Bulk Modulus (GPa) = 31.59623 32.93787 32.26705
# Shear Modulus (GPa) = 21.10621 25.64679 23.37650
#
# Velocity S-wave (km/s) = 3.04264 3.35399 3.20211
# Velocity P-wave (km/s) = 5.11883 5.42645 5.27488
#
# Compressibility (1/GPa) = 0.03164934
#
# Stress axis : x y z
#
# Youngs Moduli (GPa) = 55.61147 83.69784 38.94276
#
# Poissons Ratio (x) = 0.11373 0.29536
# Poissons Ratio (y) = 0.07557 0.11824
# Poissons Ratio (z) = 0.42178 0.25412
#
# Static dielectric constant tensor:
#      x y z
#    x 2.061970 0.000000 -0.024990 
#    y 0.000000 1.852910 0.000000 
#    z -0.024990 0.000000 1.837760 
# 
# From -- ./inp_files/9617.got.cif
#   From: 2010.05.17/outbox.cif.g08.bks.cpg/sg5_5_cif.got.tgz:9617.got - 2010.06.03 18:56:24.
