data_PCOD9129588
_publ_section_title
;
Structure prediction by ZEFSAII (Michael W. Deem and Ramdas Pophale) SiO2 
 PCOD9129588
Probable space group: C 2
;
_chemical_formula_sum "Si O2"
_cell_formula_units_Z 32
_cell_length_a 13.343811
_cell_length_b 9.832369
_cell_length_c 12.429984
_cell_angle_alpha 90.000000
_cell_angle_beta 114.916768
_cell_angle_gamma 90.000000
_cell_volume 1479.033334
_symmetry_space_group_name_H-M "C 2"
_symmetry_group_IT_number 5
_symmetry_cell_setting 'monoclinic'
loop_
_space_group_symop_operation_xyz
x,y,z
-x,y,-z
1/2+x,1/2+y,z
1/2-x,1/2+y,-z
loop_
_atom_site_type_symbol
_atom_site_label
_atom_site_fract_x
_atom_site_fract_y
_atom_site_fract_z
Si Si1 0.190645 0.438980 0.718127
Si Si2 0.739786 0.398436 0.470852
Si Si3 0.029482 0.078808 0.395446
Si Si4 0.553892 0.863860 0.329724
Si Si5 0.121594 0.728101 0.602659
Si Si6 0.109417 0.326225 0.110045
Si Si7 0.339092 0.447301 0.196280
Si Si8 0.628338 0.519226 0.035780
O O1 0.223271 0.347506 0.630222
O O2 0.178431 0.588529 0.661520
O O3 0.287679 0.441927 0.848228
O O4 0.070998 0.413897 0.716169
O O5 0.634313 0.495128 0.401708
O O6 0.848966 0.460493 0.580057
O O7 0.693693 0.297349 0.541386
O O8 0.062114 0.234516 0.411036
O O9 0.000000 0.026539 0.500000
O O10 0.917086 0.066003 0.276982
O O11 0.578840 0.810371 0.221423
O O12 0.118085 0.820618 0.710058
O O13 0.000000 0.705398 0.500000
O O14 0.208250 0.434391 0.153126
O O15 0.143271 0.182444 0.068213
O O16 0.000000 0.374916 0.000000
O O17 0.352436 0.463972 0.075170
O O18 0.500000 0.494220 0.000000
#
# Coordination Sequence:
#
# PCOD9129588 Si02
#       8
#     4   4   4   4   4   4   4   4
#     4  12  26  44  67 102 144 182 231 292 352 426
#     4  12  21  41  66 103 133 180 230 288 349 407
#     4  12  22  40  66 101 137 178 237 286 347 424
#     4  12  25  42  66 103 139 183 231 289 353 418
#     4  12  23  44  72 101 141 186 228 291 359 421
#     4  11  22  44  68  97 129 182 230 285 348 413
#     4  12  22  43  71  99 133 181 238 284 356 416
#     4  11  24  42  72  97 132 180 233 290 345 420
#
# _framework density 21.635753000000001
#
# number of rings (size 3 to 8) (size 9 to 14) (size 15 to 20)
#    0.000    0.250    5.000    6.375    0.000    0.000 
#    0.000    0.000    2.750    0.000    0.000    0.000 
#    0.000    0.000    0.000    0.000    0.000    0.000 
#
# Total GULP energy -89332.646509 kJ/mol
# GULP energy per Si atom -5583.290407 kJ/mol
# Density = 2.158651 g / cm^3
# Si number density = 21.635753 Si / 1000 Ang^3
#
#
#
# Elastic Constant Matrix: (Units=GPa)
#
#
# Indices 1 2 3 4 5 6 
#
# 1 149.1208 21.8267 66.2553 0.0000 11.1644 0.0000
# 2 21.8267 37.4593 16.2920 0.0000 -7.9592 0.0000
# 3 66.2553 16.2920 185.3085 0.0000 11.4527 0.0000
# 4 0.0000 0.0000 0.0000 24.0156 0.0000 4.8286
# 5 11.1644 -7.9592 11.4527 0.0000 59.1699 0.0000
# 6 0.0000 0.0000 0.0000 4.8286 0.0000 23.6619
#
#
#
# Elastic Compliance Matrix: (Units=1/GPa)
#
#
# Indices 1 2 3 4 5 6 
#
# 1 0.008609 -0.004245 -0.002600 0.000000 -0.001692 0.000000
# 2 -0.004245 0.030952 -0.001529 0.000000 0.005260 0.000000
# 3 -0.002600 -0.001529 0.006521 0.000000 -0.000977 0.000000
# 4 0.000000 0.000000 0.000000 0.043421 0.000000 -0.008861
# 5 -0.001692 0.005260 -0.000977 0.000000 0.018116 0.000000
# 6 0.000000 0.000000 0.000000 -0.008861 0.000000 0.044070
#
#
# Mechanical properties :
#
#
# Convention : Reuss Voigt Hill
#
# Bulk Modulus (GPa) = 34.09019 64.51518 49.30269
# Shear Modulus (GPa) = 28.05587 39.20378 33.62982
#
# Velocity S-wave (km/s) = 3.60493 4.26137 3.94682
# Velocity P-wave (km/s) = 5.75482 7.35499 6.60355
#
# Compressibility (1/GPa) = 0.02933395
#
# Stress axis : x y z
#
# Youngs Moduli (GPa) = 116.15242 32.30849 153.35228
#
# Poissons Ratio (x) = 0.13715 0.39878
# Poissons Ratio (y) = 0.49307 0.23441
# Poissons Ratio (z) = 0.30204 0.04939
#
# Static dielectric constant tensor:
#      x y z
#    x 1.853640 0.000000 -0.002310 
#    y 0.000000 1.823670 0.000000 
#    z -0.002310 0.000000 1.796760 
# 
# From -- ./inp_files/39440.got.cif
#   From: 2010.05.17/outbox.cif.g08.bks.cpg/sg5_20_cif.got.tgz:39440.got - 2010.06.03 18:56:24.
