data_PCOD9129471
_publ_section_title
;
Structure prediction by ZEFSAII (Michael W. Deem and Ramdas Pophale) SiO2 
 PCOD9129471
Probable space group: C 2
;
_chemical_formula_sum "Si O2"
_cell_formula_units_Z 16
_cell_length_a 22.749964
_cell_length_b 5.849438
_cell_length_c 7.763808
_cell_angle_alpha 90.000000
_cell_angle_beta 145.240973
_cell_angle_gamma 90.000000
_cell_volume 589.034384
_symmetry_space_group_name_H-M "C 2"
_symmetry_group_IT_number 5
_symmetry_cell_setting 'monoclinic'
loop_
_space_group_symop_operation_xyz
x,y,z
-x,y,-z
1/2+x,1/2+y,z
1/2-x,1/2+y,-z
loop_
_atom_site_type_symbol
_atom_site_label
_atom_site_fract_x
_atom_site_fract_y
_atom_site_fract_z
Si Si1 0.611277 0.659410 0.276389
Si Si2 0.392355 0.932794 0.199338
Si Si3 0.664632 0.279279 0.651486
Si Si4 0.346841 0.198233 0.753175
O O1 0.630270 0.531441 0.505945
O O2 0.598669 0.444225 0.112144
O O3 0.725894 0.742287 0.501192
O O4 0.500000 0.774509 0.000000
O O5 0.500000 0.814474 0.500000
O O6 0.384505 0.152549 0.306958
O O7 0.388850 0.029527 0.997157
O O8 0.287856 0.791367 0.972877
O O9 0.642889 0.135685 0.424048
#
# Coordination Sequence:
#
# PCOD9129471 Si02
#       4
#     4   4   4   4
#     4   9  18  38  58  81 112 152 190 227 289 335
#     4  11  22  40  61  86 118 153 192 241 289 337
#     4   9  23  39  56  90 117 148 198 235 283 353
#     4   9  21  39  57  87 118 148 197 235 280 356
#
# _framework density 27.163104000000001
#
# number of rings (size 3 to 8) (size 9 to 14) (size 15 to 20)
#    1.500    1.000    0.000    1.500    3.500    0.000 
#    9.000    1.250    0.000    0.000    0.000    0.000 
#    0.000    0.000    0.000    0.000    0.000    0.000 
#
# Total GULP energy -44720.348134 kJ/mol
# GULP energy per Si atom -5590.043517 kJ/mol
# Density = 2.710128 g / cm^3
# Si number density = 27.163104 Si / 1000 Ang^3
#
#
#
# Elastic Constant Matrix: (Units=GPa)
#
#
# Indices 1 2 3 4 5 6 
#
# 1 151.6764 35.2776 65.3502 0.0000 -7.6281 0.0000
# 2 35.2776 27.8568 22.3136 0.0000 6.5680 0.0000
# 3 65.3502 22.3136 219.4713 0.0000 26.3252 0.0000
# 4 0.0000 0.0000 0.0000 29.2026 0.0000 1.1774
# 5 -7.6281 6.5680 26.3252 0.0000 52.8614 0.0000
# 6 0.0000 0.0000 0.0000 1.1774 0.0000 53.8245
#
#
#
# Elastic Compliance Matrix: (Units=1/GPa)
#
#
# Indices 1 2 3 4 5 6 
#
# 1 0.010849 -0.012806 -0.002454 0.000000 0.004379 0.000000
# 2 -0.012806 0.054667 -0.000754 0.000000 -0.008265 0.000000
# 3 -0.002454 -0.000754 0.005738 0.000000 -0.003118 0.000000
# 4 0.000000 0.000000 0.000000 0.034274 0.000000 -0.000750
# 5 0.004379 -0.008265 -0.003118 0.000000 0.022129 0.000000
# 6 0.000000 0.000000 0.000000 -0.000750 0.000000 0.018595
#
#
# Mechanical properties :
#
#
# Convention : Reuss Voigt Hill
#
# Bulk Modulus (GPa) = 25.49218 71.65416 48.57317
# Shear Modulus (GPa) = 26.12972 45.58191 35.85581
#
# Velocity S-wave (km/s) = 3.10491 4.10088 3.63715
# Velocity P-wave (km/s) = 4.71796 6.98996 5.96316
#
# Compressibility (1/GPa) = 0.03922772
#
# Stress axis : x y z
#
# Youngs Moduli (GPa) = 92.17657 18.29251 174.28965
#
# Poissons Ratio (x) = 0.23425 0.42763
# Poissons Ratio (y) = 1.18039 0.13134
# Poissons Ratio (z) = 0.22616 0.01378
#
# Static dielectric constant tensor:
#      x y z
#    x 2.051030 0.000000 0.000390 
#    y 0.000000 2.284620 0.000000 
#    z 0.000390 0.000000 2.070770 
# 
# From -- ./inp_files/6393.got.cif
#   From: 2010.05.17/outbox.cif.g08.bks.cpg/sg5_4_cif.got.tgz:6393.got - 2010.06.03 18:56:24.
