data_PCOD9129353
_publ_section_title
;
Structure prediction by ZEFSAII (Michael W. Deem and Ramdas Pophale) SiO2 
 PCOD9129353
Probable space group: C 2
;
_chemical_formula_sum "Si O2"
_cell_formula_units_Z 30
_cell_length_a 8.598661
_cell_length_b 29.207379
_cell_length_c 11.396514
_cell_angle_alpha 90.000000
_cell_angle_beta 32.515425
_cell_angle_gamma 90.000000
_cell_volume 1538.492694
_symmetry_space_group_name_H-M "C 2"
_symmetry_group_IT_number 5
_symmetry_cell_setting 'monoclinic'
loop_
_space_group_symop_operation_xyz
x,y,z
-x,y,-z
1/2+x,1/2+y,z
1/2-x,1/2+y,-z
loop_
_atom_site_type_symbol
_atom_site_label
_atom_site_fract_x
_atom_site_fract_y
_atom_site_fract_z
Si Si1 0.241677 0.211070 0.590866
Si Si2 0.079346 0.295797 0.087065
Si Si3 0.649322 0.633844 0.267726
Si Si4 0.816794 0.779295 0.348207
Si Si5 0.500000 0.504913 0.000000
Si Si6 0.181728 0.052704 0.652443
Si Si7 0.748957 0.362859 0.436002
Si Si8 0.917288 0.459822 0.418293
O O1 0.500000 0.188114 0.500000
O O2 0.377332 0.236079 0.392430
O O3 0.118600 0.254306 0.741497
O O4 0.991311 0.177576 0.707673
O O5 0.023041 0.342116 0.194184
O O6 0.405844 0.282016 0.908428
O O7 0.000000 0.302010 0.000000
O O8 0.500000 0.635418 0.500000
O O9 0.494813 0.589908 0.307033
O O10 0.000000 0.632678 0.000000
O O11 0.500000 0.772514 0.500000
O O12 0.810512 0.827693 0.420820
O O13 0.478541 0.536182 0.128317
O O14 0.217934 0.473610 0.167461
O O15 0.500000 0.067205 0.500000
O O16 0.233701 0.006616 0.542665
O O17 0.500000 0.356882 0.500000
O O18 0.775892 0.415148 0.454883
O O19 0.000000 0.448898 0.500000
#
# Coordination Sequence:
#
# PCOD9129353 Si02
#       8
#     4   4   4   4   2   4   4   4
#     4  11  24  43  67  95 126 183 229 280 345 425
#     4  11  21  41  64  89 130 180 228 281 340 414
#     4  12  30  47  71 108 148 179 233 299 359 424
#     4  11  23  39  63  90 132 168 221 284 348 400
#     4   8  18  40  70  94 122 170 236 274 346 424
#     4   9  21  45  72  95 133 181 229 286 351 427
#     4  11  22  37  58  92 130 176 225 277 340 422
#     4   9  20  38  64  92 130 169 226 284 342 411
#
# _framework density 19.499607000000001
#
# number of rings (size 3 to 8) (size 9 to 14) (size 15 to 20)
#    0.000    1.867    2.667    2.000    7.467    5.333 
#    1.200    0.000    0.000    0.000    0.000    0.000 
#    0.000    0.000    0.000    0.000    0.000    0.000 
#
# Total GULP energy -83505.523478 kJ/mol
# GULP energy per Si atom -5567.034899 kJ/mol
# Density = 1.945522 g / cm^3
# Si number density = 19.499607 Si / 1000 Ang^3
#
#
#
# Elastic Constant Matrix: (Units=GPa)
#
#
# Indices 1 2 3 4 5 6 
#
# 1 59.9516 24.7015 23.7532 0.0000 -21.2058 0.0000
# 2 24.7015 103.2039 16.9180 0.0000 -6.2134 0.0000
# 3 23.7532 16.9180 95.4896 0.0000 -15.1228 0.0000
# 4 0.0000 0.0000 0.0000 18.7968 0.0000 -3.4664
# 5 -21.2058 -6.2134 -15.1228 0.0000 20.6528 0.0000
# 6 0.0000 0.0000 0.0000 -3.4664 0.0000 49.3842
#
#
#
# Elastic Compliance Matrix: (Units=1/GPa)
#
#
# Indices 1 2 3 4 5 6 
#
# 1 0.029042 -0.004995 -0.002098 0.000000 0.026781 0.000000
# 2 -0.004995 0.010907 -0.001111 0.000000 -0.002661 0.000000
# 3 -0.002098 -0.001111 0.012213 0.000000 0.006454 0.000000
# 4 0.000000 0.000000 0.000000 0.053898 0.000000 0.003783
# 5 0.026781 -0.002661 0.006454 0.000000 0.079843 0.000000
# 6 0.000000 0.000000 0.000000 0.003783 0.000000 0.020515
#
#
# Mechanical properties :
#
#
# Convention : Reuss Voigt Hill
#
# Bulk Modulus (GPa) = 27.96894 43.26562 35.61728
# Shear Modulus (GPa) = 21.29968 30.65159 25.97563
#
# Velocity S-wave (km/s) = 3.30860 3.96903 3.65377
# Velocity P-wave (km/s) = 5.38240 6.57574 6.00877
#
# Compressibility (1/GPa) = 0.03575395
#
# Stress axis : x y z
#
# Youngs Moduli (GPa) = 34.43267 91.68388 81.87764
#
# Poissons Ratio (x) = 0.45795 0.17178
# Poissons Ratio (y) = 0.17199 0.09099
# Poissons Ratio (z) = 0.07224 0.10189
#
# Static dielectric constant tensor:
#      x y z
#    x 1.700800 0.000000 0.017670 
#    y 0.000000 1.659870 0.000000 
#    z 0.017670 0.000000 1.743400 
# 
# From -- ./inp_files/37598.got.cif
#   From: 2010.05.17/outbox.cif.g08.bks.cpg/sg5_19_cif.got.tgz:37598.got - 2010.06.03 18:56:24.
