data_PCOD9129687
_publ_section_title
;
Structure prediction by ZEFSAII (Michael W. Deem and Ramdas Pophale) SiO2 
 PCOD9129687
Probable space group: C 2
;
_chemical_formula_sum "Si O2"
_cell_formula_units_Z 24
_cell_length_a 8.581217
_cell_length_b 13.636399
_cell_length_c 8.999089
_cell_angle_alpha 90.000000
_cell_angle_beta 83.797128
_cell_angle_gamma 90.000000
_cell_volume 1046.880485
_symmetry_space_group_name_H-M "C 2"
_symmetry_group_IT_number 5
_symmetry_cell_setting 'monoclinic'
loop_
_space_group_symop_operation_xyz
x,y,z
-x,y,-z
1/2+x,1/2+y,z
1/2-x,1/2+y,-z
loop_
_atom_site_type_symbol
_atom_site_label
_atom_site_fract_x
_atom_site_fract_y
_atom_site_fract_z
Si Si1 0.644775 0.263900 0.690748
Si Si2 0.728231 0.010753 0.009216
Si Si3 0.328581 0.316244 0.853541
Si Si4 0.350937 0.854345 0.425121
Si Si5 0.149886 0.199896 0.068164
Si Si6 0.021350 0.547584 0.737970
O O1 0.505594 0.323592 0.783081
O O2 0.706373 0.326991 0.546868
O O3 0.563230 0.156331 0.673263
O O4 0.794985 0.240933 0.780532
O O5 0.610239 0.033161 0.884744
O O6 0.779865 0.900234 0.973317
O O7 0.864254 0.083899 0.940286
O O8 0.655239 0.024346 0.182762
O O9 0.209262 0.314411 0.727047
O O10 0.301365 0.217615 0.947960
O O11 0.500000 0.811907 0.500000
O O12 0.404930 0.965282 0.378175
O O13 0.000000 0.245363 0.000000
#
# Coordination Sequence:
#
# PCOD9129687 Si02
#       6
#     4   4   4   4   4   4
#     4  11  23  45  69  97 132 178 224 268 333 401
#     4   9  20  40  67  98 130 166 226 270 329 387
#     4  11  23  41  71  96 132 176 222 274 325 398
#     4  11  25  42  63  98 135 180 223 268 331 393
#     4  11  23  40  66 103 133 168 216 281 334 387
#     4   9  20  43  67  93 133 178 213 274 331 391
#
# _framework density 22.925253000000001
#
# number of rings (size 3 to 8) (size 9 to 14) (size 15 to 20)
#    0.000    1.667    1.667    2.000    7.000    2.667 
#    0.000    5.000    0.000    0.000    0.000    0.000 
#    0.000    0.000    0.000    0.000    0.000    0.000 
#
# Total GULP energy -66826.785166 kJ/mol
# GULP energy per Si atom -5568.898764 kJ/mol
# Density = 2.287307 g / cm^3
# Si number density = 22.925253 Si / 1000 Ang^3
#
#
#
# Elastic Constant Matrix: (Units=GPa)
#
#
# Indices 1 2 3 4 5 6 
#
# 1 68.1286 3.3515 42.8321 0.0000 9.3351 0.0000
# 2 3.3515 74.2996 51.7166 0.0000 -10.4167 0.0000
# 3 42.8321 51.7166 118.8074 0.0000 -16.9267 0.0000
# 4 0.0000 0.0000 0.0000 27.0932 0.0000 5.8817
# 5 9.3351 -10.4167 -16.9267 0.0000 49.5011 0.0000
# 6 0.0000 0.0000 0.0000 5.8817 0.0000 3.4133
#
#
#
# Elastic Compliance Matrix: (Units=1/GPa)
#
#
# Indices 1 2 3 4 5 6 
#
# 1 0.022901 0.006345 -0.012029 0.000000 -0.007097 0.000000
# 2 0.006345 0.021142 -0.011592 0.000000 -0.000711 0.000000
# 3 -0.012029 -0.011592 0.018686 0.000000 0.006219 0.000000
# 4 0.000000 0.000000 0.000000 0.058969 0.000000 -0.101615
# 5 -0.007097 -0.000711 0.006219 0.000000 0.023517 0.000000
# 6 0.000000 0.000000 0.000000 -0.101615 0.000000 0.468076
#
#
# Mechanical properties :
#
#
# Convention : Reuss Voigt Hill
#
# Bulk Modulus (GPa) = 35.49070 50.78176 43.13623
# Shear Modulus (GPa) = 7.60763 26.89054 17.24908
#
# Velocity S-wave (km/s) = 1.82364 3.42857 2.74598
# Velocity P-wave (km/s) = 4.46641 6.15407 5.37687
#
# Compressibility (1/GPa) = 0.02817640
#
# Stress axis : x y z
#
# Youngs Moduli (GPa) = 43.66563 47.30014 53.51690
#
# Poissons Ratio (x) = -0.30013 0.64378
# Poissons Ratio (y) = -0.27707 0.62036
# Poissons Ratio (z) = 0.52527 0.54829
#
# Static dielectric constant tensor:
#      x y z
#    x 2.044670 0.000000 0.009240 
#    y 0.000000 1.846500 0.000000 
#    z 0.009240 0.000000 1.868410 
# 
# From -- ./inp_files/14938.got.cif
#   From: 2010.05.17/outbox.cif.g08.bks.cpg/sg5_8_cif.got.tgz:14938.got - 2010.06.03 18:56:24.
