data_PCOD9129778
_publ_section_title
;
Structure prediction by ZEFSAII (Michael W. Deem and Ramdas Pophale) SiO2 
 PCOD9129778
Probable space group: C 2
;
_chemical_formula_sum "Si O2"
_cell_formula_units_Z 18
_cell_length_a 18.008661
_cell_length_b 7.148230
_cell_length_c 15.946353
_cell_angle_alpha 90.000000
_cell_angle_beta 23.909771
_cell_angle_gamma 90.000000
_cell_volume 831.984496
_symmetry_space_group_name_H-M "C 2"
_symmetry_group_IT_number 5
_symmetry_cell_setting 'monoclinic'
loop_
_space_group_symop_operation_xyz
x,y,z
-x,y,-z
1/2+x,1/2+y,z
1/2-x,1/2+y,-z
loop_
_atom_site_type_symbol
_atom_site_label
_atom_site_fract_x
_atom_site_fract_y
_atom_site_fract_z
Si Si1 0.060240 0.043190 0.842952
Si Si2 0.500000 0.580666 0.500000
Si Si3 0.805431 0.716881 0.066772
Si Si4 0.691630 0.804219 0.004095
Si Si5 0.441144 0.214329 0.470686
O O1 0.272243 0.093239 0.614189
O O2 0.955765 0.164099 0.881203
O O3 0.000000 0.100491 0.000000
O O4 0.982992 0.834656 0.909377
O O5 0.656155 0.699295 0.294181
O O6 0.402172 0.432639 0.536664
O O7 0.707014 0.808584 0.087829
O O8 0.847251 0.506241 0.995008
O O9 0.888300 0.733443 0.766886
O O10 0.500000 0.132099 0.500000
#
# Coordination Sequence:
#
# PCOD9129778 Si02
#       5
#     4   2   4   4   4
#     4  12  23  41  74 103 136 190 237 285 359 417
#     4   8  20  44  76 100 144 188 232 296 354 418
#     4  11  23  43  73 104 144 186 238 289 359 420
#     4  11  23  46  67 102 149 183 231 306 341 424
#     4   9  20  43  72  95 142 187 229 286 358 412
#
# _framework density 21.635019
#
# number of rings (size 3 to 8) (size 9 to 14) (size 15 to 20)
#    0.667    0.889    4.444    0.000    0.000    4.444 
#    4.000    2.222    0.000    0.000    0.000    0.000 
#    0.000    0.000    0.000    0.000    0.000    0.000 
#
# Total GULP energy -50277.078001 kJ/mol
# GULP energy per Si atom -5586.342000 kJ/mol
# Density = 2.158578 g / cm^3
# Si number density = 21.635019 Si / 1000 Ang^3
#
#
#
# Elastic Constant Matrix: (Units=GPa)
#
#
# Indices 1 2 3 4 5 6 
#
# 1 76.0542 20.0970 47.2602 0.0000 -9.3399 0.0000
# 2 20.0970 121.2723 76.9676 0.0005 -12.5065 -0.0011
# 3 47.2602 76.9676 133.2002 0.0001 -25.0540 -0.0004
# 4 0.0000 0.0005 0.0001 25.5262 -0.0001 11.7398
# 5 -9.3399 -12.5065 -25.0540 -0.0001 28.2505 0.0003
# 6 0.0000 -0.0011 -0.0004 11.7398 0.0003 11.4311
#
#
#
# Elastic Compliance Matrix: (Units=1/GPa)
#
#
# Indices 1 2 3 4 5 6 
#
# 1 0.017063 0.001597 -0.006941 0.000000 0.000193 0.000000
# 2 0.001597 0.013199 -0.008396 -0.000001 -0.001074 0.000002
# 3 -0.006941 -0.008396 0.016432 0.000001 0.008561 -0.000001
# 4 0.000000 -0.000001 0.000001 0.074242 0.000001 -0.076247
# 5 0.000193 -0.001074 0.008561 0.000001 0.042578 -0.000003
# 6 0.000000 0.000002 -0.000001 -0.076247 -0.000003 0.165786
#
#
# Mechanical properties :
#
#
# Convention : Reuss Voigt Hill
#
# Bulk Modulus (GPa) = 52.04121 68.79735 60.41928
# Shear Modulus (GPa) = 13.76718 25.45502 19.61110
#
# Velocity S-wave (km/s) = 2.52531 3.43383 3.01400
# Velocity P-wave (km/s) = 5.71046 6.89853 6.33242
#
# Compressibility (1/GPa) = 0.01921554
#
# Stress axis : x y z
#
# Youngs Moduli (GPa) = 58.60578 75.76464 60.85823
#
# Poissons Ratio (x) = -0.12102 0.42241
# Poissons Ratio (y) = -0.09361 0.51094
# Poissons Ratio (z) = 0.40677 0.63608
#
# Static dielectric constant tensor:
#      x y z
#    x 2.241260 0.000000 0.204870 
#    y 0.000000 1.836290 0.000000 
#    z 0.204870 0.000000 1.820310 
# 
# From -- ./inp_files/62214.got.cif
#   From: 2010.05.17/outbox.cif.g08.bks.cpg/sg5_32_cif.got.tgz:62214.got - 2010.06.03 18:56:24.
