data_PCOD9129389
_publ_section_title
;
Structure prediction by ZEFSAII (Michael W. Deem and Ramdas Pophale) SiO2 
 PCOD9129389
Probable space group: C 2
;
_chemical_formula_sum "Si O2"
_cell_formula_units_Z 32
_cell_length_a 18.114648
_cell_length_b 14.452946
_cell_length_c 13.040123
_cell_angle_alpha 90.000000
_cell_angle_beta 152.735369
_cell_angle_gamma 90.000000
_cell_volume 1563.972564
_symmetry_space_group_name_H-M "C 2"
_symmetry_group_IT_number 5
_symmetry_cell_setting 'monoclinic'
loop_
_space_group_symop_operation_xyz
x,y,z
-x,y,-z
1/2+x,1/2+y,z
1/2-x,1/2+y,-z
loop_
_atom_site_type_symbol
_atom_site_label
_atom_site_fract_x
_atom_site_fract_y
_atom_site_fract_z
Si Si1 0.325623 0.442500 0.790865
Si Si2 0.992577 0.487403 0.705791
Si Si3 0.610820 0.661020 0.553738
Si Si4 0.032420 0.957514 0.424233
Si Si5 0.210979 0.765186 0.397552
Si Si6 0.866095 0.386989 0.751138
Si Si7 0.768304 0.867982 0.949787
Si Si8 0.880761 0.667176 0.046685
O O1 0.340121 0.356609 0.729054
O O2 0.171469 0.499352 0.561421
O O3 0.500000 0.490834 0.000000
O O4 0.291099 0.401397 0.860663
O O5 0.091628 0.581570 0.843628
O O6 0.941435 0.451371 0.755184
O O7 0.102078 0.409055 0.787891
O O8 0.500000 0.713566 0.500000
O O9 0.516486 0.568401 0.407478
O O10 0.660038 0.715885 0.515082
O O11 0.774524 0.637637 0.817562
O O12 0.213898 0.936299 0.615038
O O13 0.000000 0.924016 0.500000
O O14 0.909590 0.912324 0.193379
O O15 0.293007 0.798326 0.603085
O O16 0.055552 0.702731 0.225506
O O17 0.000000 0.365373 0.000000
O O18 0.793604 0.757595 0.985829
#
# Coordination Sequence:
#
# PCOD9129389 Si02
#       8
#     4   4   4   4   4   4   4   4
#     4  11  21  43  70 101 136 177 225 284 348 400
#     4  11  26  41  69 106 137 180 232 286 341 409
#     4  11  23  37  67 103 130 162 231 286 326 399
#     4  11  23  43  65  97 134 174 224 282 343 392
#     4  11  22  40  66 100 129 176 225 281 338 403
#     4  11  22  41  64  94 136 179 224 276 346 408
#     4  12  23  44  71  96 140 180 225 286 344 404
#     4  12  23  43  68  97 137 177 231 274 344 401
#
# _framework density 20.460716999999999
#
# number of rings (size 3 to 8) (size 9 to 14) (size 15 to 20)
#    0.000    0.750    3.750    5.250    3.500    0.000 
#    0.000    3.125    0.000    0.000    0.000    0.000 
#    0.000    0.000    0.000    0.000    0.000    0.000 
#
# Total GULP energy -89493.265255 kJ/mol
# GULP energy per Si atom -5593.329078 kJ/mol
# Density = 2.041415 g / cm^3
# Si number density = 20.460717 Si / 1000 Ang^3
#
#
#
# Elastic Constant Matrix: (Units=GPa)
#
#
# Indices 1 2 3 4 5 6 
#
# 1 128.2144 25.4796 38.6125 0.0000 11.8286 0.0000
# 2 25.4796 75.0891 23.6990 0.0000 -1.2688 0.0000
# 3 38.6125 23.6990 131.0252 0.0000 -8.6736 0.0000
# 4 0.0000 0.0000 0.0000 25.4250 0.0000 1.6969
# 5 11.8286 -1.2688 -8.6736 0.0000 37.4186 0.0000
# 6 0.0000 0.0000 0.0000 1.6969 0.0000 27.5538
#
#
#
# Elastic Compliance Matrix: (Units=1/GPa)
#
#
# Indices 1 2 3 4 5 6 
#
# 1 0.009394 -0.002439 -0.002569 0.000000 -0.003648 0.000000
# 2 -0.002439 0.014757 -0.001895 0.000000 0.000832 0.000000
# 3 -0.002569 -0.001895 0.008918 0.000000 0.002815 0.000000
# 4 0.000000 0.000000 0.000000 0.039494 0.000000 -0.002432
# 5 -0.003648 0.000832 0.002815 0.000000 0.028559 0.000000
# 6 0.000000 0.000000 0.000000 -0.002432 0.000000 0.036442
#
#
# Mechanical properties :
#
#
# Convention : Reuss Voigt Hill
#
# Bulk Modulus (GPa) = 51.91023 56.65675 54.28349
# Shear Modulus (GPa) = 31.68739 34.51533 33.10136
#
# Velocity S-wave (km/s) = 3.93961 4.11165 4.02655
# Velocity P-wave (km/s) = 6.79116 7.09165 6.94303
#
# Compressibility (1/GPa) = 0.01926402
#
# Stress axis : x y z
#
# Youngs Moduli (GPa) = 106.44872 67.76321 112.12853
#
# Poissons Ratio (x) = 0.16524 0.28804
# Poissons Ratio (y) = 0.25958 0.21254
# Poissons Ratio (z) = 0.27345 0.12844
#
# Static dielectric constant tensor:
#      x y z
#    x 1.733880 0.000000 0.031970 
#    y 0.000000 1.731970 0.000000 
#    z 0.031970 0.000000 1.743250 
# 
# From -- ./inp_files/44978.got.cif
#   From: 2010.05.17/outbox.cif.g08.bks.cpg/sg5_23_cif.got.tgz:44978.got - 2010.06.03 18:56:24.
