data_PCOD9129266
_publ_section_title
;
Structure prediction by ZEFSAII (Michael W. Deem and Ramdas Pophale) SiO2 
 PCOD9129266
Probable space group: C 2
;
_chemical_formula_sum "Si O2"
_cell_formula_units_Z 16
_cell_length_a 13.376090
_cell_length_b 8.913689
_cell_length_c 5.112761
_cell_angle_alpha 90.000000
_cell_angle_beta 92.475519
_cell_angle_gamma 90.000000
_cell_volume 609.027165
_symmetry_space_group_name_H-M "C 2"
_symmetry_group_IT_number 5
_symmetry_cell_setting 'monoclinic'
loop_
_space_group_symop_operation_xyz
x,y,z
-x,y,-z
1/2+x,1/2+y,z
1/2-x,1/2+y,-z
loop_
_atom_site_type_symbol
_atom_site_label
_atom_site_fract_x
_atom_site_fract_y
_atom_site_fract_z
Si Si1 0.620372 0.441770 0.683224
Si Si2 0.500000 0.197474 0.000000
Si Si3 0.295303 0.786373 0.826588
Si Si4 0.178069 0.709676 0.323098
Si Si5 0.500000 0.678512 0.000000
O O1 0.572451 0.299882 0.832020
O O2 0.739046 0.444231 0.767056
O O3 0.625365 0.375529 0.391203
O O4 0.556873 0.577732 0.787563
O O5 0.419733 0.121356 0.794766
O O6 0.243013 0.683973 0.595038
O O7 0.413245 0.770200 0.844941
O O8 0.256442 0.744261 0.106653
#
# Coordination Sequence:
#
# PCOD9129266 Si02
#       5
#     4   2   4   4   2
#     4   8  19  35  57  95 122 156 217 255 305 386
#     4   9  14  32  60  79 120 173 188 256 330 345
#     4   9  21  37  52  94 131 158 206 277 296 385
#     4   9  18  36  52  89 136 149 210 265 311 362
#     4  11  20  42  70  93 126 175 214 252 334 369
#
# _framework density 26.271405999999999
#
# number of rings (size 3 to 8) (size 9 to 14) (size 15 to 20)
#    1.500    1.500    0.000    0.750    0.000    1.000 
#   27.000    0.000    0.000    7.500    0.000    0.000 
#    0.000    0.000    0.000    0.000    0.000    0.000 
#
# Total GULP energy -44539.378250 kJ/mol
# GULP energy per Si atom -5567.422281 kJ/mol
# Density = 2.621161 g / cm^3
# Si number density = 26.271406 Si / 1000 Ang^3
#
#
#
# Elastic Constant Matrix: (Units=GPa)
#
#
# Indices 1 2 3 4 5 6 
#
# 1 260.8869 36.5602 65.5410 0.0000 45.4178 0.0000
# 2 36.5602 67.2276 21.7388 0.0000 2.7733 0.0000
# 3 65.5410 21.7388 160.8022 0.0000 0.4821 0.0000
# 4 0.0000 0.0000 0.0000 11.6325 0.0000 12.3455
# 5 45.4178 2.7733 0.4821 0.0000 43.7874 0.0000
# 6 0.0000 0.0000 0.0000 12.3455 0.0000 36.2320
#
#
#
# Elastic Compliance Matrix: (Units=1/GPa)
#
#
# Indices 1 2 3 4 5 6 
#
# 1 0.005624 -0.002184 -0.001980 0.000000 -0.005674 0.000000
# 2 -0.002184 0.016444 -0.001336 0.000000 0.001239 0.000000
# 3 -0.001980 -0.001336 0.007200 0.000000 0.002059 0.000000
# 4 0.000000 0.000000 0.000000 0.134662 0.000000 -0.045884
# 5 -0.005674 0.001239 0.002059 0.000000 0.028621 0.000000
# 6 0.000000 0.000000 0.000000 -0.045884 0.000000 0.043234
#
#
# Mechanical properties :
#
#
# Convention : Reuss Voigt Hill
#
# Bulk Modulus (GPa) = 54.74422 81.84407 68.29415
# Shear Modulus (GPa) = 19.77252 42.66885 31.22069
#
# Velocity S-wave (km/s) = 2.74638 4.03445 3.45104
# Velocity P-wave (km/s) = 5.56237 7.27484 6.47547
#
# Compressibility (1/GPa) = 0.01826677
#
# Stress axis : x y z
#
# Youngs Moduli (GPa) = 177.79799 60.81324 138.88143
#
# Poissons Ratio (x) = 0.13284 0.27500
# Poissons Ratio (y) = 0.38837 0.18561
# Poissons Ratio (z) = 0.35206 0.08127
#
# Static dielectric constant tensor:
#      x y z
#    x 2.169360 0.000000 0.093640 
#    y 0.000000 2.248420 0.000000 
#    z 0.093640 0.000000 2.077910 
# 
# From -- ./inp_files/4347.got.cif
#   From: 2010.05.17/outbox.cif.g08.bks.cpg/sg5_3_cif.got.tgz:4347.got - 2010.06.03 18:56:24.
