data_PCOD9129576
_publ_section_title
;
Structure prediction by ZEFSAII (Michael W. Deem and Ramdas Pophale) SiO2 
 PCOD9129576
Probable space group: C 2
;
_chemical_formula_sum "Si O2"
_cell_formula_units_Z 24
_cell_length_a 16.652329
_cell_length_b 8.507568
_cell_length_c 21.735996
_cell_angle_alpha 90.000000
_cell_angle_beta 158.102216
_cell_angle_gamma 90.000000
_cell_volume 1148.451813
_symmetry_space_group_name_H-M "C 2"
_symmetry_group_IT_number 5
_symmetry_cell_setting 'monoclinic'
loop_
_space_group_symop_operation_xyz
x,y,z
-x,y,-z
1/2+x,1/2+y,z
1/2-x,1/2+y,-z
loop_
_atom_site_type_symbol
_atom_site_label
_atom_site_fract_x
_atom_site_fract_y
_atom_site_fract_z
Si Si1 0.221526 0.542670 0.863374
Si Si2 0.500000 0.833217 0.500000
Si Si3 0.500000 0.312973 0.000000
Si Si4 0.838389 0.097930 0.749851
Si Si5 0.114971 0.806041 0.695566
Si Si6 0.348653 0.898015 0.680116
Si Si7 0.295708 0.097428 0.767672
O O1 0.293490 0.424136 0.860433
O O2 0.155158 0.707125 0.785358
O O3 0.030065 0.469911 0.766120
O O4 0.439871 0.557916 0.058122
O O5 0.590131 0.712898 0.615205
O O6 0.702551 0.947651 0.630044
O O7 0.482694 0.206676 0.927078
O O8 0.682900 0.191516 0.687213
O O9 0.899269 0.223995 0.741309
O O10 0.876178 0.870772 0.514642
O O11 0.261171 0.959077 0.791861
O O12 0.325762 0.012518 0.723366
#
# Coordination Sequence:
#
# PCOD9129576 Si02
#       7
#     4   2   2   4   4   4   4
#     4  12  26  44  70 106 146 187 246 295 369 421
#     4  12  18  42  76 102 136 190 244 286 348 452
#     4  12  26  42  68 108 144 186 240 302 356 438
#     4  11  22  43  74 100 143 193 237 293 367 430
#     4  11  22  48  69 100 143 194 232 294 369 438
#     4  11  26  45  69 107 139 190 242 301 360 425
#     4  11  24  43  73 104 139 186 246 291 361 435
#
# _framework density 20.897698999999999
#
# number of rings (size 3 to 8) (size 9 to 14) (size 15 to 20)
#    0.000    0.667    6.667    1.000    7.000    1.333 
#    3.000    3.333    0.000    0.000    0.000    0.000 
#    0.000    0.000    0.000    0.000    0.000    0.000 
#
# Total GULP energy -67003.124324 kJ/mol
# GULP energy per Si atom -5583.593694 kJ/mol
# Density = 2.085014 g / cm^3
# Si number density = 20.897699 Si / 1000 Ang^3
#
#
#
# Elastic Constant Matrix: (Units=GPa)
#
#
# Indices 1 2 3 4 5 6 
#
# 1 86.3966 60.6087 50.4872 0.0001 20.7324 0.0000
# 2 60.6087 151.7240 52.3562 -0.0003 2.4338 0.0000
# 3 50.4872 52.3562 106.1886 0.0001 12.1117 0.0002
# 4 0.0001 -0.0003 0.0001 49.8281 -0.0001 -13.0795
# 5 20.7324 2.4338 12.1117 -0.0001 28.9812 -0.0002
# 6 0.0000 0.0000 0.0002 -13.0795 -0.0002 44.7746
#
#
#
# Elastic Compliance Matrix: (Units=1/GPa)
#
#
# Indices 1 2 3 4 5 6 
#
# 1 0.023268 -0.006980 -0.006079 0.000000 -0.013518 0.000000
# 2 -0.006980 0.010065 -0.002223 0.000000 0.005077 0.000000
# 3 -0.006079 -0.002223 0.013531 0.000000 -0.001119 0.000000
# 4 0.000000 0.000000 0.000000 0.021736 0.000000 0.006349
# 5 -0.013518 0.005077 -0.001119 0.000000 0.044217 0.000000
# 6 0.000000 0.000000 0.000000 0.006349 0.000000 0.024189
#
#
# Mechanical properties :
#
#
# Convention : Reuss Voigt Hill
#
# Bulk Modulus (GPa) = 61.35184 74.57927 67.96555
# Shear Modulus (GPa) = 28.90132 36.77392 32.83762
#
# Velocity S-wave (km/s) = 3.72289 4.19944 3.96833
# Velocity P-wave (km/s) = 6.92111 7.69929 7.32055
#
# Compressibility (1/GPa) = 0.01629943
#
# Stress axis : x y z
#
# Youngs Moduli (GPa) = 42.97840 99.35600 73.90328
#
# Poissons Ratio (x) = 0.69350 0.44927
# Poissons Ratio (y) = 0.29999 0.16428
# Poissons Ratio (z) = 0.26127 0.22086
#
# Static dielectric constant tensor:
#      x y z
#    x 1.736960 0.000000 -0.047800 
#    y 0.000000 1.785670 0.000000 
#    z -0.047800 0.000000 1.766810 
# 
# From -- ./inp_files/26473.got.cif
#   From: 2010.05.17/outbox.cif.g08.bks.cpg/sg5_14_cif.got.tgz:26473.got - 2010.06.03 18:56:24.
