data_PCOD9129594
_publ_section_title
;
Structure prediction by ZEFSAII (Michael W. Deem and Ramdas Pophale) SiO2 
 PCOD9129594
Probable space group: C 2
;
_chemical_formula_sum "Si O2"
_cell_formula_units_Z 28
_cell_length_a 14.652950
_cell_length_b 10.517652
_cell_length_c 9.119718
_cell_angle_alpha 90.000000
_cell_angle_beta 56.974165
_cell_angle_gamma 90.000000
_cell_volume 1178.391070
_symmetry_space_group_name_H-M "C 2"
_symmetry_group_IT_number 5
_symmetry_cell_setting 'monoclinic'
loop_
_space_group_symop_operation_xyz
x,y,z
-x,y,-z
1/2+x,1/2+y,z
1/2-x,1/2+y,-z
loop_
_atom_site_type_symbol
_atom_site_label
_atom_site_fract_x
_atom_site_fract_y
_atom_site_fract_z
Si Si1 0.796430 0.027030 0.976602
Si Si2 0.647466 0.182916 0.571727
Si Si3 0.640457 0.576075 0.571001
Si Si4 0.884828 0.882311 0.170465
Si Si5 0.950686 0.543621 0.877243
Si Si6 0.974881 0.245130 0.848512
Si Si7 0.124201 0.882002 0.355779
O O1 0.877659 0.147512 0.897174
O O2 0.831817 0.907197 0.842717
O O3 0.812391 0.964349 0.123244
O O4 0.676365 0.073951 0.035613
O O5 0.734488 0.072074 0.493325
O O6 0.670122 0.264591 0.699636
O O7 0.677868 0.272917 0.407544
O O8 0.527322 0.126024 0.701419
O O9 0.580569 0.473633 0.725587
O O10 0.579173 0.704367 0.661019
O O11 0.636627 0.522923 0.412767
O O12 0.000000 0.843212 0.000000
O O13 0.953953 0.393013 0.841458
O O14 0.000000 0.557150 0.000000
O O15 0.000000 0.227829 0.000000
O O16 0.000000 0.850533 0.500000
#
# Coordination Sequence:
#
# PCOD9129594 Si02
#       7
#     4   4   4   4   4   4   4
#     4  12  23  46  74 110 134 191 249 291 354 430
#     4  11  27  44  70 103 151 186 232 296 362 418
#     4  11  22  44  71 101 142 182 237 291 359 411
#     4  11  22  45  75 103 134 191 242 288 350 433
#     4  11  28  45  69 108 152 188 235 295 362 422
#     4  11  23  45  76 104 141 190 243 296 350 433
#     4  11  24  42  71 105 135 183 239 298 350 418
#
# _framework density 23.761209999999998
#
# number of rings (size 3 to 8) (size 9 to 14) (size 15 to 20)
#    0.000    0.857    4.286    2.143    8.000    5.714 
#    0.000    0.000    3.143    0.000    0.000    0.000 
#    0.000    0.000    0.000    0.000    0.000    0.000 
#
# Total GULP energy -78220.726331 kJ/mol
# GULP energy per Si atom -5587.194738 kJ/mol
# Density = 2.370713 g / cm^3
# Si number density = 23.761210 Si / 1000 Ang^3
#
#
#
# Elastic Constant Matrix: (Units=GPa)
#
#
# Indices 1 2 3 4 5 6 
#
# 1 107.3618 20.4326 21.1485 0.0000 -15.9751 0.0000
# 2 20.4326 92.3417 24.9008 0.0000 -0.4165 0.0000
# 3 21.1485 24.9008 62.3095 0.0000 1.6396 0.0000
# 4 0.0000 0.0000 0.0000 36.2677 0.0000 1.5099
# 5 -15.9751 -0.4165 1.6396 0.0000 38.3602 0.0000
# 6 0.0000 0.0000 0.0000 1.5099 0.0000 26.0733
#
#
#
# Elastic Compliance Matrix: (Units=1/GPa)
#
#
# Indices 1 2 3 4 5 6 
#
# 1 0.010936 -0.001529 -0.003224 0.000000 0.004676 0.000000
# 2 -0.001529 0.012356 -0.004410 0.000000 -0.000314 0.000000
# 3 -0.003224 -0.004410 0.018963 0.000000 -0.002201 0.000000
# 4 0.000000 0.000000 0.000000 0.027639 0.000000 -0.001601
# 5 0.004676 -0.000314 -0.002201 0.000000 0.028106 0.000000
# 6 0.000000 0.000000 0.000000 -0.001601 0.000000 0.038446
#
#
# Mechanical properties :
#
#
# Convention : Reuss Voigt Hill
#
# Bulk Modulus (GPa) = 41.79139 43.88630 42.83884
# Shear Modulus (GPa) = 30.72196 33.17565 31.94881
#
# Velocity S-wave (km/s) = 3.59966 3.74064 3.67083
# Velocity P-wave (km/s) = 5.90787 6.09642 6.00289
#
# Compressibility (1/GPa) = 0.02392838
#
# Stress axis : x y z
#
# Youngs Moduli (GPa) = 91.44040 80.93470 52.73295
#
# Poissons Ratio (x) = 0.12379 0.16999
# Poissons Ratio (y) = 0.13986 0.23257
# Poissons Ratio (z) = 0.29477 0.35695
#
# Static dielectric constant tensor:
#      x y z
#    x 1.912290 0.000000 -0.006100 
#    y 0.000000 1.877990 0.000000 
#    z -0.006100 0.000000 1.897490 
# 
# From -- ./inp_files/23527.got.cif
#   From: 2010.05.17/outbox.cif.g08.bks.cpg/sg5_12_cif.got.tgz:23527.got - 2010.06.03 18:56:24.
