data_PCOD9129188
_publ_section_title
;
Structure prediction by ZEFSAII (Michael W. Deem and Ramdas Pophale) SiO2 
 PCOD9129188
Probable space group: C 2
;
_chemical_formula_sum "Si O2"
_cell_formula_units_Z 24
_cell_length_a 13.721755
_cell_length_b 15.094478
_cell_length_c 8.889896
_cell_angle_alpha 90.000000
_cell_angle_beta 139.589852
_cell_angle_gamma 90.000000
_cell_volume 1193.631199
_symmetry_space_group_name_H-M "C 2"
_symmetry_group_IT_number 5
_symmetry_cell_setting 'monoclinic'
loop_
_space_group_symop_operation_xyz
x,y,z
-x,y,-z
1/2+x,1/2+y,z
1/2-x,1/2+y,-z
loop_
_atom_site_type_symbol
_atom_site_label
_atom_site_fract_x
_atom_site_fract_y
_atom_site_fract_z
Si Si1 0.822420 0.375000 0.751113
Si Si2 0.846291 0.693197 0.411912
Si Si3 0.973597 0.588858 0.145364
Si Si4 0.405944 0.920498 0.526602
Si Si5 0.339270 0.535002 0.250794
Si Si6 0.148372 0.030202 0.076033
O O1 0.731292 0.287841 0.687111
O O2 0.835276 0.371900 0.585521
O O3 0.735117 0.458410 0.728468
O O4 0.000000 0.373432 0.000000
O O5 0.730188 0.623881 0.203101
O O6 0.000000 0.692174 0.500000
O O7 0.906921 0.658405 0.646025
O O8 0.000444 0.501602 0.282729
O O9 0.794617 0.605891 0.935109
O O10 0.000000 0.573346 0.000000
O O11 0.500000 0.877733 0.500000
O O12 0.265914 0.961882 0.278879
O O13 0.500000 0.567026 0.500000
O O14 0.377529 0.504702 0.126893
O O15 0.000000 0.029258 0.000000
#
# Coordination Sequence:
#
# PCOD9129188 Si02
#       6
#     4   4   4   4   4   4
#     4  12  23  42  66 100 136 172 215 278 334 389
#     4  11  24  43  65  92 134 176 214 273 341 380
#     4  11  20  42  68  93 126 173 223 270 320 400
#     4  11  19  39  69  93 126 171 221 272 327 384
#     4  12  22  39  68 101 125 173 227 269 317 390
#     4  11  22  38  65  98 128 170 226 268 320 399
#
# _framework density 20.106712999999999
#
# number of rings (size 3 to 8) (size 9 to 14) (size 15 to 20)
#    0.000    0.667    6.667    3.000    2.333    0.000 
#    0.000    5.833    0.000    0.000    0.000    0.000 
#    0.000    0.000    0.000    0.000    0.000    0.000 
#
# Total GULP energy -66827.663008 kJ/mol
# GULP energy per Si atom -5568.971917 kJ/mol
# Density = 2.006095 g / cm^3
# Si number density = 20.106713 Si / 1000 Ang^3
#
#
#
# Elastic Constant Matrix: (Units=GPa)
#
#
# Indices 1 2 3 4 5 6 
#
# 1 137.8447 -6.6256 15.2175 0.0000 -9.7801 0.0000
# 2 -6.6256 19.9117 -15.7910 0.0000 5.2723 0.0000
# 3 15.2175 -15.7910 100.1367 0.0000 -5.7223 0.0000
# 4 0.0000 0.0000 0.0000 11.9579 0.0000 2.8772
# 5 -9.7801 5.2723 -5.7223 0.0000 51.5721 0.0000
# 6 0.0000 0.0000 0.0000 2.8772 0.0000 18.7905
#
#
#
# Elastic Compliance Matrix: (Units=1/GPa)
#
#
# Indices 1 2 3 4 5 6 
#
# 1 0.007503 0.001525 -0.000833 0.000000 0.001175 0.000000
# 2 0.001525 0.058965 0.008794 0.000000 -0.004763 0.000000
# 3 -0.000833 0.008794 0.011512 0.000000 0.000220 0.000000
# 4 0.000000 0.000000 0.000000 0.086826 0.000000 -0.013295
# 5 0.001175 -0.004763 0.000220 0.000000 0.020124 0.000000
# 6 0.000000 0.000000 0.000000 -0.013295 0.000000 0.055254
#
#
# Mechanical properties :
#
#
# Convention : Reuss Voigt Hill
#
# Bulk Modulus (GPa) = 10.31405 27.05497 18.68451
# Shear Modulus (GPa) = 19.72164 34.13689 26.92927
#
# Velocity S-wave (km/s) = 3.13525 4.12489 3.66364
# Velocity P-wave (km/s) = 4.27167 6.01425 5.21624
#
# Compressibility (1/GPa) = 0.09695514
#
# Stress axis : x y z
#
# Youngs Moduli (GPa) = 133.27809 16.95918 86.86355
#
# Poissons Ratio (x) = -0.02587 0.07232
# Poissons Ratio (y) = -0.20330 -0.76392
# Poissons Ratio (z) = 0.11096 -0.14915
#
# Static dielectric constant tensor:
#      x y z
#    x 1.654430 0.000000 0.030560 
#    y 0.000000 1.722030 0.000000 
#    z 0.030560 0.000000 1.724710 
# 
# From -- ./inp_files/21195.got.cif
#   From: 2010.05.17/outbox.cif.g08.bks.cpg/sg5_11_cif.got.tgz:21195.got - 2010.06.03 18:56:24.
