data_PCOD9129212
_publ_section_title
;
Structure prediction by ZEFSAII (Michael W. Deem and Ramdas Pophale) SiO2 
 PCOD9129212
Probable space group: C 2
;
_chemical_formula_sum "Si O2"
_cell_formula_units_Z 20
_cell_length_a 24.637334
_cell_length_b 7.024158
_cell_length_c 5.570342
_cell_angle_alpha 90.000000
_cell_angle_beta 68.425266
_cell_angle_gamma 90.000000
_cell_volume 896.446092
_symmetry_space_group_name_H-M "C 2"
_symmetry_group_IT_number 5
_symmetry_cell_setting 'monoclinic'
loop_
_space_group_symop_operation_xyz
x,y,z
-x,y,-z
1/2+x,1/2+y,z
1/2-x,1/2+y,-z
loop_
_atom_site_type_symbol
_atom_site_label
_atom_site_fract_x
_atom_site_fract_y
_atom_site_fract_z
Si Si1 0.592717 0.441500 0.397268
Si Si2 0.988059 0.156219 0.762514
Si Si3 0.780287 0.266885 0.123730
Si Si4 0.686401 0.423230 0.618383
Si Si5 0.335379 0.141404 0.965333
O O1 0.535705 0.483508 0.653591
O O2 0.574124 0.560861 0.190842
O O3 0.646417 0.509224 0.472988
O O4 0.613671 0.234929 0.276425
O O5 0.000000 0.276894 0.500000
O O6 0.000000 0.244102 0.000000
O O7 0.747748 0.370384 0.399059
O O8 0.804921 0.072377 0.185149
O O9 0.828566 0.415905 0.959031
O O10 0.727776 0.218169 0.027184
O O11 0.659220 0.231868 0.778067
#
# Coordination Sequence:
#
# PCOD9129212 Si02
#       5
#     4   4   4   4   4
#     4   8  20  31  58  82 118 149 198 238 300 350
#     4   8  16  34  58  90 112 148 192 254 294 364
#     4  11  22  33  54  75 123 157 202 235 290 344
#     4  11  20  35  51  83 116 159 197 243 284 353
#     4  11  20  35  51  83 116 159 197 243 284 353
#
# _framework density 22.310320999999998
#
# number of rings (size 3 to 8) (size 9 to 14) (size 15 to 20)
#    1.200    0.800    4.000    1.200    0.000    0.000 
#    0.000    0.000    0.000    0.000    0.000   57.400 
#    0.000    0.000    0.000    0.000    0.000    0.000 
#
# Total GULP energy -55673.460704 kJ/mol
# GULP energy per Si atom -5567.346070 kJ/mol
# Density = 2.225954 g / cm^3
# Si number density = 22.310321 Si / 1000 Ang^3
#
#
#
# Elastic Constant Matrix: (Units=GPa)
#
#
# Indices 1 2 3 4 5 6 
#
# 1 65.0158 2.6261 11.9465 0.0000 8.1543 0.0000
# 2 2.6261 57.2809 -0.1133 0.0000 5.9430 0.0000
# 3 11.9465 -0.1133 84.9027 0.0000 22.8793 0.0000
# 4 0.0000 0.0000 0.0000 18.2994 0.0000 7.9752
# 5 8.1543 5.9430 22.8793 0.0000 47.1888 0.0000
# 6 0.0000 0.0000 0.0000 7.9752 0.0000 -2.5363
#
#
#
# Elastic Compliance Matrix: (Units=1/GPa)
#
#
# Indices 1 2 3 4 5 6 
#
# 1 0.015955 -0.000544 -0.001750 0.000000 -0.001840 0.000000
# 2 -0.000544 0.017746 0.000779 0.000000 -0.002519 0.000000
# 3 -0.001750 0.000779 0.013769 0.000000 -0.006472 0.000000
# 4 0.000000 0.000000 0.000000 0.023054 0.000000 0.072491
# 5 -0.001840 -0.002519 -0.006472 0.000000 0.024964 0.000000
# 6 0.000000 0.000000 0.000000 0.072491 0.000000 -0.166334
#
#
# Mechanical properties :
#
#
# Convention : Reuss Voigt Hill
#
# Bulk Modulus (GPa) = 22.50213 26.23536 24.36875
# Shear Modulus (GPa) = -94.33622 25.43974 -34.44824
#
# Velocity S-wave (km/s) = -6.50964 3.38045 -3.93370
# Velocity P-wave (km/s) = 6.81122 5.19821 3.11218
#
# Compressibility (1/GPa) = 0.04444023
#
# Stress axis : x y z
#
# Youngs Moduli (GPa) = 62.67559 56.35200 72.62461
#
# Poissons Ratio (x) = 0.03066 0.12708
# Poissons Ratio (y) = 0.03410 -0.05657
# Poissons Ratio (z) = 0.10967 -0.04389
#
# Static dielectric constant tensor:
#      x y z
#    x 1.833270 0.000000 -0.003290 
#    y 0.000000 1.795550 0.000000 
#    z -0.003290 0.000000 1.900590 
# 
# From -- ./inp_files/10984.got.cif
#   From: 2010.05.17/outbox.cif.g08.bks.cpg/sg5_6_cif.got.tgz:10984.got - 2010.06.03 18:56:24.
