data_PCOD9129493
_publ_section_title
;
Structure prediction by ZEFSAII (Michael W. Deem and Ramdas Pophale) SiO2 
 PCOD9129493
Probable space group: C 2
;
_chemical_formula_sum "Si O2"
_cell_formula_units_Z 26
_cell_length_a 8.680766
_cell_length_b 19.344987
_cell_length_c 8.915817
_cell_angle_alpha 90.000000
_cell_angle_beta 51.206637
_cell_angle_gamma 90.000000
_cell_volume 1166.954476
_symmetry_space_group_name_H-M "C 2"
_symmetry_group_IT_number 5
_symmetry_cell_setting 'monoclinic'
loop_
_space_group_symop_operation_xyz
x,y,z
-x,y,-z
1/2+x,1/2+y,z
1/2-x,1/2+y,-z
loop_
_atom_site_type_symbol
_atom_site_label
_atom_site_fract_x
_atom_site_fract_y
_atom_site_fract_z
Si Si1 0.452541 0.173470 0.362221
Si Si2 0.633701 0.684646 0.059057
Si Si3 0.531993 0.551001 0.309590
Si Si4 0.203294 0.273886 0.312434
Si Si5 0.881646 0.511311 0.430734
Si Si6 0.657340 0.949898 0.009670
Si Si7 0.000000 0.878247 0.000000
O O1 0.500000 0.201622 0.500000
O O2 0.288013 0.216760 0.375312
O O3 0.386093 0.094742 0.424467
O O4 0.649261 0.171785 0.141258
O O5 0.541996 0.614532 0.187219
O O6 0.657838 0.738445 0.179739
O O7 0.500000 0.706895 0.000000
O O8 0.500000 0.576314 0.500000
O O9 0.349375 0.497792 0.405060
O O10 0.730090 0.507722 0.158605
O O11 0.000000 0.303268 0.500000
O O12 0.372445 0.329851 0.187219
O O13 0.000000 0.485242 0.500000
O O14 0.007859 0.484646 0.216864
O O15 0.833913 0.916539 0.000222
O O16 0.500000 0.908105 0.000000
#
# Coordination Sequence:
#
# PCOD9129493 Si02
#       7
#     4   4   4   4   4   4   2
#     4  11  22  42  70 113 144 184 234 293 374 448
#     4  12  23  40  74 113 151 186 232 298 374 452
#     4  12  24  41  69 110 149 186 230 294 380 448
#     4  12  26  50  73 102 145 191 243 308 367 431
#     4  11  22  40  70 107 149 179 226 297 373 445
#     4  12  27  49  73 103 143 196 251 299 360 433
#     4  12  30  52  74 100 144 198 266 306 354 418
#
# _framework density 22.280218999999999
#
# number of rings (size 3 to 8) (size 9 to 14) (size 15 to 20)
#    0.000    0.308    4.615    6.000    1.077    2.462 
#    2.769    0.000    0.000    0.000    0.000    0.000 
#    0.000    0.000    0.000    0.000    0.000    0.000 
#
# Total GULP energy -72657.588656 kJ/mol
# GULP energy per Si atom -5589.045281 kJ/mol
# Density = 2.222951 g / cm^3
# Si number density = 22.280219 Si / 1000 Ang^3
#
#
#
# Elastic Constant Matrix: (Units=GPa)
#
#
# Indices 1 2 3 4 5 6 
#
# 1 181.0277 37.9723 49.8519 0.0000 10.7084 0.0000
# 2 37.9723 49.7801 18.3833 0.0000 5.8248 0.0000
# 3 49.8519 18.3833 159.8049 0.0000 -12.5482 0.0000
# 4 0.0000 0.0000 0.0000 -4.9562 0.0000 9.6899
# 5 10.7084 5.8248 -12.5482 0.0000 46.4351 0.0000
# 6 0.0000 0.0000 0.0000 9.6899 0.0000 9.4512
#
#
#
# Elastic Compliance Matrix: (Units=1/GPa)
#
#
# Indices 1 2 3 4 5 6 
#
# 1 0.007065 -0.004542 -0.001803 0.000000 -0.001547 0.000000
# 2 -0.004542 0.024424 -0.001585 0.000000 -0.002445 0.000000
# 3 -0.001803 -0.001585 0.007203 0.000000 0.002561 0.000000
# 4 0.000000 0.000000 0.000000 -0.067155 0.000000 0.068852
# 5 -0.001547 -0.002445 0.002561 0.000000 0.022891 0.000000
# 6 0.000000 0.000000 0.000000 0.068852 0.000000 0.035216
#
#
# Mechanical properties :
#
#
# Convention : Reuss Voigt Hill
#
# Bulk Modulus (GPa) = 43.79599 67.00309 55.39954
# Shear Modulus (GPa) = 94.13562 29.14636 61.64099
#
# Velocity S-wave (km/s) = 6.50711 3.62079 5.26558
# Velocity P-wave (km/s) = 8.72675 6.90061 7.86685
#
# Compressibility (1/GPa) = 0.02283314
#
# Stress axis : x y z
#
# Youngs Moduli (GPa) = 141.54784 40.94264 138.82300
#
# Poissons Ratio (x) = 0.18597 0.25027
# Poissons Ratio (y) = 0.64295 0.21999
# Poissons Ratio (z) = 0.25518 0.06488
#
# Static dielectric constant tensor:
#      x y z
#    x 1.947790 0.000000 -0.019480 
#    y 0.000000 1.849580 0.000000 
#    z -0.019480 0.000000 1.810150 
# 
# From -- ./inp_files/16990.got.cif
#   From: 2010.05.17/outbox.cif.g08.bks.cpg/sg5_9_cif.got.tgz:16990.got - 2010.06.03 18:56:24.
