data_PCOD9129708
_publ_section_title
;
Structure prediction by ZEFSAII (Michael W. Deem and Ramdas Pophale) SiO2 
 PCOD9129708
Probable space group: C 2
;
_chemical_formula_sum "Si O2"
_cell_formula_units_Z 20
_cell_length_a 21.394149
_cell_length_b 8.568659
_cell_length_c 15.243491
_cell_angle_alpha 90.000000
_cell_angle_beta 18.336145
_cell_angle_gamma 90.000000
_cell_volume 879.101609
_symmetry_space_group_name_H-M "C 2"
_symmetry_group_IT_number 5
_symmetry_cell_setting 'monoclinic'
loop_
_space_group_symop_operation_xyz
x,y,z
-x,y,-z
1/2+x,1/2+y,z
1/2-x,1/2+y,-z
loop_
_atom_site_type_symbol
_atom_site_label
_atom_site_fract_x
_atom_site_fract_y
_atom_site_fract_z
Si Si1 0.203246 0.029280 0.001769
Si Si2 0.705741 0.343832 0.442898
Si Si3 0.037656 0.568971 0.776659
Si Si4 0.760705 0.803776 0.803840
Si Si5 0.684518 0.723947 0.201777
O O1 0.233183 0.139497 0.045161
O O2 0.188028 0.140774 0.938913
O O3 0.009801 0.925164 0.276356
O O4 0.364983 0.899599 0.761733
O O5 0.832284 0.473103 0.327301
O O6 0.678892 0.173780 0.525313
O O7 0.777094 0.320420 0.248935
O O8 0.878203 0.432340 0.963126
O O9 0.872303 0.703250 0.017424
O O10 0.000000 0.813188 0.500000
O O11 0.500000 0.655698 0.500000
#
# Coordination Sequence:
#
# PCOD9129708 Si02
#       5
#     4   4   4   4   4
#     4  11  24  41  66  99 132 170 217 264 324 390
#     4  11  25  44  66  95 133 173 215 270 322 383
#     4  11  23  42  65  92 128 171 217 262 320 382
#     4  12  24  42  67  95 130 172 216 269 326 383
#     4  11  23  41  67  99 133 170 214 269 323 384
#
# _framework density 22.750498
#
# number of rings (size 3 to 8) (size 9 to 14) (size 15 to 20)
#    0.000    0.800    0.000    9.000    0.000    1.600 
#    0.000    8.000    0.000    0.000    0.000    0.000 
#    0.000    0.000    0.000    0.000    0.000    0.000 
#
# Total GULP energy -55714.538792 kJ/mol
# GULP energy per Si atom -5571.453879 kJ/mol
# Density = 2.269872 g / cm^3
# Si number density = 22.750498 Si / 1000 Ang^3
#
#
#
# Elastic Constant Matrix: (Units=GPa)
#
#
# Indices 1 2 3 4 5 6 
#
# 1 116.5921 76.5455 45.2396 0.0000 14.3197 0.0000
# 2 76.5455 163.0198 24.5910 -0.0001 32.1880 0.0000
# 3 45.2396 24.5910 67.5047 -0.0001 9.6081 0.0001
# 4 0.0000 -0.0001 -0.0001 25.6469 0.0001 -4.4112
# 5 14.3197 32.1880 9.6081 0.0001 33.9059 -0.0001
# 6 0.0000 0.0000 0.0001 -4.4112 -0.0001 45.4182
#
#
#
# Elastic Compliance Matrix: (Units=1/GPa)
#
#
# Indices 1 2 3 4 5 6 
#
# 1 0.016012 -0.006605 -0.008601 0.000000 0.001945 0.000000
# 2 -0.006605 0.010490 0.001694 0.000000 -0.007649 0.000000
# 3 -0.008601 0.001694 0.020500 0.000000 -0.003784 0.000000
# 4 0.000000 0.000000 0.000000 0.039654 0.000000 0.003851
# 5 0.001945 -0.007649 -0.003784 0.000000 0.037006 0.000000
# 6 0.000000 0.000000 0.000000 0.003851 0.000000 0.022392
#
#
# Mechanical properties :
#
#
# Convention : Reuss Voigt Hill
#
# Bulk Modulus (GPa) = 50.05837 71.09654 60.57745
# Shear Modulus (GPa) = 27.81840 34.37691 31.09765
#
# Velocity S-wave (km/s) = 3.50059 3.89143 3.70117
# Velocity P-wave (km/s) = 6.19595 7.17700 6.70444
#
# Compressibility (1/GPa) = 0.01997668
#
# Stress axis : x y z
#
# Youngs Moduli (GPa) = 62.45427 95.32536 48.78092
#
# Poissons Ratio (x) = 0.62961 0.41958
# Poissons Ratio (y) = 0.41250 -0.08262
# Poissons Ratio (z) = 0.53719 -0.16145
#
# Static dielectric constant tensor:
#      x y z
#    x 1.889220 0.000000 -0.048410 
#    y 0.000000 1.953830 0.000000 
#    z -0.048410 0.000000 1.932500 
# 
# From -- ./inp_files/18247.got.cif
#   From: 2010.05.17/outbox.cif.g08.bks.cpg/sg5_10_cif.got.tgz:18247.got - 2010.06.03 18:56:24.
