data_PCOD9129876
_publ_section_title
;
Structure prediction by ZEFSAII (Michael W. Deem and Ramdas Pophale) SiO2 
 PCOD9129876
Probable space group: C 2
;
_chemical_formula_sum "Si O2"
_cell_formula_units_Z 30
_cell_length_a 20.244239
_cell_length_b 11.978167
_cell_length_c 11.289306
_cell_angle_alpha 90.000000
_cell_angle_beta 152.077282
_cell_angle_gamma 90.000000
_cell_volume 1281.931603
_symmetry_space_group_name_H-M "C 2"
_symmetry_group_IT_number 5
_symmetry_cell_setting 'monoclinic'
loop_
_space_group_symop_operation_xyz
x,y,z
-x,y,-z
1/2+x,1/2+y,z
1/2-x,1/2+y,-z
loop_
_atom_site_type_symbol
_atom_site_label
_atom_site_fract_x
_atom_site_fract_y
_atom_site_fract_z
Si Si1 0.211433 0.327750 0.136855
Si Si2 0.000000 0.040795 0.000000
Si Si3 0.662308 0.117388 0.786927
Si Si4 0.178626 0.925106 0.084305
Si Si5 0.802481 0.227784 0.629725
Si Si6 0.742096 0.585298 0.795037
Si Si7 0.987282 0.724593 0.113320
Si Si8 0.412453 0.782173 0.557913
O O1 0.070786 0.318267 0.833886
O O2 0.311971 0.233030 0.242045
O O3 0.166848 0.294304 0.200569
O O4 0.273960 0.452391 0.233966
O O5 0.096034 0.123203 0.228960
O O6 0.109217 0.978917 0.090184
O O7 0.500000 0.084325 0.500000
O O8 0.780039 0.028009 0.931336
O O9 0.700887 0.123751 0.986289
O O10 0.327148 0.864134 0.338413
O O11 0.069157 0.823065 0.889862
O O12 0.642526 0.188622 0.393930
O O13 0.828032 0.293684 0.549159
O O14 0.612885 0.659602 0.540245
O O15 0.875136 0.625346 0.926822
O O16 0.000000 0.770319 0.000000
#
# Coordination Sequence:
#
# PCOD9129876 Si02
#       8
#     4   2   4   4   4   4   4   4
#     4  12  27  47  71 111 153 204 256 318 393 463
#     4  12  22  40  70 110 144 196 242 308 380 456
#     4  12  27  52  74 106 153 208 261 316 390 479
#     4  11  23  46  76 104 146 200 260 312 386 460
#     4  12  22  43  70 109 156 186 246 317 392 462
#     4  11  28  47  75 112 148 204 260 322 391 467
#     4  11  23  47  73 111 145 193 256 321 385 458
#     4  11  24  47  73 113 148 196 256 320 389 461
#
# _framework density 23.402184999999999
#
# number of rings (size 3 to 8) (size 9 to 14) (size 15 to 20)
#    0.000    0.533    6.000    1.600    5.600    4.800 
#    2.400    0.000    0.000    0.000    0.000    0.000 
#    0.000    0.000    0.000    0.000    0.000    0.000 
#
# Total GULP energy -83787.241956 kJ/mol
# GULP energy per Si atom -5585.816130 kJ/mol
# Density = 2.334892 g / cm^3
# Si number density = 23.402185 Si / 1000 Ang^3
#
#
#
# Elastic Constant Matrix: (Units=GPa)
#
#
# Indices 1 2 3 4 5 6 
#
# 1 81.6698 31.6519 -2.1713 0.0000 -13.0013 0.0000
# 2 31.6519 132.5839 11.4697 0.0000 -1.4692 0.0000
# 3 -2.1713 11.4697 76.9182 0.0000 5.6694 0.0000
# 4 0.0000 0.0000 0.0000 36.8526 0.0000 -6.3904
# 5 -13.0013 -1.4692 5.6694 0.0000 37.2654 0.0000
# 6 0.0000 0.0000 0.0000 -6.3904 0.0000 33.6072
#
#
#
# Elastic Compliance Matrix: (Units=1/GPa)
#
#
# Indices 1 2 3 4 5 6 
#
# 1 0.014347 -0.003421 0.000562 0.000000 0.004785 0.000000
# 2 -0.003421 0.008465 -0.001310 0.000000 -0.000660 0.000000
# 3 0.000562 -0.001310 0.013351 0.000000 -0.001887 0.000000
# 4 0.000000 0.000000 0.000000 0.028060 0.000000 0.005336
# 5 0.004785 -0.000660 -0.001887 0.000000 0.028765 0.000000
# 6 0.000000 0.000000 0.000000 0.005336 0.000000 0.030770
#
#
# Mechanical properties :
#
#
# Convention : Reuss Voigt Hill
#
# Bulk Modulus (GPa) = 35.93749 41.45252 38.69500
# Shear Modulus (GPa) = 35.36806 38.22649 36.79727
#
# Velocity S-wave (km/s) = 3.89178 4.04599 3.96963
# Velocity P-wave (km/s) = 5.96527 6.29113 6.13036
#
# Compressibility (1/GPa) = 0.02782609
#
# Stress axis : x y z
#
# Youngs Moduli (GPa) = 69.70189 118.13301 74.90007
#
# Poissons Ratio (x) = 0.40409 -0.04212
# Poissons Ratio (y) = 0.23843 0.09813
# Poissons Ratio (z) = -0.03920 0.15477
#
# Static dielectric constant tensor:
#      x y z
#    x 1.801210 0.000000 0.030190 
#    y 0.000000 1.919270 0.000000 
#    z 0.030190 0.000000 1.867210 
# 
# From -- ./inp_files/46509.got.cif
#   From: 2010.05.17/outbox.cif.g08.bks.cpg/sg5_24_cif.got.tgz:46509.got - 2010.06.03 18:56:24.
