data_PCOD9129606
_publ_section_title
;
Structure prediction by ZEFSAII (Michael W. Deem and Ramdas Pophale) SiO2 
 PCOD9129606
Probable space group: C 2
;
_chemical_formula_sum "Si O2"
_cell_formula_units_Z 22
_cell_length_a 12.312031
_cell_length_b 12.921479
_cell_length_c 9.820763
_cell_angle_alpha 90.000000
_cell_angle_beta 38.682553
_cell_angle_gamma 90.000000
_cell_volume 976.496374
_symmetry_space_group_name_H-M "C 2"
_symmetry_group_IT_number 5
_symmetry_cell_setting 'monoclinic'
loop_
_space_group_symop_operation_xyz
x,y,z
-x,y,-z
1/2+x,1/2+y,z
1/2-x,1/2+y,-z
loop_
_atom_site_type_symbol
_atom_site_label
_atom_site_fract_x
_atom_site_fract_y
_atom_site_fract_z
Si Si1 0.353809 0.500000 0.975349
Si Si2 0.207857 0.685932 0.279912
Si Si3 0.465190 0.058388 0.882652
Si Si4 0.292810 0.281427 0.010290
Si Si5 0.000000 0.243425 0.500000
Si Si6 0.179460 0.128934 0.558322
O O1 0.510607 0.562112 0.755760
O O2 0.286242 0.572416 0.164465
O O3 0.187704 0.496088 0.038709
O O4 0.405684 0.381263 0.937939
O O5 0.289909 0.708848 0.346898
O O6 0.000000 0.681235 0.500000
O O7 0.243367 0.759734 0.115349
O O8 0.645077 0.062547 0.624843
O O9 0.500000 0.022046 0.000000
O O10 0.392270 0.176356 0.954278
O O11 0.117378 0.296265 0.269839
O O12 0.861238 0.179232 0.546948
#
# Coordination Sequence:
#
# PCOD9129606 Si02
#       6
#     4   4   4   4   2   4
#     4  11  25  45  68 106 135 179 240 282 343 417
#     4  11  23  47  70  98 145 183 222 292 349 404
#     4  11  22  45  67  98 145 183 223 286 347 407
#     4  11  25  46  69 105 142 175 240 284 342 422
#     4  12  24  44  76  96 140 192 230 278 356 412
#     4  12  22  46  75  95 141 190 225 285 353 409
#
# _framework density 22.529523000000001
#
# number of rings (size 3 to 8) (size 9 to 14) (size 15 to 20)
#    0.000    0.727    9.091    0.545    1.273    1.455 
#   11.455    0.000    0.000    0.000    0.000    0.000 
#    0.000    0.000    0.000    0.000    0.000    0.000 
#
# Total GULP energy -61427.000151 kJ/mol
# GULP energy per Si atom -5584.272741 kJ/mol
# Density = 2.247825 g / cm^3
# Si number density = 22.529523 Si / 1000 Ang^3
#
#
#
# Elastic Constant Matrix: (Units=GPa)
#
#
# Indices 1 2 3 4 5 6 
#
# 1 150.3359 -3.3451 31.6538 0.0000 13.9229 -0.0001
# 2 -3.3451 67.9934 9.0617 0.0000 11.2942 0.0000
# 3 31.6538 9.0617 161.7418 -0.0001 7.8786 0.0000
# 4 0.0000 0.0000 -0.0001 11.2145 0.0000 -4.9443
# 5 13.9229 11.2942 7.8786 0.0000 37.5587 0.0000
# 6 -0.0001 0.0000 0.0000 -4.9443 0.0000 -4.3091
#
#
#
# Elastic Compliance Matrix: (Units=1/GPa)
#
#
# Indices 1 2 3 4 5 6 
#
# 1 0.007203 0.000978 -0.001334 0.000000 -0.002684 0.000000
# 2 0.000978 0.015681 -0.000831 0.000000 -0.004904 0.000000
# 3 -0.001334 -0.000831 0.006521 0.000000 -0.000624 0.000000
# 4 0.000000 0.000000 0.000000 0.059215 0.000000 -0.067944
# 5 -0.002684 -0.004904 -0.000624 0.000000 0.029225 0.000000
# 6 0.000000 0.000000 0.000000 -0.067944 0.000000 -0.154108
#
#
# Mechanical properties :
#
#
# Convention : Reuss Voigt Hill
#
# Bulk Modulus (GPa) = 36.99482 50.53466 43.76474
# Shear Modulus (GPa) = -200.96348 31.73955 -84.61197
#
# Velocity S-wave (km/s) = -9.45482 3.75747 -6.13495
# Velocity P-wave (km/s) = 10.13585 6.42681 5.54218
#
# Compressibility (1/GPa) = 0.02703081
#
# Stress axis : x y z
#
# Youngs Moduli (GPa) = 138.83182 63.77265 153.35926
#
# Poissons Ratio (x) = -0.06237 0.20453
# Poissons Ratio (y) = -0.13578 0.12745
# Poissons Ratio (z) = 0.18516 0.05300
#
# Static dielectric constant tensor:
#      x y z
#    x 1.872210 0.000000 0.012370 
#    y 0.000000 1.843970 0.000000 
#    z 0.012370 0.000000 1.844500 
# 
# From -- ./inp_files/42870.got.cif
#   From: 2010.05.17/outbox.cif.g08.bks.cpg/sg5_22_cif.got.tgz:42870.got - 2010.06.03 18:56:24.
