data_PCOD9129276
_publ_section_title
;
Structure prediction by ZEFSAII (Michael W. Deem and Ramdas Pophale) SiO2 
 PCOD9129276
Probable space group: C 2
;
_chemical_formula_sum "Si O2"
_cell_formula_units_Z 28
_cell_length_a 13.864496
_cell_length_b 12.335610
_cell_length_c 8.823718
_cell_angle_alpha 90.000000
_cell_angle_beta 125.983473
_cell_angle_gamma 90.000000
_cell_volume 1221.138629
_symmetry_space_group_name_H-M "C 2"
_symmetry_group_IT_number 5
_symmetry_cell_setting 'monoclinic'
loop_
_space_group_symop_operation_xyz
x,y,z
-x,y,-z
1/2+x,1/2+y,z
1/2-x,1/2+y,-z
loop_
_atom_site_type_symbol
_atom_site_label
_atom_site_fract_x
_atom_site_fract_y
_atom_site_fract_z
Si Si1 0.553682 0.153940 0.396712
Si Si2 0.640859 0.895837 0.160940
Si Si3 0.895926 0.169450 0.010341
Si Si4 0.177982 0.588536 0.981298
Si Si5 0.699804 0.259658 0.263836
Si Si6 0.431554 0.632725 0.581761
Si Si7 0.748853 0.478017 0.425957
O O1 0.500000 0.206419 0.500000
O O2 0.446503 0.086257 0.221463
O O3 0.608478 0.229922 0.315984
O O4 0.658671 0.070686 0.537400
O O5 0.686865 0.918100 0.372008
O O6 0.500000 0.912554 0.000000
O O7 0.660047 0.772938 0.125630
O O8 0.699342 0.986157 0.108635
O O9 0.973322 0.199011 0.230401
O O10 0.788669 0.098547 0.971089
O O11 0.000000 0.122529 0.000000
O O12 0.169274 0.694542 0.082999
O O13 0.826530 0.210210 0.430074
O O14 0.714615 0.388220 0.271729
O O15 0.500000 0.587396 0.500000
O O16 0.367009 0.538343 0.615629
#
# Coordination Sequence:
#
# PCOD9129276 Si02
#       7
#     4   4   4   4   4   4   4
#     4  11  26  43  72 102 136 175 235 290 340 409
#     4  11  20  44  72  98 136 187 231 275 353 416
#     4  11  26  42  68 101 137 182 233 283 338 412
#     4  12  23  47  72 101 141 186 229 291 345 418
#     4  11  23  44  71 100 139 180 231 283 345 416
#     4  11  22  45  68 101 141 181 226 284 347 413
#     4  11  24  42  73  99 139 182 230 285 347 409
#
# _framework density 22.92942
#
# number of rings (size 3 to 8) (size 9 to 14) (size 15 to 20)
#    0.000    0.857    5.714    2.143    6.000    2.286 
#    2.571    0.000    0.000    0.000    0.000    0.000 
#    0.000    0.000    0.000    0.000    0.000    0.000 
#
# Total GULP energy -78308.715628 kJ/mol
# GULP energy per Si atom -5593.479688 kJ/mol
# Density = 2.287723 g / cm^3
# Si number density = 22.929420 Si / 1000 Ang^3
#
#
#
# Elastic Constant Matrix: (Units=GPa)
#
#
# Indices 1 2 3 4 5 6 
#
# 1 145.3975 41.5310 12.8552 0.0000 -7.0098 0.0000
# 2 41.5310 78.1861 5.2992 0.0000 -6.4270 0.0000
# 3 12.8552 5.2992 76.1791 0.0000 -9.0361 0.0000
# 4 0.0000 0.0000 0.0000 34.1007 0.0000 -0.6126
# 5 -7.0098 -6.4270 -9.0361 0.0000 22.7866 0.0000
# 6 0.0000 0.0000 0.0000 -0.6126 0.0000 11.0129
#
#
#
# Elastic Compliance Matrix: (Units=1/GPa)
#
#
# Indices 1 2 3 4 5 6 
#
# 1 0.008215 -0.004219 -0.000980 0.000000 0.000948 0.000000
# 2 -0.004219 0.015279 0.000007 0.000000 0.003014 0.000000
# 3 -0.000980 0.000007 0.013911 0.000000 0.005217 0.000000
# 4 0.000000 0.000000 0.000000 0.029354 0.000000 0.001633
# 5 0.000948 0.003014 0.005217 0.000000 0.047096 0.000000
# 6 0.000000 0.000000 0.000000 0.001633 0.000000 0.090893
#
#
# Mechanical properties :
#
#
# Convention : Reuss Voigt Hill
#
# Bulk Modulus (GPa) = 37.01162 46.57041 41.79101
# Shear Modulus (GPa) = 22.30744 29.58519 25.94631
#
# Velocity S-wave (km/s) = 3.12248 3.59593 3.36754
# Velocity P-wave (km/s) = 5.40152 6.13151 5.77805
#
# Compressibility (1/GPa) = 0.02701854
#
# Stress axis : x y z
#
# Youngs Moduli (GPa) = 121.72376 65.45114 71.88715
#
# Poissons Ratio (x) = 0.27617 0.07047
# Poissons Ratio (y) = 0.51360 -0.00048
# Poissons Ratio (z) = 0.11933 -0.00044
#
# Static dielectric constant tensor:
#      x y z
#    x 1.860820 0.000000 -0.047030 
#    y 0.000000 1.873700 0.000000 
#    z -0.047030 0.000000 1.903080 
# 
# From -- ./inp_files/23724.got.cif
#   From: 2010.05.17/outbox.cif.g08.bks.cpg/sg5_12_cif.got.tgz:23724.got - 2010.06.03 18:56:24.
