data_PCOD9129328
_publ_section_title
;
Structure prediction by ZEFSAII (Michael W. Deem and Ramdas Pophale) SiO2 
 PCOD9129328
Probable space group: C 2
;
_chemical_formula_sum "Si O2"
_cell_formula_units_Z 28
_cell_length_a 16.257309
_cell_length_b 7.618704
_cell_length_c 23.327335
_cell_angle_alpha 90.000000
_cell_angle_beta 25.404264
_cell_angle_gamma 90.000000
_cell_volume 1239.522938
_symmetry_space_group_name_H-M "C 2"
_symmetry_group_IT_number 5
_symmetry_cell_setting 'monoclinic'
loop_
_space_group_symop_operation_xyz
x,y,z
-x,y,-z
1/2+x,1/2+y,z
1/2-x,1/2+y,-z
loop_
_atom_site_type_symbol
_atom_site_label
_atom_site_fract_x
_atom_site_fract_y
_atom_site_fract_z
Si Si1 0.502145 0.400070 0.157820
Si Si2 0.134452 0.744631 0.269178
Si Si3 0.692718 0.723950 0.515895
Si Si4 0.815255 0.580024 0.884529
Si Si5 0.043802 0.947092 0.532156
Si Si6 0.594565 0.739338 0.703965
Si Si7 0.098232 0.435610 0.377464
O O1 0.608922 0.240292 0.123131
O O2 0.465134 0.567934 0.222913
O O3 0.295741 0.333210 0.265584
O O4 0.627771 0.486264 0.028330
O O5 0.912203 0.762421 0.390152
O O6 0.136600 0.913272 0.311714
O O7 0.223355 0.672157 0.153667
O O8 0.168224 0.599627 0.296199
O O9 0.690905 0.556605 0.477046
O O10 0.587913 0.690129 0.641402
O O11 0.566797 0.858858 0.559498
O O12 0.965639 0.415175 0.791857
O O13 0.180889 0.786025 0.426179
O O14 0.000000 0.040493 0.500000
O O15 0.000000 0.464221 0.500000
#
# Coordination Sequence:
#
# PCOD9129328 Si02
#       7
#     4   4   4   4   4   4   4
#     4  12  27  45  75 100 138 189 241 294 347 420
#     4  11  21  42  64  94 138 180 222 282 349 421
#     4  11  21  39  67  99 139 175 222 281 352 416
#     4  12  24  46  70  98 138 192 239 285 355 424
#     4  11  22  37  66 105 137 173 227 293 348 413
#     4  11  23  46  66  99 140 185 234 282 358 425
#     4  12  24  41  66 106 137 174 236 291 348 409
#
# _framework density 22.589335999999999
#
# number of rings (size 3 to 8) (size 9 to 14) (size 15 to 20)
#    0.000    0.571    4.286    6.000    2.000    0.571 
#    0.000    0.000    0.000    0.000    0.000    0.000 
#    0.000    0.000    0.000    0.000    0.000    0.000 
#
# Total GULP energy -78039.004668 kJ/mol
# GULP energy per Si atom -5574.214619 kJ/mol
# Density = 2.253792 g / cm^3
# Si number density = 22.589336 Si / 1000 Ang^3
#
#
#
# Elastic Constant Matrix: (Units=GPa)
#
#
# Indices 1 2 3 4 5 6 
#
# 1 104.1825 12.7491 45.0464 -0.0003 25.4616 0.0007
# 2 12.7491 78.7170 26.2197 -0.0001 2.5944 -0.0044
# 3 45.0464 26.2197 110.8096 -0.0004 20.8480 -0.0088
# 4 -0.0003 -0.0001 -0.0004 38.5741 0.0000 -14.1027
# 5 25.4616 2.5944 20.8480 0.0000 32.1883 0.0032
# 6 0.0007 -0.0044 -0.0088 -14.1027 0.0032 431.7133
#
#
#
# Elastic Compliance Matrix: (Units=1/GPa)
#
#
# Indices 1 2 3 4 5 6 
#
# 1 0.013246 -0.000640 -0.003726 0.000000 -0.008013 0.000000
# 2 -0.000640 0.013858 -0.003307 0.000000 0.001531 0.000000
# 3 -0.003726 -0.003307 0.012204 0.000000 -0.004691 0.000000
# 4 0.000000 0.000000 0.000000 0.026237 0.000000 0.000857
# 5 -0.008013 0.001531 -0.004691 0.000000 0.040321 0.000000
# 6 0.000000 0.000000 0.000000 0.000857 0.000000 0.002344
#
#
# Mechanical properties :
#
#
# Convention : Reuss Voigt Hill
#
# Bulk Modulus (GPa) = 41.73131 51.30438 46.51784
# Shear Modulus (GPa) = 38.00982 114.47473 76.24227
#
# Velocity S-wave (km/s) = 4.10645 7.12646 5.81590
# Velocity P-wave (km/s) = 6.40297 9.51191 8.10785
#
# Compressibility (1/GPa) = 0.02396282
#
# Stress axis : x y z
#
# Youngs Moduli (GPa) = 75.49317 72.15798 81.93956
#
# Poissons Ratio (x) = 0.04620 0.30528
# Poissons Ratio (y) = 0.04834 0.27098
# Poissons Ratio (z) = 0.28127 0.23863
#
# Static dielectric constant tensor:
#      x y z
#    x 1.862200 0.000000 0.016650 
#    y 0.000000 2.038620 0.000000 
#    z 0.016650 0.000000 1.832560 
# 
# From -- ./inp_files/65974.got.cif
#   From: 2010.05.17/outbox.cif.g08.bks.cpg/sg5_33_cif.got.tgz:65974.got - 2010.06.03 18:56:24.
