data_PCOD9129156
_publ_section_title
;
Structure prediction by ZEFSAII (Michael W. Deem and Ramdas Pophale) SiO2 
 PCOD9129156
Probable space group: C 2
;
_chemical_formula_sum "Si O2"
_cell_formula_units_Z 24
_cell_length_a 14.193139
_cell_length_b 14.152646
_cell_length_c 5.437259
_cell_angle_alpha 90.000000
_cell_angle_beta 79.177383
_cell_angle_gamma 90.000000
_cell_volume 1072.758317
_symmetry_space_group_name_H-M "C 2"
_symmetry_group_IT_number 5
_symmetry_cell_setting 'monoclinic'
loop_
_space_group_symop_operation_xyz
x,y,z
-x,y,-z
1/2+x,1/2+y,z
1/2-x,1/2+y,-z
loop_
_atom_site_type_symbol
_atom_site_label
_atom_site_fract_x
_atom_site_fract_y
_atom_site_fract_z
Si Si1 0.759561 0.554510 0.523006
Si Si2 0.897098 0.410883 0.675996
Si Si3 0.554493 0.728591 0.214899
Si Si4 0.000000 0.865734 0.000000
Si Si5 0.411335 0.202614 0.357126
Si Si6 0.639490 0.527637 0.083797
Si Si7 0.000000 0.537713 0.000000
O O1 0.834788 0.469914 0.521663
O O2 0.810439 0.659773 0.511693
O O3 0.706379 0.535275 0.292278
O O4 0.693483 0.535525 0.795318
O O5 0.863696 0.306782 0.768757
O O6 0.000000 0.396092 0.500000
O O7 0.922926 0.476082 0.893028
O O8 0.500000 0.714289 0.500000
O O9 0.584362 0.625719 0.123807
O O10 0.500000 0.768759 0.000000
O O11 0.074511 0.795850 0.818695
O O12 0.931887 0.937350 0.878256
O O13 0.500000 0.215267 0.500000
O O14 0.441812 0.109735 0.194708
#
# Coordination Sequence:
#
# PCOD9129156 Si02
#       7
#     4   4   4   2   4   4   2
#     4  12  26  47  74 115 153 190 249 340 367 437
#     4  11  22  40  73 109 143 190 240 298 392 450
#     4  11  24  45  76  99 134 193 253 294 367 461
#     4  11  30  51  80 106 154 229 256 297 398 490
#     4  11  24  44  78 107 153 203 259 304 389 468
#     4  12  29  50  76 104 159 200 257 313 380 448
#     4  11  16  39  68 106 144 193 240 305 370 466
#
# _framework density 22.372236000000001
#
# number of rings (size 3 to 8) (size 9 to 14) (size 15 to 20)
#    0.000    0.667    5.000    2.000    4.667    1.333 
#    0.000    1.667    0.000    0.000    0.000    0.000 
#    0.000    0.000    0.000    0.000    0.000    0.000 
#
# Total GULP energy -66878.420271 kJ/mol
# GULP energy per Si atom -5573.201689 kJ/mol
# Density = 2.232132 g / cm^3
# Si number density = 22.372236 Si / 1000 Ang^3
#
#
#
# Elastic Constant Matrix: (Units=GPa)
#
#
# Indices 1 2 3 4 5 6 
#
# 1 86.8929 45.7657 35.6765 0.0000 28.1686 0.0000
# 2 45.7657 164.6310 25.7229 0.0000 10.2377 0.0000
# 3 35.6765 25.7229 109.1920 0.0000 10.5178 0.0000
# 4 0.0000 0.0000 0.0000 -672.9367 0.0000 -170.5509
# 5 28.1686 10.2377 10.5178 0.0000 45.7638 0.0000
# 6 0.0000 0.0000 0.0000 -170.5509 0.0000 -39.6074
#
#
#
# Elastic Compliance Matrix: (Units=1/GPa)
#
#
# Indices 1 2 3 4 5 6 
#
# 1 0.018311 -0.003852 -0.004165 0.000000 -0.009452 0.000000
# 2 -0.003852 0.007171 -0.000516 0.000000 0.000885 0.000000
# 3 -0.004165 -0.000516 0.010618 0.000000 0.000239 0.000000
# 4 0.000000 0.000000 0.000000 0.016270 0.000000 -0.070060
# 5 -0.009452 0.000885 0.000239 0.000000 0.027416 0.000000
# 6 0.000000 0.000000 0.000000 -0.070060 0.000000 0.276431
#
#
# Mechanical properties :
#
#
# Convention : Reuss Voigt Hill
#
# Bulk Modulus (GPa) = 52.53815 63.89401 58.21608
# Shear Modulus (GPa) = 13.17081 -116.45267 -51.64093
#
# Velocity S-wave (km/s) = 2.42897 -7.22256 -4.80965
# Velocity P-wave (km/s) = 5.60367 6.39783 2.18301
#
# Compressibility (1/GPa) = 0.01903379
#
# Stress axis : x y z
#
# Youngs Moduli (GPa) = 54.61097 139.45999 94.18347
#
# Poissons Ratio (x) = 0.53717 0.39228
# Poissons Ratio (y) = 0.21035 0.04860
# Poissons Ratio (z) = 0.22746 0.07196
#
# Static dielectric constant tensor:
#      x y z
#    x 2.009540 0.000000 0.792310 
#    y 0.000000 2.243910 0.000000 
#    z 0.792310 0.000000 6.885380 
# 
# From -- ./inp_files/6866.got.cif
#   From: 2010.05.17/outbox.cif.g08.bks.cpg/sg5_4_cif.got.tgz:6866.got - 2010.06.03 18:56:24.
