data_PCOD9129491
_publ_section_title
;
Structure prediction by ZEFSAII (Michael W. Deem and Ramdas Pophale) SiO2 
 PCOD9129491
Probable space group: C 2
;
_chemical_formula_sum "Si O2"
_cell_formula_units_Z 26
_cell_length_a 5.402439
_cell_length_b 21.293137
_cell_length_c 12.108681
_cell_angle_alpha 90.000000
_cell_angle_beta 118.507065
_cell_angle_gamma 90.000000
_cell_volume 1224.040486
_symmetry_space_group_name_H-M "C 2"
_symmetry_group_IT_number 5
_symmetry_cell_setting 'monoclinic'
loop_
_space_group_symop_operation_xyz
x,y,z
-x,y,-z
1/2+x,1/2+y,z
1/2-x,1/2+y,-z
loop_
_atom_site_type_symbol
_atom_site_label
_atom_site_fract_x
_atom_site_fract_y
_atom_site_fract_z
Si Si1 0.500000 0.331800 0.000000
Si Si2 0.392359 0.320779 0.363007
Si Si3 0.739758 0.617346 0.230641
Si Si4 0.764514 0.907035 0.132067
Si Si5 0.154211 0.554143 0.145675
Si Si6 0.585905 0.733495 0.813872
Si Si7 0.781225 0.699494 0.626124
O O1 0.491019 0.379598 0.894675
O O2 0.250375 0.281764 0.925547
O O3 0.500000 0.348740 0.500000
O O4 0.315079 0.371940 0.256613
O O5 0.630911 0.270847 0.379583
O O6 0.123169 0.274984 0.306386
O O7 0.472616 0.580814 0.223939
O O8 0.584497 0.681122 0.153782
O O9 0.924936 0.573158 0.189823
O O10 0.975133 0.650629 0.356886
O O11 0.710959 0.979787 0.143941
O O12 0.500000 0.886593 0.000000
O O13 0.000000 0.576247 0.000000
O O14 0.764481 0.697900 0.756908
O O15 0.500000 0.684058 0.500000
#
# Coordination Sequence:
#
# PCOD9129491 Si02
#       7
#     2   4   4   4   4   4   4
#     4  12  24  40  70 110 146 180 240 306 380 430
#     4  11  22  40  69 103 145 184 234 288 367 441
#     4  11  25  45  66 102 134 185 241 293 351 434
#     4  11  25  43  68 102 144 193 240 298 359 432
#     4  11  26  45  70  95 142 194 241 290 354 428
#     4  11  23  39  69 106 141 178 225 303 366 433
#     4  11  22  42  69 102 140 186 228 295 372 433
#
# _framework density 21.241129999999998
#
# number of rings (size 3 to 8) (size 9 to 14) (size 15 to 20)
#    0.000    0.923    6.154    0.462    5.385    1.231 
#    0.000    0.769    0.000    0.000    0.000    0.000 
#    0.000    0.000    0.000    0.000    0.000    0.000 
#
# Total GULP energy -72402.555830 kJ/mol
# GULP energy per Si atom -5569.427372 kJ/mol
# Density = 2.119278 g / cm^3
# Si number density = 21.241130 Si / 1000 Ang^3
#
#
#
# Elastic Constant Matrix: (Units=GPa)
#
#
# Indices 1 2 3 4 5 6 
#
# 1 110.1065 51.7606 35.0538 0.0000 4.7942 0.0000
# 2 51.7606 103.1290 58.4335 0.0000 -3.9347 0.0000
# 3 35.0538 58.4335 98.2982 0.0000 9.3593 0.0000
# 4 0.0000 0.0000 0.0000 8.7515 0.0000 8.3073
# 5 4.7942 -3.9347 9.3593 0.0000 31.2107 0.0000
# 6 0.0000 0.0000 0.0000 8.3073 0.0000 26.9471
#
#
#
# Elastic Compliance Matrix: (Units=1/GPa)
#
#
# Indices 1 2 3 4 5 6 
#
# 1 0.012124 -0.005815 -0.000637 0.000000 -0.002404 0.000000
# 2 -0.005815 0.018076 -0.009237 0.000000 0.005942 0.000000
# 3 -0.000637 -0.009237 0.016463 0.000000 -0.006003 0.000000
# 4 0.000000 0.000000 0.000000 0.161538 0.000000 -0.049799
# 5 -0.002404 0.005942 -0.006003 0.000000 0.034959 0.000000
# 6 0.000000 0.000000 0.000000 -0.049799 0.000000 0.052462
#
#
# Mechanical properties :
#
#
# Convention : Reuss Voigt Hill
#
# Bulk Modulus (GPa) = 65.43439 66.89217 66.16328
# Shear Modulus (GPa) = 15.05593 24.46757 19.76175
#
# Velocity S-wave (km/s) = 2.66524 3.39764 3.05348
# Velocity P-wave (km/s) = 6.35167 6.85216 6.60666
#
# Compressibility (1/GPa) = 0.01528248
#
# Stress axis : x y z
#
# Youngs Moduli (GPa) = 82.48441 55.32238 60.74176
#
# Poissons Ratio (x) = 0.32172 0.03872
# Poissons Ratio (y) = 0.47967 0.56108
# Poissons Ratio (z) = 0.05258 0.51102
#
# Static dielectric constant tensor:
#      x y z
#    x 1.973630 0.000000 -0.019920 
#    y 0.000000 1.773640 0.000000 
#    z -0.019920 0.000000 1.791310 
# 
# From -- ./inp_files/33825.got.cif
#   From: 2010.05.17/outbox.cif.g08.bks.cpg/sg5_17_cif.got.tgz:33825.got - 2010.06.03 18:56:24.
