data_PCOD9129143
_publ_section_title
;
Structure prediction by ZEFSAII (Michael W. Deem and Ramdas Pophale) SiO2 
 PCOD9129143
Probable space group: C 2
;
_chemical_formula_sum "Si O2"
_cell_formula_units_Z 26
_cell_length_a 11.040144
_cell_length_b 8.946627
_cell_length_c 13.823083
_cell_angle_alpha 90.000000
_cell_angle_beta 117.663462
_cell_angle_gamma 90.000000
_cell_volume 1209.262728
_symmetry_space_group_name_H-M "C 2"
_symmetry_group_IT_number 5
_symmetry_cell_setting 'monoclinic'
loop_
_space_group_symop_operation_xyz
x,y,z
-x,y,-z
1/2+x,1/2+y,z
1/2-x,1/2+y,-z
loop_
_atom_site_type_symbol
_atom_site_label
_atom_site_fract_x
_atom_site_fract_y
_atom_site_fract_z
Si Si1 0.932129 0.700840 0.066554
Si Si2 0.046273 0.375743 0.124225
Si Si3 0.977505 0.007329 0.655935
Si Si4 0.851418 0.755141 0.252491
Si Si5 0.184316 0.209207 0.843796
Si Si6 0.778670 0.434088 0.304825
Si Si7 0.000000 0.238876 0.500000
O O1 0.902255 0.768555 0.159735
O O2 0.025156 0.554242 0.117612
O O3 0.784549 0.656797 0.966127
O O4 0.000000 0.786770 0.000000
O O5 0.198268 0.321026 0.202723
O O6 0.938146 0.306550 0.157277
O O7 0.000000 0.325984 0.000000
O O8 0.851230 0.981244 0.680097
O O9 0.107523 0.077392 0.760398
O O10 0.941976 0.126785 0.560243
O O11 0.039280 0.849118 0.644779
O O12 0.842452 0.582834 0.281026
O O13 0.257651 0.316676 0.793278
O O14 0.886083 0.344426 0.410647
#
# Coordination Sequence:
#
# PCOD9129143 Si02
#       7
#     4   4   4   4   4   4   2
#     4  11  23  39  62  99 144 184 221 264 311 386
#     4  11  21  39  64  95 142 185 218 267 309 383
#     4  11  25  45  70  97 129 175 218 280 346 400
#     4  12  24  41  70 102 133 182 227 266 332 395
#     4  11  22  42  64  99 144 177 222 268 323 388
#     4  11  25  47  71  98 130 174 221 285 337 400
#     4  10  28  50  66 100 132 160 224 292 348 406
#
# _framework density 21.500703000000001
#
# number of rings (size 3 to 8) (size 9 to 14) (size 15 to 20)
#    0.000    0.923    4.615    2.769    0.000    4.308 
#    0.000    0.000    0.000    0.000    0.000    0.000 
#    0.000    0.000    0.000    0.000    0.000    0.000 
#
# Total GULP energy -72644.347781 kJ/mol
# GULP energy per Si atom -5588.026752 kJ/mol
# Density = 2.145177 g / cm^3
# Si number density = 21.500703 Si / 1000 Ang^3
#
#
#
# Elastic Constant Matrix: (Units=GPa)
#
#
# Indices 1 2 3 4 5 6 
#
# 1 127.1242 42.4891 27.1116 0.0000 -19.9956 0.0000
# 2 42.4891 122.3922 44.3270 0.0000 -4.5287 0.0000
# 3 27.1116 44.3270 85.5823 0.0000 -1.6415 0.0000
# 4 0.0000 0.0000 0.0000 26.4134 0.0000 -3.4297
# 5 -19.9956 -4.5287 -1.6415 0.0000 20.4893 0.0000
# 6 0.0000 0.0000 0.0000 -3.4297 0.0000 31.9210
#
#
#
# Elastic Compliance Matrix: (Units=1/GPa)
#
#
# Indices 1 2 3 4 5 6 
#
# 1 0.010673 -0.002695 -0.001799 0.000000 0.009676 0.000000
# 2 -0.002695 0.010805 -0.004755 0.000000 -0.000623 0.000000
# 3 -0.001799 -0.004755 0.014686 0.000000 -0.001630 0.000000
# 4 0.000000 0.000000 0.000000 0.038395 0.000000 0.004125
# 5 0.009676 -0.000623 -0.001630 0.000000 0.057980 0.000000
# 6 0.000000 0.000000 0.000000 0.004125 0.000000 0.031771
#
#
# Mechanical properties :
#
#
# Convention : Reuss Voigt Hill
#
# Bulk Modulus (GPa) = 56.60815 62.55047 59.57931
# Shear Modulus (GPa) = 26.49747 30.50947 28.50347
#
# Velocity S-wave (km/s) = 3.51436 3.77105 3.64497
# Velocity P-wave (km/s) = 6.54625 6.93661 6.74425
#
# Compressibility (1/GPa) = 0.01766530
#
# Stress axis : x y z
#
# Youngs Moduli (GPa) = 93.69510 92.54901 68.09208
#
# Poissons Ratio (x) = 0.24946 0.12252
# Poissons Ratio (y) = 0.25255 0.32374
# Poissons Ratio (z) = 0.16859 0.44003
#
# Static dielectric constant tensor:
#      x y z
#    x 1.791570 0.000000 -0.015740 
#    y 0.000000 1.803090 0.000000 
#    z -0.015740 0.000000 1.775260 
# 
# From -- ./inp_files/52349.got.cif
#   From: 2010.05.17/outbox.cif.g08.bks.cpg/sg5_27_cif.got.tgz:52349.got - 2010.06.03 18:56:24.
