data_PCOD9129091
_publ_section_title
;
Structure prediction by ZEFSAII (Michael W. Deem and Ramdas Pophale) SiO2 
 PCOD9129091
Probable space group: C 2
;
_chemical_formula_sum "Si O2"
_cell_formula_units_Z 18
_cell_length_a 18.663731
_cell_length_b 8.422763
_cell_length_c 5.014880
_cell_angle_alpha 90.000000
_cell_angle_beta 89.152396
_cell_angle_gamma 90.000000
_cell_volume 788.253792
_symmetry_space_group_name_H-M "C 2"
_symmetry_group_IT_number 5
_symmetry_cell_setting 'monoclinic'
loop_
_space_group_symop_operation_xyz
x,y,z
-x,y,-z
1/2+x,1/2+y,z
1/2-x,1/2+y,-z
loop_
_atom_site_type_symbol
_atom_site_label
_atom_site_fract_x
_atom_site_fract_y
_atom_site_fract_z
Si Si1 0.634911 0.617420 0.298872
Si Si2 0.202505 0.613993 0.912314
Si Si3 0.000000 0.702877 0.500000
Si Si4 0.395614 0.413978 0.177537
Si Si5 0.130027 0.478300 0.409700
O O1 0.715918 0.622942 0.182992
O O2 0.630340 0.518488 0.570861
O O3 0.611651 0.797150 0.352754
O O4 0.590669 0.526611 0.073909
O O5 0.165421 0.786439 0.899660
O O6 0.159627 0.503309 0.705646
O O7 0.190352 0.542416 0.204334
O O8 0.038463 0.811429 0.716179
O O9 0.061555 0.591281 0.375715
#
# Coordination Sequence:
#
# PCOD9129091 Si02
#       5
#     4   4   2   4   4
#     4  12  23  41  68 105 127 164 221 274 324 374
#     4  11  22  42  67 100 135 170 206 264 339 390
#     4  10  26  50  62  92 132 184 222 250 332 386
#     4  11  25  42  69  94 135 174 212 269 317 392
#     4  11  25  42  69  94 135 174 212 270 318 391
#
# _framework density 22.835286
#
# number of rings (size 3 to 8) (size 9 to 14) (size 15 to 20)
#    0.000    0.889    0.000    8.000    0.000    8.889 
#    0.000    4.444    0.000    0.000    0.000    0.000 
#    0.000    0.000    0.000    0.000    0.000    0.000 
#
# Total GULP energy -50473.065545 kJ/mol
# GULP energy per Si atom -5608.118394 kJ/mol
# Density = 2.278331 g / cm^3
# Si number density = 22.835286 Si / 1000 Ang^3
#
#
#
# Elastic Constant Matrix: (Units=GPa)
#
#
# Indices 1 2 3 4 5 6 
#
# 1 78.6574 36.3268 -16.8965 0.0000 1.6013 0.0000
# 2 36.3268 155.6892 24.3783 0.0000 4.6144 0.0000
# 3 -16.8965 24.3783 73.9365 0.0000 -6.4079 0.0000
# 4 0.0000 0.0000 0.0000 35.9529 0.0000 1.5698
# 5 1.6013 4.6144 -6.4079 0.0000 29.5564 0.0000
# 6 0.0000 0.0000 0.0000 1.5698 0.0000 25.4724
#
#
#
# Elastic Compliance Matrix: (Units=1/GPa)
#
#
# Indices 1 2 3 4 5 6 
#
# 1 0.015924 -0.004563 0.005229 0.000000 0.000983 0.000000
# 2 -0.004563 0.008153 -0.003893 0.000000 -0.001870 0.000000
# 3 0.005229 -0.003893 0.016339 0.000000 0.003867 0.000000
# 4 0.000000 0.000000 0.000000 0.027889 0.000000 -0.001719
# 5 0.000983 -0.001870 0.003867 0.000000 0.034911 0.000000
# 6 0.000000 0.000000 0.000000 -0.001719 0.000000 0.039364
#
#
# Mechanical properties :
#
#
# Convention : Reuss Voigt Hill
#
# Bulk Modulus (GPa) = 29.44573 43.98892 36.71733
# Shear Modulus (GPa) = 31.18079 35.82798 33.50439
#
# Velocity S-wave (km/s) = 3.69923 3.96533 3.83459
# Velocity P-wave (km/s) = 5.58288 6.34590 5.97658
#
# Compressibility (1/GPa) = 0.03396078
#
# Stress axis : x y z
#
# Youngs Moduli (GPa) = 62.79754 122.65644 61.20381
#
# Poissons Ratio (x) = 0.55974 -0.32004
# Poissons Ratio (y) = 0.28658 0.23827
# Poissons Ratio (z) = -0.32837 0.47751
#
# Static dielectric constant tensor:
#      x y z
#    x 1.850840 0.000000 -0.016840 
#    y 0.000000 1.820430 0.000000 
#    z -0.016840 0.000000 1.814880 
# 
# From -- ./inp_files/7942.got.cif
#   From: 2010.05.17/outbox.cif.g08.bks.cpg/sg5_4_cif.got.tgz:7942.got - 2010.06.03 18:56:24.
