data_PCOD9129541
_publ_section_title
;
Structure prediction by ZEFSAII (Michael W. Deem and Ramdas Pophale) SiO2 
 PCOD9129541
Probable space group: C 2
;
_chemical_formula_sum "Si O2"
_cell_formula_units_Z 24
_cell_length_a 9.026484
_cell_length_b 13.563277
_cell_length_c 18.572793
_cell_angle_alpha 90.000000
_cell_angle_beta 151.315931
_cell_angle_gamma 90.000000
_cell_volume 1091.398209
_symmetry_space_group_name_H-M "C 2"
_symmetry_group_IT_number 5
_symmetry_cell_setting 'monoclinic'
loop_
_space_group_symop_operation_xyz
x,y,z
-x,y,-z
1/2+x,1/2+y,z
1/2-x,1/2+y,-z
loop_
_atom_site_type_symbol
_atom_site_label
_atom_site_fract_x
_atom_site_fract_y
_atom_site_fract_z
Si Si1 0.268379 0.518670 0.674427
Si Si2 0.853383 0.613979 0.131503
Si Si3 0.365801 0.299113 0.664420
Si Si4 0.336915 0.007691 0.625026
Si Si5 0.715894 0.172152 0.153660
Si Si6 0.273035 0.283649 0.463322
O O1 0.399481 0.406192 0.717514
O O2 0.548508 0.593223 0.780383
O O3 0.000000 0.524810 0.500000
O O4 0.078976 0.543359 0.667164
O O5 0.984635 0.710827 0.227979
O O6 0.996638 0.516908 0.228322
O O7 0.966322 0.620410 0.098698
O O8 0.500000 0.612732 0.000000
O O9 0.445103 0.284335 0.613664
O O10 0.000000 0.287050 0.500000
O O11 0.000000 0.055010 0.500000
O O12 0.273063 0.898491 0.571778
O O13 0.941369 0.234789 0.303305
O O14 0.500000 0.222198 0.000000
O O15 0.500000 0.241501 0.500000
#
# Coordination Sequence:
#
# PCOD9129541 Si02
#       6
#     4   4   4   4   4   4
#     4  11  22  42  69  98 131 169 220 269 326 386
#     4  12  27  43  66  96 137 177 216 268 334 393
#     4  11  22  45  70  98 131 169 219 274 330 384
#     4  11  23  42  68 101 129 169 220 272 323 385
#     4  12  27  45  64  97 137 178 216 268 331 395
#     4  11  25  42  72 100 129 169 223 275 323 387
#
# _framework density 21.990141000000001
#
# number of rings (size 3 to 8) (size 9 to 14) (size 15 to 20)
#    0.000    0.667    5.000    3.000    9.333    1.333 
#    0.000    3.333    0.000    0.000    0.000    0.000 
#    0.000    0.000    0.000    0.000    0.000    0.000 
#
# Total GULP energy -66881.768434 kJ/mol
# GULP energy per Si atom -5573.480703 kJ/mol
# Density = 2.194009 g / cm^3
# Si number density = 21.990141 Si / 1000 Ang^3
#
#
#
# Elastic Constant Matrix: (Units=GPa)
#
#
# Indices 1 2 3 4 5 6 
#
# 1 158.1178 -4.1337 21.7745 0.0030 10.6379 0.0013
# 2 -4.1337 59.2311 -6.1610 0.0057 1.2585 0.0041
# 3 21.7745 -6.1610 71.7409 0.0188 11.7622 0.0099
# 4 0.0030 0.0057 0.0188 -0.1368 0.0057 -9.3226
# 5 10.6379 1.2585 11.7622 0.0057 46.7534 0.0024
# 6 0.0013 0.0041 0.0099 -9.3226 0.0024 17.7342
#
#
#
# Elastic Compliance Matrix: (Units=1/GPa)
#
#
# Indices 1 2 3 4 5 6 
#
# 1 0.006654 0.000298 -0.001820 -0.000005 -0.001064 -0.000002
# 2 0.000298 0.017082 0.001526 0.000033 -0.000911 0.000013
# 3 -0.001820 0.001526 0.015188 0.000069 -0.003448 0.000028
# 4 -0.000005 0.000033 0.000069 -0.198510 0.000012 -0.104354
# 5 -0.001064 -0.000911 -0.003448 0.000012 0.022523 0.000006
# 6 -0.000002 0.000013 0.000028 -0.104354 0.000006 0.001531
#
#
# Mechanical properties :
#
#
# Convention : Reuss Voigt Hill
#
# Bulk Modulus (GPa) = 25.68569 34.67218 30.17893
# Shear Modulus (GPa) = -40.79551 31.37750 -4.70900
#
# Velocity S-wave (km/s) = -4.31184 3.78152 -1.46495
# Velocity P-wave (km/s) = 3.61710 5.90490 3.30034
#
# Compressibility (1/GPa) = 0.03893219
#
# Stress axis : x y z
#
# Youngs Moduli (GPa) = 150.27715 58.54156 65.84280
#
# Poissons Ratio (x) = -0.01743 0.11981
# Poissons Ratio (y) = -0.04474 -0.10048
# Poissons Ratio (z) = 0.27345 -0.08934
#
# Static dielectric constant tensor:
#      x y z
#    x 3.051350 0.000000 -1.025070 
#    y 0.000000 1.825930 0.000000 
#    z -1.025070 0.000000 2.747270 
# 
# From -- ./inp_files/51024.got.cif
#   From: 2010.05.17/outbox.cif.g08.bks.cpg/sg5_26_cif.got.tgz:51024.got - 2010.06.03 18:56:24.
