data_PCOD9129391
_publ_section_title
;
Structure prediction by ZEFSAII (Michael W. Deem and Ramdas Pophale) SiO2 
 PCOD9129391
Probable space group: C 2
;
_chemical_formula_sum "Si O2"
_cell_formula_units_Z 28
_cell_length_a 11.523207
_cell_length_b 9.944023
_cell_length_c 17.654622
_cell_angle_alpha 90.000000
_cell_angle_beta 145.860473
_cell_angle_gamma 90.000000
_cell_volume 1135.322908
_symmetry_space_group_name_H-M "C 2"
_symmetry_group_IT_number 5
_symmetry_cell_setting 'monoclinic'
loop_
_space_group_symop_operation_xyz
x,y,z
-x,y,-z
1/2+x,1/2+y,z
1/2-x,1/2+y,-z
loop_
_atom_site_type_symbol
_atom_site_label
_atom_site_fract_x
_atom_site_fract_y
_atom_site_fract_z
Si Si1 0.700536 0.120580 0.058702
Si Si2 0.039764 0.437996 0.857850
Si Si3 0.790619 0.723087 0.303086
Si Si4 0.475313 0.221859 0.174245
Si Si5 0.670424 0.354000 0.416735
Si Si6 0.127814 0.156336 0.375200
Si Si7 0.731426 0.532967 0.145199
O O1 0.881895 0.426187 0.186380
O O2 0.902062 0.135178 0.217255
O O3 0.500000 0.095060 0.000000
O O4 0.715659 0.992947 0.010030
O O5 0.905771 0.578641 0.778214
O O6 0.910778 0.316390 0.819664
O O7 0.364345 0.242159 0.033517
O O8 0.773051 0.701597 0.383393
O O9 0.766251 0.578688 0.249220
O O10 0.977978 0.802241 0.364647
O O11 0.610427 0.321129 0.296998
O O12 0.293728 0.168195 0.131907
O O13 0.855011 0.262295 0.547779
O O14 0.703999 0.511215 0.444794
O O15 0.500000 0.496832 0.000000
#
# Coordination Sequence:
#
# PCOD9129391 Si02
#       7
#     4   4   4   4   4   4   4
#     4   9  19  41  68 108 143 180 238 301 357 423
#     4   8  19  35  69 102 137 176 236 292 348 427
#     4  11  21  43  72  96 139 193 237 283 355 420
#     4   7  19  39  64  98 143 177 234 292 347 425
#     4  11  26  48  70 103 148 195 236 299 360 423
#     4  12  27  43  75 107 141 194 247 288 357 441
#     4   8  16  33  60  97 138 177 221 288 355 409
#
# _framework density 24.662586000000001
#
# number of rings (size 3 to 8) (size 9 to 14) (size 15 to 20)
#    1.714    0.571    0.000    3.000    2.000    4.000 
#    0.000    5.714    0.000    0.000    0.000    1.000 
#    0.000    0.000    0.000    0.000    0.000    0.000 
#
# Total GULP energy -78060.837192 kJ/mol
# GULP energy per Si atom -5575.774085 kJ/mol
# Density = 2.460645 g / cm^3
# Si number density = 24.662586 Si / 1000 Ang^3
#
#
#
# Elastic Constant Matrix: (Units=GPa)
#
#
# Indices 1 2 3 4 5 6 
#
# 1 56.7345 7.4541 11.2605 0.0000 -7.4167 0.0000
# 2 7.4541 114.7564 48.4411 0.0000 -17.9809 0.0000
# 3 11.2605 48.4411 114.9825 0.0000 -18.6893 0.0000
# 4 0.0000 0.0000 0.0000 31.2497 0.0000 -11.2961
# 5 -7.4167 -17.9809 -18.6893 0.0000 35.1421 0.0000
# 6 0.0000 0.0000 0.0000 -11.2961 0.0000 26.9556
#
#
#
# Elastic Compliance Matrix: (Units=1/GPa)
#
#
# Indices 1 2 3 4 5 6 
#
# 1 0.018298 -0.000191 -0.001204 0.000000 0.003124 0.000000
# 2 -0.000191 0.010971 -0.004047 0.000000 0.003421 0.000000
# 3 -0.001204 -0.004047 0.011102 0.000000 0.003579 0.000000
# 4 0.000000 0.000000 0.000000 0.037713 0.000000 0.015804
# 5 0.003124 0.003421 0.003579 0.000000 0.032769 0.000000
# 6 0.000000 0.000000 0.000000 0.015804 0.000000 0.043721
#
#
# Mechanical properties :
#
#
# Convention : Reuss Voigt Hill
#
# Bulk Modulus (GPa) = 33.91321 46.75385 40.33353
# Shear Modulus (GPa) = 28.52462 33.29064 30.90763
#
# Velocity S-wave (km/s) = 3.40456 3.67801 3.54392
# Velocity P-wave (km/s) = 5.40698 6.08568 5.75634
#
# Compressibility (1/GPa) = 0.02948704
#
# Stress axis : x y z
#
# Youngs Moduli (GPa) = 54.64967 91.14995 90.07628
#
# Poissons Ratio (x) = 0.01741 0.10843
# Poissons Ratio (y) = 0.01044 0.36456
# Poissons Ratio (z) = 0.06579 0.36891
#
# Static dielectric constant tensor:
#      x y z
#    x 2.010320 0.000000 0.024760 
#    y 0.000000 2.045000 0.000000 
#    z 0.024760 0.000000 2.061720 
# 
# From -- ./inp_files/66005.got.cif
#   From: 2010.05.17/outbox.cif.g08.bks.cpg/sg5_34_cif.got.tgz:66005.got - 2010.06.03 18:56:24.
