data_PCOD9129979
_publ_section_title
;
Structure prediction by ZEFSAII (Michael W. Deem and Ramdas Pophale) SiO2 
 PCOD9129979
Probable space group: C 2
;
_chemical_formula_sum "Si O2"
_cell_formula_units_Z 28
_cell_length_a 12.311536
_cell_length_b 7.212306
_cell_length_c 16.327970
_cell_angle_alpha 90.000000
_cell_angle_beta 123.552211
_cell_angle_gamma 90.000000
_cell_volume 1208.267142
_symmetry_space_group_name_H-M "C 2"
_symmetry_group_IT_number 5
_symmetry_cell_setting 'monoclinic'
loop_
_space_group_symop_operation_xyz
x,y,z
-x,y,-z
1/2+x,1/2+y,z
1/2-x,1/2+y,-z
loop_
_atom_site_type_symbol
_atom_site_label
_atom_site_fract_x
_atom_site_fract_y
_atom_site_fract_z
Si Si1 0.104896 0.980040 0.880354
Si Si2 0.299804 0.214258 0.740663
Si Si3 0.009232 0.092089 0.597641
Si Si4 0.933127 0.672056 0.392606
Si Si5 0.054966 0.585845 0.782417
Si Si6 0.851825 0.097914 0.688863
Si Si7 0.784976 0.812535 0.916084
O O1 0.100049 0.798060 0.820072
O O2 0.976167 0.097329 0.801976
O O3 0.229288 0.111104 0.917535
O O4 0.118302 0.897807 0.976912
O O5 0.411501 0.071392 0.760772
O O6 0.306248 0.381969 0.677924
O O7 0.334930 0.295476 0.844359
O O8 0.155029 0.138038 0.687187
O O9 0.997721 0.869089 0.590882
O O10 0.000000 0.155938 0.500000
O O11 0.905037 0.153367 0.621972
O O12 0.949534 0.557907 0.316707
O O13 0.779351 0.703664 0.342349
O O14 0.000000 0.585016 0.500000
O O15 0.160820 0.448741 0.862283
#
# Coordination Sequence:
#
# PCOD9129979 Si02
#       7
#     4   4   4   4   4   4   4
#     4  11  24  45  71 104 144 179 244 286 355 426
#     4  11  24  44  69  96 143 179 236 292 348 423
#     4  11  25  42  68 103 139 183 237 292 344 423
#     4  11  24  45  69 100 142 185 234 289 351 418
#     4  11  24  45  69 103 143 184 237 292 344 422
#     4  11  24  44  67 100 141 180 235 291 345 418
#     4  12  23  46  72 102 138 193 228 297 354 416
#
# _framework density 23.173684999999999
#
# number of rings (size 3 to 8) (size 9 to 14) (size 15 to 20)
#    0.000    0.857    7.143    0.000    4.000    2.857 
#    0.000    0.000    0.000    0.000    0.000    0.000 
#    0.000    0.000    0.000    0.000    0.000    0.000 
#
# Total GULP energy -78304.446053 kJ/mol
# GULP energy per Si atom -5593.174718 kJ/mol
# Density = 2.312094 g / cm^3
# Si number density = 23.173685 Si / 1000 Ang^3
#
#
#
# Elastic Constant Matrix: (Units=GPa)
#
#
# Indices 1 2 3 4 5 6 
#
# 1 134.0643 8.5191 28.3856 0.0000 -19.9707 0.0000
# 2 8.5191 62.9712 12.8472 0.0000 -0.4278 0.0000
# 3 28.3856 12.8472 137.9623 0.0000 -24.6209 0.0000
# 4 0.0000 0.0000 0.0000 10.7162 0.0000 4.7691
# 5 -19.9707 -0.4278 -24.6209 0.0000 36.1479 0.0000
# 6 0.0000 0.0000 0.0000 4.7691 0.0000 30.9869
#
#
#
# Elastic Compliance Matrix: (Units=1/GPa)
#
#
# Indices 1 2 3 4 5 6 
#
# 1 0.008300 -0.000909 -0.000918 0.000000 0.003949 0.000000
# 2 -0.000909 0.016316 -0.001580 0.000000 -0.001385 0.000000
# 3 -0.000918 -0.001580 0.008527 0.000000 0.005282 0.000000
# 4 0.000000 0.000000 0.000000 0.100178 0.000000 -0.015418
# 5 0.003949 -0.001385 0.005282 0.000000 0.033427 0.000000
# 6 0.000000 0.000000 0.000000 -0.015418 0.000000 0.034645
#
#
# Mechanical properties :
#
#
# Convention : Reuss Voigt Hill
#
# Bulk Modulus (GPa) = 37.97994 48.27795 43.12895
# Shear Modulus (GPa) = 23.04338 34.58660 28.81499
#
# Velocity S-wave (km/s) = 3.15680 3.86747 3.53006
# Velocity P-wave (km/s) = 5.45087 6.38917 5.93858
#
# Compressibility (1/GPa) = 0.02632969
#
# Stress axis : x y z
#
# Youngs Moduli (GPa) = 120.48863 61.28936 117.27485
#
# Poissons Ratio (x) = 0.05569 0.10769
# Poissons Ratio (y) = 0.10948 0.18524
# Poissons Ratio (z) = 0.11064 0.09681
#
# Static dielectric constant tensor:
#      x y z
#    x 1.846090 0.000000 -0.010960 
#    y 0.000000 1.896150 0.000000 
#    z -0.010960 0.000000 1.893070 
# 
# From -- ./inp_files/52375.got.cif
#   From: 2010.05.17/outbox.cif.g08.bks.cpg/sg5_27_cif.got.tgz:52375.got - 2010.06.03 18:56:24.
