data_PCOD9129414
_publ_section_title
;
Structure prediction by ZEFSAII (Michael W. Deem and Ramdas Pophale) SiO2 
 PCOD9129414
Probable space group: C 2
;
_chemical_formula_sum "Si O2"
_cell_formula_units_Z 28
_cell_length_a 13.679416
_cell_length_b 7.164361
_cell_length_c 13.203693
_cell_angle_alpha 90.000000
_cell_angle_beta 57.525561
_cell_angle_gamma 90.000000
_cell_volume 1091.674080
_symmetry_space_group_name_H-M "C 2"
_symmetry_group_IT_number 5
_symmetry_cell_setting 'monoclinic'
loop_
_space_group_symop_operation_xyz
x,y,z
-x,y,-z
1/2+x,1/2+y,z
1/2-x,1/2+y,-z
loop_
_atom_site_type_symbol
_atom_site_label
_atom_site_fract_x
_atom_site_fract_y
_atom_site_fract_z
Si Si1 0.909088 0.750000 0.624795
Si Si2 0.277687 0.098729 0.050072
Si Si3 0.859341 0.625466 0.206700
Si Si4 0.326981 0.963784 0.808369
Si Si5 0.579311 0.794736 0.678772
Si Si6 0.635457 0.648010 0.440651
Si Si7 0.478251 0.422970 0.799312
O O1 0.814744 0.611976 0.724851
O O2 0.973743 0.834747 0.688134
O O3 0.000000 0.649850 0.500000
O O4 0.864842 0.925489 0.584294
O O5 0.151303 0.004245 0.114297
O O6 0.349621 0.019178 0.104563
O O7 0.261111 0.306884 0.103293
O O8 0.333972 0.084468 0.909288
O O9 0.735833 0.717049 0.309695
O O10 0.877980 0.469059 0.281365
O O11 0.960040 0.778577 0.159535
O O12 0.449510 0.862935 0.721049
O O13 0.656050 0.730669 0.540510
O O14 0.557567 0.606987 0.753384
O O15 0.500000 0.694097 0.500000
#
# Coordination Sequence:
#
# PCOD9129414 Si02
#       7
#     4   4   4   4   4   4   4
#     4  11  21  44  80 106 160 213 263 334 409 485
#     4  11  26  51  82 113 164 214 275 338 413 492
#     4  12  27  46  79 117 160 212 272 341 415 475
#     4  11  25  48  83 115 155 218 271 331 418 490
#     4  11  25  45  72 116 157 205 273 334 400 503
#     4  11  23  45  76 109 160 207 262 331 409 489
#     4  11  23  51  73 118 159 204 273 335 393 501
#
# _framework density 25.648679000000001
#
# number of rings (size 3 to 8) (size 9 to 14) (size 15 to 20)
#    0.000    0.857    5.714    1.714    2.000    3.429 
#    0.000    0.000    3.143    0.000    0.000    0.000 
#    0.000    0.000    0.000    0.000    0.000    0.000 
#
# Total GULP energy -78231.145276 kJ/mol
# GULP energy per Si atom -5587.938948 kJ/mol
# Density = 2.559030 g / cm^3
# Si number density = 25.648679 Si / 1000 Ang^3
#
#
#
# Elastic Constant Matrix: (Units=GPa)
#
#
# Indices 1 2 3 4 5 6 
#
# 1 83.1657 18.8848 23.0199 0.0000 -13.0831 0.0000
# 2 18.8848 122.1969 44.9700 0.0000 11.5855 0.0000
# 3 23.0199 44.9700 168.5224 0.0000 23.9844 0.0000
# 4 0.0000 0.0000 0.0000 45.1962 0.0000 1.6658
# 5 -13.0831 11.5855 23.9844 0.0000 30.6222 0.0000
# 6 0.0000 0.0000 0.0000 1.6658 0.0000 25.1946
#
#
#
# Elastic Compliance Matrix: (Units=1/GPa)
#
#
# Indices 1 2 3 4 5 6 
#
# 1 0.014731 -0.002139 -0.002760 0.000000 0.009265 0.000000
# 2 -0.002139 0.009467 -0.001794 0.000000 -0.003091 0.000000
# 3 -0.002760 -0.001794 0.007722 0.000000 -0.006548 0.000000
# 4 0.000000 0.000000 0.000000 0.022180 0.000000 -0.001466
# 5 0.009265 -0.003091 -0.006548 0.000000 0.042913 0.000000
# 6 0.000000 0.000000 0.000000 -0.001466 0.000000 0.039788
#
#
# Mechanical properties :
#
#
# Convention : Reuss Voigt Hill
#
# Bulk Modulus (GPa) = 53.95695 60.84824 57.40260
# Shear Modulus (GPa) = 31.97621 39.33661 35.65641
#
# Velocity S-wave (km/s) = 3.53469 3.92046 3.73256
# Velocity P-wave (km/s) = 6.14340 6.65346 6.40351
#
# Compressibility (1/GPa) = 0.01853329
#
# Stress axis : x y z
#
# Youngs Moduli (GPa) = 67.88191 105.62474 129.50497
#
# Poissons Ratio (x) = 0.22597 0.35744
# Poissons Ratio (y) = 0.14522 0.23237
# Poissons Ratio (z) = 0.18736 0.18952
#
# Static dielectric constant tensor:
#      x y z
#    x 2.179650 0.000000 0.025120 
#    y 0.000000 2.143810 0.000000 
#    z 0.025120 0.000000 2.010900 
# 
# From -- ./inp_files/52371.got.cif
#   From: 2010.05.17/outbox.cif.g08.bks.cpg/sg5_27_cif.got.tgz:52371.got - 2010.06.03 18:56:24.
