data_PCOD9129461
_publ_section_title
;
Structure prediction by ZEFSAII (Michael W. Deem and Ramdas Pophale) SiO2 
 PCOD9129461
Probable space group: C 2
;
_chemical_formula_sum "Si O2"
_cell_formula_units_Z 32
_cell_length_a 23.246797
_cell_length_b 7.800499
_cell_length_c 12.848361
_cell_angle_alpha 90.000000
_cell_angle_beta 36.527037
_cell_angle_gamma 90.000000
_cell_volume 1386.748345
_symmetry_space_group_name_H-M "C 2"
_symmetry_group_IT_number 5
_symmetry_cell_setting 'monoclinic'
loop_
_space_group_symop_operation_xyz
x,y,z
-x,y,-z
1/2+x,1/2+y,z
1/2-x,1/2+y,-z
loop_
_atom_site_type_symbol
_atom_site_label
_atom_site_fract_x
_atom_site_fract_y
_atom_site_fract_z
Si Si1 0.515350 0.113640 0.096976
Si Si2 0.811289 0.643905 0.476698
Si Si3 0.671797 0.548643 0.503532
Si Si4 0.608403 0.569939 0.365096
Si Si5 0.311732 0.158631 0.027892
Si Si6 0.898876 0.677751 0.676193
Si Si7 0.984334 0.033981 0.904945
Si Si8 0.776824 0.016163 0.189401
O O1 0.420081 0.074487 0.303467
O O2 0.516949 0.324182 0.094238
O O3 0.500000 0.058300 0.000000
O O4 0.616243 0.051934 0.000961
O O5 0.759508 0.632216 0.439708
O O6 0.813637 0.841681 0.511453
O O7 0.751033 0.535218 0.648780
O O8 0.650165 0.608731 0.418648
O O9 0.573767 0.589855 0.707156
O O10 0.500000 0.642151 0.500000
O O11 0.702976 0.601145 0.155425
O O12 0.595603 0.366664 0.379080
O O13 0.292245 0.329291 0.121008
O O14 0.375273 0.186984 0.832350
O O15 0.810588 0.591064 0.747562
O O16 0.000000 0.590025 0.500000
O O17 0.880812 0.102033 0.019977
O O18 0.000000 0.087710 0.000000
#
# Coordination Sequence:
#
# PCOD9129461 Si02
#       8
#     4   4   4   4   4   4   4   4
#     4   9  19  36  62  89 124 162 213 257 323 383
#     4  11  22  39  67 101 126 170 215 273 327 390
#     4  11  23  40  67  94 135 168 219 268 327 388
#     4  11  26  43  64  95 134 177 217 264 328 393
#     4  11  24  41  67  94 127 172 220 275 321 384
#     4  11  24  43  66  92 126 170 223 267 321 386
#     4   9  18  34  60  93 117 162 203 254 312 388
#     4  11  22  39  66  93 128 165 219 267 326 385
#
# _framework density 23.075562000000001
#
# number of rings (size 3 to 8) (size 9 to 14) (size 15 to 20)
#    0.000    1.500    2.500    2.250   14.000    0.500 
#    0.000    2.500    2.750    0.000    0.000    0.000 
#    0.000    0.000    0.000    0.000    0.000    0.000 
#
# Total GULP energy -89363.151991 kJ/mol
# GULP energy per Si atom -5585.196999 kJ/mol
# Density = 2.302304 g / cm^3
# Si number density = 23.075562 Si / 1000 Ang^3
#
#
#
# Elastic Constant Matrix: (Units=GPa)
#
#
# Indices 1 2 3 4 5 6 
#
# 1 130.2081 16.3115 52.6522 -0.0001 -13.2329 0.0000
# 2 16.3115 24.1536 20.1849 -0.0004 -5.0423 0.0000
# 3 52.6522 20.1849 151.6848 -0.0002 -27.8556 0.0000
# 4 -0.0001 -0.0004 -0.0002 122.6241 -0.0001 -17.7370
# 5 -13.2329 -5.0423 -27.8556 -0.0001 56.6682 0.0000
# 6 0.0000 0.0000 0.0000 -17.7370 0.0000 25.7835
#
#
#
# Elastic Compliance Matrix: (Units=1/GPa)
#
#
# Indices 1 2 3 4 5 6 
#
# 1 0.009283 -0.003990 -0.002592 0.000000 0.000538 0.000000
# 2 -0.003990 0.048372 -0.004872 0.000000 0.000977 0.000000
# 3 -0.002592 -0.004872 0.008739 0.000000 0.003257 0.000000
# 4 0.000000 0.000000 0.000000 0.009056 0.000000 0.006230
# 5 0.000538 0.000977 0.003257 0.000000 0.019460 0.000000
# 6 0.000000 0.000000 0.000000 0.006230 0.000000 0.043070
#
#
# Mechanical properties :
#
#
# Convention : Reuss Voigt Hill
#
# Bulk Modulus (GPa) = 22.99692 53.81599 38.40645
# Shear Modulus (GPa) = 28.50869 55.47500 41.99185
#
# Velocity S-wave (km/s) = 3.51871 4.90844 4.27049
# Velocity P-wave (km/s) = 5.14742 7.44956 6.40281
#
# Compressibility (1/GPa) = 0.04348409
#
# Stress axis : x y z
#
# Youngs Moduli (GPa) = 107.72537 20.67302 114.43035
#
# Poissons Ratio (x) = 0.08249 0.29665
# Poissons Ratio (y) = 0.42984 0.55756
# Poissons Ratio (z) = 0.27927 0.10073
#
# Static dielectric constant tensor:
#      x y z
#    x 1.855360 0.000000 -0.014430 
#    y 0.000000 1.878180 0.000000 
#    z -0.014430 0.000000 1.944020 
# 
# From -- ./inp_files/57694.got.cif
#   From: 2010.05.17/outbox.cif.g08.bks.cpg/sg5_29_cif.got.tgz:57694.got - 2010.06.03 18:56:24.
