data_PCOD9129667
_publ_section_title
;
Structure prediction by ZEFSAII (Michael W. Deem and Ramdas Pophale) SiO2 
 PCOD9129667
Probable space group: C 2
;
_chemical_formula_sum "Si O2"
_cell_formula_units_Z 28
_cell_length_a 17.248908
_cell_length_b 8.742912
_cell_length_c 14.678780
_cell_angle_alpha 90.000000
_cell_angle_beta 149.304780
_cell_angle_gamma 90.000000
_cell_volume 1130.001197
_symmetry_space_group_name_H-M "C 2"
_symmetry_group_IT_number 5
_symmetry_cell_setting 'monoclinic'
loop_
_space_group_symop_operation_xyz
x,y,z
-x,y,-z
1/2+x,1/2+y,z
1/2-x,1/2+y,-z
loop_
_atom_site_type_symbol
_atom_site_label
_atom_site_fract_x
_atom_site_fract_y
_atom_site_fract_z
Si Si1 0.635354 0.410730 0.336093
Si Si2 0.088844 0.775249 0.742959
Si Si3 0.000000 0.367380 0.000000
Si Si4 0.104721 0.144154 0.952924
Si Si5 0.724058 0.860691 0.793040
Si Si6 0.000000 0.997623 0.500000
Si Si7 0.930324 0.455681 0.553548
Si Si8 0.303077 0.135450 0.743167
O O1 0.531982 0.349781 0.311920
O O2 0.815776 0.443239 0.521992
O O3 0.642227 0.264611 0.272500
O O4 0.560434 0.579992 0.242922
O O5 0.251662 0.727425 0.951606
O O6 0.096317 0.891452 0.665875
O O7 0.011307 0.618502 0.632112
O O8 0.915238 0.255784 0.982616
O O9 0.893984 0.479207 0.833984
O O10 0.172944 0.982584 0.054369
O O11 0.817479 0.713187 0.858041
O O12 0.570595 0.838161 0.694673
O O13 0.664773 0.930689 0.635897
O O14 0.123357 0.092915 0.565830
#
# Coordination Sequence:
#
# PCOD9129667 Si02
#       8
#     4   4   2   4   4   2   4   4
#     4  11  25  43  66  99 138 181 231 281 345 399
#     4  11  25  44  65 100 134 185 223 283 346 408
#     4  12  22  38  66 102 132 176 236 280 328 404
#     4  11  23  43  65  92 135 184 221 275 343 414
#     4   9  18  41  67  94 129 173 217 271 350 408
#     4  12  24  44  68 100 142 172 226 288 344 396
#     4   9  19  38  68  93 127 171 224 272 332 413
#     4  11  23  38  67 104 133 171 226 288 332 399
#
# _framework density 24.778734
#
# number of rings (size 3 to 8) (size 9 to 14) (size 15 to 20)
#    0.000    1.429    1.429    6.000    4.000    1.143 
#    2.571    1.429    0.000    0.000    0.000    0.000 
#    0.000    0.000    0.000    0.000    0.000    0.000 
#
# Total GULP energy -78092.944163 kJ/mol
# GULP energy per Si atom -5578.067440 kJ/mol
# Density = 2.472234 g / cm^3
# Si number density = 24.778734 Si / 1000 Ang^3
#
#
#
# Elastic Constant Matrix: (Units=GPa)
#
#
# Indices 1 2 3 4 5 6 
#
# 1 97.6612 28.4122 29.0556 0.0000 35.1808 0.0000
# 2 28.4122 77.3184 12.5585 0.0000 6.4758 0.0000
# 3 29.0556 12.5585 46.3214 0.0000 12.0788 0.0000
# 4 0.0000 0.0000 0.0000 3.7528 0.0000 -17.2539
# 5 35.1808 6.4758 12.0788 0.0000 30.4897 0.0000
# 6 0.0000 0.0000 0.0000 -17.2539 0.0000 18.5710
#
#
#
# Elastic Compliance Matrix: (Units=1/GPa)
#
#
# Indices 1 2 3 4 5 6 
#
# 1 0.021055 -0.004954 -0.006472 0.000000 -0.020679 0.000000
# 2 -0.004954 0.014764 -0.001749 0.000000 0.003273 0.000000
# 3 -0.006472 -0.001749 0.026852 0.000000 -0.002798 0.000000
# 4 0.000000 0.000000 0.000000 -0.081451 0.000000 -0.075674
# 5 -0.020679 0.003273 -0.002798 0.000000 0.057072 0.000000
# 6 0.000000 0.000000 0.000000 -0.075674 0.000000 -0.016459
#
#
# Mechanical properties :
#
#
# Convention : Reuss Voigt Hill
#
# Bulk Modulus (GPa) = 27.53193 40.15043 33.84118
# Shear Modulus (GPa) = 82.93248 20.64767 51.79007
#
# Velocity S-wave (km/s) = 5.79153 2.88979 4.57672
# Velocity P-wave (km/s) = 7.47380 5.23195 6.45101
#
# Compressibility (1/GPa) = 0.03632147
#
# Stress axis : x y z
#
# Youngs Moduli (GPa) = 47.49357 67.73271 37.24159
#
# Poissons Ratio (x) = 0.33555 0.24102
# Poissons Ratio (y) = 0.23529 0.06513
# Poissons Ratio (z) = 0.30737 0.11845
#
# Static dielectric constant tensor:
#      x y z
#    x 2.002680 0.000000 -0.011450 
#    y 0.000000 1.963110 0.000000 
#    z -0.011450 0.000000 2.087980 
# 
# From -- ./inp_files/62234.got.cif
#   From: 2010.05.17/outbox.cif.g08.bks.cpg/sg5_32_cif.got.tgz:62234.got - 2010.06.03 18:56:24.
