data_PCOD9129468
_publ_section_title
;
Structure prediction by ZEFSAII (Michael W. Deem and Ramdas Pophale) SiO2 
 PCOD9129468
Probable space group: C 2
;
_chemical_formula_sum "Si O2"
_cell_formula_units_Z 32
_cell_length_a 16.667355
_cell_length_b 14.497720
_cell_length_c 11.206817
_cell_angle_alpha 90.000000
_cell_angle_beta 145.827934
_cell_angle_gamma 90.000000
_cell_volume 1521.029694
_symmetry_space_group_name_H-M "C 2"
_symmetry_group_IT_number 5
_symmetry_cell_setting 'monoclinic'
loop_
_space_group_symop_operation_xyz
x,y,z
-x,y,-z
1/2+x,1/2+y,z
1/2-x,1/2+y,-z
loop_
_atom_site_type_symbol
_atom_site_label
_atom_site_fract_x
_atom_site_fract_y
_atom_site_fract_z
Si Si1 0.402281 0.257840 0.560598
Si Si2 0.629456 0.791261 0.592662
Si Si3 0.688502 0.305135 0.808596
Si Si4 0.833088 0.631558 0.830050
Si Si5 0.133539 0.893016 0.256238
Si Si6 0.355238 0.513812 0.238698
Si Si7 0.056756 0.175923 0.816353
Si Si8 0.206499 0.102018 0.410788
O O1 0.565489 0.246473 0.722329
O O2 0.336494 0.308627 0.364283
O O3 0.391455 0.322801 0.663783
O O4 0.322502 0.160715 0.480615
O O5 0.500000 0.843193 0.500000
O O6 0.757517 0.722779 0.795316
O O7 0.720944 0.859252 0.626121
O O8 0.530777 0.719320 0.400449
O O9 0.673008 0.409296 0.835031
O O10 0.832729 0.252703 0.010389
O O11 0.780753 0.550924 0.853698
O O12 0.761235 0.609251 0.614311
O O13 0.000000 0.642995 0.000000
O O14 0.166978 0.997403 0.334638
O O15 0.000000 0.889054 0.000000
O O16 0.500000 0.516427 0.500000
O O17 0.379742 0.580976 0.156605
O O18 0.942812 0.156249 0.778471
#
# Coordination Sequence:
#
# PCOD9129468 Si02
#       8
#     4   4   4   4   4   4   4   4
#     4  11  24  48  68  99 147 179 237 288 342 428
#     4  11  22  43  67 103 142 174 231 298 338 408
#     4  11  27  44  72 103 140 193 229 288 354 421
#     4  11  22  39  72 103 134 179 232 295 341 404
#     4  12  27  46  75 102 137 191 236 286 354 426
#     4  12  20  46  72  99 136 184 240 286 343 419
#     4  11  23  43  72  99 142 180 231 292 355 402
#     4  11  25  44  67 103 144 182 233 288 359 417
#
# _framework density 21.038378000000002
#
# number of rings (size 3 to 8) (size 9 to 14) (size 15 to 20)
#    0.000    0.750    7.500    1.875    5.250    1.000 
#    4.500    0.000    0.000    0.000    0.000    0.000 
#    0.000    0.000    0.000    0.000    0.000    0.000 
#
# Total GULP energy -89279.258173 kJ/mol
# GULP energy per Si atom -5579.953636 kJ/mol
# Density = 2.099049 g / cm^3
# Si number density = 21.038378 Si / 1000 Ang^3
#
#
#
# Elastic Constant Matrix: (Units=GPa)
#
#
# Indices 1 2 3 4 5 6 
#
# 1 104.3266 2.8760 45.3390 0.0000 26.6455 0.0000
# 2 2.8760 53.7101 38.6374 0.0000 5.0506 0.0000
# 3 45.3390 38.6374 101.4448 0.0000 18.7535 0.0000
# 4 0.0000 0.0000 0.0000 33.7176 0.0000 5.3867
# 5 26.6455 5.0506 18.7535 0.0000 35.8836 0.0000
# 6 0.0000 0.0000 0.0000 5.3867 0.0000 30.9455
#
#
#
# Elastic Compliance Matrix: (Units=1/GPa)
#
#
# Indices 1 2 3 4 5 6 
#
# 1 0.014434 0.004908 -0.006876 0.000000 -0.007816 0.000000
# 2 0.004908 0.027403 -0.012446 0.000000 -0.000997 0.000000
# 3 -0.006876 -0.012446 0.018158 0.000000 -0.002632 0.000000
# 4 0.000000 0.000000 0.000000 0.030506 0.000000 -0.005310
# 5 -0.007816 -0.000997 -0.002632 0.000000 0.035187 0.000000
# 6 0.000000 0.000000 0.000000 -0.005310 0.000000 0.033239
#
#
# Mechanical properties :
#
#
# Convention : Reuss Voigt Hill
#
# Bulk Modulus (GPa) = 32.08517 48.13181 40.10849
# Shear Modulus (GPa) = 25.23411 31.61794 28.42603
#
# Velocity S-wave (km/s) = 3.46704 3.88089 3.67979
# Velocity P-wave (km/s) = 5.59563 6.55816 6.09592
#
# Compressibility (1/GPa) = 0.03116704
#
# Stress axis : x y z
#
# Youngs Moduli (GPa) = 69.27987 36.49243 55.07334
#
# Poissons Ratio (x) = -0.17911 0.37867
# Poissons Ratio (y) = -0.34004 0.68546
# Poissons Ratio (z) = 0.47635 0.45420
#
# Static dielectric constant tensor:
#      x y z
#    x 1.854450 0.000000 0.015470 
#    y 0.000000 1.763030 0.000000 
#    z 0.015470 0.000000 1.749660 
# 
# From -- ./inp_files/45007.got.cif
#   From: 2010.05.17/outbox.cif.g08.bks.cpg/sg5_23_cif.got.tgz:45007.got - 2010.06.03 18:56:24.
