data_PCOD9129883
_publ_section_title
;
Structure prediction by ZEFSAII (Michael W. Deem and Ramdas Pophale) SiO2 
 PCOD9129883
Probable space group: C 2
;
_chemical_formula_sum "Si O2"
_cell_formula_units_Z 20
_cell_length_a 22.799754
_cell_length_b 6.822924
_cell_length_c 5.850684
_cell_angle_alpha 90.000000
_cell_angle_beta 87.145742
_cell_angle_gamma 90.000000
_cell_volume 909.009098
_symmetry_space_group_name_H-M "C 2"
_symmetry_group_IT_number 5
_symmetry_cell_setting 'monoclinic'
loop_
_space_group_symop_operation_xyz
x,y,z
-x,y,-z
1/2+x,1/2+y,z
1/2-x,1/2+y,-z
loop_
_atom_site_type_symbol
_atom_site_label
_atom_site_fract_x
_atom_site_fract_y
_atom_site_fract_z
Si Si1 0.805495 0.433510 0.265006
Si Si2 0.617586 0.311777 0.675033
Si Si3 0.500000 0.940718 0.000000
Si Si4 0.000000 0.661919 0.500000
Si Si5 0.813022 0.108672 0.622683
Si Si6 0.390609 0.658678 0.994442
O O1 0.854043 0.603607 0.269482
O O2 0.799212 0.312933 0.502271
O O3 0.742656 0.529556 0.224701
O O4 0.831992 0.269696 0.094672
O O5 0.560623 0.279072 0.528243
O O6 0.670074 0.434487 0.551698
O O7 0.600067 0.447966 0.892280
O O8 0.555921 0.800035 0.967193
O O9 0.494610 0.052386 0.752747
O O10 0.874982 0.136305 0.735622
#
# Coordination Sequence:
#
# PCOD9129883 Si02
#       6
#     4   4   2   2   4   4
#     4  11  23  47  66 107 140 187 240 298 371 432
#     4  11  26  46  72 105 138 191 245 295 371 432
#     4  12  28  52  76 108 150 194 246 308 368 434
#     4  12  28  50  80 106 150 194 246 308 366 440
#     4  11  25  43  73 100 147 186 238 305 360 445
#     4  11  28  43  73 103 143 188 245 304 363 436
#
# _framework density 22.001978999999999
#
# number of rings (size 3 to 8) (size 9 to 14) (size 15 to 20)
#    0.000    0.800    4.000    1.200   11.200    1.600 
#    0.000    0.000    0.000    0.000    0.000    0.000 
#    0.000    0.000    0.000    0.000    0.000    0.000 
#
# Total GULP energy -55756.531292 kJ/mol
# GULP energy per Si atom -5575.653129 kJ/mol
# Density = 2.195190 g / cm^3
# Si number density = 22.001979 Si / 1000 Ang^3
#
#
#
# Elastic Constant Matrix: (Units=GPa)
#
#
# Indices 1 2 3 4 5 6 
#
# 1 100.8658 41.7352 13.4024 0.0000 13.1263 0.0000
# 2 41.7352 128.8058 39.7466 0.0000 13.0176 0.0000
# 3 13.4024 39.7466 67.1882 0.0000 14.1223 0.0000
# 4 0.0000 0.0000 0.0000 25.2645 0.0000 19.9267
# 5 13.1263 13.0176 14.1223 0.0000 33.2715 0.0000
# 6 0.0000 0.0000 0.0000 19.9267 0.0000 41.5493
#
#
#
# Elastic Compliance Matrix: (Units=1/GPa)
#
#
# Indices 1 2 3 4 5 6 
#
# 1 0.011798 -0.003635 0.000523 0.000000 -0.003454 0.000000
# 2 -0.003635 0.010683 -0.005509 0.000000 -0.000407 0.000000
# 3 0.000523 -0.005509 0.019355 0.000000 -0.006266 0.000000
# 4 0.000000 0.000000 0.000000 0.063663 0.000000 -0.030532
# 5 -0.003454 -0.000407 -0.006266 0.000000 0.034238 0.000000
# 6 0.000000 0.000000 0.000000 -0.030532 0.000000 0.038711
#
#
# Mechanical properties :
#
#
# Convention : Reuss Voigt Hill
#
# Bulk Modulus (GPa) = 40.65973 54.06981 47.36477
# Shear Modulus (GPa) = 24.52341 33.48212 29.00277
#
# Velocity S-wave (km/s) = 3.34219 3.90523 3.63463
# Velocity P-wave (km/s) = 5.78046 6.70543 6.26005
#
# Compressibility (1/GPa) = 0.02459436
#
# Stress axis : x y z
#
# Youngs Moduli (GPa) = 84.75780 93.61103 51.66572
#
# Poissons Ratio (x) = 0.34029 -0.02702
# Poissons Ratio (y) = 0.30811 0.28461
# Poissons Ratio (z) = -0.04433 0.51568
#
# Static dielectric constant tensor:
#      x y z
#    x 1.782870 0.000000 -0.042060 
#    y 0.000000 1.798100 0.000000 
#    z -0.042060 0.000000 1.892880 
# 
# From -- ./inp_files/9986.got.cif
#   From: 2010.05.17/outbox.cif.g08.bks.cpg/sg5_5_cif.got.tgz:9986.got - 2010.06.03 18:56:24.
