data_PCOD9129880
_publ_section_title
;
Structure prediction by ZEFSAII (Michael W. Deem and Ramdas Pophale) SiO2 
 PCOD9129880
Probable space group: C 2
;
_chemical_formula_sum "Si O2"
_cell_formula_units_Z 20
_cell_length_a 8.799025
_cell_length_b 12.277583
_cell_length_c 8.321120
_cell_angle_alpha 90.000000
_cell_angle_beta 110.944388
_cell_angle_gamma 90.000000
_cell_volume 839.542197
_symmetry_space_group_name_H-M "C 2"
_symmetry_group_IT_number 5
_symmetry_cell_setting 'monoclinic'
loop_
_space_group_symop_operation_xyz
x,y,z
-x,y,-z
1/2+x,1/2+y,z
1/2-x,1/2+y,-z
loop_
_atom_site_type_symbol
_atom_site_label
_atom_site_fract_x
_atom_site_fract_y
_atom_site_fract_z
Si Si1 0.102527 0.199680 0.702804
Si Si2 0.195309 0.518961 0.082067
Si Si3 0.834760 0.832013 0.341707
Si Si4 0.685245 0.614195 0.209235
Si Si5 0.675926 0.919084 0.584955
O O1 0.167538 0.323449 0.714707
O O2 0.000000 0.180470 0.500000
O O3 0.982540 0.175071 0.807599
O O4 0.251426 0.115581 0.775564
O O5 0.288299 0.411684 0.179448
O O6 0.269531 0.556576 0.940328
O O7 0.000000 0.504885 0.000000
O O8 0.819543 0.707533 0.284457
O O9 0.703659 0.857117 0.429707
O O10 0.000000 0.853413 0.500000
O O11 0.696715 0.513150 0.335750
O O12 0.500000 0.973033 0.500000
#
# Coordination Sequence:
#
# PCOD9129880 Si02
#       5
#     4   4   4   4   4
#     4  11  24  50  77 110 152 209 263 324 392 476
#     4  12  29  46  74 115 164 203 264 326 402 464
#     4  12  27  48  79 114 156 208 270 319 393 487
#     4  12  26  46  80 111 158 203 263 330 401 457
#     4  11  23  46  78 110 154 202 265 322 392 470
#
# _framework density 23.822505
#
# number of rings (size 3 to 8) (size 9 to 14) (size 15 to 20)
#    0.000    0.400    4.000    5.400    5.600    0.000 
#    0.000    0.000    0.000    0.000    0.000    0.000 
#    0.000    0.000    0.000    0.000    0.000    0.000 
#
# Total GULP energy -55916.842705 kJ/mol
# GULP energy per Si atom -5591.684271 kJ/mol
# Density = 2.376828 g / cm^3
# Si number density = 23.822505 Si / 1000 Ang^3
#
#
#
# Elastic Constant Matrix: (Units=GPa)
#
#
# Indices 1 2 3 4 5 6 
#
# 1 71.4436 21.4753 40.4031 0.0000 -0.1265 0.0000
# 2 21.4753 176.5070 64.6413 0.0000 6.1993 0.0000
# 3 40.4031 64.6413 116.7174 0.0000 -8.0108 0.0000
# 4 0.0000 0.0000 0.0000 74.5031 0.0000 10.3449
# 5 -0.1265 6.1993 -8.0108 0.0000 49.4804 0.0000
# 6 0.0000 0.0000 0.0000 10.3449 0.0000 36.7686
#
#
#
# Elastic Compliance Matrix: (Units=1/GPa)
#
#
# Indices 1 2 3 4 5 6 
#
# 1 0.017452 0.000186 -0.006212 0.000000 -0.000984 0.000000
# 2 0.000186 0.007228 -0.004176 0.000000 -0.001581 0.000000
# 3 -0.006212 -0.004176 0.013212 0.000000 0.002646 0.000000
# 4 0.000000 0.000000 0.000000 0.013968 0.000000 -0.003930
# 5 -0.000984 -0.001581 0.002646 0.000000 0.020834 0.000000
# 6 0.000000 0.000000 0.000000 -0.003930 0.000000 0.028303
#
#
# Mechanical properties :
#
#
# Convention : Reuss Voigt Hill
#
# Bulk Modulus (GPa) = 57.17856 68.63415 62.90635
# Shear Modulus (GPa) = 39.29878 48.02697 43.66288
#
# Velocity S-wave (km/s) = 4.06599 4.49490 4.28581
# Velocity P-wave (km/s) = 6.78948 7.47074 7.13824
#
# Compressibility (1/GPa) = 0.01748907
#
# Stress axis : x y z
#
# Youngs Moduli (GPa) = 57.29865 138.35695 75.68642
#
# Poissons Ratio (x) = -0.02576 0.47017
# Poissons Ratio (y) = -0.01067 0.31606
# Poissons Ratio (z) = 0.35594 0.57776
#
# Static dielectric constant tensor:
#      x y z
#    x 1.874660 0.000000 -0.038470 
#    y 0.000000 1.867310 0.000000 
#    z -0.038470 0.000000 1.925520 
# 
# From -- ./inp_files/14342.got.cif
#   From: 2010.05.17/outbox.cif.g08.bks.cpg/sg5_8_cif.got.tgz:14342.got - 2010.06.03 18:56:24.
