data_PCOD9129180
_publ_section_title
;
Structure prediction by ZEFSAII (Michael W. Deem and Ramdas Pophale) SiO2 
 PCOD9129180
Probable space group: C 2
;
_chemical_formula_sum "Si O2"
_cell_formula_units_Z 30
_cell_length_a 12.664267
_cell_length_b 13.924710
_cell_length_c 13.739450
_cell_angle_alpha 90.000000
_cell_angle_beta 32.394480
_cell_angle_gamma 90.000000
_cell_volume 1298.057871
_symmetry_space_group_name_H-M "C 2"
_symmetry_group_IT_number 5
_symmetry_cell_setting 'monoclinic'
loop_
_space_group_symop_operation_xyz
x,y,z
-x,y,-z
1/2+x,1/2+y,z
1/2-x,1/2+y,-z
loop_
_atom_site_type_symbol
_atom_site_label
_atom_site_fract_x
_atom_site_fract_y
_atom_site_fract_z
Si Si1 0.759837 0.900640 0.484866
Si Si2 0.269910 0.438517 0.171728
Si Si3 0.713905 0.652755 0.046541
Si Si4 0.718007 0.578083 0.672325
Si Si5 0.808039 0.827325 0.827898
Si Si6 0.460745 0.754911 0.631291
Si Si7 0.000000 0.735740 0.500000
Si Si8 0.052403 0.465996 0.136488
O O1 0.649035 0.804244 0.536336
O O2 0.665404 0.935801 0.660219
O O3 0.989762 0.881354 0.303654
O O4 0.722667 0.989956 0.442322
O O5 0.239780 0.538150 0.252060
O O6 0.167672 0.347436 0.300426
O O7 0.183504 0.439665 0.130792
O O8 0.500000 0.420918 0.000000
O O9 0.511598 0.603417 0.163932
O O10 0.653817 0.696417 0.197516
O O11 0.772770 0.736189 0.925582
O O12 0.890177 0.576571 0.922487
O O13 0.856849 0.668792 0.547090
O O14 0.851692 0.792575 0.685011
O O15 0.633550 0.900866 0.986753
O O16 0.500000 0.700085 0.500000
#
# Coordination Sequence:
#
# PCOD9129180 Si02
#       8
#     4   4   4   4   4   4   2   4
#     4  11  22  45  72  97 143 184 231 294 362 407
#     4  11  19  37  67  97 132 172 228 292 343 403
#     4  12  24  44  71 105 146 185 235 297 357 420
#     4  12  23  42  72 108 137 179 241 305 350 404
#     4  12  25  47  67 100 145 187 231 292 361 417
#     4  11  23  38  67 107 141 180 237 284 350 422
#     4  12  28  40  68 110 142 182 244 292 350 430
#     4  11  24  43  68 100 139 192 227 284 362 417
#
# _framework density 23.111450000000001
#
# number of rings (size 3 to 8) (size 9 to 14) (size 15 to 20)
#    0.000    0.533    6.667    4.000    0.000    0.000 
#    1.200    0.000    0.000    1.600    0.000    0.000 
#    0.000    0.000    0.000    0.000    0.000    0.000 
#
# Total GULP energy -83934.926892 kJ/mol
# GULP energy per Si atom -5595.661793 kJ/mol
# Density = 2.305885 g / cm^3
# Si number density = 23.111450 Si / 1000 Ang^3
#
#
#
# Elastic Constant Matrix: (Units=GPa)
#
#
# Indices 1 2 3 4 5 6 
#
# 1 48.9583 31.4793 39.5938 -0.0012 18.3309 0.0008
# 2 31.4793 77.9419 32.3483 -0.0020 20.8119 0.0017
# 3 39.5938 32.3483 134.6133 -0.0036 16.8936 0.0028
# 4 -0.0012 -0.0020 -0.0036 51.9865 0.0017 1.1360
# 5 18.3309 20.8119 16.8936 0.0017 31.4640 -0.0011
# 6 0.0008 0.0017 0.0028 1.1360 -0.0011 31.4814
#
#
#
# Elastic Compliance Matrix: (Units=1/GPa)
#
#
# Indices 1 2 3 4 5 6 
#
# 1 0.035924 -0.008498 -0.007080 0.000000 -0.011507 0.000000
# 2 -0.008498 0.018511 -0.001108 0.000001 -0.006698 -0.000001
# 3 -0.007080 -0.001108 0.009830 0.000000 -0.000420 -0.000001
# 4 0.000000 0.000001 0.000000 0.019251 -0.000002 -0.000695
# 5 -0.011507 -0.006698 -0.000420 -0.000002 0.043142 0.000002
# 6 0.000000 -0.000001 -0.000001 -0.000695 0.000002 0.031790
#
#
# Mechanical properties :
#
#
# Convention : Reuss Voigt Hill
#
# Bulk Modulus (GPa) = 32.37057 52.03959 42.20508
# Shear Modulus (GPa) = 24.73806 33.52584 29.13195
#
# Velocity S-wave (km/s) = 3.27522 3.81283 3.55420
# Velocity P-wave (km/s) = 5.32348 6.47682 5.92826
#
# Compressibility (1/GPa) = 0.03089226
#
# Stress axis : x y z
#
# Youngs Moduli (GPa) = 27.83661 54.02292 101.72757
#
# Poissons Ratio (x) = 0.45909 0.72024
# Poissons Ratio (y) = 0.23656 0.11272
# Poissons Ratio (z) = 0.19709 0.05986
#
# Static dielectric constant tensor:
#      x y z
#    x 1.913220 0.000000 0.034980 
#    y 0.000000 1.868740 0.000000 
#    z 0.034980 0.000000 1.907290 
# 
# From -- ./inp_files/54769.got.cif
#   From: 2010.05.17/outbox.cif.g08.bks.cpg/sg5_28_cif.got.tgz:54769.got - 2010.06.03 18:56:24.
