data_PCOD9129019
_publ_section_title
;
Structure prediction by ZEFSAII (Michael W. Deem and Ramdas Pophale) SiO2 
 PCOD9129019
Probable space group: C 2
;
_chemical_formula_sum "Si O2"
_cell_formula_units_Z 28
_cell_length_a 17.367658
_cell_length_b 6.120832
_cell_length_c 13.743790
_cell_angle_alpha 90.000000
_cell_angle_beta 124.816221
_cell_angle_gamma 90.000000
_cell_volume 1199.485016
_symmetry_space_group_name_H-M "C 2"
_symmetry_group_IT_number 5
_symmetry_cell_setting 'monoclinic'
loop_
_space_group_symop_operation_xyz
x,y,z
-x,y,-z
1/2+x,1/2+y,z
1/2-x,1/2+y,-z
loop_
_atom_site_type_symbol
_atom_site_label
_atom_site_fract_x
_atom_site_fract_y
_atom_site_fract_z
Si Si1 0.813056 0.384610 0.630178
Si Si2 0.500000 0.317863 0.500000
Si Si3 0.496365 0.591638 0.686071
Si Si4 0.331243 0.714360 0.471046
Si Si5 0.833804 0.077301 0.830493
Si Si6 0.546884 0.231694 0.192002
Si Si7 0.125399 0.457951 0.691534
Si Si8 0.000000 0.392980 0.000000
O O1 0.722907 0.517824 0.613441
O O2 0.761600 0.367514 0.484511
O O3 0.817857 0.203322 0.718922
O O4 0.890435 0.582241 0.693550
O O5 0.465989 0.481930 0.560499
O O6 0.564738 0.169518 0.617254
O O7 0.396532 0.718346 0.618152
O O8 0.505066 0.416850 0.778886
O O9 0.574693 0.776699 0.724172
O O10 0.371914 0.847252 0.412303
O O11 0.888763 0.858485 0.839682
O O12 0.731044 0.021624 0.799462
O O13 0.908791 0.235277 0.937512
O O14 0.493007 0.051208 0.088847
#
# Coordination Sequence:
#
# PCOD9129019 Si02
#       8
#     4   2   4   4   4   4   4   2
#     4  11  22  35  64  96 140 185 242 283 340 408
#     4  12  22  42  60 100 152 208 212 264 324 466
#     4  12  24  38  62 102 153 194 227 263 356 436
#     4  12  19  39  54 101 149 186 224 266 328 436
#     4  11  23  44  69 103 130 179 240 314 348 413
#     4  11  23  44  69 103 130 179 240 314 348 413
#     4  12  24  38  62 102 153 194 227 263 356 436
#     4  10  26  44  76 106 120 176 254 328 376 376
#
# _framework density 23.343350999999998
#
# number of rings (size 3 to 8) (size 9 to 14) (size 15 to 20)
#    0.000    0.571    5.714    3.857    0.000    0.000 
#    0.000    0.000    0.000    0.000   37.143    0.000 
#    0.000    0.000    0.000    0.000    0.000    0.000 
#
# Total GULP energy -77948.266308 kJ/mol
# GULP energy per Si atom -5567.733308 kJ/mol
# Density = 2.329022 g / cm^3
# Si number density = 23.343351 Si / 1000 Ang^3
#
#
#
# Elastic Constant Matrix: (Units=GPa)
#
#
# Indices 1 2 3 4 5 6 
#
# 1 91.3055 51.7570 43.0168 0.0000 15.6372 0.0000
# 2 51.7570 134.1438 66.1923 0.0000 22.5511 0.0000
# 3 43.0168 66.1923 96.2003 0.0000 20.5330 0.0000
# 4 0.0000 0.0000 0.0000 72.5260 0.0000 10.4510
# 5 15.6372 22.5511 20.5330 0.0000 27.9492 0.0000
# 6 0.0000 0.0000 0.0000 10.4510 0.0000 87.1258
#
#
#
# Elastic Compliance Matrix: (Units=1/GPa)
#
#
# Indices 1 2 3 4 5 6 
#
# 1 0.015221 -0.003530 -0.003757 0.000000 -0.002908 0.000000
# 2 -0.003530 0.012503 -0.006277 0.000000 -0.003501 0.000000
# 3 -0.003757 -0.006277 0.017628 0.000000 -0.005784 0.000000
# 4 0.000000 0.000000 0.000000 0.014031 0.000000 -0.001683
# 5 -0.002908 -0.003501 -0.005784 0.000000 0.044481 0.000000
# 6 0.000000 0.000000 0.000000 -0.001683 0.000000 0.011680
#
#
# Mechanical properties :
#
#
# Convention : Reuss Voigt Hill
#
# Bulk Modulus (GPa) = 54.87001 71.50911 63.18956
# Shear Modulus (GPa) = 33.61451 48.23243 40.92347
#
# Velocity S-wave (km/s) = 3.79885 4.55050 4.19156
# Velocity P-wave (km/s) = 6.54205 7.63606 7.11013
#
# Compressibility (1/GPa) = 0.01822489
#
# Stress axis : x y z
#
# Youngs Moduli (GPa) = 65.69748 79.98311 56.72744
#
# Poissons Ratio (x) = 0.28237 0.21310
# Poissons Ratio (y) = 0.23194 0.35606
# Poissons Ratio (z) = 0.24680 0.50203
#
# Static dielectric constant tensor:
#      x y z
#    x 0.703060 0.000000 -1.977760 
#    y 0.000000 2.110370 0.000000 
#    z -1.977760 0.000000 -1.449220 
# 
# From -- ./inp_files/55394.got.cif
#   From: 2010.05.17/outbox.cif.g08.bks.cpg/sg5_28_cif.got.tgz:55394.got - 2010.06.03 18:56:24.
