data_PCOD9129912
_publ_section_title
;
Structure prediction by ZEFSAII (Michael W. Deem and Ramdas Pophale) SiO2 
 PCOD9129912
Probable space group: C 2
;
_chemical_formula_sum "Si O2"
_cell_formula_units_Z 16
_cell_length_a 10.320402
_cell_length_b 8.511587
_cell_length_c 7.092270
_cell_angle_alpha 90.000000
_cell_angle_beta 95.485606
_cell_angle_gamma 90.000000
_cell_volume 620.153054
_symmetry_space_group_name_H-M "C 2"
_symmetry_group_IT_number 5
_symmetry_cell_setting 'monoclinic'
loop_
_space_group_symop_operation_xyz
x,y,z
-x,y,-z
1/2+x,1/2+y,z
1/2-x,1/2+y,-z
loop_
_atom_site_type_symbol
_atom_site_label
_atom_site_fract_x
_atom_site_fract_y
_atom_site_fract_z
Si Si1 0.631387 0.378630 0.637762
Si Si2 0.915974 0.210728 0.171951
Si Si3 0.090813 0.478934 0.354510
Si Si4 0.361342 0.226322 0.984074
O O1 0.500000 0.362752 0.500000
O O2 0.610781 0.543952 0.740724
O O3 0.768820 0.416738 0.554576
O O4 0.660027 0.237209 0.791634
O O5 0.005529 0.328374 0.295821
O O6 0.775627 0.289451 0.109600
O O7 0.000000 0.181787 0.000000
O O8 0.000000 0.558269 0.500000
O O9 0.109080 0.582355 0.162154
O O10 0.500000 0.313824 0.000000
#
# Coordination Sequence:
#
# PCOD9129912 Si02
#       4
#     4   4   4   4
#     4  11  26  48  79 121 156 208 270 325 391 478
#     4  11  23  48  81 110 161 213 259 323 403 467
#     4  11  26  49  80 118 163 206 263 331 398 468
#     4  11  26  46  76 116 157 211 259 324 395 473
#
# _framework density 25.800083000000001
#
# number of rings (size 3 to 8) (size 9 to 14) (size 15 to 20)
#    0.000    1.000    2.500    2.250    7.000    3.000 
#    4.500    0.000    0.000    0.000    0.000    0.000 
#    0.000    0.000    0.000    0.000    0.000    0.000 
#
# Total GULP energy -44587.028829 kJ/mol
# GULP energy per Si atom -5573.378604 kJ/mol
# Density = 2.574136 g / cm^3
# Si number density = 25.800083 Si / 1000 Ang^3
#
#
#
# Elastic Constant Matrix: (Units=GPa)
#
#
# Indices 1 2 3 4 5 6 
#
# 1 284.7887 44.9607 80.7978 0.0000 15.4993 0.0000
# 2 44.9607 82.2537 53.4859 0.0000 2.1576 0.0000
# 3 80.7978 53.4859 142.3849 0.0000 9.6907 0.0000
# 4 0.0000 0.0000 0.0000 23.7633 0.0000 6.9046
# 5 15.4993 2.1576 9.6907 0.0000 53.9584 0.0000
# 6 0.0000 0.0000 0.0000 6.9046 0.0000 8.7146
#
#
#
# Elastic Compliance Matrix: (Units=1/GPa)
#
#
# Indices 1 2 3 4 5 6 
#
# 1 0.004283 -0.001026 -0.001988 0.000000 -0.000832 0.000000
# 2 -0.001026 0.016344 -0.005601 0.000000 0.000647 0.000000
# 3 -0.001988 -0.005601 0.010327 0.000000 -0.001060 0.000000
# 4 0.000000 0.000000 0.000000 0.054667 0.000000 -0.043313
# 5 -0.000832 0.000647 -0.001060 0.000000 0.018936 0.000000
# 6 0.000000 0.000000 0.000000 -0.043313 0.000000 0.149067
#
#
# Mechanical properties :
#
#
# Convention : Reuss Voigt Hill
#
# Bulk Modulus (GPa) = 72.87087 96.43513 84.65300
# Shear Modulus (GPa) = 18.15349 39.29943 28.72646
#
# Velocity S-wave (km/s) = 2.65546 3.90709 3.34042
# Velocity P-wave (km/s) = 6.14066 7.60347 6.91088
#
# Compressibility (1/GPa) = 0.01372291
#
# Stress axis : x y z
#
# Youngs Moduli (GPa) = 233.49490 61.18585 96.82904
#
# Poissons Ratio (x) = 0.06280 0.19251
# Poissons Ratio (y) = 0.23966 0.54234
# Poissons Ratio (z) = 0.46421 0.34270
#
# Static dielectric constant tensor:
#      x y z
#    x 2.038930 0.000000 -0.086540 
#    y 0.000000 2.083110 0.000000 
#    z -0.086540 0.000000 2.275050 
# 
# From -- ./inp_files/4446.got.cif
#   From: 2010.05.17/outbox.cif.g08.bks.cpg/sg5_3_cif.got.tgz:4446.got - 2010.06.03 18:56:24.
