data_PCOD9129259
_publ_section_title
;
Structure prediction by ZEFSAII (Michael W. Deem and Ramdas Pophale) SiO2 
 PCOD9129259
Probable space group: C 2
;
_chemical_formula_sum "Si O2"
_cell_formula_units_Z 26
_cell_length_a 7.276671
_cell_length_b 19.891836
_cell_length_c 8.348838
_cell_angle_alpha 90.000000
_cell_angle_beta 81.751502
_cell_angle_gamma 90.000000
_cell_volume 1195.962416
_symmetry_space_group_name_H-M "C 2"
_symmetry_group_IT_number 5
_symmetry_cell_setting 'monoclinic'
loop_
_space_group_symop_operation_xyz
x,y,z
-x,y,-z
1/2+x,1/2+y,z
1/2-x,1/2+y,-z
loop_
_atom_site_type_symbol
_atom_site_label
_atom_site_fract_x
_atom_site_fract_y
_atom_site_fract_z
Si Si1 0.369841 0.530060 0.856651
Si Si2 0.785335 0.397644 0.995480
Si Si3 0.500000 0.482551 0.500000
Si Si4 0.310350 0.370590 0.341112
Si Si5 0.029774 0.256961 0.333788
Si Si6 0.287565 0.672292 0.956050
Si Si7 0.857330 0.775747 0.798201
O O1 0.458121 0.525304 0.666662
O O2 0.249720 0.597599 0.896916
O O3 0.500000 0.530302 0.000000
O O4 0.261484 0.460540 0.888341
O O5 0.712580 0.409577 0.825402
O O6 0.686145 0.329963 0.060455
O O7 0.000000 0.383696 0.000000
O O8 0.341301 0.428075 0.468966
O O9 0.127480 0.326327 0.367485
O O10 0.475209 0.313868 0.313878
O O11 0.174528 0.221316 0.197562
O O12 0.000000 0.215615 0.500000
O O13 0.827722 0.269860 0.285630
O O14 0.500000 0.670769 0.000000
O O15 0.148101 0.704406 0.105091
#
# Coordination Sequence:
#
# PCOD9129259 Si02
#       7
#     4   4   2   4   4   4   4
#     4  11  23  43  65  93 133 179 225 272 339 400
#     4  12  21  40  64  94 130 170 222 279 330 397
#     4  12  24  38  70 100 130 178 224 274 338 404
#     4  12  23  39  67  98 129 169 216 284 332 385
#     4  11  23  37  59  96 131 164 214 273 332 394
#     4   9  21  40  64  89 124 176 219 269 330 393
#     4  11  20  42  64  93 128 166 224 270 330 395
#
# _framework density 21.739812000000001
#
# number of rings (size 3 to 8) (size 9 to 14) (size 15 to 20)
#    0.000    0.923    6.154    1.846    1.077    0.000 
#    2.769    0.000    0.000    0.000    4.000    0.000 
#    0.000    0.000    0.000    0.000    0.000    0.000 
#
# Total GULP energy -72449.638141 kJ/mol
# GULP energy per Si atom -5573.049088 kJ/mol
# Density = 2.169033 g / cm^3
# Si number density = 21.739812 Si / 1000 Ang^3
#
#
#
# Elastic Constant Matrix: (Units=GPa)
#
#
# Indices 1 2 3 4 5 6 
#
# 1 73.6453 12.1988 23.7737 0.0000 7.8118 0.0000
# 2 12.1988 116.9885 36.8793 0.0000 -9.4624 0.0000
# 3 23.7737 36.8793 129.1632 0.0000 2.8591 0.0000
# 4 0.0000 0.0000 0.0000 6.7006 0.0000 0.6081
# 5 7.8118 -9.4624 2.8591 0.0000 33.5630 0.0000
# 6 0.0000 0.0000 0.0000 0.6081 0.0000 18.6286
#
#
#
# Elastic Compliance Matrix: (Units=1/GPa)
#
#
# Indices 1 2 3 4 5 6 
#
# 1 0.014899 -0.001103 -0.002348 0.000000 -0.003579 0.000000
# 2 -0.001103 0.009762 -0.002656 0.000000 0.003235 0.000000
# 3 -0.002348 -0.002656 0.008954 0.000000 -0.000965 0.000000
# 4 0.000000 0.000000 0.000000 0.149684 0.000000 -0.004886
# 5 -0.003579 0.003235 -0.000965 0.000000 0.031622 0.000000
# 6 0.000000 0.000000 0.000000 -0.004886 0.000000 0.053840
#
#
# Mechanical properties :
#
#
# Convention : Reuss Voigt Hill
#
# Bulk Modulus (GPa) = 46.72678 51.72229 49.22453
# Shear Modulus (GPa) = 17.35462 28.24147 22.79804
#
# Velocity S-wave (km/s) = 2.82846 3.60817 3.24184
# Velocity P-wave (km/s) = 5.67514 6.41885 6.05842
#
# Compressibility (1/GPa) = 0.02140101
#
# Stress axis : x y z
#
# Youngs Moduli (GPa) = 67.11912 102.44097 111.68168
#
# Poissons Ratio (x) = 0.11297 0.26225
# Poissons Ratio (y) = 0.07402 0.29661
# Poissons Ratio (z) = 0.15761 0.27207
#
# Static dielectric constant tensor:
#      x y z
#    x 1.905140 0.000000 -0.044230 
#    y 0.000000 1.817720 0.000000 
#    z -0.044230 0.000000 1.938620 
# 
# From -- ./inp_files/16124.got.cif
#   From: 2010.05.17/outbox.cif.g08.bks.cpg/sg5_9_cif.got.tgz:16124.got - 2010.06.03 18:56:24.
