data_PCOD9129525
_publ_section_title
;
Structure prediction by ZEFSAII (Michael W. Deem and Ramdas Pophale) SiO2 
 PCOD9129525
Probable space group: C 2
;
_chemical_formula_sum "Si O2"
_cell_formula_units_Z 26
_cell_length_a 9.616652
_cell_length_b 18.642544
_cell_length_c 9.720940
_cell_angle_alpha 90.000000
_cell_angle_beta 45.047515
_cell_angle_gamma 90.000000
_cell_volume 1233.338251
_symmetry_space_group_name_H-M "C 2"
_symmetry_group_IT_number 5
_symmetry_cell_setting 'monoclinic'
loop_
_space_group_symop_operation_xyz
x,y,z
-x,y,-z
1/2+x,1/2+y,z
1/2-x,1/2+y,-z
loop_
_atom_site_type_symbol
_atom_site_label
_atom_site_fract_x
_atom_site_fract_y
_atom_site_fract_z
Si Si1 0.170941 0.593760 0.705672
Si Si2 0.500000 0.496808 0.000000
Si Si3 0.444267 0.988300 0.687412
Si Si4 0.124038 0.336440 0.550486
Si Si5 0.522287 0.259032 0.823984
Si Si6 0.085496 0.237941 0.087690
Si Si7 0.552397 0.585730 0.244521
O O1 0.993977 0.546221 0.768863
O O2 0.106293 0.677231 0.759837
O O3 0.351846 0.585754 0.472600
O O4 0.265500 0.566269 0.782661
O O5 0.517813 0.541910 0.129027
O O6 0.282527 0.461496 0.157316
O O7 0.500000 0.021418 0.500000
O O8 0.586220 0.920030 0.602420
O O9 0.339149 0.311505 0.358408
O O10 0.000000 0.316633 0.500000
O O11 0.043102 0.294311 0.737995
O O12 0.500000 0.279062 0.000000
O O13 0.306317 0.263483 0.913867
O O14 0.093158 0.167144 0.173825
O O15 0.000000 0.220122 0.000000
#
# Coordination Sequence:
#
# PCOD9129525 Si02
#       7
#     4   2   4   4   4   4   4
#     4  11  23  43  68 106 142 181 235 290 352 409
#     4  12  24  44  70 104 138 186 234 280 360 414
#     4  11  26  45  70 103 144 187 230 292 349 419
#     4  11  24  47  70  97 143 181 240 288 345 428
#     4  12  23  41  78 103 130 191 239 289 353 411
#     4  12  25  43  66 108 137 177 234 296 354 408
#     4  11  22  41  72 101 140 180 228 293 348 415
#
# _framework density 21.080998000000001
#
# number of rings (size 3 to 8) (size 9 to 14) (size 15 to 20)
#    0.000    0.615    6.923    0.923    0.000    3.077 
#    2.769    1.538    0.000    0.000    0.000    0.000 
#    0.000    0.000    0.000    0.000    0.000    0.000 
#
# Total GULP energy -72678.037714 kJ/mol
# GULP energy per Si atom -5590.618286 kJ/mol
# Density = 2.103302 g / cm^3
# Si number density = 21.080998 Si / 1000 Ang^3
#
#
#
# Elastic Constant Matrix: (Units=GPa)
#
#
# Indices 1 2 3 4 5 6 
#
# 1 102.7357 19.8908 41.5954 0.0000 -6.2335 0.0000
# 2 19.8908 68.4264 34.1944 0.0000 -1.7627 0.0000
# 3 41.5954 34.1944 121.8066 0.0000 -7.9633 0.0000
# 4 0.0000 0.0000 0.0000-2782.0544 -0.0001 446.2719
# 5 -6.2335 -1.7627 -7.9633 -0.0001 46.6824 0.0000
# 6 0.0000 0.0000 0.0000 446.2719 0.0000 -44.5896
#
#
#
# Elastic Compliance Matrix: (Units=1/GPa)
#
#
# Indices 1 2 3 4 5 6 
#
# 1 0.011480 -0.001610 -0.003410 0.000000 0.000890 0.000000
# 2 -0.001610 0.017226 -0.004306 0.000000 -0.000299 0.000000
# 3 -0.003410 -0.004306 0.010661 0.000000 0.001201 0.000000
# 4 0.000000 0.000000 0.000000 0.000594 0.000000 0.005942
# 5 0.000890 -0.000299 0.001201 0.000000 0.021734 0.000000
# 6 0.000000 0.000000 0.000000 0.005942 0.000000 0.037041
#
#
# Mechanical properties :
#
#
# Convention : Reuss Voigt Hill
#
# Bulk Modulus (GPa) = 48.27139 53.81445 51.04292
# Shear Modulus (GPa) = 40.22755 -542.83977 -251.30611
#
# Velocity S-wave (km/s) = 4.37308 -16.06428 -10.93017
# Velocity P-wave (km/s) = 6.96033 17.84652 11.62007
#
# Compressibility (1/GPa) = 0.02071621
#
# Stress axis : x y z
#
# Youngs Moduli (GPa) = 87.10682 58.05112 93.79593
#
# Poissons Ratio (x) = 0.09347 0.31986
# Poissons Ratio (y) = 0.14025 0.40385
# Poissons Ratio (z) = 0.29704 0.24994
#
# Static dielectric constant tensor:
#      x y z
#    x 2.280460 0.000000 -0.950530 
#    y 0.000000 1.734860 0.000000 
#    z -0.950530 0.000000 3.339900 
# 
# From -- ./inp_files/16986.got.cif
#   From: 2010.05.17/outbox.cif.g08.bks.cpg/sg5_9_cif.got.tgz:16986.got - 2010.06.03 18:56:24.
