data_PCOD9129447
_publ_section_title
;
Structure prediction by ZEFSAII (Michael W. Deem and Ramdas Pophale) SiO2 
 PCOD9129447
Probable space group: C 2
;
_chemical_formula_sum "Si O2"
_cell_formula_units_Z 32
_cell_length_a 10.848627
_cell_length_b 16.560943
_cell_length_c 9.246044
_cell_angle_alpha 90.000000
_cell_angle_beta 97.359608
_cell_angle_gamma 90.000000
_cell_volume 1647.491316
_symmetry_space_group_name_H-M "C 2"
_symmetry_group_IT_number 5
_symmetry_cell_setting 'monoclinic'
loop_
_space_group_symop_operation_xyz
x,y,z
-x,y,-z
1/2+x,1/2+y,z
1/2-x,1/2+y,-z
loop_
_atom_site_type_symbol
_atom_site_label
_atom_site_fract_x
_atom_site_fract_y
_atom_site_fract_z
Si Si1 0.865387 0.372480 0.531368
Si Si2 0.860240 0.666214 0.518516
Si Si3 0.874453 0.206782 0.040622
Si Si4 0.274925 0.280565 0.727108
Si Si5 0.305603 0.524081 0.514358
Si Si6 0.742345 0.770053 0.251280
Si Si7 0.977427 0.868149 0.161832
Si Si8 0.961718 0.050922 0.247014
O O1 0.830007 0.309522 0.399725
O O2 0.748897 0.434413 0.508410
O O3 0.859292 0.330323 0.689324
O O4 0.000000 0.404691 0.500000
O O5 0.831080 0.697625 0.673813
O O6 0.817631 0.576176 0.491087
O O7 0.783798 0.719097 0.394701
O O8 0.000000 0.679888 0.500000
O O9 0.792962 0.261703 0.134035
O O10 0.920469 0.125433 0.135188
O O11 0.797305 0.206826 0.879286
O O12 0.000000 0.246899 0.000000
O O13 0.391671 0.341791 0.746407
O O14 0.374208 0.548523 0.375724
O O15 0.400076 0.547298 0.658882
O O16 0.859877 0.821825 0.211925
O O17 0.952262 0.963888 0.168475
O O18 0.000000 0.844264 0.000000
#
# Coordination Sequence:
#
# PCOD9129447 Si02
#       8
#     4   4   4   4   4   4   4   4
#     4  11  23  41  65  97 134 173 219 287 341 402
#     4  11  22  38  63  95 131 171 217 281 339 396
#     4  12  24  44  63  96 138 178 220 279 340 407
#     4  11  23  40  66  95 130 170 229 276 335 402
#     4  11  22  39  66  97 129 175 230 272 342 403
#     4  11  24  39  67  97 130 172 229 273 343 405
#     4  12  22  41  68  97 126 179 228 284 330 397
#     4  11  24  41  67  95 135 175 225 285 332 405
#
# _framework density 19.423470999999999
#
# number of rings (size 3 to 8) (size 9 to 14) (size 15 to 20)
#    0.000    0.750    6.250    2.250    0.000    1.000 
#    0.000    0.000    0.000    0.000    0.000    0.000 
#    0.000    0.000    0.000    0.000    0.000    0.000 
#
# Total GULP energy -89094.166512 kJ/mol
# GULP energy per Si atom -5568.385407 kJ/mol
# Density = 1.937926 g / cm^3
# Si number density = 19.423471 Si / 1000 Ang^3
#
#
#
# Elastic Constant Matrix: (Units=GPa)
#
#
# Indices 1 2 3 4 5 6 
#
# 1 79.8006 12.3758 33.7489 0.0000 -7.1548 0.0000
# 2 12.3758 60.1090 21.5643 0.0000 3.6169 0.0000
# 3 33.7489 21.5643 98.7922 0.0000 -7.9830 0.0000
# 4 0.0000 0.0000 0.0000 29.4560 0.0000 3.0388
# 5 -7.1548 3.6169 -7.9830 0.0000 32.7535 0.0000
# 6 0.0000 0.0000 0.0000 3.0388 0.0000 31.9243
#
#
#
# Elastic Compliance Matrix: (Units=1/GPa)
#
#
# Indices 1 2 3 4 5 6 
#
# 1 0.014913 -0.001573 -0.004564 0.000000 0.002319 0.000000
# 2 -0.001573 0.018512 -0.003771 0.000000 -0.003307 0.000000
# 3 -0.004564 -0.003771 0.012708 0.000000 0.002517 0.000000
# 4 0.000000 0.000000 0.000000 0.034286 0.000000 -0.003264
# 5 0.002319 -0.003307 0.002517 0.000000 0.032016 0.000000
# 6 0.000000 0.000000 0.000000 -0.003264 0.000000 0.031635
#
#
# Mechanical properties :
#
#
# Convention : Reuss Voigt Hill
#
# Bulk Modulus (GPa) = 37.99634 41.56442 39.78038
# Shear Modulus (GPa) = 28.95914 30.22761 29.59337
#
# Velocity S-wave (km/s) = 3.86545 3.94920 3.90755
# Velocity P-wave (km/s) = 6.28704 6.49927 6.39403
#
# Compressibility (1/GPa) = 0.02631832
#
# Stress axis : x y z
#
# Youngs Moduli (GPa) = 67.05466 54.01901 78.69183
#
# Poissons Ratio (x) = 0.08496 0.35914
# Poissons Ratio (y) = 0.10546 0.29673
# Poissons Ratio (z) = 0.30603 0.20369
#
# Static dielectric constant tensor:
#      x y z
#    x 1.680160 0.000000 0.028020 
#    y 0.000000 1.706680 0.000000 
#    z 0.028020 0.000000 1.695480 
# 
# From -- ./inp_files/20631.got.cif
#   From: 2010.05.17/outbox.cif.g08.bks.cpg/sg5_11_cif.got.tgz:20631.got - 2010.06.03 18:56:24.
