data_PCOD9129875
_publ_section_title
;
Structure prediction by ZEFSAII (Michael W. Deem and Ramdas Pophale) SiO2 
 PCOD9129875
Probable space group: C 2
;
_chemical_formula_sum "Si O2"
_cell_formula_units_Z 18
_cell_length_a 12.712450
_cell_length_b 7.454918
_cell_length_c 19.000159
_cell_angle_alpha 90.000000
_cell_angle_beta 153.030114
_cell_angle_gamma 90.000000
_cell_volume 816.634741
_symmetry_space_group_name_H-M "C 2"
_symmetry_group_IT_number 5
_symmetry_cell_setting 'monoclinic'
loop_
_space_group_symop_operation_xyz
x,y,z
-x,y,-z
1/2+x,1/2+y,z
1/2-x,1/2+y,-z
loop_
_atom_site_type_symbol
_atom_site_label
_atom_site_fract_x
_atom_site_fract_y
_atom_site_fract_z
Si Si1 0.110853 0.371360 0.499407
Si Si2 0.540983 0.834803 0.297286
Si Si3 0.000000 0.709526 0.500000
Si Si4 0.680675 0.613223 0.047824
Si Si5 0.617249 0.486407 0.853537
O O1 0.098926 0.301605 0.413678
O O2 0.971396 0.563070 0.419852
O O3 0.371832 0.419291 0.676475
O O4 0.000000 0.266035 0.500000
O O5 0.355905 0.681368 0.165483
O O6 0.769974 0.814050 0.385056
O O7 0.426160 0.025971 0.215548
O O8 0.609968 0.526037 0.931809
O O9 0.500000 0.567603 0.000000
O O10 0.703706 0.827578 0.053686
#
# Coordination Sequence:
#
# PCOD9129875 Si02
#       5
#     4   4   2   4   4
#     4   9  21  43  73 102 142 175 232 299 338 408
#     4  11  23  46  76 100 144 186 229 293 354 406
#     4   8  22  44  70 104 140 176 236 288 346 412
#     4  12  27  47  70 100 145 185 233 290 337 421
#     4  11  25  46  69 105 135 186 235 271 358 413
#
# _framework density 22.041678999999998
#
# number of rings (size 3 to 8) (size 9 to 14) (size 15 to 20)
#    0.667    0.889    2.222    1.333    6.222    0.889 
#    6.000    2.222    0.000    0.000    0.000    0.000 
#    0.000    0.000    0.000    0.000    0.000    0.000 
#
# Total GULP energy -50200.644003 kJ/mol
# GULP energy per Si atom -5577.849334 kJ/mol
# Density = 2.199151 g / cm^3
# Si number density = 22.041679 Si / 1000 Ang^3
#
#
#
# Elastic Constant Matrix: (Units=GPa)
#
#
# Indices 1 2 3 4 5 6 
#
# 1 133.2323 34.2045 47.1748 0.0012 -15.1760 0.0002
# 2 34.2045 83.1091 10.1601 -0.0010 4.3617 0.0000
# 3 47.1748 10.1601 64.8713 -0.0010 -22.3968 -0.0002
# 4 0.0012 -0.0010 -0.0010 30.2105 -0.0008 -3.2354
# 5 -15.1760 4.3617 -22.3968 -0.0008 45.9198 -0.0003
# 6 0.0002 0.0000 -0.0002 -3.2354 -0.0003 24.1211
#
#
#
# Elastic Compliance Matrix: (Units=1/GPa)
#
#
# Indices 1 2 3 4 5 6 
#
# 1 0.011105 -0.003696 -0.007346 -0.000001 0.000438 0.000000
# 2 -0.003696 0.013746 -0.000406 0.000001 -0.002725 0.000000
# 3 -0.007346 -0.000406 0.024045 0.000001 0.009338 0.000001
# 4 -0.000001 0.000001 0.000001 0.033583 0.000001 0.004505
# 5 0.000438 -0.002725 0.009338 0.000001 0.026736 0.000000
# 6 0.000000 0.000000 0.000001 0.004505 0.000000 0.042062
#
#
# Mechanical properties :
#
#
# Convention : Reuss Voigt Hill
#
# Bulk Modulus (GPa) = 38.46023 51.58796 45.02409
# Shear Modulus (GPa) = 27.34648 32.69516 30.02082
#
# Velocity S-wave (km/s) = 3.52614 3.85559 3.69454
# Velocity P-wave (km/s) = 5.83652 6.57847 6.21857
#
# Compressibility (1/GPa) = 0.02600089
#
# Stress axis : x y z
#
# Youngs Moduli (GPa) = 90.04681 72.74840 41.58922
#
# Poissons Ratio (x) = 0.26884 0.30550
# Poissons Ratio (y) = 0.33277 0.01690
# Poissons Ratio (z) = 0.66146 0.02956
#
# Static dielectric constant tensor:
#      x y z
#    x 1.796890 0.000000 0.023550 
#    y 0.000000 1.880740 0.000000 
#    z 0.023550 0.000000 1.819950 
# 
# From -- ./inp_files/60317.got.cif
#   From: 2010.05.17/outbox.cif.g08.bks.cpg/sg5_31_cif.got.tgz:60317.got - 2010.06.03 18:56:24.
