data_PCOD9129807
_publ_section_title
;
Structure prediction by ZEFSAII (Michael W. Deem and Ramdas Pophale) SiO2 
 PCOD9129807
Probable space group: C 2
;
_chemical_formula_sum "Si O2"
_cell_formula_units_Z 24
_cell_length_a 16.470909
_cell_length_b 7.954061
_cell_length_c 13.546206
_cell_angle_alpha 90.000000
_cell_angle_beta 143.870468
_cell_angle_gamma 90.000000
_cell_volume 1046.383833
_symmetry_space_group_name_H-M "C 2"
_symmetry_group_IT_number 5
_symmetry_cell_setting 'monoclinic'
loop_
_space_group_symop_operation_xyz
x,y,z
-x,y,-z
1/2+x,1/2+y,z
1/2-x,1/2+y,-z
loop_
_atom_site_type_symbol
_atom_site_label
_atom_site_fract_x
_atom_site_fract_y
_atom_site_fract_z
Si Si1 0.414296 0.660120 0.215095
Si Si2 0.173739 0.414707 0.047750
Si Si3 0.437212 0.098023 0.731817
Si Si4 0.079857 0.495014 0.675862
Si Si5 0.836584 0.118283 0.831330
Si Si6 0.675336 0.465510 0.388875
O O1 0.301340 0.529246 0.142346
O O2 0.450799 0.800935 0.331618
O O3 0.548848 0.559503 0.315569
O O4 0.358007 0.773630 0.068170
O O5 0.191913 0.309897 0.165218
O O6 0.039382 0.531975 0.915227
O O7 0.371992 0.278898 0.684510
O O8 0.529432 0.097615 0.721907
O O9 0.312185 0.970191 0.588860
O O10 0.241955 0.512440 0.813562
O O11 0.000000 0.552981 0.500000
O O12 0.791789 0.067485 0.678379
O O13 0.000000 0.087331 0.000000
#
# Coordination Sequence:
#
# PCOD9129807 Si02
#       6
#     4   4   4   4   4   4
#     4  11  23  44  71  98 140 187 237 278 357 423
#     4  11  23  45  72 103 137 192 231 290 353 423
#     4  11  25  45  77  98 145 191 234 281 365 421
#     4  11  24  47  68 101 142 190 229 291 352 420
#     4  12  26  45  69 103 141 176 238 299 344 404
#     4  12  25  46  72 105 138 188 236 295 342 424
#
# _framework density 22.936132000000001
#
# number of rings (size 3 to 8) (size 9 to 14) (size 15 to 20)
#    0.000    0.667    3.333    6.000    2.333    0.000 
#    6.000    0.000    0.000    0.000    0.000    0.000 
#    0.000    0.000    0.000    0.000    0.000    0.000 
#
# Total GULP energy -67208.327204 kJ/mol
# GULP energy per Si atom -5600.693934 kJ/mol
# Density = 2.288393 g / cm^3
# Si number density = 22.936132 Si / 1000 Ang^3
#
#
#
# Elastic Constant Matrix: (Units=GPa)
#
#
# Indices 1 2 3 4 5 6 
#
# 1 86.4770 46.0999 33.5400 0.0000 14.6210 0.0000
# 2 46.0999 104.8885 14.9992 0.0000 14.9548 0.0000
# 3 33.5400 14.9992 34.8145 0.0000 14.4784 0.0000
# 4 0.0000 0.0000 0.0000 37.9114 0.0000 11.6500
# 5 14.6210 14.9548 14.4784 0.0000 38.4795 0.0000
# 6 0.0000 0.0000 0.0000 11.6500 0.0000 40.6898
#
#
#
# Elastic Compliance Matrix: (Units=1/GPa)
#
#
# Indices 1 2 3 4 5 6 
#
# 1 0.022808 -0.007470 -0.019393 0.000000 0.001534 0.000000
# 2 -0.007470 0.012854 0.003030 0.000000 -0.003297 0.000000
# 3 -0.019393 0.003030 0.051601 0.000000 -0.013224 0.000000
# 4 0.000000 0.000000 0.000000 0.028922 0.000000 -0.008281
# 5 0.001534 -0.003297 -0.013224 0.000000 0.031663 0.000000
# 6 0.000000 0.000000 0.000000 -0.008281 0.000000 0.026947
#
#
# Mechanical properties :
#
#
# Convention : Reuss Voigt Hill
#
# Bulk Modulus (GPa) = 25.25422 46.16203 35.70813
# Shear Modulus (GPa) = 21.21713 32.18552 26.70132
#
# Velocity S-wave (km/s) = 3.04477 3.75008 3.41568
# Velocity P-wave (km/s) = 4.83688 6.23866 5.58195
#
# Compressibility (1/GPa) = 0.03959735
#
# Stress axis : x y z
#
# Youngs Moduli (GPa) = 43.84422 77.79733 19.37956
#
# Poissons Ratio (x) = 0.58114 0.37582
# Poissons Ratio (y) = 0.32751 -0.05872
# Poissons Ratio (z) = 0.85025 -0.23571
#
# Static dielectric constant tensor:
#      x y z
#    x 1.875640 0.000000 -0.024470 
#    y 0.000000 1.836670 0.000000 
#    z -0.024470 0.000000 1.860670 
# 
# From -- ./inp_files/55797.got.cif
#   From: 2010.05.17/outbox.cif.g08.bks.cpg/sg5_28_cif.got.tgz:55797.got - 2010.06.03 18:56:24.
