data_PCOD9129455
_publ_section_title
;
Structure prediction by ZEFSAII (Michael W. Deem and Ramdas Pophale) SiO2 
 PCOD9129455
Probable space group: C 2
;
_chemical_formula_sum "Si O2"
_cell_formula_units_Z 26
_cell_length_a 13.515791
_cell_length_b 5.336514
_cell_length_c 19.189443
_cell_angle_alpha 90.000000
_cell_angle_beta 127.034134
_cell_angle_gamma 90.000000
_cell_volume 1104.879758
_symmetry_space_group_name_H-M "C 2"
_symmetry_group_IT_number 5
_symmetry_cell_setting 'monoclinic'
loop_
_space_group_symop_operation_xyz
x,y,z
-x,y,-z
1/2+x,1/2+y,z
1/2-x,1/2+y,-z
loop_
_atom_site_type_symbol
_atom_site_label
_atom_site_fract_x
_atom_site_fract_y
_atom_site_fract_z
Si Si1 0.910478 0.742860 0.630085
Si Si2 0.709360 0.583442 0.828250
Si Si3 0.561782 0.080268 0.808058
Si Si4 0.868422 0.939612 0.350199
Si Si5 0.770014 0.638813 0.432913
Si Si6 0.676502 0.988392 0.989979
Si Si7 0.500000 0.791713 0.500000
O O1 0.806120 0.680070 0.528865
O O2 0.937106 0.585579 0.710412
O O3 0.041971 0.728524 0.645387
O O4 0.864153 0.017688 0.633749
O O5 0.619855 0.356907 0.817832
O O6 0.715429 0.540927 0.748008
O O7 0.826975 0.543700 0.929080
O O8 0.649814 0.855861 0.817245
O O9 0.559525 0.033819 0.890000
O O10 0.800368 0.858540 0.391525
O O11 0.974379 0.128425 0.421151
O O12 0.875594 0.444503 0.454956
O O13 0.772792 0.206074 0.003000
#
# Coordination Sequence:
#
# PCOD9129455 Si02
#       7
#     4   4   4   4   4   4   2
#     4  11  22  40  58  86 124 166 214 260 323 376
#     4   9  18  31  57  85 124 158 200 258 322 369
#     4   9  18  33  55  85 124 155 204 263 311 374
#     4  11  22  39  57  86 125 165 211 268 311 384
#     4  12  24  39  58  87 126 169 218 262 320 378
#     4   8  14  28  50  84 119 151 195 258 312 369
#     4  12  20  40  58  78 128 162 216 272 304 380
#
# _framework density 23.531970999999999
#
# number of rings (size 3 to 8) (size 9 to 14) (size 15 to 20)
#    0.000    1.846    3.077    1.846    2.154    1.231 
#    0.000    0.000    0.000    0.000    0.000    1.077 
#   23.077    0.000    0.000    0.000    0.000    0.000 
#
# Total GULP energy -72459.466803 kJ/mol
# GULP energy per Si atom -5573.805139 kJ/mol
# Density = 2.347841 g / cm^3
# Si number density = 23.531971 Si / 1000 Ang^3
#
#
#
# Elastic Constant Matrix: (Units=GPa)
#
#
# Indices 1 2 3 4 5 6 
#
# 1 63.5355 12.3842 36.4983 0.0000 -0.2697 0.0000
# 2 12.3842 91.0118 26.1624 0.0000 5.2417 0.0000
# 3 36.4983 26.1624 226.6308 0.0000 -24.3965 0.0000
# 4 0.0000 0.0000 0.0000 37.0775 0.0000 3.3219
# 5 -0.2697 5.2417 -24.3965 0.0000 17.7151 0.0000
# 6 0.0000 0.0000 0.0000 3.3219 0.0000 15.6381
#
#
#
# Elastic Compliance Matrix: (Units=1/GPa)
#
#
# Indices 1 2 3 4 5 6 
#
# 1 0.017759 -0.001319 -0.003096 0.000000 -0.003602 0.000000
# 2 -0.001319 0.012047 -0.001836 0.000000 -0.006114 0.000000
# 3 -0.003096 -0.001836 0.006077 0.000000 0.008866 0.000000
# 4 0.000000 0.000000 0.000000 0.027494 0.000000 -0.005840
# 5 -0.003602 -0.006114 0.008866 0.000000 0.070413 0.000000
# 6 0.000000 0.000000 0.000000 -0.005840 0.000000 0.065187
#
#
# Mechanical properties :
#
#
# Convention : Reuss Voigt Hill
#
# Bulk Modulus (GPa) = 42.76899 59.02977 50.89938
# Shear Modulus (GPa) = 22.80258 34.49503 28.64880
#
# Velocity S-wave (km/s) = 3.11626 3.83283 3.49297
# Velocity P-wave (km/s) = 5.58233 6.68781 6.15992
#
# Compressibility (1/GPa) = 0.02338142
#
# Stress axis : x y z
#
# Youngs Moduli (GPa) = 56.30829 83.00747 164.54444
#
# Poissons Ratio (x) = 0.10950 0.50936
# Poissons Ratio (y) = 0.07428 0.30217
# Poissons Ratio (z) = 0.17431 0.15244
#
# Static dielectric constant tensor:
#      x y z
#    x 1.876420 0.000000 -0.051170 
#    y 0.000000 2.027440 0.000000 
#    z -0.051170 0.000000 1.989190 
# 
# From -- ./inp_files/53882.got.cif
#   From: 2010.05.17/outbox.cif.g08.bks.cpg/sg5_27_cif.got.tgz:53882.got - 2010.06.03 18:56:24.
