data_PCOD9129759
_publ_section_title
;
Structure prediction by ZEFSAII (Michael W. Deem and Ramdas Pophale) SiO2 
 PCOD9129759
Probable space group: C 2
;
_chemical_formula_sum "Si O2"
_cell_formula_units_Z 20
_cell_length_a 7.299692
_cell_length_b 20.921623
_cell_length_c 7.789909
_cell_angle_alpha 90.000000
_cell_angle_beta 128.768483
_cell_angle_gamma 90.000000
_cell_volume 927.577261
_symmetry_space_group_name_H-M "C 2"
_symmetry_group_IT_number 5
_symmetry_cell_setting 'monoclinic'
loop_
_space_group_symop_operation_xyz
x,y,z
-x,y,-z
1/2+x,1/2+y,z
1/2-x,1/2+y,-z
loop_
_atom_site_type_symbol
_atom_site_label
_atom_site_fract_x
_atom_site_fract_y
_atom_site_fract_z
Si Si1 0.679401 0.324020 0.945282
Si Si2 0.005019 0.426976 0.307260
Si Si3 0.500000 0.386828 0.500000
Si Si4 0.246486 0.682692 0.040751
Si Si5 0.500000 0.621991 0.500000
Si Si6 0.491695 0.063653 0.200206
O O1 0.782811 0.252860 0.988539
O O2 0.869174 0.377358 0.107777
O O3 0.500000 0.324499 0.000000
O O4 0.550029 0.344055 0.695871
O O5 0.272279 0.428909 0.401799
O O6 0.909021 0.498957 0.241301
O O7 0.000000 0.403753 0.500000
O O8 0.436888 0.663507 0.294787
O O9 0.000000 0.686969 0.000000
O O10 0.186927 0.623356 0.880253
O O11 0.260033 0.583494 0.400370
O O12 0.500000 0.050008 0.000000
#
# Coordination Sequence:
#
# PCOD9129759 Si02
#       6
#     4   4   2   4   2   4
#     4  11  23  43  67 100 134 176 225 268 334 394
#     4  12  25  42  67  99 137 175 219 276 330 394
#     4  12  25  44  68  96 135 176 220 278 325 394
#     4   8  18  34  62  93 126 168 218 268 320 393
#     4   8  15  32  62  90 121 172 212 270 327 376
#     4   9  18  36  59  93 128 167 218 267 325 388
#
# _framework density 21.561546
#
# number of rings (size 3 to 8) (size 9 to 14) (size 15 to 20)
#    0.000    2.400    2.000    2.400    1.400    3.200 
#    1.800    0.000    0.000    0.000    0.000    0.000 
#    0.000    0.000    0.000    0.000    0.000    0.000 
#
# Total GULP energy -55835.908033 kJ/mol
# GULP energy per Si atom -5583.590803 kJ/mol
# Density = 2.151247 g / cm^3
# Si number density = 21.561546 Si / 1000 Ang^3
#
#
#
# Elastic Constant Matrix: (Units=GPa)
#
#
# Indices 1 2 3 4 5 6 
#
# 1 64.0399 4.3813 19.6922 0.0000 0.0439 0.0000
# 2 4.3813 178.6469 72.0167 0.0000 5.4687 0.0000
# 3 19.6922 72.0167 149.5612 0.0000 -0.0308 0.0000
# 4 0.0000 0.0000 0.0000 14.2837 0.0000 -3.3873
# 5 0.0439 5.4687 -0.0308 0.0000 35.0216 0.0000
# 6 0.0000 0.0000 0.0000 -3.3873 0.0000 11.7420
#
#
#
# Elastic Compliance Matrix: (Units=1/GPa)
#
#
# Indices 1 2 3 4 5 6 
#
# 1 0.016323 0.000583 -0.002430 0.000000 -0.000114 0.000000
# 2 0.000583 0.007008 -0.003452 0.000000 -0.001098 0.000000
# 3 -0.002430 -0.003452 0.008668 0.000000 0.000550 0.000000
# 4 0.000000 0.000000 0.000000 0.075151 0.000000 0.021679
# 5 -0.000114 -0.001098 0.000550 0.000000 0.028726 0.000000
# 6 0.000000 0.000000 0.000000 0.021679 0.000000 0.091418
#
#
# Mechanical properties :
#
#
# Convention : Reuss Voigt Hill
#
# Bulk Modulus (GPa) = 46.72484 64.93648 55.83066
# Shear Modulus (GPa) = 20.40601 31.95331 26.17966
#
# Velocity S-wave (km/s) = 3.07971 3.85380 3.48829
# Velocity P-wave (km/s) = 5.86205 7.06997 6.49416
#
# Compressibility (1/GPa) = 0.02140189
#
# Stress axis : x y z
#
# Youngs Moduli (GPa) = 61.26465 142.68609 115.36315
#
# Poissons Ratio (x) = -0.08314 0.28030
# Poissons Ratio (y) = -0.03570 0.39819
# Poissons Ratio (z) = 0.14886 0.49250
#
# Static dielectric constant tensor:
#      x y z
#    x 1.861060 0.000000 -0.016110 
#    y 0.000000 1.821760 0.000000 
#    z -0.016110 0.000000 1.765750 
# 
# From -- ./inp_files/16615.got.cif
#   From: 2010.05.17/outbox.cif.g08.bks.cpg/sg5_9_cif.got.tgz:16615.got - 2010.06.03 18:56:24.
