data_PCOD9129404
_publ_section_title
;
Structure prediction by ZEFSAII (Michael W. Deem and Ramdas Pophale) SiO2 
 PCOD9129404
Probable space group: C 2
;
_chemical_formula_sum "Si O2"
_cell_formula_units_Z 28
_cell_length_a 20.104823
_cell_length_b 6.667737
_cell_length_c 9.822132
_cell_angle_alpha 90.000000
_cell_angle_beta 112.042376
_cell_angle_gamma 90.000000
_cell_volume 1220.451228
_symmetry_space_group_name_H-M "C 2"
_symmetry_group_IT_number 5
_symmetry_cell_setting 'monoclinic'
loop_
_space_group_symop_operation_xyz
x,y,z
-x,y,-z
1/2+x,1/2+y,z
1/2-x,1/2+y,-z
loop_
_atom_site_type_symbol
_atom_site_label
_atom_site_fract_x
_atom_site_fract_y
_atom_site_fract_z
Si Si1 0.236656 0.479320 0.289349
Si Si2 0.856465 0.229378 0.301124
Si Si3 0.957853 0.397527 0.172476
Si Si4 0.000000 0.045004 0.500000
Si Si5 0.099506 0.713974 0.089198
Si Si6 0.946851 0.699966 0.633685
Si Si7 0.791527 0.587619 0.417681
Si Si8 0.000000 0.077406 0.000000
O O1 0.309398 0.530701 0.266503
O O2 0.177667 0.613654 0.167506
O O3 0.235686 0.540041 0.449939
O O4 0.235971 0.237886 0.301689
O O5 0.885424 0.308449 0.180506
O O6 0.807809 0.390986 0.342478
O O7 0.928539 0.173264 0.436533
O O8 0.001850 0.506296 0.326696
O O9 0.937129 0.564233 0.045766
O O10 0.003912 0.226356 0.132503
O O11 0.990851 0.891686 0.618574
O O12 0.074063 0.708826 0.225428
O O13 0.069940 0.936266 0.029595
O O14 0.871603 0.682413 0.496644
#
# Coordination Sequence:
#
# PCOD9129404 Si02
#       8
#     4   4   4   2   4   4   4   2
#     4  11  25  47  69 103 141 198 245 303 373 450
#     4  12  26  43  69 109 141 191 244 304 375 442
#     4  12  25  46  70 113 148 190 255 310 374 443
#     4  12  24  42  76 110 148 196 242 322 380 426
#     4  11  25  46  72 103 143 199 249 303 370 450
#     4  11  21  44  73 102 144 186 242 311 365 439
#     4  11  23  46  73 100 145 182 246 302 372 446
#     4  12  22  48  76 104 144 194 254 302 372 436
#
# _framework density 22.942335
#
# number of rings (size 3 to 8) (size 9 to 14) (size 15 to 20)
#    0.000    0.571    5.714    2.571    0.000    1.143 
#    5.143    0.000    0.000    0.000    0.000    0.000 
#    0.000    0.000    0.000    0.000    0.000    0.000 
#
# Total GULP energy -78128.717760 kJ/mol
# GULP energy per Si atom -5580.622697 kJ/mol
# Density = 2.289012 g / cm^3
# Si number density = 22.942335 Si / 1000 Ang^3
#
#
#
# Elastic Constant Matrix: (Units=GPa)
#
#
# Indices 1 2 3 4 5 6 
#
# 1 77.7035 26.7421 16.5354 0.0000 -3.0407 0.0000
# 2 26.7421 120.3920 35.0042 0.0000 -2.2250 0.0000
# 3 16.5354 35.0042 60.6059 0.0000 6.2637 0.0000
# 4 0.0000 0.0000 0.0000 33.9318 0.0000 -9.5998
# 5 -3.0407 -2.2250 6.2637 0.0000 35.5754 0.0000
# 6 0.0000 0.0000 0.0000 -9.5998 0.0000 44.8742
#
#
#
# Elastic Compliance Matrix: (Units=1/GPa)
#
#
# Indices 1 2 3 4 5 6 
#
# 1 0.014319 -0.002367 -0.002700 0.000000 0.001551 0.000000
# 2 -0.002367 0.010472 -0.005550 0.000000 0.001430 0.000000
# 3 -0.002700 -0.005550 0.020882 0.000000 -0.004255 0.000000
# 4 0.000000 0.000000 0.000000 0.031369 0.000000 0.006711
# 5 0.001551 0.001430 -0.004255 0.000000 0.029080 0.000000
# 6 0.000000 0.000000 0.000000 0.006711 0.000000 0.023720
#
#
# Mechanical properties :
#
#
# Convention : Reuss Voigt Hill
#
# Bulk Modulus (GPa) = 40.91851 46.14055 43.52953
# Shear Modulus (GPa) = 31.40214 34.90427 33.15320
#
# Velocity S-wave (km/s) = 3.70367 3.90473 3.80553
# Velocity P-wave (km/s) = 6.01362 6.36274 6.19064
#
# Compressibility (1/GPa) = 0.02443882
#
# Stress axis : x y z
#
# Youngs Moduli (GPa) = 69.83574 95.49110 47.88773
#
# Poissons Ratio (x) = 0.22602 0.12930
# Poissons Ratio (y) = 0.16530 0.26580
# Poissons Ratio (z) = 0.18856 0.53002
#
# Static dielectric constant tensor:
#      x y z
#    x 1.881910 0.000000 0.052660 
#    y 0.000000 1.933970 0.000000 
#    z 0.052660 0.000000 1.885980 
# 
# From -- ./inp_files/45737.got.cif
#   From: 2010.05.17/outbox.cif.g08.bks.cpg/sg5_23_cif.got.tgz:45737.got - 2010.06.03 18:56:24.
