data_PCOD9129725
_publ_section_title
;
Structure prediction by ZEFSAII (Michael W. Deem and Ramdas Pophale) SiO2 
 PCOD9129725
Probable space group: C 2
;
_chemical_formula_sum "Si O2"
_cell_formula_units_Z 16
_cell_length_a 5.190701
_cell_length_b 13.132083
_cell_length_c 13.031977
_cell_angle_alpha 90.000000
_cell_angle_beta 132.512449
_cell_angle_gamma 90.000000
_cell_volume 654.808541
_symmetry_space_group_name_H-M "C 2"
_symmetry_group_IT_number 5
_symmetry_cell_setting 'monoclinic'
loop_
_space_group_symop_operation_xyz
x,y,z
-x,y,-z
1/2+x,1/2+y,z
1/2-x,1/2+y,-z
loop_
_atom_site_type_symbol
_atom_site_label
_atom_site_fract_x
_atom_site_fract_y
_atom_site_fract_z
Si Si1 0.373823 0.670100 0.652288
Si Si2 0.939445 0.953308 0.367715
Si Si3 0.270696 0.377220 0.762512
Si Si4 0.894253 0.068469 0.085542
O O1 0.507079 0.573254 0.624960
O O2 0.658423 0.759871 0.731898
O O3 0.357964 0.623926 0.763635
O O4 0.000000 0.697843 0.500000
O O5 0.536413 0.925052 0.249158
O O6 0.000000 0.919156 0.500000
O O7 0.181934 0.904537 0.345753
O O8 0.586384 0.445878 0.891090
O O9 0.500000 0.102105 0.000000
O O10 0.000000 0.095428 0.000000
#
# Coordination Sequence:
#
# PCOD9129725 Si02
#       4
#     4   4   4   4
#     4  11  26  47  78 112 147 192 247 309 374 436
#     4  11  23  42  66 103 150 187 233 297 362 434
#     4  11  25  45  71 104 145 195 244 295 365 438
#     4  11  25  50  76 105 150 198 246 303 366 442
#
# _framework density 24.434621
#
# number of rings (size 3 to 8) (size 9 to 14) (size 15 to 20)
#    0.000    1.000    0.000    7.500    0.000   11.000 
#    0.000    7.500    0.000    0.000    0.000    0.000 
#    0.000    0.000    0.000    0.000    0.000    0.000 
#
# Total GULP energy -44644.604847 kJ/mol
# GULP energy per Si atom -5580.575606 kJ/mol
# Density = 2.437901 g / cm^3
# Si number density = 24.434621 Si / 1000 Ang^3
#
#
#
# Elastic Constant Matrix: (Units=GPa)
#
#
# Indices 1 2 3 4 5 6 
#
# 1 172.1759 57.6499 55.5908 0.0003 -28.1925 0.0003
# 2 57.6499 172.4747 24.8151 -0.0001 -2.1383 -0.0001
# 3 55.5908 24.8151 129.5271 0.0001 -23.6644 0.0004
# 4 0.0003 -0.0001 0.0001 7.8225 0.0001 16.7993
# 5 -28.1925 -2.1383 -23.6644 0.0001 44.2625 0.0003
# 6 0.0003 -0.0001 0.0004 16.7993 0.0003 29.4735
#
#
#
# Elastic Compliance Matrix: (Units=1/GPa)
#
#
# Indices 1 2 3 4 5 6 
#
# 1 0.007913 -0.002270 -0.002283 0.000000 0.003710 0.000000
# 2 -0.002270 0.006619 -0.000553 0.000000 -0.001422 0.000000
# 3 -0.002283 -0.000553 0.009460 -0.000001 0.003576 0.000000
# 4 0.000000 0.000000 -0.000001 -0.570518 -0.000001 0.325183
# 5 0.003710 -0.001422 0.003576 -0.000001 0.026799 0.000000
# 6 0.000000 0.000000 0.000000 0.325183 0.000000 -0.151419
#
#
# Mechanical properties :
#
#
# Convention : Reuss Voigt Hill
#
# Bulk Modulus (GPa) = 72.58444 83.36548 77.97496
# Shear Modulus (GPa) = -7.61801 38.71982 15.55090
#
# Velocity S-wave (km/s) = -1.76762 3.98506 2.52549
# Velocity P-wave (km/s) = 5.06005 7.44084 6.36279
#
# Compressibility (1/GPa) = 0.01377706
#
# Stress axis : x y z
#
# Youngs Moduli (GPa) = 126.37663 151.08416 105.71012
#
# Poissons Ratio (x) = 0.34302 0.24138
# Poissons Ratio (y) = 0.28692 0.05851
# Poissons Ratio (z) = 0.28856 0.08362
#
# Static dielectric constant tensor:
#      x y z
#    x 2.041300 0.000000 0.218300 
#    y 0.000000 1.955620 0.000000 
#    z 0.218300 0.000000 2.315380 
# 
# From -- ./inp_files/49015.got.cif
#   From: 2010.05.17/outbox.cif.g08.bks.cpg/sg5_25_cif.got.tgz:49015.got - 2010.06.03 18:56:24.
