data_PCOD9129893
_publ_section_title
;
Structure prediction by ZEFSAII (Michael W. Deem and Ramdas Pophale) SiO2 
 PCOD9129893
Probable space group: C 2
;
_chemical_formula_sum "Si O2"
_cell_formula_units_Z 28
_cell_length_a 14.560156
_cell_length_b 8.092536
_cell_length_c 15.075082
_cell_angle_alpha 90.000000
_cell_angle_beta 44.250242
_cell_angle_gamma 90.000000
_cell_volume 1239.473545
_symmetry_space_group_name_H-M "C 2"
_symmetry_group_IT_number 5
_symmetry_cell_setting 'monoclinic'
loop_
_space_group_symop_operation_xyz
x,y,z
-x,y,-z
1/2+x,1/2+y,z
1/2-x,1/2+y,-z
loop_
_atom_site_type_symbol
_atom_site_label
_atom_site_fract_x
_atom_site_fract_y
_atom_site_fract_z
Si Si1 0.500000 0.562371 0.500000
Si Si2 0.605033 0.841763 0.081821
Si Si3 0.237734 0.988094 0.448679
Si Si4 0.144930 0.843236 0.686402
Si Si5 0.501736 0.801293 0.327152
Si Si6 0.500000 0.672243 0.000000
Si Si7 0.734648 0.422610 0.814162
Si Si8 0.871266 0.731118 0.946976
O O1 0.632630 0.461804 0.439590
O O2 0.510441 0.682849 0.406306
O O3 0.565477 0.731729 0.193950
O O4 0.500784 0.789094 0.082752
O O5 0.603711 0.038745 0.085424
O O6 0.755239 0.792450 0.963372
O O7 0.155398 0.969441 0.597285
O O8 0.362690 0.872234 0.388855
O O9 0.303794 0.165295 0.383662
O O10 0.231468 0.889805 0.711722
O O11 0.001916 0.826313 0.828403
O O12 0.611447 0.944626 0.269966
O O13 0.367940 0.565744 0.092688
O O14 0.674958 0.277949 0.920326
#
# Coordination Sequence:
#
# PCOD9129893 Si02
#       8
#     2   4   4   4   4   2   4   4
#     4  12  26  48  76 108 146 212 250 316 394 440
#     4  11  26  43  74 107 153 194 255 318 395 468
#     4  12  26  47  76 107 146 206 259 315 376 459
#     4  12  25  47  76 108 153 201 262 317 385 461
#     4  11  23  47  72 104 148 196 252 315 374 457
#     4  12  26  40  66 124 140 200 250 306 396 482
#     4  11  24  45  79 105 158 197 245 322 406 451
#     4  11  24  47  72 111 151 201 245 322 394 471
#
# _framework density 22.590237999999999
#
# number of rings (size 3 to 8) (size 9 to 14) (size 15 to 20)
#    0.000    0.571    5.714    1.714    4.000    1.143 
#    2.571    2.143    0.000    0.000    0.000    0.000 
#    0.000    0.000    0.000    0.000    0.000    0.000 
#
# Total GULP energy -78003.531421 kJ/mol
# GULP energy per Si atom -5571.680816 kJ/mol
# Density = 2.253882 g / cm^3
# Si number density = 22.590238 Si / 1000 Ang^3
#
#
#
# Elastic Constant Matrix: (Units=GPa)
#
#
# Indices 1 2 3 4 5 6 
#
# 1 174.2900 30.9059 51.6166 0.0000 -3.1748 0.0000
# 2 30.9059 49.8958 6.4517 0.0000 4.0061 0.0000
# 3 51.6166 6.4517 55.5633 0.0000 -0.6245 0.0000
# 4 0.0000 0.0000 0.0000 -70.5291 0.0000 -19.8476
# 5 -3.1748 4.0061 -0.6245 0.0000 59.3376 0.0000
# 6 0.0000 0.0000 0.0000 -19.8476 0.0000 32.7094
#
#
#
# Elastic Compliance Matrix: (Units=1/GPa)
#
#
# Indices 1 2 3 4 5 6 
#
# 1 0.008823 -0.004530 -0.007662 0.000000 0.000697 0.000000
# 2 -0.004530 0.022790 0.001542 0.000000 -0.001765 0.000000
# 3 -0.007662 0.001542 0.024934 0.000000 -0.000252 0.000000
# 4 0.000000 0.000000 0.000000 -0.012111 0.000000 -0.007349
# 5 0.000697 -0.001765 -0.000252 0.000000 0.017007 0.000000
# 6 0.000000 0.000000 0.000000 -0.007349 0.000000 0.026113
#
#
# Mechanical properties :
#
#
# Convention : Reuss Voigt Hill
#
# Bulk Modulus (GPa) = 28.37187 50.85527 39.61357
# Shear Modulus (GPa) = 41.45785 17.02192 29.23988
#
# Velocity S-wave (km/s) = 4.28858 2.74799 3.60162
# Velocity P-wave (km/s) = 6.09173 5.71222 5.90503
#
# Compressibility (1/GPa) = 0.03524618
#
# Stress axis : x y z
#
# Youngs Moduli (GPa) = 113.34323 43.87882 40.10659
#
# Poissons Ratio (x) = 0.19878 0.30731
# Poissons Ratio (y) = 0.51346 -0.06185
# Poissons Ratio (z) = 0.86846 -0.06767
#
# Static dielectric constant tensor:
#      x y z
#    x 1.954020 0.000000 -0.004710 
#    y 0.000000 1.849250 0.000000 
#    z -0.004710 0.000000 1.958590 
# 
# From -- ./inp_files/54314.got.cif
#   From: 2010.05.17/outbox.cif.g08.bks.cpg/sg5_28_cif.got.tgz:54314.got - 2010.06.03 18:56:24.
