data_PCOD9129569
_publ_section_title
;
Structure prediction by ZEFSAII (Michael W. Deem and Ramdas Pophale) SiO2 
 PCOD9129569
Probable space group: C 2
;
_chemical_formula_sum "Si O2"
_cell_formula_units_Z 24
_cell_length_a 7.434808
_cell_length_b 19.310900
_cell_length_c 9.942797
_cell_angle_alpha 90.000000
_cell_angle_beta 118.058790
_cell_angle_gamma 90.000000
_cell_volume 1259.733092
_symmetry_space_group_name_H-M "C 2"
_symmetry_group_IT_number 5
_symmetry_cell_setting 'monoclinic'
loop_
_space_group_symop_operation_xyz
x,y,z
-x,y,-z
1/2+x,1/2+y,z
1/2-x,1/2+y,-z
loop_
_atom_site_type_symbol
_atom_site_label
_atom_site_fract_x
_atom_site_fract_y
_atom_site_fract_z
Si Si1 0.958435 0.150220 0.827320
Si Si2 0.691483 0.057452 0.168450
Si Si3 0.337923 0.893496 0.319543
Si Si4 0.419970 0.416950 0.321879
Si Si5 0.077248 0.549344 0.677830
Si Si6 0.055213 0.308990 0.178205
O O1 0.769463 0.099112 0.744618
O O2 0.912278 0.229026 0.771018
O O3 0.153634 0.116764 0.823868
O O4 0.000000 0.152167 0.000000
O O5 0.594517 0.073334 0.279229
O O6 0.814553 0.985244 0.222731
O O7 0.500000 0.051292 0.000000
O O8 0.500000 0.884406 0.500000
O O9 0.383413 0.839833 0.216876
O O10 0.368667 0.970097 0.267709
O O11 0.113116 0.892760 0.302856
O O12 0.500000 0.434195 0.500000
O O13 0.252831 0.356582 0.271452
O O14 0.000000 0.546333 0.500000
O O15 0.000000 0.313423 0.000000
#
# Coordination Sequence:
#
# PCOD9129569 Si02
#       6
#     4   4   4   4   4   4
#     4  11  25  45  65  96 137 173 216 276 329 385
#     4  12  24  42  72  97 128 178 225 265 325 392
#     4  11  22  43  69  96 130 171 218 268 328 390
#     4  12  23  42  73 100 134 170 217 280 328 383
#     4  11  23  42  68 101 131 166 221 277 325 385
#     4  11  26  45  64  99 135 171 222 271 326 392
#
# _framework density 19.051653999999999
#
# number of rings (size 3 to 8) (size 9 to 14) (size 15 to 20)
#    0.000    0.667    6.667    1.500    0.000    2.667 
#    3.000    0.000    0.000    0.000    0.000    0.000 
#    0.000    0.000    0.000    0.000    0.000    0.000 
#
# Total GULP energy -67075.744396 kJ/mol
# GULP energy per Si atom -5589.645366 kJ/mol
# Density = 1.900829 g / cm^3
# Si number density = 19.051654 Si / 1000 Ang^3
#
#
#
# Elastic Constant Matrix: (Units=GPa)
#
#
# Indices 1 2 3 4 5 6 
#
# 1 134.8414 13.8213 11.9619 0.0000 -19.4504 0.0000
# 2 13.8213 103.4137 22.5663 0.0000 -0.6434 0.0000
# 3 11.9619 22.5663 33.5798 0.0000 -6.9750 0.0000
# 4 0.0000 0.0000 0.0000 -7.4830 0.0000 2.6096
# 5 -19.4504 -0.6434 -6.9750 0.0000 36.9184 0.0000
# 6 0.0000 0.0000 0.0000 2.6096 0.0000 29.6494
#
#
#
# Elastic Compliance Matrix: (Units=1/GPa)
#
#
# Indices 1 2 3 4 5 6 
#
# 1 0.008211 -0.000722 -0.001607 0.000000 0.004010 0.000000
# 2 -0.000722 0.011455 -0.007784 0.000000 -0.001651 0.000000
# 3 -0.001607 -0.007784 0.036824 0.000000 0.005975 0.000000
# 4 0.000000 0.000000 0.000000 -0.129657 0.000000 0.011412
# 5 0.004010 -0.001651 0.005975 0.000000 0.030299 0.000000
# 6 0.000000 0.000000 0.000000 0.011412 0.000000 0.032723
#
#
# Mechanical properties :
#
#
# Convention : Reuss Voigt Hill
#
# Bulk Modulus (GPa) = 27.57488 40.94821 34.26154
# Shear Modulus (GPa) = 225.54714 26.71601 126.13157
#
# Velocity S-wave (km/s) = 10.89239 3.74878 8.14548
# Velocity P-wave (km/s) = 13.14144 6.34648 10.31928
#
# Compressibility (1/GPa) = 0.03626490
#
# Stress axis : x y z
#
# Youngs Moduli (GPa) = 121.78696 87.30139 27.15622
#
# Poissons Ratio (x) = 0.06301 0.04364
# Poissons Ratio (y) = 0.08790 0.21137
# Poissons Ratio (z) = 0.19571 0.67951
#
# Static dielectric constant tensor:
#      x y z
#    x 1.656430 0.000000 -0.006790 
#    y 0.000000 1.661480 0.000000 
#    z -0.006790 0.000000 1.654550 
# 
# From -- ./inp_files/16874.got.cif
#   From: 2010.05.17/outbox.cif.g08.bks.cpg/sg5_9_cif.got.tgz:16874.got - 2010.06.03 18:56:24.
