data_PCOD9129147
_publ_section_title
;
Structure prediction by ZEFSAII (Michael W. Deem and Ramdas Pophale) SiO2 
 PCOD9129147
Probable space group: C 2
;
_chemical_formula_sum "Si O2"
_cell_formula_units_Z 24
_cell_length_a 21.587277
_cell_length_b 5.053139
_cell_length_c 10.158779
_cell_angle_alpha 90.000000
_cell_angle_beta 122.387577
_cell_angle_gamma 90.000000
_cell_volume 935.775175
_symmetry_space_group_name_H-M "C 2"
_symmetry_group_IT_number 5
_symmetry_cell_setting 'monoclinic'
loop_
_space_group_symop_operation_xyz
x,y,z
-x,y,-z
1/2+x,1/2+y,z
1/2-x,1/2+y,-z
loop_
_atom_site_type_symbol
_atom_site_label
_atom_site_fract_x
_atom_site_fract_y
_atom_site_fract_z
Si Si1 0.348390 0.732980 0.586857
Si Si2 0.980725 0.156815 0.248837
Si Si3 0.871316 0.779614 0.255210
Si Si4 0.217711 0.290756 0.775271
Si Si5 0.000000 0.553024 0.500000
Si Si6 0.149392 0.756177 0.237270
Si Si7 0.000000 0.038366 0.000000
O O1 0.431710 0.656270 0.647283
O O2 0.313038 0.809277 0.408904
O O3 0.317830 0.470324 0.621563
O O4 0.347362 0.970051 0.691534
O O5 0.967574 0.216060 0.080909
O O6 0.967178 0.369353 0.347498
O O7 0.933562 0.894736 0.226373
O O8 0.816796 0.530737 0.181166
O O9 0.927083 0.724539 0.443181
O O10 0.816123 0.021171 0.210595
O O11 0.304390 0.276950 0.845647
O O12 0.066410 0.852312 0.121198
#
# Coordination Sequence:
#
# PCOD9129147 Si02
#       7
#     4   4   4   4   2   4   2
#     4  11  22  40  69 103 145 186 249 301 366 427
#     4  11  24  46  72 110 146 193 245 302 364 431
#     4  12  24  40  69 110 147 184 236 308 370 444
#     4  12  23  42  69 107 150 187 242 307 379 432
#     4  12  22  42  74 112 152 184 248 306 366 432
#     4  11  25  44  68 102 144 199 241 303 364 443
#     4  10  28  50  74 106 146 200 252 298 362 454
#
# _framework density 25.647189000000001
#
# number of rings (size 3 to 8) (size 9 to 14) (size 15 to 20)
#    0.000    0.667    3.333    4.500    4.667    4.000 
#    0.000    1.667    0.000    0.000    0.000    0.000 
#    0.000    0.000    0.000    0.000    0.000    0.000 
#
# Total GULP energy -67053.899009 kJ/mol
# GULP energy per Si atom -5587.824917 kJ/mol
# Density = 2.558882 g / cm^3
# Si number density = 25.647189 Si / 1000 Ang^3
#
#
#
# Elastic Constant Matrix: (Units=GPa)
#
#
# Indices 1 2 3 4 5 6 
#
# 1 136.8138 56.8755 7.1107 0.0000 14.8909 0.0000
# 2 56.8755 158.7857 14.4342 0.0000 -15.5877 0.0000
# 3 7.1107 14.4342 67.9123 0.0000 -0.2732 0.0000
# 4 0.0000 0.0000 0.0000 -16.2165 0.0000 9.1306
# 5 14.8909 -15.5877 -0.2732 0.0000 43.8682 0.0000
# 6 0.0000 0.0000 0.0000 9.1306 0.0000 17.2390
#
#
#
# Elastic Compliance Matrix: (Units=1/GPa)
#
#
# Indices 1 2 3 4 5 6 
#
# 1 0.009389 -0.003790 -0.000196 0.000000 -0.004535 0.000000
# 2 -0.003790 0.008187 -0.001326 0.000000 0.004187 0.000000
# 3 -0.000196 -0.001326 0.015026 0.000000 -0.000311 0.000000
# 4 0.000000 0.000000 0.000000 -0.047500 0.000000 0.025158
# 5 -0.004535 0.004187 -0.000311 0.000000 0.025821 0.000000
# 6 0.000000 0.000000 0.000000 0.025158 0.000000 0.044683
#
#
# Mechanical properties :
#
#
# Convention : Reuss Voigt Hill
#
# Bulk Modulus (GPa) = 45.50213 57.81694 51.65954
# Shear Modulus (GPa) = 67.97551 27.98423 47.97987
#
# Velocity S-wave (km/s) = 5.15380 3.30680 4.32993
# Velocity P-wave (km/s) = 7.29353 6.09689 6.72189
#
# Compressibility (1/GPa) = 0.02197699
#
# Stress axis : x y z
#
# Youngs Moduli (GPa) = 106.51148 122.14323 66.55126
#
# Poissons Ratio (x) = 0.46296 0.01302
# Poissons Ratio (y) = 0.40371 0.08827
# Poissons Ratio (z) = 0.02084 0.16201
#
# Static dielectric constant tensor:
#      x y z
#    x 2.167580 0.000000 -0.060610 
#    y 0.000000 2.086850 0.000000 
#    z -0.060610 0.000000 2.123220 
# 
# From -- ./inp_files/45537.got.cif
#   From: 2010.05.17/outbox.cif.g08.bks.cpg/sg5_23_cif.got.tgz:45537.got - 2010.06.03 18:56:24.
