data_PCOD9129001
_publ_section_title
;
Structure prediction by ZEFSAII (Michael W. Deem and Ramdas Pophale) SiO2 
 PCOD9129001
Probable space group: C 2
;
_chemical_formula_sum "Si O2"
_cell_formula_units_Z 28
_cell_length_a 6.765999
_cell_length_b 7.745579
_cell_length_c 26.206503
_cell_angle_alpha 90.000000
_cell_angle_beta 58.647436
_cell_angle_gamma 90.000000
_cell_volume 1172.852865
_symmetry_space_group_name_H-M "C 2"
_symmetry_group_IT_number 5
_symmetry_cell_setting 'monoclinic'
loop_
_space_group_symop_operation_xyz
x,y,z
-x,y,-z
1/2+x,1/2+y,z
1/2-x,1/2+y,-z
loop_
_atom_site_type_symbol
_atom_site_label
_atom_site_fract_x
_atom_site_fract_y
_atom_site_fract_z
Si Si1 0.323789 0.293880 0.843135
Si Si2 0.459153 0.196562 0.719263
Si Si3 0.623351 0.012518 0.079363
Si Si4 0.173923 0.306642 0.256964
Si Si5 0.500000 0.235275 0.000000
Si Si6 0.558916 0.859890 0.575673
Si Si7 0.500000 0.578060 0.500000
Si Si8 0.741813 0.670251 0.650388
O O1 0.287598 0.257545 0.787521
O O2 0.295383 0.131830 0.884517
O O3 0.603553 0.323499 0.809619
O O4 0.139423 0.441023 0.880337
O O5 0.414595 0.254466 0.668145
O O6 0.971779 0.203951 0.552298
O O7 0.450768 0.989475 0.724132
O O8 0.619744 0.121755 0.027760
O O9 0.801313 0.855221 0.050771
O O10 0.298961 0.262207 0.293019
O O11 0.981972 0.155591 0.280879
O O12 0.775523 0.960080 0.520921
O O13 0.365771 0.003737 0.611839
O O14 0.167524 0.286590 0.613406
#
# Coordination Sequence:
#
# PCOD9129001 Si02
#       8
#     4   4   4   4   2   4   2   4
#     4  10  28  42  76 100 150 186 228 288 366 426
#     4  10  26  43  70 109 151 182 235 282 344 459
#     4  12  26  46  72  98 138 188 238 298 366 396
#     4  10  26  43  70 109 151 182 235 282 344 459
#     4  12  28  46  72 100 136 178 260 304 334 428
#     4  12  28  46  80  98 148 188 240 306 354 416
#     4  12  28  54  68 112 134 188 260 298 348 420
#     4  12  26  48  76 112 146 194 230 292 370 422
#
# _framework density 23.87341
#
# number of rings (size 3 to 8) (size 9 to 14) (size 15 to 20)
#    0.857    0.000    1.429    3.429   10.000    3.429 
#    0.000    0.000    0.000    0.000    0.000    0.000 
#    0.000    0.000    0.000    0.000    0.000    0.000 
#
# Total GULP energy -78229.839636 kJ/mol
# GULP energy per Si atom -5587.845688 kJ/mol
# Density = 2.381907 g / cm^3
# Si number density = 23.873410 Si / 1000 Ang^3
#
#
#
# Elastic Constant Matrix: (Units=GPa)
#
#
# Indices 1 2 3 4 5 6 
#
# 1 35.5078 9.5496 3.7237 0.0000 2.3765 0.0000
# 2 9.5496 72.7849 12.5420 0.0000 2.1558 0.0000
# 3 3.7237 12.5420 56.4168 0.0000 5.1411 0.0000
# 4 0.0000 0.0000 0.0000 46.8492 0.0000 -3.2163
# 5 2.3765 2.1558 5.1411 0.0000 46.3677 0.0000
# 6 0.0000 0.0000 0.0000 -3.2163 0.0000 33.7671
#
#
#
# Elastic Compliance Matrix: (Units=1/GPa)
#
#
# Indices 1 2 3 4 5 6 
#
# 1 0.029329 -0.003637 -0.001016 0.000000 -0.001221 0.000000
# 2 -0.003637 0.014742 -0.003022 0.000000 -0.000164 0.000000
# 3 -0.001016 -0.003022 0.018635 0.000000 -0.001874 0.000000
# 4 0.000000 0.000000 0.000000 0.021486 0.000000 0.002046
# 5 -0.001221 -0.000164 -0.001874 0.000000 0.021845 0.000000
# 6 0.000000 0.000000 0.000000 0.002046 0.000000 0.029810
#
#
# Mechanical properties :
#
#
# Convention : Reuss Voigt Hill
#
# Bulk Modulus (GPa) = 21.11677 24.03780 22.57729
# Shear Modulus (GPa) = 29.94346 34.65641 32.29994
#
# Velocity S-wave (km/s) = 3.54540 3.81422 3.68226
# Velocity P-wave (km/s) = 5.06204 5.43032 5.24941
#
# Compressibility (1/GPa) = 0.04735572
#
# Stress axis : x y z
#
# Youngs Moduli (GPa) = 34.09570 67.83374 53.66277
#
# Poissons Ratio (x) = 0.24670 0.05452
# Poissons Ratio (y) = 0.12400 0.16218
# Poissons Ratio (z) = 0.03464 0.20501
#
# Static dielectric constant tensor:
#      x y z
#    x 1.915490 0.000000 -0.041500 
#    y 0.000000 1.879930 0.000000 
#    z -0.041500 0.000000 1.986940 
# 
# From -- ./inp_files/70160.got.cif
#   From: 2010.05.17/outbox.cif.g08.bks.cpg/sg5_36_cif.got.tgz:70160.got - 2010.06.03 18:56:24.
