data_PCOD9129089
_publ_section_title
;
Structure prediction by ZEFSAII (Michael W. Deem and Ramdas Pophale) SiO2 
 PCOD9129089
Probable space group: C 2
;
_chemical_formula_sum "Si O2"
_cell_formula_units_Z 30
_cell_length_a 9.056937
_cell_length_b 13.103009
_cell_length_c 24.512820
_cell_angle_alpha 90.000000
_cell_angle_beta 150.083958
_cell_angle_gamma 90.000000
_cell_volume 1450.813331
_symmetry_space_group_name_H-M "C 2"
_symmetry_group_IT_number 5
_symmetry_cell_setting 'monoclinic'
loop_
_space_group_symop_operation_xyz
x,y,z
-x,y,-z
1/2+x,1/2+y,z
1/2-x,1/2+y,-z
loop_
_atom_site_type_symbol
_atom_site_label
_atom_site_fract_x
_atom_site_fract_y
_atom_site_fract_z
Si Si1 0.824860 0.604580 0.592916
Si Si2 0.659533 0.094303 0.814221
Si Si3 0.295619 0.857346 0.983276
Si Si4 0.261420 0.750200 0.668502
Si Si5 0.500000 0.409669 0.500000
Si Si6 0.150220 0.687143 0.187041
Si Si7 0.806850 0.588795 0.988204
Si Si8 0.848312 0.377496 0.122328
O O1 0.500000 0.653218 0.500000
O O2 0.736325 0.488458 0.548796
O O3 0.001685 0.589800 0.705721
O O4 0.019772 0.672335 0.614922
O O5 0.473872 0.169759 0.792896
O O6 0.995598 0.131934 0.910403
O O7 0.654855 0.985717 0.845517
O O8 0.005125 0.787547 0.888204
O O9 0.218899 0.974210 0.943916
O O10 0.500000 0.818157 0.000000
O O11 0.450598 0.868235 0.091779
O O12 0.126680 0.839355 0.588291
O O13 0.501524 0.693605 0.707560
O O14 0.452646 0.799951 0.779044
O O15 0.025732 0.597047 0.109152
O O16 0.000000 0.632219 0.000000
O O17 0.500000 0.357525 0.000000
#
# Coordination Sequence:
#
# PCOD9129089 Si02
#       8
#     4   4   4   4   2   4   4   4
#     4  10  26  49  75 103 136 188 248 308 377 431
#     4  12  22  44  68  98 149 196 231 303 369 430
#     4  11  24  38  58  97 149 193 236 280 341 443
#     4  12  26  46  80 104 139 194 241 308 375 453
#     4  10  26  54  78 102 146 188 250 324 374 424
#     4  12  25  39  66 106 138 188 239 291 361 444
#     4  11  23  39  61  95 142 184 230 279 349 434
#     4  12  21  43  66 103 148 195 230 288 378 431
#
# _framework density 20.678056999999999
#
# number of rings (size 3 to 8) (size 9 to 14) (size 15 to 20)
#    0.400    0.267    5.333    2.000    7.467    0.000 
#    0.000    1.333    0.000    0.000    0.000    0.000 
#    0.000    0.000    0.000    0.000    0.000    0.000 
#
# Total GULP energy -83679.410204 kJ/mol
# GULP energy per Si atom -5578.627347 kJ/mol
# Density = 2.063099 g / cm^3
# Si number density = 20.678057 Si / 1000 Ang^3
#
#
#
# Elastic Constant Matrix: (Units=GPa)
#
#
# Indices 1 2 3 4 5 6 
#
# 1 152.4136 42.8044 54.0000 -0.0001 30.4871 0.0000
# 2 42.8044 114.7450 43.2559 0.0001 19.7763 0.0000
# 3 54.0000 43.2559 97.1863 0.0001 19.5788 0.0001
# 4 -0.0001 0.0001 0.0001 37.7847 -0.0002 -2.5288
# 5 30.4871 19.7763 19.5788 -0.0002 28.7733 0.0000
# 6 0.0000 0.0000 0.0001 -2.5288 0.0000 29.0051
#
#
#
# Elastic Compliance Matrix: (Units=1/GPa)
#
#
# Indices 1 2 3 4 5 6 
#
# 1 0.009451 -0.001047 -0.003375 0.000000 -0.006997 0.000000
# 2 -0.001047 0.011158 -0.003550 0.000000 -0.004144 0.000000
# 3 -0.003375 -0.003550 0.014524 0.000000 -0.003867 0.000000
# 4 0.000000 0.000000 0.000000 0.026621 0.000000 0.002321
# 5 -0.006997 -0.004144 -0.003867 0.000000 0.047648 0.000000
# 6 0.000000 0.000000 0.000000 0.002321 0.000000 0.034679
#
#
# Mechanical properties :
#
#
# Convention : Reuss Voigt Hill
#
# Bulk Modulus (GPa) = 52.11508 71.60727 61.86118
# Shear Modulus (GPa) = 30.04439 34.06494 32.05466
#
# Velocity S-wave (km/s) = 3.81591 4.06322 3.94150
# Velocity P-wave (km/s) = 6.68376 7.53112 7.12006
#
# Compressibility (1/GPa) = 0.01918830
#
# Stress axis : x y z
#
# Youngs Moduli (GPa) = 105.81211 89.62245 68.85242
#
# Poissons Ratio (x) = 0.09384 0.23241
# Poissons Ratio (y) = 0.11079 0.24439
# Poissons Ratio (z) = 0.35717 0.31812
#
# Static dielectric constant tensor:
#      x y z
#    x 1.809670 0.000000 0.017300 
#    y 0.000000 1.811490 0.000000 
#    z 0.017300 0.000000 1.715450 
# 
# From -- ./inp_files/68012.got.cif
#   From: 2010.05.17/outbox.cif.g08.bks.cpg/sg5_35_cif.got.tgz:68012.got - 2010.06.03 18:56:24.
