data_PCOD9129760
_publ_section_title
;
Structure prediction by ZEFSAII (Michael W. Deem and Ramdas Pophale) SiO2 
 PCOD9129760
Probable space group: C 2
;
_chemical_formula_sum "Si O2"
_cell_formula_units_Z 22
_cell_length_a 12.996889
_cell_length_b 5.579473
_cell_length_c 13.888041
_cell_angle_alpha 90.000000
_cell_angle_beta 57.340503
_cell_angle_gamma 90.000000
_cell_volume 847.871831
_symmetry_space_group_name_H-M "C 2"
_symmetry_group_IT_number 5
_symmetry_cell_setting 'monoclinic'
loop_
_space_group_symop_operation_xyz
x,y,z
-x,y,-z
1/2+x,1/2+y,z
1/2-x,1/2+y,-z
loop_
_atom_site_type_symbol
_atom_site_label
_atom_site_fract_x
_atom_site_fract_y
_atom_site_fract_z
Si Si1 0.532185 0.168000 0.851252
Si Si2 0.000000 0.132539 0.500000
Si Si3 0.193179 0.528860 0.411172
Si Si4 0.734907 0.487385 0.835624
Si Si5 0.696486 0.994169 0.908433
Si Si6 0.439732 0.355924 0.366856
O O1 0.465548 0.503046 0.617487
O O2 0.638073 0.983056 0.829196
O O3 0.515343 0.203327 0.746705
O O4 0.412398 0.075815 0.965566
O O5 0.118289 0.286109 0.466986
O O6 0.190142 0.551153 0.297805
O O7 0.332330 0.511234 0.373403
O O8 0.125326 0.714346 0.513364
O O9 0.779012 0.235101 0.861274
O O10 0.597734 0.404795 0.866692
O O11 0.733674 0.719824 0.904216
#
# Coordination Sequence:
#
# PCOD9129760 Si02
#       6
#     4   2   4   4   4   4
#     4   8  20  31  59  96 137 177 234 286 347 421
#     4  12  26  44  68 106 142 190 238 292 370 426
#     4  11  24  41  67 104 140 191 231 299 357 427
#     4   9  20  33  59  95 137 177 227 291 345 413
#     4   9  18  33  57  97 134 177 234 285 346 425
#     4  11  23  43  67 102 145 182 240 297 355 431
#
# _framework density 25.947319
#
# number of rings (size 3 to 8) (size 9 to 14) (size 15 to 20)
#    1.091    1.091    1.818    0.545   10.182    0.000 
#    0.000    0.000    0.000    0.000    9.455    0.000 
#    0.000    0.000    0.000    0.000    0.000    0.000 
#
# Total GULP energy -61337.266929 kJ/mol
# GULP energy per Si atom -5576.115175 kJ/mol
# Density = 2.588826 g / cm^3
# Si number density = 25.947319 Si / 1000 Ang^3
#
#
#
# Elastic Constant Matrix: (Units=GPa)
#
#
# Indices 1 2 3 4 5 6 
#
# 1 58.4398 8.9021 10.2620 0.0001 20.7848 0.0004
# 2 8.9021 126.4994 25.8822 0.0003 -9.3546 0.0018
# 3 10.2620 25.8822 135.4973 0.0001 0.1182 0.0001
# 4 0.0001 0.0003 0.0001 38.9168 0.0001 -7.0364
# 5 20.7848 -9.3546 0.1182 0.0001 46.5089 0.0000
# 6 0.0004 0.0018 0.0001 -7.0364 0.0000 20.3758
#
#
#
# Elastic Compliance Matrix: (Units=1/GPa)
#
#
# Indices 1 2 3 4 5 6 
#
# 1 0.021121 -0.001965 -0.001216 0.000000 -0.009831 0.000000
# 2 -0.001965 0.008539 -0.001485 0.000000 0.002599 -0.000001
# 3 -0.001216 -0.001485 0.007756 0.000000 0.000225 0.000000
# 4 0.000000 0.000000 0.000000 0.027407 0.000000 0.009465
# 5 -0.009831 0.002599 0.000225 0.000000 0.026417 0.000000
# 6 0.000000 -0.000001 0.000000 0.009465 0.000000 0.052346
#
#
# Mechanical properties :
#
#
# Convention : Reuss Voigt Hill
#
# Bulk Modulus (GPa) = 35.60491 45.61435 40.60963
# Shear Modulus (GPa) = 30.81123 39.51964 35.16543
#
# Velocity S-wave (km/s) = 3.44968 3.90689 3.68538
# Velocity P-wave (km/s) = 5.44232 6.16194 5.81328
#
# Compressibility (1/GPa) = 0.02808602
#
# Stress axis : x y z
#
# Youngs Moduli (GPa) = 47.34649 117.10409 128.93753
#
# Poissons Ratio (x) = 0.23006 0.15676
# Poissons Ratio (y) = 0.09302 0.19143
# Poissons Ratio (z) = 0.05756 0.17386
#
# Static dielectric constant tensor:
#      x y z
#    x 2.040090 0.000000 -0.005580 
#    y 0.000000 2.156210 0.000000 
#    z -0.005580 0.000000 2.011400 
# 
# From -- ./inp_files/43629.got.cif
#   From: 2010.05.17/outbox.cif.g08.bks.cpg/sg5_22_cif.got.tgz:43629.got - 2010.06.03 18:56:24.
