data_PCOD9129714
_publ_section_title
;
Structure prediction by ZEFSAII (Michael W. Deem and Ramdas Pophale) SiO2 
 PCOD9129714
Probable space group: C 2
;
_chemical_formula_sum "Si O2"
_cell_formula_units_Z 30
_cell_length_a 11.717914
_cell_length_b 15.297739
_cell_length_c 8.869095
_cell_angle_alpha 90.000000
_cell_angle_beta 67.947384
_cell_angle_gamma 90.000000
_cell_volume 1473.538111
_symmetry_space_group_name_H-M "C 2"
_symmetry_group_IT_number 5
_symmetry_cell_setting 'monoclinic'
loop_
_space_group_symop_operation_xyz
x,y,z
-x,y,-z
1/2+x,1/2+y,z
1/2-x,1/2+y,-z
loop_
_atom_site_type_symbol
_atom_site_label
_atom_site_fract_x
_atom_site_fract_y
_atom_site_fract_z
Si Si1 0.500000 0.264000 0.500000
Si Si2 0.349851 0.198019 0.302885
Si Si3 0.109573 0.904360 0.256448
Si Si4 0.519792 0.846488 0.167689
Si Si5 0.671242 0.999207 0.704027
Si Si6 0.089889 0.185198 0.593655
Si Si7 0.142847 0.000865 0.666639
Si Si8 0.807093 0.859585 0.108214
O O1 0.450256 0.211475 0.383215
O O2 0.606048 0.326437 0.379397
O O3 0.218732 0.206717 0.451273
O O4 0.350689 0.274674 0.179817
O O5 0.359907 0.098971 0.240831
O O6 0.227879 0.963349 0.228669
O O7 0.118865 0.868515 0.083267
O O8 0.981229 0.955656 0.334646
O O9 0.445518 0.935582 0.240211
O O10 0.462650 0.768174 0.293682
O O11 0.663255 0.851828 0.137513
O O12 0.500000 0.829382 0.000000
O O13 0.745119 0.995953 0.508331
O O14 0.110640 0.103122 0.694203
O O15 0.000000 0.158951 0.500000
O O16 0.175114 0.946003 0.798667
#
# Coordination Sequence:
#
# PCOD9129714 Si02
#       8
#     2   4   4   4   4   4   4   4
#     4  12  24  44  70  96 134 178 230 272 336 394
#     4  11  25  44  68 104 130 180 222 278 332 398
#     4  12  22  42  70  96 140 174 220 278 335 394
#     4  12  26  45  66  98 138 181 219 273 336 401
#     4  11  24  46  68  96 139 177 226 272 333 396
#     4  11  23  43  73  98 131 173 232 280 329 391
#     4  11  23  41  71 103 125 174 224 284 329 392
#     4  12  25  44  68 102 139 176 222 273 344 395
#
# _framework density 20.359161
#
# number of rings (size 3 to 8) (size 9 to 14) (size 15 to 20)
#    0.000    0.533    5.333    3.600    0.000    3.200 
#    2.400    0.000    0.000    0.000    0.000    0.000 
#    0.000    0.000    0.000    0.000    0.000    0.000 
#
# Total GULP energy -83899.929080 kJ/mol
# GULP energy per Si atom -5593.328605 kJ/mol
# Density = 2.031282 g / cm^3
# Si number density = 20.359161 Si / 1000 Ang^3
#
#
#
# Elastic Constant Matrix: (Units=GPa)
#
#
# Indices 1 2 3 4 5 6 
#
# 1 87.6271 34.2740 11.7119 0.0000 22.0084 0.0000
# 2 34.2740 135.2855 61.4786 0.0000 16.4330 0.0000
# 3 11.7119 61.4786 81.6015 0.0000 11.8113 0.0000
# 4 0.0000 0.0000 0.0000 11.2429 0.0000 12.7773
# 5 22.0084 16.4330 11.8113 0.0000 31.5261 0.0000
# 6 0.0000 0.0000 0.0000 12.7773 0.0000 53.7932
#
#
#
# Elastic Compliance Matrix: (Units=1/GPa)
#
#
# Indices 1 2 3 4 5 6 
#
# 1 0.014844 -0.003464 0.001816 0.000000 -0.009238 0.000000
# 2 -0.003464 0.012294 -0.008657 0.000000 -0.000747 0.000000
# 3 0.001816 -0.008657 0.019081 0.000000 -0.003904 0.000000
# 4 0.000000 0.000000 0.000000 0.121832 0.000000 -0.028938
# 5 -0.009238 -0.000747 -0.003904 0.000000 0.040021 0.000000
# 6 0.000000 0.000000 0.000000 -0.028938 0.000000 0.025463
#
#
# Mechanical properties :
#
#
# Convention : Reuss Voigt Hill
#
# Bulk Modulus (GPa) = 39.04700 57.71593 48.38146
# Shear Modulus (GPa) = 19.03435 32.44907 25.74171
#
# Velocity S-wave (km/s) = 3.06098 3.99661 3.55967
# Velocity P-wave (km/s) = 5.63147 7.05036 6.38048
#
# Compressibility (1/GPa) = 0.02561016
#
# Stress axis : x y z
#
# Youngs Moduli (GPa) = 67.36603 81.33889 52.40683
#
# Poissons Ratio (x) = 0.28176 -0.09519
# Poissons Ratio (y) = 0.23336 0.45370
# Poissons Ratio (z) = -0.12236 0.70417
#
# Static dielectric constant tensor:
#      x y z
#    x 1.589450 0.000000 -0.032700 
#    y 0.000000 1.720660 0.000000 
#    z -0.032700 0.000000 1.687480 
# 
# From -- ./inp_files/20617.got.cif
#   From: 2010.05.17/outbox.cif.g08.bks.cpg/sg5_11_cif.got.tgz:20617.got - 2010.06.03 18:56:24.
