data_PCOD9129196
_publ_section_title
;
Structure prediction by ZEFSAII (Michael W. Deem and Ramdas Pophale) SiO2 
 PCOD9129196
Probable space group: C 2
;
_chemical_formula_sum "Si O2"
_cell_formula_units_Z 24
_cell_length_a 20.941472
_cell_length_b 10.190572
_cell_length_c 10.955191
_cell_angle_alpha 90.000000
_cell_angle_beta 27.019216
_cell_angle_gamma 90.000000
_cell_volume 1062.082446
_symmetry_space_group_name_H-M "C 2"
_symmetry_group_IT_number 5
_symmetry_cell_setting 'monoclinic'
loop_
_space_group_symop_operation_xyz
x,y,z
-x,y,-z
1/2+x,1/2+y,z
1/2-x,1/2+y,-z
loop_
_atom_site_type_symbol
_atom_site_label
_atom_site_fract_x
_atom_site_fract_y
_atom_site_fract_z
Si Si1 0.237576 0.669880 0.926047
Si Si2 0.134056 0.448710 0.678565
Si Si3 0.994101 0.692876 0.865360
Si Si4 0.959682 0.249247 0.357997
Si Si5 0.760389 0.884199 0.895518
Si Si6 0.598656 0.457616 0.599383
O O1 0.374139 0.733158 0.629964
O O2 0.257769 0.530264 0.957425
O O3 0.140857 0.636762 0.973798
O O4 0.175383 0.776106 0.124019
O O5 0.129161 0.330243 0.591075
O O6 0.271714 0.458678 0.526297
O O7 0.114201 0.584447 0.636738
O O8 0.000000 0.432763 0.000000
O O9 0.001841 0.840512 0.808345
O O10 0.000000 0.699453 0.000000
O O11 0.972256 0.099576 0.289909
O O12 0.106180 0.325200 0.126861
O O13 0.844486 0.910304 0.628545
#
# Coordination Sequence:
#
# PCOD9129196 Si02
#       6
#     4   4   4   4   4   4
#     4  11  25  44  69  96 132 179 223 274 333 399
#     4  11  19  41  69  93 132 172 223 274 333 392
#     4  11  23  44  65  96 139 171 219 283 333 393
#     4  11  22  44  68  94 133 176 225 275 333 394
#     4  11  24  46  65  97 134 175 227 272 332 402
#     4  11  24  40  67 101 133 176 220 278 333 399
#
# _framework density 22.597114999999999
#
# number of rings (size 3 to 8) (size 9 to 14) (size 15 to 20)
#    0.000    1.000    3.333    5.500    2.333    2.667 
#    6.000    0.000    0.000    0.000    0.000    0.000 
#    0.000    0.000    0.000    0.000    0.000    0.000 
#
# Total GULP energy -67053.697245 kJ/mol
# GULP energy per Si atom -5587.808104 kJ/mol
# Density = 2.254568 g / cm^3
# Si number density = 22.597115 Si / 1000 Ang^3
#
#
#
# Elastic Constant Matrix: (Units=GPa)
#
#
# Indices 1 2 3 4 5 6 
#
# 1 104.9063 29.8153 1.3508 0.0000 4.4050 0.0000
# 2 29.8153 180.5261 26.9835 0.0000 36.3851 0.0000
# 3 1.3508 26.9835 19.4544 0.0000 -0.3091 0.0000
# 4 0.0000 0.0000 0.0000 35.5118 0.0000 -0.8952
# 5 4.4050 36.3851 -0.3091 0.0000 21.1844 0.0000
# 6 0.0000 0.0000 0.0000 -0.8952 0.0000 33.4162
#
#
#
# Elastic Compliance Matrix: (Units=1/GPa)
#
#
# Indices 1 2 3 4 5 6 
#
# 1 0.010131 -0.002593 0.002931 0.000000 0.002390 0.000000
# 2 -0.002593 0.013304 -0.018632 0.000000 -0.022583 0.000000
# 3 0.002931 -0.018632 0.077559 0.000000 0.032524 0.000000
# 4 0.000000 0.000000 0.000000 0.028179 0.000000 0.000755
# 5 0.002390 -0.022583 0.032524 0.000000 0.085970 0.000000
# 6 0.000000 0.000000 0.000000 0.000755 0.000000 0.029946
#
#
# Mechanical properties :
#
#
# Convention : Reuss Voigt Hill
#
# Bulk Modulus (GPa) = 15.52650 46.79843 31.16247
# Shear Modulus (GPa) = 16.49376 34.47163 25.48270
#
# Velocity S-wave (km/s) = 2.70461 3.90999 3.36176
# Velocity P-wave (km/s) = 4.07911 6.41396 5.37485
#
# Compressibility (1/GPa) = 0.06440601
#
# Stress axis : x y z
#
# Youngs Moduli (GPa) = 98.70516 75.16411 12.89349
#
# Poissons Ratio (x) = 0.19490 -0.03779
# Poissons Ratio (y) = 0.25594 0.24023
# Poissons Ratio (z) = -0.28931 1.40046
#
# Static dielectric constant tensor:
#      x y z
#    x 1.893760 0.000000 -0.032900 
#    y 0.000000 1.863060 0.000000 
#    z -0.032900 0.000000 1.863800 
# 
# From -- ./inp_files/47242.got.cif
#   From: 2010.05.17/outbox.cif.g08.bks.cpg/sg5_24_cif.got.tgz:47242.got - 2010.06.03 18:56:24.
