data_PCOD9129633
_publ_section_title
;
Structure prediction by ZEFSAII (Michael W. Deem and Ramdas Pophale) SiO2 
 PCOD9129633
Probable space group: C 2
;
_chemical_formula_sum "Si O2"
_cell_formula_units_Z 32
_cell_length_a 11.235984
_cell_length_b 11.861409
_cell_length_c 11.816046
_cell_angle_alpha 90.000000
_cell_angle_beta 108.233652
_cell_angle_gamma 90.000000
_cell_volume 1495.706726
_symmetry_space_group_name_H-M "C 2"
_symmetry_group_IT_number 5
_symmetry_cell_setting 'monoclinic'
loop_
_space_group_symop_operation_xyz
x,y,z
-x,y,-z
1/2+x,1/2+y,z
1/2-x,1/2+y,-z
loop_
_atom_site_type_symbol
_atom_site_label
_atom_site_fract_x
_atom_site_fract_y
_atom_site_fract_z
Si Si1 0.860722 0.373700 0.570044
Si Si2 0.610700 0.645244 0.297918
Si Si3 0.623385 0.903992 0.695570
Si Si4 0.245901 0.606601 0.868111
Si Si5 0.133391 0.025120 0.871243
Si Si6 0.851208 0.027521 0.475156
Si Si7 0.263675 0.180270 0.749515
Si Si8 0.532582 0.275903 0.877263
O O1 0.897238 0.249548 0.620111
O O2 0.861654 0.386930 0.435229
O O3 0.727130 0.415304 0.574851
O O4 0.977164 0.439802 0.660477
O O5 0.686391 0.678661 0.209124
O O6 0.483192 0.591984 0.215899
O O7 0.670385 0.553156 0.399191
O O8 0.673835 0.784695 0.758930
O O9 0.698302 0.998843 0.784086
O O10 0.134930 0.678723 0.889104
O O11 0.338631 0.561654 0.992242
O O12 0.093769 0.893949 0.853610
O O13 0.249894 0.076078 0.833682
O O14 0.790026 0.125927 0.381461
O O15 0.000000 0.019990 0.500000
O O16 0.401872 0.234679 0.781709
O O17 0.500000 0.290114 0.000000
#
# Coordination Sequence:
#
# PCOD9129633 Si02
#       8
#     4   4   4   4   4   4   4   4
#     4  11  24  42  71 106 141 197 246 318 387 453
#     4  12  24  45  70 108 145 194 262 309 384 460
#     4  11  22  46  74 100 150 193 247 316 384 459
#     4  12  27  47  74 114 151 197 256 320 392 462
#     4  12  26  47  78 107 150 205 258 315 385 464
#     4  12  24  43  70 104 148 197 253 315 389 459
#     4  12  24  46  76 107 143 206 256 310 385 462
#     4  12  27  50  76 109 155 202 255 325 388 462
#
# _framework density 21.394566999999999
#
# number of rings (size 3 to 8) (size 9 to 14) (size 15 to 20)
#    0.000    0.250    6.250    3.375    1.750    0.000 
#    0.000    0.000    0.000    0.000    0.000    0.000 
#    0.000    0.000    0.000    0.000    0.000    0.000 
#
# Total GULP energy -89299.281048 kJ/mol
# GULP energy per Si atom -5581.205065 kJ/mol
# Density = 2.134587 g / cm^3
# Si number density = 21.394567 Si / 1000 Ang^3
#
#
#
# Elastic Constant Matrix: (Units=GPa)
#
#
# Indices 1 2 3 4 5 6 
#
# 1 73.7062 49.6924 31.3283 0.0000 10.5265 0.0000
# 2 49.6924 124.4348 48.1128 0.0000 15.6129 0.0000
# 3 31.3283 48.1128 130.6506 0.0000 12.5940 0.0000
# 4 0.0000 0.0000 0.0000 33.0584 0.0000 6.2558
# 5 10.5265 15.6129 12.5940 0.0000 29.8887 0.0000
# 6 0.0000 0.0000 0.0000 6.2558 0.0000 34.0207
#
#
#
# Elastic Compliance Matrix: (Units=1/GPa)
#
#
# Indices 1 2 3 4 5 6 
#
# 1 0.019199 -0.006608 -0.001930 0.000000 -0.002497 0.000000
# 2 -0.006608 0.012029 -0.002568 0.000000 -0.002874 0.000000
# 3 -0.001930 -0.002568 0.009243 0.000000 -0.001874 0.000000
# 4 0.000000 0.000000 0.000000 0.031340 0.000000 -0.005763
# 5 -0.002497 -0.002874 -0.001874 0.000000 0.036628 0.000000
# 6 0.000000 0.000000 0.000000 -0.005763 0.000000 0.030454
#
#
# Mechanical properties :
#
#
# Convention : Reuss Voigt Hill
#
# Bulk Modulus (GPa) = 54.76502 65.22872 59.99687
# Shear Modulus (GPa) = 29.90618 32.70410 31.30514
#
# Velocity S-wave (km/s) = 3.74283 3.91399 3.82937
# Velocity P-wave (km/s) = 6.65819 7.14006 6.90333
#
# Compressibility (1/GPa) = 0.01825983
#
# Stress axis : x y z
#
# Youngs Moduli (GPa) = 52.08592 83.13477 108.18939
#
# Poissons Ratio (x) = 0.54932 0.20877
# Poissons Ratio (y) = 0.34416 0.27785
# Poissons Ratio (z) = 0.10051 0.21350
#
# Static dielectric constant tensor:
#      x y z
#    x 1.844880 0.000000 -0.010020 
#    y 0.000000 1.794280 0.000000 
#    z -0.010020 0.000000 1.765870 
# 
# From -- ./inp_files/39422.got.cif
#   From: 2010.05.17/outbox.cif.g08.bks.cpg/sg5_20_cif.got.tgz:39422.got - 2010.06.03 18:56:24.
