data_PCOD9129375
_publ_section_title
;
Structure prediction by ZEFSAII (Michael W. Deem and Ramdas Pophale) SiO2 
 PCOD9129375
Probable space group: C 2
;
_chemical_formula_sum "Si O2"
_cell_formula_units_Z 18
_cell_length_a 11.725679
_cell_length_b 6.996586
_cell_length_c 11.503846
_cell_angle_alpha 90.000000
_cell_angle_beta 128.121293
_cell_angle_gamma 90.000000
_cell_volume 742.471025
_symmetry_space_group_name_H-M "C 2"
_symmetry_group_IT_number 5
_symmetry_cell_setting 'monoclinic'
loop_
_space_group_symop_operation_xyz
x,y,z
-x,y,-z
1/2+x,1/2+y,z
1/2-x,1/2+y,-z
loop_
_atom_site_type_symbol
_atom_site_label
_atom_site_fract_x
_atom_site_fract_y
_atom_site_fract_z
Si Si1 0.791768 0.054790 0.782738
Si Si2 0.201400 0.026805 0.935427
Si Si3 0.445849 0.271621 0.706355
Si Si4 0.500000 0.210279 0.500000
Si Si5 0.011547 0.374372 0.836010
O O1 0.812163 0.026533 0.932834
O O2 0.890296 0.238571 0.813150
O O3 0.850371 0.881876 0.740441
O O4 0.627131 0.091650 0.641467
O O5 0.391862 0.349660 0.168222
O O6 0.369279 0.990758 0.011636
O O7 0.118725 0.217944 0.841467
O O8 0.421603 0.321447 0.555967
O O9 0.437354 0.044395 0.718207
#
# Coordination Sequence:
#
# PCOD9129375 Si02
#       5
#     4   4   4   2   4
#     4  11  27  45  71 102 143 183 239 286 346 418
#     4  11  22  45  71 108 139 177 234 298 337 420
#     4  11  25  45  71 100 145 183 231 287 356 407
#     4  12  26  50  66 104 146 184 236 296 328 432
#     4  11  21  42  70 103 138 180 228 284 348 413
#
# _framework density 24.243369999999999
#
# number of rings (size 3 to 8) (size 9 to 14) (size 15 to 20)
#    0.000    0.889    4.444    2.667    3.111    3.556 
#    8.000    5.556    0.000    0.000    0.000    0.000 
#    0.000    0.000    0.000    0.000    0.000    0.000 
#
# Total GULP energy -50296.071043 kJ/mol
# GULP energy per Si atom -5588.452338 kJ/mol
# Density = 2.418819 g / cm^3
# Si number density = 24.243370 Si / 1000 Ang^3
#
#
#
# Elastic Constant Matrix: (Units=GPa)
#
#
# Indices 1 2 3 4 5 6 
#
# 1 112.1485 49.7265 35.2919 0.0000 -4.6145 0.0000
# 2 49.7265 159.4272 27.1427 0.0000 -20.9191 0.0000
# 3 35.2919 27.1427 107.6558 0.0000 -16.4753 0.0000
# 4 0.0000 0.0000 0.0000 21.1682 0.0000 4.1592
# 5 -4.6145 -20.9191 -16.4753 0.0000 45.5595 0.0000
# 6 0.0000 0.0000 0.0000 4.1592 0.0000 51.2288
#
#
#
# Elastic Compliance Matrix: (Units=1/GPa)
#
#
# Indices 1 2 3 4 5 6 
#
# 1 0.011239 -0.003165 -0.003106 0.000000 -0.001438 0.000000
# 2 -0.003165 0.007738 -0.000443 0.000000 0.003072 0.000000
# 3 -0.003106 -0.000443 0.010945 0.000000 0.003440 0.000000
# 4 0.000000 0.000000 0.000000 0.048006 0.000000 -0.003898
# 5 -0.001438 0.003072 0.003440 0.000000 0.024458 0.000000
# 6 0.000000 0.000000 0.000000 -0.003898 0.000000 0.019837
#
#
# Mechanical properties :
#
#
# Convention : Reuss Voigt Hill
#
# Bulk Modulus (GPa) = 60.63313 67.06152 63.84733
# Shear Modulus (GPa) = 35.42311 41.39600 38.40955
#
# Velocity S-wave (km/s) = 3.82664 4.13670 3.98469
# Velocity P-wave (km/s) = 6.67748 7.10902 6.89663
#
# Compressibility (1/GPa) = 0.01649263
#
# Stress axis : x y z
#
# Youngs Moduli (GPa) = 88.97936 129.22731 91.36287
#
# Poissons Ratio (x) = 0.40904 0.28380
# Poissons Ratio (y) = 0.28164 0.04049
# Poissons Ratio (z) = 0.27640 0.05727
#
# Static dielectric constant tensor:
#      x y z
#    x 2.000760 0.000000 -0.034680 
#    y 0.000000 1.984370 0.000000 
#    z -0.034680 0.000000 1.978130 
# 
# From -- ./inp_files/37967.got.cif
#   From: 2010.05.17/outbox.cif.g08.bks.cpg/sg5_19_cif.got.tgz:37967.got - 2010.06.03 18:56:24.
