data_PCOD9129340
_publ_section_title
;
Structure prediction by ZEFSAII (Michael W. Deem and Ramdas Pophale) SiO2 
 PCOD9129340
Probable space group: C 2
;
_chemical_formula_sum "Si O2"
_cell_formula_units_Z 30
_cell_length_a 11.982228
_cell_length_b 15.539971
_cell_length_c 9.181778
_cell_angle_alpha 90.000000
_cell_angle_beta 65.065047
_cell_angle_gamma 90.000000
_cell_volume 1550.314661
_symmetry_space_group_name_H-M "C 2"
_symmetry_group_IT_number 5
_symmetry_cell_setting 'monoclinic'
loop_
_space_group_symop_operation_xyz
x,y,z
-x,y,-z
1/2+x,1/2+y,z
1/2-x,1/2+y,-z
loop_
_atom_site_type_symbol
_atom_site_label
_atom_site_fract_x
_atom_site_fract_y
_atom_site_fract_z
Si Si1 0.307955 0.516830 0.349604
Si Si2 0.588045 0.923178 0.638620
Si Si3 0.294581 0.631263 0.626844
Si Si4 0.000000 0.267910 0.500000
Si Si5 0.485978 0.386037 0.683696
Si Si6 0.476897 0.206960 0.184108
Si Si7 0.135288 0.546650 0.184545
Si Si8 0.764207 0.465871 0.164184
O O1 0.202898 0.456702 0.480763
O O2 0.319571 0.598696 0.449270
O O3 0.431065 0.460428 0.288790
O O4 0.252752 0.543991 0.225442
O O5 0.545811 0.831260 0.602636
O O6 0.637662 0.927969 0.775993
O O7 0.475318 0.989707 0.687761
O O8 0.389015 0.706545 0.610958
O O9 0.154580 0.661189 0.722879
O O10 0.304666 0.546391 0.720255
O O11 0.500000 0.390779 0.500000
O O12 0.526493 0.294119 0.722354
O O13 0.343881 0.398729 0.804351
O O14 0.580735 0.141004 0.184475
O O15 0.500000 0.223083 0.000000
O O16 0.170813 0.501906 0.013679
#
# Coordination Sequence:
#
# PCOD9129340 Si02
#       8
#     4   4   4   2   4   4   4   4
#     4  11  23  42  71  97 125 174 224 259 330 392
#     4  11  21  40  67  97 122 169 222 258 318 384
#     4  11  23  42  67  92 134 173 214 266 324 390
#     4  12  24  38  68 100 132 162 220 278 316 378
#     4  12  26  43  67 100 133 166 222 279 326 389
#     4  12  26  42  66  99 133 171 222 274 327 385
#     4  12  23  44  68  94 129 174 219 272 315 398
#     4  11  24  45  69  90 134 179 212 261 339 391
#
# _framework density 19.350909999999999
#
# number of rings (size 3 to 8) (size 9 to 14) (size 15 to 20)
#    0.000    0.533    8.000    2.000    3.733    0.000 
#    0.000    0.000    2.933    0.000    0.000    0.000 
#    0.000    0.000    0.000    0.000    0.000    0.000 
#
# Total GULP energy -83848.492738 kJ/mol
# GULP energy per Si atom -5589.899516 kJ/mol
# Density = 1.930687 g / cm^3
# Si number density = 19.350910 Si / 1000 Ang^3
#
#
#
# Elastic Constant Matrix: (Units=GPa)
#
#
# Indices 1 2 3 4 5 6 
#
# 1 74.2013 22.1649 22.5406 0.0000 14.6510 0.0000
# 2 22.1649 65.9859 12.1940 0.0000 6.4476 0.0000
# 3 22.5406 12.1940 59.2158 0.0000 12.5995 0.0000
# 4 0.0000 0.0000 0.0000 19.7544 0.0000 3.7381
# 5 14.6510 6.4476 12.5995 0.0000 22.6706 0.0000
# 6 0.0000 0.0000 0.0000 3.7381 0.0000 39.4256
#
#
#
# Elastic Compliance Matrix: (Units=1/GPa)
#
#
# Indices 1 2 3 4 5 6 
#
# 1 0.017583 -0.004379 -0.004127 0.000000 -0.007825 0.000000
# 2 -0.004379 0.017031 -0.001601 0.000000 -0.001124 0.000000
# 3 -0.004127 -0.001601 0.020554 0.000000 -0.008301 0.000000
# 4 0.000000 0.000000 0.000000 0.051546 0.000000 -0.004887
# 5 -0.007825 -0.001124 -0.008301 0.000000 0.054100 0.000000
# 6 0.000000 0.000000 0.000000 -0.004887 0.000000 0.025828
#
#
# Mechanical properties :
#
#
# Convention : Reuss Voigt Hill
#
# Bulk Modulus (GPa) = 28.60797 34.80024 31.70411
# Shear Modulus (GPa) = 22.88242 25.87036 24.37639
#
# Velocity S-wave (km/s) = 3.44248 3.66034 3.55308
# Velocity P-wave (km/s) = 5.53324 5.99057 5.76644
#
# Compressibility (1/GPa) = 0.03495529
#
# Stress axis : x y z
#
# Youngs Moduli (GPa) = 56.87152 58.71490 48.65205
#
# Poissons Ratio (x) = 0.25713 0.20076
# Poissons Ratio (y) = 0.24905 0.07790
# Poissons Ratio (z) = 0.23468 0.09401
#
# Static dielectric constant tensor:
#      x y z
#    x 1.687190 0.000000 0.023130 
#    y 0.000000 1.643830 0.000000 
#    z 0.023130 0.000000 1.674530 
# 
# From -- ./inp_files/20603.got.cif
#   From: 2010.05.17/outbox.cif.g08.bks.cpg/sg5_11_cif.got.tgz:20603.got - 2010.06.03 18:56:24.
