data_PCOD9129145
_publ_section_title
;
Structure prediction by ZEFSAII (Michael W. Deem and Ramdas Pophale) SiO2 
 PCOD9129145
Probable space group: C 2
;
_chemical_formula_sum "Si O2"
_cell_formula_units_Z 26
_cell_length_a 8.652374
_cell_length_b 11.361625
_cell_length_c 19.419187
_cell_angle_alpha 90.000000
_cell_angle_beta 39.251986
_cell_angle_gamma 90.000000
_cell_volume 1207.888077
_symmetry_space_group_name_H-M "C 2"
_symmetry_group_IT_number 5
_symmetry_cell_setting 'monoclinic'
loop_
_space_group_symop_operation_xyz
x,y,z
-x,y,-z
1/2+x,1/2+y,z
1/2-x,1/2+y,-z
loop_
_atom_site_type_symbol
_atom_site_label
_atom_site_fract_x
_atom_site_fract_y
_atom_site_fract_z
Si Si1 0.500000 0.766881 0.500000
Si Si2 0.020588 0.544500 0.818478
Si Si3 0.891799 0.816359 0.185042
Si Si4 0.085539 0.459776 0.653185
Si Si5 0.513486 0.426494 0.702421
Si Si6 0.500000 0.430110 0.000000
Si Si7 0.301344 0.611774 0.459470
Si Si8 0.500000 0.307026 0.500000
O O1 0.243874 0.841585 0.595650
O O2 0.507535 0.673614 0.434085
O O3 0.073202 0.676834 0.823982
O O4 0.007118 0.546600 0.739622
O O5 0.232099 0.452571 0.772288
O O6 0.746862 0.503076 0.930663
O O7 0.613738 0.860119 0.289062
O O8 0.012611 0.885265 0.208906
O O9 0.961167 0.857624 0.084047
O O10 0.162272 0.519210 0.555844
O O11 0.320143 0.392643 0.600790
O O12 0.624652 0.551878 0.637655
O O13 0.129518 0.721125 0.506371
#
# Coordination Sequence:
#
# PCOD9129145 Si02
#       8
#     2   4   4   4   4   2   4   2
#     4  12  24  40  60  98 148 184 216 258 308 380
#     4  11  25  46  69  95 128 170 217 278 339 388
#     4  11  25  46  68  95 129 165 217 282 338 391
#     4  11  23  39  61  94 136 177 219 259 312 387
#     4  12  23  39  67  98 132 176 221 259 315 391
#     4  10  28  50  70  96 122 160 224 286 346 406
#     4  12  23  37  59  94 139 182 217 257 304 375
#     4  12  22  34  58  90 130 180 218 250 302 370
#
# _framework density 21.525172999999999
#
# number of rings (size 3 to 8) (size 9 to 14) (size 15 to 20)
#    0.000    0.615    0.000   10.154    0.000    3.077 
#    0.000    6.154    0.000    0.000    0.000    0.000 
#    0.000    0.000    0.000    0.000    0.000    0.000 
#
# Total GULP energy -72391.921036 kJ/mol
# GULP energy per Si atom -5568.609310 kJ/mol
# Density = 2.147618 g / cm^3
# Si number density = 21.525173 Si / 1000 Ang^3
#
#
#
# Elastic Constant Matrix: (Units=GPa)
#
#
# Indices 1 2 3 4 5 6 
#
# 1 85.2125 44.7280 53.2277 -0.0001 7.7771 -0.0001
# 2 44.7280 125.3605 63.9276 -0.0002 5.6465 0.0000
# 3 53.2277 63.9276 117.3812 -0.0014 -3.2996 0.0004
# 4 -0.0001 -0.0002 -0.0014 18.8963 0.0005 -6.9622
# 5 7.7771 5.6465 -3.2996 0.0005 48.8931 0.0000
# 6 -0.0001 0.0000 0.0004 -6.9622 0.0000 40.6569
#
#
#
# Elastic Compliance Matrix: (Units=1/GPa)
#
#
# Indices 1 2 3 4 5 6 
#
# 1 0.017538 -0.002810 -0.006504 0.000000 -0.002904 0.000000
# 2 -0.002810 0.011635 -0.005097 0.000000 -0.001241 0.000000
# 3 -0.006504 -0.005097 0.014317 0.000001 0.002589 0.000000
# 4 0.000000 0.000000 0.000001 0.056484 0.000000 0.009673
# 5 -0.002904 -0.001241 0.002589 0.000000 0.021233 0.000000
# 6 0.000000 0.000000 0.000000 0.009673 0.000000 0.026252
#
#
# Mechanical properties :
#
#
# Convention : Reuss Voigt Hill
#
# Bulk Modulus (GPa) = 68.17640 72.41342 70.29491
# Shear Modulus (GPa) = 27.59818 32.76064 30.17941
#
# Velocity S-wave (km/s) = 3.58458 3.90547 3.74846
# Velocity P-wave (km/s) = 6.99099 7.35196 7.17374
#
# Compressibility (1/GPa) = 0.01466783
#
# Stress axis : x y z
#
# Youngs Moduli (GPa) = 57.01866 85.94947 69.84506
#
# Poissons Ratio (x) = 0.24151 0.45428
# Poissons Ratio (y) = 0.16022 0.35601
# Poissons Ratio (z) = 0.37086 0.43810
#
# Static dielectric constant tensor:
#      x y z
#    x 1.851070 0.000000 -0.104530 
#    y 0.000000 1.765430 0.000000 
#    z -0.104530 0.000000 1.707240 
# 
# From -- ./inp_files/64467.got.cif
#   From: 2010.05.17/outbox.cif.g08.bks.cpg/sg5_33_cif.got.tgz:64467.got - 2010.06.03 18:56:24.
