data_PCOD9129577
_publ_section_title
;
Structure prediction by ZEFSAII (Michael W. Deem and Ramdas Pophale) SiO2 
 PCOD9129577
Probable space group: C 2
;
_chemical_formula_sum "Si O2"
_cell_formula_units_Z 26
_cell_length_a 9.477816
_cell_length_b 19.923165
_cell_length_c 8.356171
_cell_angle_alpha 90.000000
_cell_angle_beta 49.715775
_cell_angle_gamma 90.000000
_cell_volume 1203.679911
_symmetry_space_group_name_H-M "C 2"
_symmetry_group_IT_number 5
_symmetry_cell_setting 'monoclinic'
loop_
_space_group_symop_operation_xyz
x,y,z
-x,y,-z
1/2+x,1/2+y,z
1/2-x,1/2+y,-z
loop_
_atom_site_type_symbol
_atom_site_label
_atom_site_fract_x
_atom_site_fract_y
_atom_site_fract_z
Si Si1 0.656938 0.310730 0.512214
Si Si2 0.270182 0.702534 0.010213
Si Si3 0.698712 0.673963 0.649526
Si Si4 0.517851 0.909831 0.798076
Si Si5 0.606909 0.047653 0.592195
Si Si6 0.370836 0.349826 0.945465
Si Si7 0.000000 0.620097 0.000000
O O1 0.500000 0.295597 0.500000
O O2 0.711949 0.234341 0.522721
O O3 0.847342 0.345561 0.319543
O O4 0.536818 0.364913 0.700704
O O5 0.485231 0.690970 0.824923
O O6 0.223505 0.676324 0.224040
O O7 0.222662 0.780833 0.042272
O O8 0.164373 0.667391 0.942106
O O9 0.726259 0.599767 0.560429
O O10 0.614630 0.969162 0.628256
O O11 0.500000 0.924268 0.000000
O O12 0.304496 0.897955 0.899134
O O13 0.500000 0.051922 0.500000
O O14 0.529104 0.076296 0.818348
O O15 0.500000 0.335682 0.000000
#
# Coordination Sequence:
#
# PCOD9129577 Si02
#       7
#     4   4   4   4   4   4   2
#     4  12  23  43  79 105 138 197 241 297 381 432
#     4  11  22  43  75 110 145 184 249 314 372 431
#     4  11  23  45  74 107 146 193 244 311 370 439
#     4  12  26  51  73 105 148 195 248 303 365 453
#     4  12  27  49  70 103 150 196 246 303 368 437
#     4  12  26  44  71 113 151 185 247 313 370 438
#     4  12  24  46  70 104 144 196 246 310 362 442
#
# _framework density 21.600427
#
# number of rings (size 3 to 8) (size 9 to 14) (size 15 to 20)
#    0.000    0.308    7.692    1.385    2.154    0.615 
#    5.538    0.000    0.000    0.000    0.000    0.000 
#    0.000    0.000    0.000    0.000    0.000    0.000 
#
# Total GULP energy -72372.244704 kJ/mol
# GULP energy per Si atom -5567.095746 kJ/mol
# Density = 2.155126 g / cm^3
# Si number density = 21.600427 Si / 1000 Ang^3
#
#
#
# Elastic Constant Matrix: (Units=GPa)
#
#
# Indices 1 2 3 4 5 6 
#
# 1 91.0745 33.8054 43.4067 0.0000 -2.0098 0.0000
# 2 33.8054 109.0579 41.8973 0.0000 -9.6514 0.0000
# 3 43.4067 41.8973 93.0169 0.0000 -16.6643 0.0000
# 4 0.0000 0.0000 0.0000 52.2827 0.0000 5.5531
# 5 -2.0098 -9.6514 -16.6643 0.0000 27.2609 0.0000
# 6 0.0000 0.0000 0.0000 5.5531 0.0000 14.9396
#
#
#
# Elastic Compliance Matrix: (Units=1/GPa)
#
#
# Indices 1 2 3 4 5 6 
#
# 1 0.014919 -0.002447 -0.006533 0.000000 -0.003760 0.000000
# 2 -0.002447 0.011513 -0.003757 0.000000 0.001599 0.000000
# 3 -0.006533 -0.003757 0.017033 0.000000 0.008600 0.000000
# 4 0.000000 0.000000 0.000000 0.019913 0.000000 -0.007402
# 5 -0.003760 0.001599 0.008600 0.000000 0.042228 0.000000
# 6 0.000000 0.000000 0.000000 -0.007402 0.000000 0.069687
#
#
# Mechanical properties :
#
#
# Convention : Reuss Voigt Hill
#
# Bulk Modulus (GPa) = 55.59018 59.04090 57.31554
# Shear Modulus (GPa) = 24.18188 30.49930 27.34059
#
# Velocity S-wave (km/s) = 3.34954 3.76170 3.56159
# Velocity P-wave (km/s) = 6.38363 6.80145 6.59585
#
# Compressibility (1/GPa) = 0.01798879
#
# Stress axis : x y z
#
# Youngs Moduli (GPa) = 67.02688 86.85820 58.71072
#
# Poissons Ratio (x) = 0.21258 0.38358
# Poissons Ratio (y) = 0.16405 0.22059
# Poissons Ratio (z) = 0.43792 0.32634
#
# Static dielectric constant tensor:
#      x y z
#    x 1.667810 0.000000 -0.092920 
#    y 0.000000 1.835970 0.000000 
#    z -0.092920 0.000000 1.632210 
# 
# From -- ./inp_files/16994.got.cif
#   From: 2010.05.17/outbox.cif.g08.bks.cpg/sg5_9_cif.got.tgz:16994.got - 2010.06.03 18:56:24.
