data_PCOD9129048
_publ_section_title
;
Structure prediction by ZEFSAII (Michael W. Deem and Ramdas Pophale) SiO2 
 PCOD9129048
Probable space group: C 2
;
_chemical_formula_sum "Si O2"
_cell_formula_units_Z 18
_cell_length_a 14.363364
_cell_length_b 4.764213
_cell_length_c 18.647891
_cell_angle_alpha 90.000000
_cell_angle_beta 146.287029
_cell_angle_gamma 90.000000
_cell_volume 708.264824
_symmetry_space_group_name_H-M "C 2"
_symmetry_group_IT_number 5
_symmetry_cell_setting 'monoclinic'
loop_
_space_group_symop_operation_xyz
x,y,z
-x,y,-z
1/2+x,1/2+y,z
1/2-x,1/2+y,-z
loop_
_atom_site_type_symbol
_atom_site_label
_atom_site_fract_x
_atom_site_fract_y
_atom_site_fract_z
Si Si1 0.861108 0.125000 0.550267
Si Si2 0.264225 0.537657 0.176493
Si Si3 0.688095 0.549050 0.220121
Si Si4 0.500000 0.941024 0.500000
Si Si5 0.831750 0.892715 0.022132
O O1 0.764939 0.364626 0.533395
O O2 0.034552 0.032514 0.698918
O O3 0.913165 0.258503 0.507203
O O4 0.220098 0.731018 0.216444
O O5 0.189714 0.239476 0.150303
O O6 0.185835 0.701460 0.059649
O O7 0.510398 0.542517 0.144321
O O8 0.851760 0.625421 0.370476
O O9 0.797075 0.653540 0.059429
#
# Coordination Sequence:
#
# PCOD9129048 Si02
#       5
#     4   4   4   2   4
#     4  11  25  43  74 108 154 203 247 319 375 467
#     4  11  25  47  71 107 146 199 255 297 393 437
#     4  11  25  47  75 106 148 201 245 315 368 470
#     4  10  26  46  76 114 154 198 258 308 398 446
#     4  12  27  44  73 112 150 196 251 314 374 450
#
# _framework density 25.414221999999999
#
# number of rings (size 3 to 8) (size 9 to 14) (size 15 to 20)
#    0.000    0.889    0.000    6.000    6.222    9.778 
#    0.000    0.000    0.000    0.000    0.000    0.000 
#    0.000    0.000    0.000    0.000    0.000    0.000 
#
# Total GULP energy -50432.099968 kJ/mol
# GULP energy per Si atom -5603.566663 kJ/mol
# Density = 2.535638 g / cm^3
# Si number density = 25.414222 Si / 1000 Ang^3
#
#
#
# Elastic Constant Matrix: (Units=GPa)
#
#
# Indices 1 2 3 4 5 6 
#
# 1 106.8461 39.6945 55.8386 0.0000 15.2691 0.0003
# 2 39.6945 134.6459 31.3806 -0.0001 20.6608 -0.0003
# 3 55.8386 31.3806 144.7264 0.0000 25.9391 0.0001
# 4 0.0000 -0.0001 0.0000 28.6742 0.0002 -0.0359
# 5 15.2691 20.6608 25.9391 0.0002 44.4209 0.0000
# 6 0.0003 -0.0003 0.0001 -0.0359 0.0000 54.6814
#
#
#
# Elastic Compliance Matrix: (Units=1/GPa)
#
#
# Indices 1 2 3 4 5 6 
#
# 1 0.012620 -0.002644 -0.004175 0.000000 -0.000670 0.000000
# 2 -0.002644 0.008740 -0.000345 0.000000 -0.002955 0.000000
# 3 -0.004175 -0.000345 0.009281 0.000000 -0.003824 0.000000
# 4 0.000000 0.000000 0.000000 0.034875 0.000000 0.000023
# 5 -0.000670 -0.002955 -0.003824 0.000000 0.026349 0.000000
# 6 0.000000 0.000000 0.000000 0.000023 0.000000 0.018288
#
#
# Mechanical properties :
#
#
# Convention : Reuss Voigt Hill
#
# Bulk Modulus (GPa) = 61.31156 71.11621 66.21389
# Shear Modulus (GPa) = 38.48548 42.84229 40.66389
#
# Velocity S-wave (km/s) = 3.89566 4.11026 4.00440
# Velocity P-wave (km/s) = 6.66424 7.11120 6.89135
#
# Compressibility (1/GPa) = 0.01631014
#
# Stress axis : x y z
#
# Youngs Moduli (GPa) = 79.24233 114.41211 107.75011
#
# Poissons Ratio (x) = 0.30255 0.44991
# Poissons Ratio (y) = 0.20955 0.03721
# Poissons Ratio (z) = 0.33088 0.03951
#
# Static dielectric constant tensor:
#      x y z
#    x 2.065690 0.000000 -0.030580 
#    y 0.000000 1.924310 0.000000 
#    z -0.030580 0.000000 2.028120 
# 
# From -- ./inp_files/65585.got.cif
#   From: 2010.05.17/outbox.cif.g08.bks.cpg/sg5_33_cif.got.tgz:65585.got - 2010.06.03 18:56:24.
