data_PCOD9129074
_publ_section_title
;
Structure prediction by ZEFSAII (Michael W. Deem and Ramdas Pophale) SiO2 
 PCOD9129074
Probable space group: C 2
;
_chemical_formula_sum "Si O2"
_cell_formula_units_Z 24
_cell_length_a 14.210244
_cell_length_b 5.710576
_cell_length_c 16.534146
_cell_angle_alpha 90.000000
_cell_angle_beta 45.275748
_cell_angle_gamma 90.000000
_cell_volume 953.297223
_symmetry_space_group_name_H-M "C 2"
_symmetry_group_IT_number 5
_symmetry_cell_setting 'monoclinic'
loop_
_space_group_symop_operation_xyz
x,y,z
-x,y,-z
1/2+x,1/2+y,z
1/2-x,1/2+y,-z
loop_
_atom_site_type_symbol
_atom_site_label
_atom_site_fract_x
_atom_site_fract_y
_atom_site_fract_z
Si Si1 0.049945 0.162860 0.678812
Si Si2 0.877642 0.812010 0.723058
Si Si3 0.725492 0.806634 0.422417
Si Si4 0.000000 0.614221 0.500000
Si Si5 0.238955 0.188402 0.958448
Si Si6 0.000000 0.406097 0.000000
Si Si7 0.640571 0.939237 0.767317
O O1 0.141282 0.281085 0.555327
O O2 0.045487 0.301439 0.764612
O O3 0.135615 0.931667 0.646471
O O4 0.910176 0.079798 0.728497
O O5 0.990900 0.753095 0.589380
O O6 0.856745 0.678532 0.819554
O O7 0.742811 0.781946 0.755436
O O8 0.763091 0.578028 0.350591
O O9 0.628652 0.955692 0.425700
O O10 0.234975 0.934681 0.006455
O O11 0.106435 0.249592 0.985851
O O12 0.935661 0.558123 0.111801
#
# Coordination Sequence:
#
# PCOD9129074 Si02
#       7
#     4   4   4   2   4   2   4
#     4  12  23  42  67 101 138 186 232 302 366 446
#     4  11  25  44  71 104 144 186 244 301 380 441
#     4  12  24  40  69  99 142 185 238 299 375 438
#     4  12  24  44  70 108 146 184 238 312 370 456
#     4  11  27  51  78 113 151 205 258 315 377 453
#     4  10  26  48  76 104 152 202 254 318 376 450
#     4  11  24  47  65 104 138 187 243 299 371 443
#
# _framework density 25.17578
#
# number of rings (size 3 to 8) (size 9 to 14) (size 15 to 20)
#    0.000    0.667    3.333    4.000    2.333    4.667 
#    0.000    0.000    0.000    0.000    0.000    0.000 
#    0.000    0.000    0.000    0.000    0.000    0.000 
#
# Total GULP energy -66997.153490 kJ/mol
# GULP energy per Si atom -5583.096124 kJ/mol
# Density = 2.511848 g / cm^3
# Si number density = 25.175780 Si / 1000 Ang^3
#
#
#
# Elastic Constant Matrix: (Units=GPa)
#
#
# Indices 1 2 3 4 5 6 
#
# 1 126.5119 39.3483 20.4792 0.0001 20.5471 -0.0002
# 2 39.3483 65.6602 45.2268 0.0004 32.2416 0.0006
# 3 20.4792 45.2268 181.8738 0.0000 37.5221 0.0000
# 4 0.0001 0.0004 0.0000 7.9738 -0.0001 -9.6103
# 5 20.5471 32.2416 37.5221 -0.0001 37.6586 0.0001
# 6 -0.0002 0.0006 0.0000 -9.6103 0.0001 24.0067
#
#
#
# Elastic Compliance Matrix: (Units=1/GPa)
#
#
# Indices 1 2 3 4 5 6 
#
# 1 0.009760 -0.005759 0.000522 0.000001 -0.000914 0.000001
# 2 -0.005759 0.030522 -0.002767 -0.000005 -0.020232 -0.000003
# 3 0.000522 -0.002767 0.007172 0.000000 -0.005061 0.000000
# 4 0.000001 -0.000005 0.000000 0.242327 0.000004 0.097007
# 5 -0.000914 -0.020232 -0.005061 0.000004 0.049418 0.000002
# 6 0.000001 -0.000003 0.000000 0.097007 0.000002 0.080489
#
#
# Mechanical properties :
#
#
# Convention : Reuss Voigt Hill
#
# Bulk Modulus (GPa) = 31.80266 64.90608 48.35437
# Shear Modulus (GPa) = 11.20628 31.86058 21.53343
#
# Velocity S-wave (km/s) = 2.11208 3.56128 2.92776
# Velocity P-wave (km/s) = 4.31364 6.53815 5.53872
#
# Compressibility (1/GPa) = 0.03144391
#
# Stress axis : x y z
#
# Youngs Moduli (GPa) = 102.46256 32.76308 139.43241
#
# Poissons Ratio (x) = 0.18869 -0.07276
# Poissons Ratio (y) = 0.59011 0.38588
# Poissons Ratio (z) = -0.05347 0.09067
#
# Static dielectric constant tensor:
#      x y z
#    x 2.115010 0.000000 -0.085350 
#    y 0.000000 2.035800 0.000000 
#    z -0.085350 0.000000 2.142250 
# 
# From -- ./inp_files/53778.got.cif
#   From: 2010.05.17/outbox.cif.g08.bks.cpg/sg5_27_cif.got.tgz:53778.got - 2010.06.03 18:56:24.
