data_PCOD9129921
_publ_section_title
;
Structure prediction by ZEFSAII (Michael W. Deem and Ramdas Pophale) SiO2 
 PCOD9129921
Probable space group: C 2
;
_chemical_formula_sum "Si O2"
_cell_formula_units_Z 20
_cell_length_a 11.857317
_cell_length_b 10.390970
_cell_length_c 9.401628
_cell_angle_alpha 90.000000
_cell_angle_beta 130.078663
_cell_angle_gamma 90.000000
_cell_volume 886.336299
_symmetry_space_group_name_H-M "C 2"
_symmetry_group_IT_number 5
_symmetry_cell_setting 'monoclinic'
loop_
_space_group_symop_operation_xyz
x,y,z
-x,y,-z
1/2+x,1/2+y,z
1/2-x,1/2+y,-z
loop_
_atom_site_type_symbol
_atom_site_label
_atom_site_fract_x
_atom_site_fract_y
_atom_site_fract_z
Si Si1 0.398712 0.601550 0.049631
Si Si2 0.938246 0.581429 0.297803
Si Si3 0.904148 0.970625 0.567447
Si Si4 0.313552 0.219209 0.635689
Si Si5 0.888862 0.295033 0.294236
O O1 0.478479 0.490836 0.208111
O O2 0.382542 0.715731 0.147674
O O3 0.500000 0.633792 0.000000
O O4 0.236261 0.581068 0.858292
O O5 0.965223 0.429334 0.319428
O O6 0.000000 0.629149 0.500000
O O7 0.023905 0.658445 0.246243
O O8 0.814318 0.838862 0.525579
O O9 0.000000 0.960319 0.500000
O O10 0.792327 0.094296 0.480653
O O11 0.264209 0.283886 0.744391
O O12 0.000000 0.235651 0.500000
#
# Coordination Sequence:
#
# PCOD9129921 Si02
#       5
#     4   4   4   4   4
#     4  12  25  47  74 109 154 199 254 312 375 452
#     4  11  27  47  73 110 151 202 250 308 381 446
#     4  12  26  49  78 114 153 204 250 312 386 453
#     4  12  24  47  80 106 155 195 251 309 380 446
#     4  11  23  50  75 104 153 200 248 317 379 438
#
# _framework density 22.564799000000001
#
# number of rings (size 3 to 8) (size 9 to 14) (size 15 to 20)
#    0.000    0.400    4.000    5.400    2.800    0.800 
#    3.600    0.000    0.000    0.000    0.000    0.000 
#    0.000    0.000    0.000    0.000    0.000    0.000 
#
# Total GULP energy -55818.946645 kJ/mol
# GULP energy per Si atom -5581.894665 kJ/mol
# Density = 2.251344 g / cm^3
# Si number density = 22.564799 Si / 1000 Ang^3
#
#
#
# Elastic Constant Matrix: (Units=GPa)
#
#
# Indices 1 2 3 4 5 6 
#
# 1 178.6267 55.8325 32.8341 0.0000 -11.5831 0.0000
# 2 55.8325 134.0409 1.1505 0.0000 -8.7450 0.0000
# 3 32.8341 1.1505 90.7766 0.0000 0.6087 0.0000
# 4 0.0000 0.0000 0.0000 9.9521 0.0000 -4.6503
# 5 -11.5831 -8.7450 0.6087 0.0000 47.7582 0.0000
# 6 0.0000 0.0000 0.0000 -4.6503 0.0000 38.0674
#
#
#
# Elastic Compliance Matrix: (Units=1/GPa)
#
#
# Indices 1 2 3 4 5 6 
#
# 1 0.007022 -0.002824 -0.002512 0.000000 0.001218 0.000000
# 2 -0.002824 0.008687 0.000905 0.000000 0.000894 0.000000
# 3 -0.002512 0.000905 0.011917 0.000000 -0.000595 0.000000
# 4 0.000000 0.000000 0.000000 0.106564 0.000000 0.013018
# 5 0.001218 0.000894 -0.000595 0.000000 0.021406 0.000000
# 6 0.000000 0.000000 0.000000 0.013018 0.000000 0.027859
#
#
# Mechanical properties :
#
#
# Convention : Reuss Voigt Hill
#
# Bulk Modulus (GPa) = 53.29121 64.78649 59.03885
# Shear Modulus (GPa) = 25.17996 40.06403 32.62199
#
# Velocity S-wave (km/s) = 3.34413 4.21825 3.80636
# Velocity P-wave (km/s) = 6.21121 7.24558 6.74825
#
# Compressibility (1/GPa) = 0.01876482
#
# Stress axis : x y z
#
# Youngs Moduli (GPa) = 142.41763 115.11252 83.91226
#
# Poissons Ratio (x) = 0.32504 0.21080
# Poissons Ratio (y) = 0.40215 -0.07596
# Poissons Ratio (z) = 0.35777 -0.10421
#
# Static dielectric constant tensor:
#      x y z
#    x 1.882070 0.000000 0.020830 
#    y 0.000000 1.888140 0.000000 
#    z 0.020830 0.000000 2.023620 
# 
# From -- ./inp_files/19463.got.cif
#   From: 2010.05.17/outbox.cif.g08.bks.cpg/sg5_10_cif.got.tgz:19463.got - 2010.06.03 18:56:24.
