data_PCOD9129710
_publ_section_title
;
Structure prediction by ZEFSAII (Michael W. Deem and Ramdas Pophale) SiO2 
 PCOD9129710
Probable space group: C 2
;
_chemical_formula_sum "Si O2"
_cell_formula_units_Z 22
_cell_length_a 22.358017
_cell_length_b 8.159373
_cell_length_c 9.701312
_cell_angle_alpha 90.000000
_cell_angle_beta 145.728471
_cell_angle_gamma 90.000000
_cell_volume 996.593403
_symmetry_space_group_name_H-M "C 2"
_symmetry_group_IT_number 5
_symmetry_cell_setting 'monoclinic'
loop_
_space_group_symop_operation_xyz
x,y,z
-x,y,-z
1/2+x,1/2+y,z
1/2-x,1/2+y,-z
loop_
_atom_site_type_symbol
_atom_site_label
_atom_site_fract_x
_atom_site_fract_y
_atom_site_fract_z
Si Si1 0.160890 0.528470 0.424871
Si Si2 0.719180 0.436453 0.821563
Si Si3 0.220097 0.808600 0.126800
Si Si4 0.341525 0.780186 0.814706
Si Si5 0.530737 0.301837 0.290441
Si Si6 0.000000 0.037114 0.000000
O O1 0.214348 0.398844 0.629630
O O2 0.245965 0.673669 0.567041
O O3 0.137395 0.437872 0.238538
O O4 0.062982 0.617522 0.312072
O O5 0.737698 0.624820 0.816440
O O6 0.803729 0.331473 0.893387
O O7 0.604187 0.367908 0.554093
O O8 0.733831 0.407200 0.010519
O O9 0.094723 0.810478 0.924012
O O10 0.438746 0.656694 0.986886
O O11 0.562641 0.415805 0.220225
#
# Coordination Sequence:
#
# PCOD9129710 Si02
#       6
#     4   4   4   4   4   2
#     4  11  23  44  70 100 140 172 232 274 340 394
#     4  11  26  45  70  98 140 176 230 273 341 397
#     4  12  25  48  70  97 138 185 216 285 336 403
#     4  11  23  41  68 103 135 179 222 283 328 406
#     4  11  26  44  70 102 133 181 224 281 330 408
#     4  12  24  40  70 102 140 174 228 276 346 384
#
# _framework density 22.075202000000001
#
# number of rings (size 3 to 8) (size 9 to 14) (size 15 to 20)
#    0.000    0.727    1.818    7.091    5.091    0.000 
#    0.000    0.000    0.000    0.000    0.000    0.000 
#    0.000    0.000    0.000    0.000    0.000    0.000 
#
# Total GULP energy -61579.865678 kJ/mol
# GULP energy per Si atom -5598.169607 kJ/mol
# Density = 2.202496 g / cm^3
# Si number density = 22.075202 Si / 1000 Ang^3
#
#
#
# Elastic Constant Matrix: (Units=GPa)
#
#
# Indices 1 2 3 4 5 6 
#
# 1 101.2007 45.7014 26.9335 0.0000 6.8450 0.0000
# 2 45.7014 109.1159 6.5345 0.0000 16.7868 0.0000
# 3 26.9335 6.5345 37.1475 0.0000 -0.3531 0.0000
# 4 0.0000 0.0000 0.0000 40.0281 0.0000 -4.0172
# 5 6.8450 16.7868 -0.3531 0.0000 32.6446 0.0000
# 6 0.0000 0.0000 0.0000 -4.0172 0.0000 34.1837
#
#
#
# Elastic Compliance Matrix: (Units=1/GPa)
#
#
# Indices 1 2 3 4 5 6 
#
# 1 0.015125 -0.005683 -0.009970 0.000000 -0.000357 0.000000
# 2 -0.005683 0.012209 0.001925 0.000000 -0.005066 0.000000
# 3 -0.009970 0.001925 0.033824 0.000000 0.001467 0.000000
# 4 0.000000 0.000000 0.000000 0.025281 0.000000 0.002971
# 5 -0.000357 -0.005066 0.001467 0.000000 0.033329 0.000000
# 6 0.000000 0.000000 0.000000 0.002971 0.000000 0.029603
#
#
# Mechanical properties :
#
#
# Convention : Reuss Voigt Hill
#
# Bulk Modulus (GPa) = 29.67274 45.08922 37.38098
# Shear Modulus (GPa) = 26.58710 32.59092 29.58901
#
# Velocity S-wave (km/s) = 3.47419 3.84651 3.66508
# Velocity P-wave (km/s) = 5.43730 6.34012 5.90599
#
# Compressibility (1/GPa) = 0.03370096
#
# Stress axis : x y z
#
# Youngs Moduli (GPa) = 66.11400 81.90764 29.56487
#
# Poissons Ratio (x) = 0.46548 0.29477
# Poissons Ratio (y) = 0.37573 -0.05690
# Poissons Ratio (z) = 0.65917 -0.15764
#
# Static dielectric constant tensor:
#      x y z
#    x 1.816620 0.000000 0.046440 
#    y 0.000000 1.800950 0.000000 
#    z 0.046440 0.000000 1.808320 
# 
# From -- ./inp_files/22653.got.cif
#   From: 2010.05.17/outbox.cif.g08.bks.cpg/sg5_12_cif.got.tgz:22653.got - 2010.06.03 18:56:24.
