data_PCOD9129512
_publ_section_title
;
Structure prediction by ZEFSAII (Michael W. Deem and Ramdas Pophale) SiO2 
 PCOD9129512
Probable space group: C 2
;
_chemical_formula_sum "Si O2"
_cell_formula_units_Z 24
_cell_length_a 9.444918
_cell_length_b 17.628025
_cell_length_c 9.300182
_cell_angle_alpha 90.000000
_cell_angle_beta 45.713776
_cell_angle_gamma 90.000000
_cell_volume 1108.464477
_symmetry_space_group_name_H-M "C 2"
_symmetry_group_IT_number 5
_symmetry_cell_setting 'monoclinic'
loop_
_space_group_symop_operation_xyz
x,y,z
-x,y,-z
1/2+x,1/2+y,z
1/2-x,1/2+y,-z
loop_
_atom_site_type_symbol
_atom_site_label
_atom_site_fract_x
_atom_site_fract_y
_atom_site_fract_z
Si Si1 0.089320 0.210590 0.772821
Si Si2 0.730935 0.566650 0.809167
Si Si3 0.819155 0.864588 0.521649
Si Si4 0.407009 0.328544 0.913014
Si Si5 0.558446 0.912677 0.308956
Si Si6 0.336963 0.168621 0.989816
O O1 0.224368 0.135130 0.697744
O O2 0.210169 0.283633 0.631918
O O3 0.895944 0.189490 0.811666
O O4 0.000000 0.223707 0.000000
O O5 0.837379 0.488089 0.708535
O O6 0.500000 0.549996 0.000000
O O7 0.823599 0.599587 0.890050
O O8 0.641230 0.923839 0.639984
O O9 0.000000 0.875477 0.500000
O O10 0.933565 0.871944 0.290831
O O11 0.500000 0.314232 0.000000
O O12 0.204316 0.369781 0.095027
O O13 0.392132 0.244370 0.859879
O O14 0.500000 0.869191 0.500000
O O15 0.500000 0.156780 0.000000
#
# Coordination Sequence:
#
# PCOD9129512 Si02
#       6
#     4   4   4   4   4   4
#     4   9  19  41  67  99 131 176 224 272 332 406
#     4   9  21  41  66  93 135 178 225 268 332 408
#     4  12  25  40  68 102 133 173 227 285 335 386
#     4  11  22  41  68  98 135 172 228 272 334 406
#     4  12  25  43  67  96 136 182 222 274 339 407
#     4   9  18  37  65  96 129 170 221 280 330 388
#
# _framework density 21.651575999999999
#
# number of rings (size 3 to 8) (size 9 to 14) (size 15 to 20)
#    0.000    2.000    3.333    2.500    0.000    2.000 
#    3.000    0.000    0.000    0.000    0.000    0.000 
#    0.000    0.000    0.000    0.000    0.000    0.000 
#
# Total GULP energy -66816.046364 kJ/mol
# GULP energy per Si atom -5568.003864 kJ/mol
# Density = 2.160230 g / cm^3
# Si number density = 21.651576 Si / 1000 Ang^3
#
#
#
# Elastic Constant Matrix: (Units=GPa)
#
#
# Indices 1 2 3 4 5 6 
#
# 1 168.7775 35.5826 21.2888 0.0000 -29.4258 0.0000
# 2 35.5826 65.5603 28.9773 0.0000 -7.2590 0.0000
# 3 21.2888 28.9773 91.3427 0.0000 -13.8527 0.0000
# 4 0.0000 0.0000 0.0000 29.4749 0.0000 -7.1481
# 5 -29.4258 -7.2590 -13.8527 0.0000 24.7564 0.0000
# 6 0.0000 0.0000 0.0000 -7.1481 0.0000 30.5791
#
#
#
# Elastic Compliance Matrix: (Units=1/GPa)
#
#
# Indices 1 2 3 4 5 6 
#
# 1 0.008204 -0.003738 0.000641 0.000000 0.009014 0.000000
# 2 -0.003738 0.019558 -0.005614 0.000000 -0.001849 0.000000
# 3 0.000641 -0.005614 0.013599 0.000000 0.006725 0.000000
# 4 0.000000 0.000000 0.000000 0.035966 0.000000 0.008407
# 5 0.009014 -0.001849 0.006725 0.000000 0.054328 0.000000
# 6 0.000000 0.000000 0.000000 0.008407 0.000000 0.034667
#
#
# Mechanical properties :
#
#
# Convention : Reuss Voigt Hill
#
# Bulk Modulus (GPa) = 41.77209 55.26421 48.51815
# Shear Modulus (GPa) = 26.07908 32.95086 29.51497
#
# Velocity S-wave (km/s) = 3.47434 3.90535 3.69613
# Velocity P-wave (km/s) = 5.95227 6.77609 6.37749
#
# Compressibility (1/GPa) = 0.02393943
#
# Stress axis : x y z
#
# Youngs Moduli (GPa) = 121.89751 51.12905 73.53308
#
# Poissons Ratio (x) = 0.19110 -0.04711
# Poissons Ratio (y) = 0.45561 0.41281
# Poissons Ratio (z) = -0.07810 0.28704
#
# Static dielectric constant tensor:
#      x y z
#    x 1.879240 0.000000 -0.011220 
#    y 0.000000 1.839960 0.000000 
#    z -0.011220 0.000000 1.818070 
# 
# From -- ./inp_files/16701.got.cif
#   From: 2010.05.17/outbox.cif.g08.bks.cpg/sg5_9_cif.got.tgz:16701.got - 2010.06.03 18:56:24.
