data_PCOD9129721
_publ_section_title
;
Structure prediction by ZEFSAII (Michael W. Deem and Ramdas Pophale) SiO2 
 PCOD9129721
Probable space group: C 2
;
_chemical_formula_sum "Si O2"
_cell_formula_units_Z 26
_cell_length_a 15.649977
_cell_length_b 17.015428
_cell_length_c 5.482503
_cell_angle_alpha 90.000000
_cell_angle_beta 61.416188
_cell_angle_gamma 90.000000
_cell_volume 1282.001199
_symmetry_space_group_name_H-M "C 2"
_symmetry_group_IT_number 5
_symmetry_cell_setting 'monoclinic'
loop_
_space_group_symop_operation_xyz
x,y,z
-x,y,-z
1/2+x,1/2+y,z
1/2-x,1/2+y,-z
loop_
_atom_site_type_symbol
_atom_site_label
_atom_site_fract_x
_atom_site_fract_y
_atom_site_fract_z
Si Si1 0.755817 0.479340 0.060390
Si Si2 0.906297 0.490864 0.490836
Si Si3 0.814170 0.777378 0.117762
Si Si4 0.058637 0.931584 0.163237
Si Si5 0.289233 0.818303 0.237143
Si Si6 0.615944 0.106271 0.855534
Si Si7 0.500000 0.864458 0.000000
O O1 0.648157 0.489455 0.107308
O O2 0.756226 0.410408 0.260575
O O3 0.817122 0.554670 0.056619
O O4 0.826473 0.445506 0.756080
O O5 0.853550 0.565064 0.439766
O O6 0.955356 0.424695 0.256699
O O7 0.000000 0.524301 0.500000
O O8 0.747011 0.790055 0.449125
O O9 0.867843 0.695966 0.104017
O O10 0.890184 0.849071 0.981010
O O11 0.759319 0.775964 0.930839
O O12 0.000000 0.922386 0.500000
O O13 0.000000 0.956378 0.000000
O O14 0.405912 0.815556 0.050426
O O15 0.500000 0.090416 0.000000
#
# Coordination Sequence:
#
# PCOD9129721 Si02
#       7
#     4   4   4   4   4   4   2
#     4  11  24  39  69  96 135 164 226 279 326 393
#     4  12  20  37  65 108 131 165 211 277 357 388
#     4  11  27  42  65  95 141 173 217 268 337 397
#     4  11  24  45  68  94 126 181 232 269 317 386
#     4  11  23  42  65 100 130 179 218 274 325 391
#     4  12  24  41  65 101 135 171 208 278 351 404
#     4  12  20  36  70 100 130 166 228 280 328 396
#
# _framework density 20.280792000000002
#
# number of rings (size 3 to 8) (size 9 to 14) (size 15 to 20)
#    0.000    0.615    5.385    4.154    4.308    0.000 
#    0.000    0.000    5.077    0.000    0.000    0.000 
#    0.000    0.000    0.000    0.000    0.000    0.000 
#
# Total GULP energy -72458.864448 kJ/mol
# GULP energy per Si atom -5573.758804 kJ/mol
# Density = 2.023463 g / cm^3
# Si number density = 20.280792 Si / 1000 Ang^3
#
#
#
# Elastic Constant Matrix: (Units=GPa)
#
#
# Indices 1 2 3 4 5 6 
#
# 1 172.0124 33.5345 50.5167 0.0000 1.1976 0.0000
# 2 33.5345 63.0471 12.2499 0.0000 0.2330 0.0000
# 3 50.5167 12.2499 121.9403 0.0000 8.5047 0.0000
# 4 0.0000 0.0000 0.0000 6.9314 0.0000 1.8122
# 5 1.1976 0.2330 8.5047 0.0000 30.5692 0.0000
# 6 0.0000 0.0000 0.0000 1.8122 0.0000 36.2961
#
#
#
# Elastic Compliance Matrix: (Units=1/GPa)
#
#
# Indices 1 2 3 4 5 6 
#
# 1 0.007255 -0.003335 -0.002705 0.000000 0.000494 0.000000
# 2 -0.003335 0.017713 -0.000405 0.000000 0.000108 0.000000
# 3 -0.002705 -0.000405 0.009539 0.000000 -0.002545 0.000000
# 4 0.000000 0.000000 0.000000 0.146179 0.000000 -0.007298
# 5 0.000494 0.000108 -0.002545 0.000000 0.033401 0.000000
# 6 0.000000 0.000000 0.000000 -0.007298 0.000000 0.027916
#
#
# Mechanical properties :
#
#
# Convention : Reuss Voigt Hill
#
# Bulk Modulus (GPa) = 46.25974 61.06688 53.66331
# Shear Modulus (GPa) = 19.07676 32.13925 25.60801
#
# Velocity S-wave (km/s) = 3.07030 3.98517 3.55727
# Velocity P-wave (km/s) = 5.95215 7.16599 6.58709
#
# Compressibility (1/GPa) = 0.02161707
#
# Stress axis : x y z
#
# Youngs Moduli (GPa) = 137.84335 56.45450 104.82742
#
# Poissons Ratio (x) = 0.18827 0.28354
# Poissons Ratio (y) = 0.45970 0.04250
# Poissons Ratio (z) = 0.37284 0.02289
#
# Static dielectric constant tensor:
#      x y z
#    x 1.813480 0.000000 0.081440 
#    y 0.000000 1.703340 0.000000 
#    z 0.081440 0.000000 1.827510 
# 
# From -- ./inp_files/7159.got.cif
#   From: 2010.05.17/outbox.cif.g08.bks.cpg/sg5_4_cif.got.tgz:7159.got - 2010.06.03 18:56:24.
