data_PCOD9129797
_publ_section_title
;
Structure prediction by ZEFSAII (Michael W. Deem and Ramdas Pophale) SiO2 
 PCOD9129797
Probable space group: C 2
;
_chemical_formula_sum "Si O2"
_cell_formula_units_Z 18
_cell_length_a 13.076045
_cell_length_b 11.654074
_cell_length_c 9.297820
_cell_angle_alpha 90.000000
_cell_angle_beta 146.323382
_cell_angle_gamma 90.000000
_cell_volume 785.670912
_symmetry_space_group_name_H-M "C 2"
_symmetry_group_IT_number 5
_symmetry_cell_setting 'monoclinic'
loop_
_space_group_symop_operation_xyz
x,y,z
-x,y,-z
1/2+x,1/2+y,z
1/2-x,1/2+y,-z
loop_
_atom_site_type_symbol
_atom_site_label
_atom_site_fract_x
_atom_site_fract_y
_atom_site_fract_z
Si Si1 0.000000 0.179111 0.000000
Si Si2 0.105565 0.991843 0.910944
Si Si3 0.740662 0.367393 0.601534
Si Si4 0.194283 0.327739 0.648724
Si Si5 0.773883 0.080025 0.227109
O O1 0.181000 0.260861 0.215302
O O2 0.999031 0.100105 0.855755
O O3 0.194711 0.930468 0.150632
O O4 0.475177 0.395949 0.682306
O O5 0.252097 0.039950 0.967281
O O6 0.823532 0.347219 0.540984
O O7 0.797011 0.483505 0.748311
O O8 0.285916 0.205876 0.796086
O O9 0.000000 0.327096 0.500000
O O10 0.000000 0.080940 0.500000
#
# Coordination Sequence:
#
# PCOD9129797 Si02
#       5
#     2   4   4   4   4
#     4  12  24  44  74  96 144 180 232 292 328 416
#     4  11  24  48  67 103 140 181 231 287 339 412
#     4  11  23  44  72  96 134 185 226 281 352 391
#     4  11  23  44  70 100 141 180 227 287 343 408
#     4   9  22  42  68  95 135 172 227 280 339 405
#
# _framework density 22.910357000000001
#
# number of rings (size 3 to 8) (size 9 to 14) (size 15 to 20)
#    0.000    1.333    2.222    4.000    6.222    0.000 
#   12.000    0.000    0.000    0.000    0.000    0.000 
#    0.000    0.000    0.000    0.000    0.000    0.000 
#
# Total GULP energy -50260.489424 kJ/mol
# GULP energy per Si atom -5584.498825 kJ/mol
# Density = 2.285821 g / cm^3
# Si number density = 22.910357 Si / 1000 Ang^3
#
#
#
# Elastic Constant Matrix: (Units=GPa)
#
#
# Indices 1 2 3 4 5 6 
#
# 1 104.8920 51.9816 8.5313 0.0000 -25.5027 0.0000
# 2 51.9816 150.9183 22.4779 0.0000 -12.2133 0.0000
# 3 8.5313 22.4779 52.8577 0.0000 -3.9566 0.0000
# 4 0.0000 0.0000 0.0000 18.3821 0.0000 51.6990
# 5 -25.5027 -12.2133 -3.9566 0.0000 37.7083 0.0000
# 6 0.0000 0.0000 0.0000 51.6990 0.0000 -113.8773
#
#
#
# Elastic Compliance Matrix: (Units=1/GPa)
#
#
# Indices 1 2 3 4 5 6 
#
# 1 0.013399 -0.004004 0.000122 0.000000 0.007778 0.000000
# 2 -0.004004 0.008422 -0.002957 0.000000 -0.000290 0.000000
# 3 0.000122 -0.002957 0.020250 0.000000 0.001250 0.000000
# 4 0.000000 0.000000 0.000000 0.023893 0.000000 0.010847
# 5 0.007778 -0.000290 0.001250 0.000000 0.031817 0.000000
# 6 0.000000 0.000000 0.000000 0.010847 0.000000 -0.003857
#
#
# Mechanical properties :
#
#
# Convention : Reuss Voigt Hill
#
# Bulk Modulus (GPa) = 35.21895 52.73885 43.97890
# Shear Modulus (GPa) = 42.71094 3.48777 23.09936
#
# Velocity S-wave (km/s) = 4.32240 1.23518 3.17874
# Velocity P-wave (km/s) = 6.34954 5.01037 5.71929
#
# Compressibility (1/GPa) = 0.02839380
#
# Stress axis : x y z
#
# Youngs Moduli (GPa) = 74.63280 118.73535 49.38272
#
# Poissons Ratio (x) = 0.47540 -0.00604
# Poissons Ratio (y) = 0.29882 0.14603
# Poissons Ratio (z) = -0.00912 0.35110
#
# Static dielectric constant tensor:
#      x y z
#    x 2.087980 0.000000 0.011040 
#    y 0.000000 1.845740 0.000000 
#    z 0.011040 0.000000 1.896960 
# 
# From -- ./inp_files/19172.got.cif
#   From: 2010.05.17/outbox.cif.g08.bks.cpg/sg5_10_cif.got.tgz:19172.got - 2010.06.03 18:56:24.
