data_PCOD9129176
_publ_section_title
;
Structure prediction by ZEFSAII (Michael W. Deem and Ramdas Pophale) SiO2 
 PCOD9129176
Probable space group: C 2
;
_chemical_formula_sum "Si O2"
_cell_formula_units_Z 30
_cell_length_a 12.531766
_cell_length_b 16.737352
_cell_length_c 15.379420
_cell_angle_alpha 90.000000
_cell_angle_beta 28.416049
_cell_angle_gamma 90.000000
_cell_volume 1535.068805
_symmetry_space_group_name_H-M "C 2"
_symmetry_group_IT_number 5
_symmetry_cell_setting 'monoclinic'
loop_
_space_group_symop_operation_xyz
x,y,z
-x,y,-z
1/2+x,1/2+y,z
1/2-x,1/2+y,-z
loop_
_atom_site_type_symbol
_atom_site_label
_atom_site_fract_x
_atom_site_fract_y
_atom_site_fract_z
Si Si1 0.682310 0.191240 0.936368
Si Si2 0.900091 0.449186 0.319723
Si Si3 0.262741 0.273669 0.826206
Si Si4 0.928734 0.628890 0.802020
Si Si5 0.844800 0.853588 0.955061
Si Si6 0.201700 0.405466 0.415785
Si Si7 0.000000 0.870060 0.500000
Si Si8 0.602873 0.717493 0.516216
O O1 0.920770 0.201627 0.720430
O O2 0.500000 0.156263 0.000000
O O3 0.695189 0.145237 0.017727
O O4 0.597514 0.279234 0.024443
O O5 0.798976 0.441619 0.488400
O O6 0.702132 0.424664 0.394284
O O7 0.011951 0.536252 0.239593
O O8 0.108468 0.389481 0.153702
O O9 0.304991 0.179129 0.814756
O O10 0.324190 0.319146 0.871963
O O11 0.402859 0.313364 0.646967
O O12 0.000000 0.286312 0.000000
O O13 0.167856 0.673069 0.631908
O O14 0.057066 0.912243 0.802549
O O15 0.152621 0.311184 0.467707
O O16 0.000000 0.435996 0.500000
O O17 0.500000 0.686971 0.500000
#
# Coordination Sequence:
#
# PCOD9129176 Si02
#       8
#     4   4   4   4   4   4   2   4
#     4  11  20  37  65  94 122 170 208 267 332 399
#     4  12  26  42  66 103 136 177 224 292 345 394
#     4  11  23  46  70  92 127 185 238 271 326 428
#     4  11  26  42  60 100 138 165 224 281 340 395
#     4  11  22  40  66  97 126 168 230 276 334 410
#     4  11  22  42  69  96 129 171 226 276 335 410
#     4  12  24  44  76  98 132 188 234 276 338 414
#     4  11  19  36  66  93 121 164 212 266 331 409
#
# _framework density 19.543096999999999
#
# number of rings (size 3 to 8) (size 9 to 14) (size 15 to 20)
#    0.000    0.800    8.000    0.800    0.933    1.067 
#    6.000    0.000    0.000    0.000    0.000    0.000 
#    0.000    0.000    0.000    0.000    0.000    0.000 
#
# Total GULP energy -83723.339072 kJ/mol
# GULP energy per Si atom -5581.555938 kJ/mol
# Density = 1.949862 g / cm^3
# Si number density = 19.543097 Si / 1000 Ang^3
#
#
#
# Elastic Constant Matrix: (Units=GPa)
#
#
# Indices 1 2 3 4 5 6 
#
# 1 70.7428 0.9014 8.0094 0.1063 -1.4326 0.1251
# 2 0.9014 55.2824 -9.8925 0.0801 9.0259 0.1327
# 3 8.0094 -9.8925 99.4029 0.1697 7.4984 0.2350
# 4 0.1063 0.0801 0.1697 75.1928 -0.1463 51.3255
# 5 -1.4326 9.0259 7.4984 -0.1463 39.9322 -0.1578
# 6 0.1251 0.1327 0.2350 51.3255 -0.1578 61.4153
#
#
#
# Elastic Compliance Matrix: (Units=1/GPa)
#
#
# Indices 1 2 3 4 5 6 
#
# 1 0.014307 -0.000608 -0.001280 -0.000002 0.000891 -0.000019
# 2 -0.000608 0.019304 0.002334 0.000018 -0.004824 -0.000077
# 3 -0.001280 0.002334 0.010589 0.000010 -0.002562 -0.000058
# 4 -0.000002 0.000018 0.000010 0.030960 0.000005 -0.025874
# 5 0.000891 -0.004824 -0.002562 0.000005 0.026646 0.000083
# 6 -0.000019 -0.000077 -0.000058 -0.025874 0.000083 0.037906
#
#
# Mechanical properties :
#
#
# Convention : Reuss Voigt Hill
#
# Bulk Modulus (GPa) = 22.17714 24.82943 23.50329
# Shear Modulus (GPa) = 32.49894 50.40206 41.45050
#
# Velocity S-wave (km/s) = 4.08234 5.08392 4.61041
# Velocity P-wave (km/s) = 5.79595 6.86980 6.35560
#
# Compressibility (1/GPa) = 0.04509147
#
# Stress axis : x y z
#
# Youngs Moduli (GPa) = 69.89828 51.80214 94.43836
#
# Poissons Ratio (x) = 0.03149 0.12092
# Poissons Ratio (y) = 0.04249 -0.22043
# Poissons Ratio (z) = 0.08950 -0.12091
#
# Static dielectric constant tensor:
#      x y z
#    x 0.964210 -0.000140 -0.083020 
#    y -0.000140 1.697790 0.000000 
#    z -0.083020 0.000000 1.663960 
# 
# From -- ./inp_files/53393.got.cif
#   From: 2010.05.17/outbox.cif.g08.bks.cpg/sg5_27_cif.got.tgz:53393.got - 2010.06.03 18:56:24.
