data_PCOD9129446
_publ_section_title
;
Structure prediction by ZEFSAII (Michael W. Deem and Ramdas Pophale) SiO2 
 PCOD9129446
Probable space group: C 2
;
_chemical_formula_sum "Si O2"
_cell_formula_units_Z 30
_cell_length_a 13.608067
_cell_length_b 17.916811
_cell_length_c 6.510331
_cell_angle_alpha 90.000000
_cell_angle_beta 111.444349
_cell_angle_gamma 90.000000
_cell_volume 1477.420255
_symmetry_space_group_name_H-M "C 2"
_symmetry_group_IT_number 5
_symmetry_cell_setting 'monoclinic'
loop_
_space_group_symop_operation_xyz
x,y,z
-x,y,-z
1/2+x,1/2+y,z
1/2-x,1/2+y,-z
loop_
_atom_site_type_symbol
_atom_site_label
_atom_site_fract_x
_atom_site_fract_y
_atom_site_fract_z
Si Si1 0.000000 0.645320 0.000000
Si Si2 0.226538 0.599176 0.315273
Si Si3 0.111979 0.514318 0.556831
Si Si4 0.245486 0.475522 0.035521
Si Si5 0.254385 0.756541 0.493572
Si Si6 0.397052 0.881023 0.774856
Si Si7 0.593236 0.249370 0.713802
Si Si8 0.874069 0.859059 0.917999
O O1 0.104711 0.602359 0.143532
O O2 0.962833 0.694143 0.167478
O O3 0.206090 0.558463 0.515915
O O4 0.284442 0.545627 0.198516
O O5 0.271040 0.682671 0.368482
O O6 0.089039 0.440509 0.401171
O O7 0.000000 0.556029 0.500000
O O8 0.150265 0.496844 0.813012
O O9 0.196520 0.417093 0.160104
O O10 0.328865 0.438743 0.945115
O O11 0.354956 0.802394 0.652196
O O12 0.182862 0.724130 0.624702
O O13 0.184158 0.817613 0.314326
O O14 0.500000 0.874795 0.000000
O O15 0.500000 0.281099 0.500000
O O16 0.648299 0.308646 0.901080
O O17 0.000000 0.860046 0.000000
#
# Coordination Sequence:
#
# PCOD9129446 Si02
#       8
#     2   4   4   4   4   4   4   4
#     4  12  22  36  60 100 132 164 204 264 348 406
#     4  11  25  36  58  99 136 169 214 265 348 402
#     4  11  22  38  63  92 132 170 214 282 336 387
#     4  11  24  40  62  96 134 168 219 275 336 395
#     4  12  24  39  65  99 136 171 217 275 333 397
#     4  11  23  41  65 100 125 175 234 271 324 392
#     4  12  20  35  61  97 133 157 201 261 329 386
#     4  12  22  40  65 100 126 167 220 263 328 402
#
# _framework density 20.305665000000001
#
# number of rings (size 3 to 8) (size 9 to 14) (size 15 to 20)
#    0.000    0.533    8.667    0.800    5.600    0.000 
#    0.000    0.000    0.000    0.800    6.933    0.000 
#    0.000    0.000    0.000    0.000    0.000    0.000 
#
# Total GULP energy -83697.337046 kJ/mol
# GULP energy per Si atom -5579.822470 kJ/mol
# Density = 2.025945 g / cm^3
# Si number density = 20.305665 Si / 1000 Ang^3
#
#
#
# Elastic Constant Matrix: (Units=GPa)
#
#
# Indices 1 2 3 4 5 6 
#
# 1 44.1340 36.5468 22.0420 0.0000 -10.4429 0.0000
# 2 36.5468 112.1809 37.8166 0.0000 -6.0390 0.0000
# 3 22.0420 37.8166 88.1146 0.0000 -10.3466 0.0000
# 4 0.0000 0.0000 0.0000 25.9905 0.0000 -4.9220
# 5 -10.4429 -6.0390 -10.3466 0.0000 30.2506 0.0000
# 6 0.0000 0.0000 0.0000 -4.9220 0.0000 26.0416
#
#
#
# Elastic Compliance Matrix: (Units=1/GPa)
#
#
# Indices 1 2 3 4 5 6 
#
# 1 0.034383 -0.009560 -0.003468 0.000000 0.008775 0.000000
# 2 -0.009560 0.013090 -0.003445 0.000000 -0.001866 0.000000
# 3 -0.003468 -0.003445 0.014037 0.000000 0.002916 0.000000
# 4 0.000000 0.000000 0.000000 0.039904 0.000000 0.007542
# 5 0.008775 -0.001866 0.002916 0.000000 0.036711 0.000000
# 6 0.000000 0.000000 0.000000 0.007542 0.000000 0.039826
#
#
# Mechanical properties :
#
#
# Convention : Reuss Voigt Hill
#
# Bulk Modulus (GPa) = 35.00917 48.58226 41.79572
# Shear Modulus (GPa) = 22.68409 26.32480 24.50444
#
# Velocity S-wave (km/s) = 3.34598 3.60450 3.47764
# Velocity P-wave (km/s) = 5.67503 6.42656 6.06245
#
# Compressibility (1/GPa) = 0.02856394
#
# Stress axis : x y z
#
# Youngs Moduli (GPa) = 29.08404 76.39568 71.23828
#
# Poissons Ratio (x) = 0.73035 0.24703
# Poissons Ratio (y) = 0.27805 0.24544
# Poissons Ratio (z) = 0.10085 0.26321
#
# Static dielectric constant tensor:
#      x y z
#    x 1.737540 0.000000 -0.011580 
#    y 0.000000 1.802430 0.000000 
#    z -0.011580 0.000000 1.769680 
# 
# From -- ./inp_files/7328.got.cif
#   From: 2010.05.17/outbox.cif.g08.bks.cpg/sg5_4_cif.got.tgz:7328.got - 2010.06.03 18:56:24.
