data_PCOD9129057
_publ_section_title
;
Structure prediction by ZEFSAII (Michael W. Deem and Ramdas Pophale) SiO2 
 PCOD9129057
Probable space group: C 2
;
_chemical_formula_sum "Si O2"
_cell_formula_units_Z 20
_cell_length_a 14.131790
_cell_length_b 4.742448
_cell_length_c 10.781241
_cell_angle_alpha 90.000000
_cell_angle_beta 83.564068
_cell_angle_gamma 90.000000
_cell_volume 717.997353
_symmetry_space_group_name_H-M "C 2"
_symmetry_group_IT_number 5
_symmetry_cell_setting 'monoclinic'
loop_
_space_group_symop_operation_xyz
x,y,z
-x,y,-z
1/2+x,1/2+y,z
1/2-x,1/2+y,-z
loop_
_atom_site_type_symbol
_atom_site_label
_atom_site_fract_x
_atom_site_fract_y
_atom_site_fract_z
Si Si1 0.695595 0.041870 0.972511
Si Si2 0.265907 0.049247 0.577871
Si Si3 0.463151 0.801227 0.632200
Si Si4 0.122222 0.652998 0.738168
Si Si5 0.453938 0.474754 0.888618
O O1 0.679328 0.972476 0.830867
O O2 0.622278 0.235387 0.060589
O O3 0.788107 0.246475 0.963107
O O4 0.252089 0.875085 0.449835
O O5 0.369985 0.984413 0.614111
O O6 0.186390 0.899302 0.672010
O O7 0.500000 0.646311 0.500000
O O8 0.437393 0.627128 0.759059
O O9 0.554219 0.989806 0.654466
O O10 0.047642 0.799077 0.839844
O O11 0.500000 0.648535 0.000000
#
# Coordination Sequence:
#
# PCOD9129057 Si02
#       5
#     4   4   4   4   4
#     4  11  27  49  79 120 159 210 268 337 402 480
#     4  12  28  50  77 115 163 211 271 333 400 484
#     4  12  26  49  81 115 163 215 264 337 402 475
#     4  11  27  46  78 116 158 214 273 324 407 486
#     4  10  26  47  77 112 161 209 267 333 399 480
#
# _framework density 27.855256000000001
#
# number of rings (size 3 to 8) (size 9 to 14) (size 15 to 20)
#    0.000    0.800    2.000    2.400   14.000    1.600 
#    0.000    0.000    0.000    0.000    0.000    0.000 
#    0.000    0.000    0.000    0.000    0.000    0.000 
#
# Total GULP energy -56021.555307 kJ/mol
# GULP energy per Si atom -5602.155531 kJ/mol
# Density = 2.779186 g / cm^3
# Si number density = 27.855256 Si / 1000 Ang^3
#
#
#
# Elastic Constant Matrix: (Units=GPa)
#
#
# Indices 1 2 3 4 5 6 
#
# 1 63.8108 9.7961 13.0346 0.0000 25.3133 0.0000
# 2 9.7961 107.5722 36.1151 0.0000 8.9272 0.0000
# 3 13.0346 36.1151 151.9698 0.0000 19.7042 0.0000
# 4 0.0000 0.0000 0.0000 45.6852 0.0000 4.8040
# 5 25.3133 8.9272 19.7042 0.0000 58.6767 0.0000
# 6 0.0000 0.0000 0.0000 4.8040 0.0000 23.4526
#
#
#
# Elastic Compliance Matrix: (Units=1/GPa)
#
#
# Indices 1 2 3 4 5 6 
#
# 1 0.019046 -0.000948 -0.000378 0.000000 -0.007945 0.000000
# 2 -0.000948 0.010182 -0.002290 0.000000 -0.000371 0.000000
# 3 -0.000378 -0.002290 0.007413 0.000000 -0.001978 0.000000
# 4 0.000000 0.000000 0.000000 0.022371 0.000000 -0.004582
# 5 -0.007945 -0.000371 -0.001978 0.000000 0.021191 0.000000
# 6 0.000000 0.000000 0.000000 -0.004582 0.000000 0.043578
#
#
# Mechanical properties :
#
#
# Convention : Reuss Voigt Hill
#
# Bulk Modulus (GPa) = 34.00388 49.02715 41.51551
# Shear Modulus (GPa) = 35.50709 43.19001 39.34855
#
# Velocity S-wave (km/s) = 3.57417 3.94193 3.76254
# Velocity P-wave (km/s) = 5.40987 6.19333 5.81481
#
# Compressibility (1/GPa) = 0.02940841
#
# Stress axis : x y z
#
# Youngs Moduli (GPa) = 52.50467 98.21122 134.89035
#
# Poissons Ratio (x) = 0.09312 0.05100
# Poissons Ratio (y) = 0.04978 0.30894
# Poissons Ratio (z) = 0.01985 0.22494
#
# Static dielectric constant tensor:
#      x y z
#    x 2.336630 0.000000 0.034470 
#    y 0.000000 2.078500 0.000000 
#    z 0.034470 0.000000 2.282310 
# 
# From -- ./inp_files/41028.got.cif
#   From: 2010.05.17/outbox.cif.g08.bks.cpg/sg5_21_cif.got.tgz:41028.got - 2010.06.03 18:56:24.
