data_PCOD9129762
_publ_section_title
;
Structure prediction by ZEFSAII (Michael W. Deem and Ramdas Pophale) SiO2 
 PCOD9129762
Probable space group: C 2
;
_chemical_formula_sum "Si O2"
_cell_formula_units_Z 24
_cell_length_a 10.490068
_cell_length_b 9.010800
_cell_length_c 11.435307
_cell_angle_alpha 90.000000
_cell_angle_beta 108.658924
_cell_angle_gamma 90.000000
_cell_volume 1024.097123
_symmetry_space_group_name_H-M "C 2"
_symmetry_group_IT_number 5
_symmetry_cell_setting 'monoclinic'
loop_
_space_group_symop_operation_xyz
x,y,z
-x,y,-z
1/2+x,1/2+y,z
1/2-x,1/2+y,-z
loop_
_atom_site_type_symbol
_atom_site_label
_atom_site_fract_x
_atom_site_fract_y
_atom_site_fract_z
Si Si1 0.048838 0.825120 0.264963
Si Si2 0.803067 0.997561 0.504371
Si Si3 0.505552 0.027215 0.873742
Si Si4 0.072906 0.285234 0.410613
Si Si5 0.693740 0.827988 0.816733
Si Si6 0.716857 0.492959 0.782566
O O1 0.021445 0.652282 0.231702
O O2 0.174309 0.872248 0.218298
O O3 0.098271 0.876192 0.407527
O O4 0.906119 0.901958 0.201600
O O5 0.826166 0.148887 0.585452
O O6 0.811169 0.013362 0.365620
O O7 0.656015 0.926785 0.475463
O O8 0.368138 0.928464 0.832191
O O9 0.646614 0.941233 0.902465
O O10 0.500000 0.101535 0.000000
O O11 0.000000 0.215456 0.500000
O O12 0.949539 0.327245 0.293381
O O13 0.716007 0.653751 0.843788
#
# Coordination Sequence:
#
# PCOD9129762 Si02
#       6
#     4   4   4   4   4   4
#     4  11  24  42  71 104 138 177 223 285 343 409
#     4  12  22  39  69 103 146 178 216 268 346 422
#     4  11  27  49  69  96 134 183 241 289 333 396
#     4  12  21  39  62  95 144 182 216 274 331 416
#     4  11  23  43  67  96 136 179 229 279 341 399
#     4  11  23  43  68 101 139 178 220 281 342 410
#
# _framework density 23.435276000000002
#
# number of rings (size 3 to 8) (size 9 to 14) (size 15 to 20)
#    0.000    0.667    6.667    1.500    0.000    5.333 
#    0.000    5.000    0.000    0.000    0.000    0.000 
#    0.000    0.000    0.000    0.000    0.000    0.000 
#
# Total GULP energy -66872.082462 kJ/mol
# GULP energy per Si atom -5572.673538 kJ/mol
# Density = 2.338194 g / cm^3
# Si number density = 23.435276 Si / 1000 Ang^3
#
#
#
# Elastic Constant Matrix: (Units=GPa)
#
#
# Indices 1 2 3 4 5 6 
#
# 1 176.1475 50.7564 4.7750 0.0000 19.6416 0.0000
# 2 50.7564 70.0826 17.7047 0.0000 -10.8077 0.0000
# 3 4.7750 17.7047 41.3836 0.0000 -0.7680 0.0000
# 4 0.0000 0.0000 0.0000 12.7297 0.0000 3.9821
# 5 19.6416 -10.8077 -0.7680 0.0000 25.7125 0.0000
# 6 0.0000 0.0000 0.0000 3.9821 0.0000 47.6697
#
#
#
# Elastic Compliance Matrix: (Units=1/GPa)
#
#
# Indices 1 2 3 4 5 6 
#
# 1 0.009512 -0.009271 0.002663 0.000000 -0.011084 0.000000
# 2 -0.009271 0.026208 -0.009812 0.000000 0.017805 0.000000
# 3 0.002663 -0.009812 0.027956 0.000000 -0.005324 0.000000
# 4 0.000000 0.000000 0.000000 0.080664 0.000000 -0.006738
# 5 -0.011084 0.017805 -0.005324 0.000000 0.054683 0.000000
# 6 0.000000 0.000000 0.000000 -0.006738 0.000000 0.021541
#
#
# Mechanical properties :
#
#
# Convention : Reuss Voigt Hill
#
# Bulk Modulus (GPa) = 32.42982 48.23177 40.33079
# Shear Modulus (GPa) = 18.96214 31.51421 25.23818
#
# Velocity S-wave (km/s) = 2.84760 3.67104 3.28522
# Velocity P-wave (km/s) = 4.96788 6.21243 5.62468
#
# Compressibility (1/GPa) = 0.03083582
#
# Stress axis : x y z
#
# Youngs Moduli (GPa) = 105.12786 38.15636 35.77067
#
# Poissons Ratio (x) = 0.35375 -0.09526
# Poissons Ratio (y) = 0.97465 0.35098
# Poissons Ratio (z) = -0.27997 0.37439
#
# Static dielectric constant tensor:
#      x y z
#    x 1.948290 0.000000 -0.017870 
#    y 0.000000 1.926860 0.000000 
#    z -0.017870 0.000000 2.006360 
# 
# From -- ./inp_files/38417.got.cif
#   From: 2010.05.17/outbox.cif.g08.bks.cpg/sg5_20_cif.got.tgz:38417.got - 2010.06.03 18:56:24.
