data_PCOD9129950
_publ_section_title
;
Structure prediction by ZEFSAII (Michael W. Deem and Ramdas Pophale) SiO2 
 PCOD9129950
Probable space group: C 2
;
_chemical_formula_sum "Si O2"
_cell_formula_units_Z 24
_cell_length_a 9.460912
_cell_length_b 9.686216
_cell_length_c 13.414384
_cell_angle_alpha 90.000000
_cell_angle_beta 98.472297
_cell_angle_gamma 90.000000
_cell_volume 1215.884927
_symmetry_space_group_name_H-M "C 2"
_symmetry_group_IT_number 5
_symmetry_cell_setting 'monoclinic'
loop_
_space_group_symop_operation_xyz
x,y,z
-x,y,-z
1/2+x,1/2+y,z
1/2-x,1/2+y,-z
loop_
_atom_site_type_symbol
_atom_site_label
_atom_site_fract_x
_atom_site_fract_y
_atom_site_fract_z
Si Si1 0.399423 0.176620 0.905209
Si Si2 0.429661 0.652219 0.102177
Si Si3 0.130357 0.938985 0.233180
Si Si4 0.382288 0.011021 0.575163
Si Si5 0.145616 0.827271 0.453200
Si Si6 0.550718 0.950525 0.795113
O O1 0.241534 0.134538 0.924689
O O2 0.384246 0.287925 0.816553
O O3 0.485022 0.046694 0.872862
O O4 0.500000 0.241990 0.000000
O O5 0.506790 0.534862 0.175691
O O6 0.451280 0.795645 0.163345
O O7 0.500000 0.656163 0.000000
O O8 0.128426 0.917488 0.351280
O O9 0.286592 0.991439 0.215072
O O10 0.500000 0.008861 0.500000
O O11 0.321586 0.167753 0.571807
O O12 0.265003 0.898919 0.532943
O O13 0.456686 0.971594 0.686498
O O14 0.000000 0.826162 0.500000
#
# Coordination Sequence:
#
# PCOD9129950 Si02
#       6
#     4   4   4   4   4   4
#     4  11  24  44  68  92 129 172 219 272 327 391
#     4  11  26  43  65 101 129 171 220 271 328 383
#     4  11  24  44  66  98 133 170 217 272 324 384
#     4  11  24  45  66  97 135 173 214 268 324 389
#     4  11  26  41  66 100 131 174 219 263 329 383
#     4  11  24  42  69  96 131 173 219 264 328 387
#
# _framework density 19.738709
#
# number of rings (size 3 to 8) (size 9 to 14) (size 15 to 20)
#    0.000    1.000    3.333    2.000    4.667    6.000 
#    0.000    0.000    0.000    0.000    0.000    0.000 
#    0.000    0.000    0.000    0.000    0.000    0.000 
#
# Total GULP energy -67092.043858 kJ/mol
# GULP energy per Si atom -5591.003655 kJ/mol
# Density = 1.969378 g / cm^3
# Si number density = 19.738709 Si / 1000 Ang^3
#
#
#
# Elastic Constant Matrix: (Units=GPa)
#
#
# Indices 1 2 3 4 5 6 
#
# 1 107.8234 40.6415 14.2076 0.0000 11.2589 0.0000
# 2 40.6415 66.2306 -3.4026 0.0000 6.3221 0.0000
# 3 14.2076 -3.4026 68.5714 0.0000 8.6412 0.0000
# 4 0.0000 0.0000 0.0000 31.0415 0.0000 14.8753
# 5 11.2589 6.3221 8.6412 0.0000 38.0900 0.0000
# 6 0.0000 0.0000 0.0000 14.8753 0.0000 0.2136
#
#
#
# Elastic Compliance Matrix: (Units=1/GPa)
#
#
# Indices 1 2 3 4 5 6 
#
# 1 0.012780 -0.007810 -0.002803 0.000000 -0.001845 0.000000
# 2 -0.007810 0.020198 0.002833 0.000000 -0.001686 0.000000
# 3 -0.002803 0.002833 0.015709 0.000000 -0.003205 0.000000
# 4 0.000000 0.000000 0.000000 -0.000995 0.000000 0.069302
# 5 -0.001845 -0.001686 -0.003205 0.000000 0.027806 0.000000
# 6 0.000000 0.000000 0.000000 0.069302 0.000000 -0.144618
#
#
# Mechanical properties :
#
#
# Convention : Reuss Voigt Hill
#
# Bulk Modulus (GPa) = 30.18745 38.39093 34.28919
# Shear Modulus (GPa) = -117.59856 26.61428 -45.49214
#
# Velocity S-wave (km/s) = -7.72703 3.67594 -4.80595
# Velocity P-wave (km/s) = 8.01764 6.12442 3.65883
#
# Compressibility (1/GPa) = 0.03312635
#
# Stress axis : x y z
#
# Youngs Moduli (GPa) = 78.24478 49.50983 63.65929
#
# Poissons Ratio (x) = 0.38669 0.17844
# Poissons Ratio (y) = 0.61112 -0.18035
# Poissons Ratio (z) = 0.21932 -0.14026
#
# Static dielectric constant tensor:
#      x y z
#    x 1.691520 0.000000 0.010400 
#    y 0.000000 1.675360 0.000000 
#    z 0.010400 0.000000 1.684980 
# 
# From -- ./inp_files/35352.got.cif
#   From: 2010.05.17/outbox.cif.g08.bks.cpg/sg5_18_cif.got.tgz:35352.got - 2010.06.03 18:56:24.
