data_PCOD9129534
_publ_section_title
;
Structure prediction by ZEFSAII (Michael W. Deem and Ramdas Pophale) SiO2 
 PCOD9129534
Probable space group: C 2
;
_chemical_formula_sum "Si O2"
_cell_formula_units_Z 26
_cell_length_a 19.568272
_cell_length_b 11.646603
_cell_length_c 5.144583
_cell_angle_alpha 90.000000
_cell_angle_beta 85.007260
_cell_angle_gamma 90.000000
_cell_volume 1168.021840
_symmetry_space_group_name_H-M "C 2"
_symmetry_group_IT_number 5
_symmetry_cell_setting 'monoclinic'
loop_
_space_group_symop_operation_xyz
x,y,z
-x,y,-z
1/2+x,1/2+y,z
1/2-x,1/2+y,-z
loop_
_atom_site_type_symbol
_atom_site_label
_atom_site_fract_x
_atom_site_fract_y
_atom_site_fract_z
Si Si1 0.047805 0.207180 0.238335
Si Si2 0.500000 0.051087 0.500000
Si Si3 0.100091 0.631887 0.849286
Si Si4 0.348442 0.519512 0.656559
Si Si5 0.158761 0.748888 0.327697
Si Si6 0.735902 0.572141 0.811142
Si Si7 0.628873 0.931726 0.188428
O O1 0.082407 0.084806 0.286238
O O2 0.110487 0.298075 0.179676
O O3 0.000000 0.238116 0.500000
O O4 0.000000 0.208460 0.000000
O O5 0.527587 0.124423 0.730807
O O6 0.565361 0.979790 0.381016
O O7 0.145590 0.690307 0.610526
O O8 0.111093 0.700678 0.111553
O O9 0.120379 0.501378 0.920232
O O10 0.352298 0.382767 0.649738
O O11 0.322523 0.558992 0.383701
O O12 0.292790 0.550544 0.894213
O O13 0.232333 0.699293 0.218982
O O14 0.797528 0.478997 0.738445
#
# Coordination Sequence:
#
# PCOD9129534 Si02
#       7
#     4   2   4   4   4   4   4
#     4  12  28  50  74 111 153 199 251 299 377 456
#     4  12  20  42  66 112 142 176 242 300 386 408
#     4  11  22  42  67 103 138 184 230 303 366 424
#     4  12  28  49  72 104 148 201 243 300 380 449
#     4  11  25  46  68 102 145 179 251 297 359 447
#     4  11  25  45  74 106 141 193 252 307 373 431
#     4  11  25  42  76 109 149 184 249 315 366 426
#
# _framework density 22.259858999999999
#
# number of rings (size 3 to 8) (size 9 to 14) (size 15 to 20)
#    0.000    0.615    3.846    5.077    4.308    0.000 
#    4.154    0.000    0.000    0.000    0.000    0.000 
#    0.000    0.000    0.000    0.000    0.000    0.000 
#
# Total GULP energy -72654.145030 kJ/mol
# GULP energy per Si atom -5588.780387 kJ/mol
# Density = 2.220919 g / cm^3
# Si number density = 22.259859 Si / 1000 Ang^3
#
#
#
# Elastic Constant Matrix: (Units=GPa)
#
#
# Indices 1 2 3 4 5 6 
#
# 1 43.7169 -1.2510 5.3842 0.0000 5.8976 0.0000
# 2 -1.2510 127.7266 24.3529 0.0000 2.0145 0.0000
# 3 5.3842 24.3529 116.3849 0.0000 13.7551 0.0000
# 4 0.0000 0.0000 0.0000 4.7402 0.0000 -19.4915
# 5 5.8976 2.0145 13.7551 0.0000 47.0387 0.0000
# 6 0.0000 0.0000 0.0000 -19.4915 0.0000 -18.6593
#
#
#
# Elastic Compliance Matrix: (Units=1/GPa)
#
#
# Indices 1 2 3 4 5 6 
#
# 1 0.023356 0.000434 -0.000852 0.000000 -0.002698 0.000000
# 2 0.000434 0.008164 -0.001741 0.000000 0.000105 0.000000
# 3 -0.000852 -0.001741 0.009296 0.000000 -0.002537 0.000000
# 4 0.000000 0.000000 0.000000 0.039839 0.000000 -0.041616
# 5 -0.002698 0.000105 -0.002537 0.000000 0.022335 0.000000
# 6 0.000000 0.000000 0.000000 -0.041616 0.000000 -0.010121
#
#
# Mechanical properties :
#
#
# Convention : Reuss Voigt Hill
#
# Bulk Modulus (GPa) = 27.39989 38.31120 32.85554
# Shear Modulus (GPa) = 45.72385 23.91342 34.81863
#
# Velocity S-wave (km/s) = 4.53713 3.28118 3.95927
# Velocity P-wave (km/s) = 6.30739 5.62167 5.97438
#
# Compressibility (1/GPa) = 0.03649650
#
# Stress axis : x y z
#
# Youngs Moduli (GPa) = 42.81598 122.49341 107.57702
#
# Poissons Ratio (x) = -0.05314 0.09170
# Poissons Ratio (y) = -0.01857 0.18726
# Poissons Ratio (z) = 0.03650 0.21322
#
# Static dielectric constant tensor:
#      x y z
#    x 1.875060 0.000000 -0.046590 
#    y 0.000000 1.844480 0.000000 
#    z -0.046590 0.000000 1.822230 
# 
# From -- ./inp_files/8302.got.cif
#   From: 2010.05.17/outbox.cif.g08.bks.cpg/sg5_5_cif.got.tgz:8302.got - 2010.06.03 18:56:24.
