data_PCOD9129387
_publ_section_title
;
Structure prediction by ZEFSAII (Michael W. Deem and Ramdas Pophale) SiO2 
 PCOD9129387
Probable space group: C 2
;
_chemical_formula_sum "Si O2"
_cell_formula_units_Z 28
_cell_length_a 13.121921
_cell_length_b 12.606073
_cell_length_c 8.340922
_cell_angle_alpha 90.000000
_cell_angle_beta 71.812824
_cell_angle_gamma 90.000000
_cell_volume 1310.792875
_symmetry_space_group_name_H-M "C 2"
_symmetry_group_IT_number 5
_symmetry_cell_setting 'monoclinic'
loop_
_space_group_symop_operation_xyz
x,y,z
-x,y,-z
1/2+x,1/2+y,z
1/2-x,1/2+y,-z
loop_
_atom_site_type_symbol
_atom_site_label
_atom_site_fract_x
_atom_site_fract_y
_atom_site_fract_z
Si Si1 0.972587 0.706870 0.829359
Si Si2 0.615192 0.594598 0.016298
Si Si3 0.318097 0.148601 0.476716
Si Si4 0.116808 0.062475 0.391359
Si Si5 0.681960 0.346478 0.296339
Si Si6 0.668079 0.016693 0.230673
Si Si7 0.382966 0.849197 0.988233
O O1 0.905679 0.803958 0.787259
O O2 0.898288 0.603171 0.840506
O O3 0.080027 0.683845 0.676548
O O4 0.000000 0.723857 0.000000
O O5 0.622338 0.563114 0.197313
O O6 0.628111 0.722181 0.008347
O O7 0.500000 0.568563 0.000000
O O8 0.707790 0.538617 0.869576
O O9 0.214982 0.124562 0.420809
O O10 0.291068 0.244311 0.610470
O O11 0.348480 0.048317 0.575798
O O12 0.000000 0.101907 0.500000
O O13 0.133183 0.939205 0.428342
O O14 0.788243 0.386771 0.153299
O O15 0.634576 0.903366 0.176069
O O16 0.500000 0.876260 0.000000
#
# Coordination Sequence:
#
# PCOD9129387 Si02
#       7
#     4   4   4   4   4   4   4
#     4  11  23  43  72  98 131 178 233 287 336 402
#     4  11  23  43  68  97 136 180 222 280 341 406
#     4  11  25  44  71  98 140 175 231 289 336 404
#     4  12  26  43  67 100 139 180 225 281 347 404
#     4  11  24  47  66 100 136 182 227 284 339 400
#     4  11  21  43  68  99 132 176 232 274 345 398
#     4  11  24  41  72  99 138 179 226 283 335 411
#
# _framework density 21.361117
#
# number of rings (size 3 to 8) (size 9 to 14) (size 15 to 20)
#    0.000    0.857    4.286    4.714    4.000    1.714 
#    2.571    1.429    0.000    0.000    0.000    0.000 
#    0.000    0.000    0.000    0.000    0.000    0.000 
#
# Total GULP energy -78330.722457 kJ/mol
# GULP energy per Si atom -5595.051604 kJ/mol
# Density = 2.131250 g / cm^3
# Si number density = 21.361117 Si / 1000 Ang^3
#
#
#
# Elastic Constant Matrix: (Units=GPa)
#
#
# Indices 1 2 3 4 5 6 
#
# 1 168.8817 40.6363 55.0176 0.0000 -3.7838 0.0000
# 2 40.6363 25.7118 7.5538 0.0000 3.3619 0.0000
# 3 55.0176 7.5538 108.1830 0.0000 -2.0857 0.0000
# 4 0.0000 0.0000 0.0000 22.2870 0.0000 1.2708
# 5 -3.7838 3.3619 -2.0857 0.0000 44.3282 0.0000
# 6 0.0000 0.0000 0.0000 1.2708 0.0000 19.6800
#
#
#
# Elastic Compliance Matrix: (Units=1/GPa)
#
#
# Indices 1 2 3 4 5 6 
#
# 1 0.011663 -0.017331 -0.004681 0.000000 0.002090 0.000000
# 2 -0.017331 0.065904 0.004091 0.000000 -0.006285 0.000000
# 3 -0.004681 0.004091 0.011335 0.000000 -0.000177 0.000000
# 4 0.000000 0.000000 0.000000 0.045035 0.000000 -0.002908
# 5 0.002090 -0.006285 -0.000177 0.000000 0.023206 0.000000
# 6 0.000000 0.000000 0.000000 -0.002908 0.000000 0.051001
#
#
# Mechanical properties :
#
#
# Convention : Reuss Voigt Hill
#
# Bulk Modulus (GPa) = 18.84660 56.57687 37.71174
# Shear Modulus (GPa) = 19.10778 30.56363 24.83571
#
# Velocity S-wave (km/s) = 2.99408 3.78670 3.41348
# Velocity P-wave (km/s) = 4.56012 6.75739 5.76442
#
# Compressibility (1/GPa) = 0.05305997
#
# Stress axis : x y z
#
# Youngs Moduli (GPa) = 85.73821 15.17356 88.22116
#
# Poissons Ratio (x) = 0.26298 0.41297
# Poissons Ratio (y) = 1.48597 -0.36093
# Poissons Ratio (z) = 0.40135 -0.06208
#
# Static dielectric constant tensor:
#      x y z
#    x 1.737230 0.000000 -0.007550 
#    y 0.000000 1.799000 0.000000 
#    z -0.007550 0.000000 1.763040 
# 
# From -- ./inp_files/20343.got.cif
#   From: 2010.05.17/outbox.cif.g08.bks.cpg/sg5_11_cif.got.tgz:20343.got - 2010.06.03 18:56:24.
