data_PCOD9129132
_publ_section_title
;
Structure prediction by ZEFSAII (Michael W. Deem and Ramdas Pophale) SiO2 
 PCOD9129132
Probable space group: C 2
;
_chemical_formula_sum "Si O2"
_cell_formula_units_Z 18
_cell_length_a 9.717737
_cell_length_b 8.848689
_cell_length_c 10.785737
_cell_angle_alpha 90.000000
_cell_angle_beta 60.226962
_cell_angle_gamma 90.000000
_cell_volume 805.032168
_symmetry_space_group_name_H-M "C 2"
_symmetry_group_IT_number 5
_symmetry_cell_setting 'monoclinic'
loop_
_space_group_symop_operation_xyz
x,y,z
-x,y,-z
1/2+x,1/2+y,z
1/2-x,1/2+y,-z
loop_
_atom_site_type_symbol
_atom_site_label
_atom_site_fract_x
_atom_site_fract_y
_atom_site_fract_z
Si Si1 0.327377 0.237830 0.539611
Si Si2 0.000000 0.179533 0.000000
Si Si3 0.326831 0.681784 0.644708
Si Si4 0.604422 0.944213 0.769671
Si Si5 0.201039 0.508454 0.219902
O O1 0.500000 0.299155 0.500000
O O2 0.297521 0.189284 0.413534
O O3 0.194393 0.364015 0.616523
O O4 0.304121 0.104143 0.649905
O O5 0.962577 0.301208 0.124330
O O6 0.850956 0.066716 0.075492
O O7 0.500000 0.663408 0.500000
O O8 0.249153 0.544838 0.760108
O O9 0.312898 0.834662 0.730099
O O10 0.450861 0.035944 0.798109
#
# Coordination Sequence:
#
# PCOD9129132 Si02
#       5
#     4   2   4   4   4
#     4  11  21  42  69 102 142 170 212 280 347 402
#     4  10  28  46  64  92 134 192 234 264 326 392
#     4  12  23  40  73 106 135 171 218 277 352 399
#     4  11  24  44  67  99 133 181 227 276 329 398
#     4  11  24  45  66  97 140 177 223 283 324 398
#
# _framework density 22.359352999999999
#
# number of rings (size 3 to 8) (size 9 to 14) (size 15 to 20)
#    0.000    0.889    4.444    2.667    0.000    4.444 
#    0.000    0.000    0.000    0.000    0.000    0.000 
#    0.000    0.000    0.000    0.000    0.000    0.000 
#
# Total GULP energy -50133.098234 kJ/mol
# GULP energy per Si atom -5570.344248 kJ/mol
# Density = 2.230846 g / cm^3
# Si number density = 22.359353 Si / 1000 Ang^3
#
#
#
# Elastic Constant Matrix: (Units=GPa)
#
#
# Indices 1 2 3 4 5 6 
#
# 1 116.0975 25.0111 57.5742 0.0000 -51.7346 0.0000
# 2 25.0111 116.0537 49.0565 0.0000 -35.0146 0.0000
# 3 57.5742 49.0565 100.9777 0.0000 -51.3485 0.0000
# 4 0.0000 0.0000 0.0000 38.7577 0.0000 -7.8034
# 5 -51.7346 -35.0146 -51.3485 0.0000 44.0647 0.0000
# 6 0.0000 0.0000 0.0000 -7.8034 0.0000 28.5331
#
#
#
# Elastic Compliance Matrix: (Units=1/GPa)
#
#
# Indices 1 2 3 4 5 6 
#
# 1 0.019090 0.003430 0.000570 0.000000 0.025802 0.000000
# 2 0.003430 0.012167 -0.002215 0.000000 0.011114 0.000000
# 3 0.000570 -0.002215 0.024788 0.000000 0.027795 0.000000
# 4 0.000000 0.000000 0.000000 0.027305 0.000000 0.007467
# 5 0.025802 0.011114 0.027795 0.000000 0.094208 0.000000
# 6 0.000000 0.000000 0.000000 0.007467 0.000000 0.037089
#
#
# Mechanical properties :
#
#
# Convention : Reuss Voigt Hill
#
# Bulk Modulus (GPa) = 16.77435 66.26807 41.52121
# Shear Modulus (GPa) = 21.64983 35.70355 28.67669
#
# Velocity S-wave (km/s) = 3.11508 4.00034 3.58514
# Velocity P-wave (km/s) = 4.52291 7.14416 5.97895
#
# Compressibility (1/GPa) = 0.05961484
#
# Stress axis : x y z
#
# Youngs Moduli (GPa) = 52.38477 82.19009 40.34143
#
# Poissons Ratio (x) = -0.28188 -0.02301
# Poissons Ratio (y) = -0.17966 0.08935
# Poissons Ratio (z) = -0.02987 0.18205
#
# Static dielectric constant tensor:
#      x y z
#    x 1.851620 0.000000 -0.009770 
#    y 0.000000 1.986510 0.000000 
#    z -0.009770 0.000000 1.902560 
# 
# From -- ./inp_files/18095.got.cif
#   From: 2010.05.17/outbox.cif.g08.bks.cpg/sg5_10_cif.got.tgz:18095.got - 2010.06.03 18:56:24.
