data_PCOD9129317
_publ_section_title
;
Structure prediction by ZEFSAII (Michael W. Deem and Ramdas Pophale) SiO2 
 PCOD9129317
Probable space group: C 2
;
_chemical_formula_sum "Si O2"
_cell_formula_units_Z 20
_cell_length_a 5.059681
_cell_length_b 14.195262
_cell_length_c 12.577915
_cell_angle_alpha 90.000000
_cell_angle_beta 100.717510
_cell_angle_gamma 90.000000
_cell_volume 887.631122
_symmetry_space_group_name_H-M "C 2"
_symmetry_group_IT_number 5
_symmetry_cell_setting 'monoclinic'
loop_
_space_group_symop_operation_xyz
x,y,z
-x,y,-z
1/2+x,1/2+y,z
1/2-x,1/2+y,-z
loop_
_atom_site_type_symbol
_atom_site_label
_atom_site_fract_x
_atom_site_fract_y
_atom_site_fract_z
Si Si1 0.493131 0.349640 0.812903
Si Si2 0.066750 0.573583 0.387703
Si Si3 0.486746 0.548700 0.246431
Si Si4 0.206633 0.794849 0.428477
Si Si5 0.040593 0.237604 0.880858
O O1 0.554345 0.459301 0.832050
O O2 0.334715 0.341884 0.688605
O O3 0.766204 0.289643 0.824826
O O4 0.291003 0.307343 0.884068
O O5 0.313337 0.531737 0.340006
O O6 0.139542 0.683944 0.407173
O O7 0.000000 0.535179 0.500000
O O8 0.797805 0.561772 0.299368
O O9 0.400372 0.646219 0.185790
O O10 0.500000 0.802142 0.500000
O O11 0.000000 0.832968 0.500000
O O12 0.000000 0.210692 0.000000
#
# Coordination Sequence:
#
# PCOD9129317 Si02
#       5
#     4   4   4   4   4
#     4  12  26  45  71 104 136 177 231 279 342 409
#     4  11  22  40  69 100 141 182 222 267 332 404
#     4  12  24  45  70 101 136 179 226 279 337 409
#     4  11  21  38  65  98 138 180 217 263 326 402
#     4  12  26  48  71  97 135 177 230 295 348 392
#
# _framework density 22.531882
#
# number of rings (size 3 to 8) (size 9 to 14) (size 15 to 20)
#    0.000    0.400    4.000    6.000    0.000    4.000 
#    0.000    0.000    0.000    0.000    0.000    0.000 
#    0.000    0.000    0.000    0.000    0.000    0.000 
#
# Total GULP energy -56025.566109 kJ/mol
# GULP energy per Si atom -5602.556611 kJ/mol
# Density = 2.248060 g / cm^3
# Si number density = 22.531882 Si / 1000 Ang^3
#
#
#
# Elastic Constant Matrix: (Units=GPa)
#
#
# Indices 1 2 3 4 5 6 
#
# 1 138.3120 32.5618 16.4139 0.0000 -11.1798 0.0000
# 2 32.5618 103.8839 13.6503 0.0000 -4.1347 0.0000
# 3 16.4139 13.6503 63.8661 0.0000 -4.9809 0.0000
# 4 0.0000 0.0000 0.0000 13.9764 0.0000 -12.8765
# 5 -11.1798 -4.1347 -4.9809 0.0000 40.6058 0.0000
# 6 0.0000 0.0000 0.0000 -12.8765 0.0000 13.8934
#
#
#
# Elastic Compliance Matrix: (Units=1/GPa)
#
#
# Indices 1 2 3 4 5 6 
#
# 1 0.008084 -0.002271 -0.001451 0.000000 0.001816 0.000000
# 2 -0.002271 0.010565 -0.001655 0.000000 0.000248 0.000000
# 3 -0.001451 -0.001655 0.016498 0.000000 0.001456 0.000000
# 4 0.000000 0.000000 0.000000 0.489652 0.000000 0.453816
# 5 0.001816 0.000248 0.001456 0.000000 0.025331 0.000000
# 6 0.000000 0.000000 0.000000 0.453816 0.000000 0.492579
#
#
# Mechanical properties :
#
#
# Convention : Reuss Voigt Hill
#
# Bulk Modulus (GPa) = 40.99440 47.92375 44.45908
# Shear Modulus (GPa) = 4.70990 29.92417 17.31704
#
# Velocity S-wave (km/s) = 1.44737 3.64824 2.77529
# Velocity P-wave (km/s) = 4.58548 6.24993 5.48125
#
# Compressibility (1/GPa) = 0.02439358
#
# Stress axis : x y z
#
# Youngs Moduli (GPa) = 123.70712 94.64971 60.61391
#
# Poissons Ratio (x) = 0.21494 0.08792
# Poissons Ratio (y) = 0.28092 0.10033
# Poissons Ratio (z) = 0.17944 0.15667
#
# Static dielectric constant tensor:
#      x y z
#    x 1.766730 0.000000 -0.020080 
#    y 0.000000 1.856210 0.000000 
#    z -0.020080 0.000000 1.822490 
# 
# From -- ./inp_files/33082.got.cif
#   From: 2010.05.17/outbox.cif.g08.bks.cpg/sg5_17_cif.got.tgz:33082.got - 2010.06.03 18:56:24.
