data_PCOD9129743
_publ_section_title
;
Structure prediction by ZEFSAII (Michael W. Deem and Ramdas Pophale) SiO2 
 PCOD9129743
Probable space group: C 2
;
_chemical_formula_sum "Si O2"
_cell_formula_units_Z 26
_cell_length_a 15.336038
_cell_length_b 8.483161
_cell_length_c 20.142672
_cell_angle_alpha 90.000000
_cell_angle_beta 156.531120
_cell_angle_gamma 90.000000
_cell_volume 1043.625652
_symmetry_space_group_name_H-M "C 2"
_symmetry_group_IT_number 5
_symmetry_cell_setting 'monoclinic'
loop_
_space_group_symop_operation_xyz
x,y,z
-x,y,-z
1/2+x,1/2+y,z
1/2-x,1/2+y,-z
loop_
_atom_site_type_symbol
_atom_site_label
_atom_site_fract_x
_atom_site_fract_y
_atom_site_fract_z
Si Si1 0.548775 0.573380 0.747256
Si Si2 0.750472 0.259001 0.301929
Si Si3 0.043498 0.536888 0.818695
Si Si4 0.138151 0.394881 0.436202
Si Si5 0.000000 0.625682 0.000000
Si Si6 0.059708 0.222823 0.903725
Si Si7 0.351627 0.098737 0.340076
O O1 0.388981 0.424087 0.630254
O O2 0.445259 0.714729 0.627927
O O3 0.794611 0.543488 0.893003
O O4 0.539699 0.641954 0.815792
O O5 0.749124 0.446335 0.305159
O O6 0.000000 0.214579 0.500000
O O7 0.590630 0.170907 0.239064
O O8 0.635267 0.222509 0.150502
O O9 0.110378 0.399813 0.916628
O O10 0.893569 0.456909 0.659758
O O11 0.251483 0.619681 0.931413
O O12 0.991800 0.512472 0.380642
O O13 0.852169 0.214968 0.807965
O O14 0.500000 0.178796 0.500000
#
# Coordination Sequence:
#
# PCOD9129743 Si02
#       7
#     4   4   4   4   2   4   4
#     4  11  24  45  70 104 136 184 237 290 360 424
#     4  11  24  43  72 103 136 186 247 289 359 424
#     4  11  25  43  66 100 138 181 228 297 353 419
#     4  11  25  44  70 103 136 187 228 297 355 428
#     4  12  22  44  76 102 140 190 238 298 346 432
#     4  11  24  42  68  96 142 176 230 290 353 420
#     4  11  23  42  69  98 136 187 230 290 354 431
#
# _framework density 24.913146000000001
#
# number of rings (size 3 to 8) (size 9 to 14) (size 15 to 20)
#    0.000    0.923    4.615    1.846    4.308    2.462 
#    2.769    0.000    0.000    0.923    0.000    0.000 
#    0.000    0.000    0.000    0.000    0.000    0.000 
#
# Total GULP energy -72581.733777 kJ/mol
# GULP energy per Si atom -5583.210291 kJ/mol
# Density = 2.485644 g / cm^3
# Si number density = 24.913146 Si / 1000 Ang^3
#
#
#
# Elastic Constant Matrix: (Units=GPa)
#
#
# Indices 1 2 3 4 5 6 
#
# 1 76.5121 17.3644 28.3976 0.0018 5.0473 -0.0002
# 2 17.3644 42.5232 29.2787 0.0065 7.9577 0.0014
# 3 28.3976 29.2787 127.1098 0.0101 8.9924 0.0022
# 4 0.0018 0.0065 0.0101 29.6918 0.0009 11.2269
# 5 5.0473 7.9577 8.9924 0.0009 55.3496 -0.0004
# 6 -0.0002 0.0014 0.0022 11.2269 -0.0004 19.1009
#
#
#
# Elastic Compliance Matrix: (Units=1/GPa)
#
#
# Indices 1 2 3 4 5 6 
#
# 1 0.014956 -0.004467 -0.002288 0.000001 -0.000350 0.000000
# 2 -0.004467 0.029787 -0.005654 -0.000005 -0.002957 0.000001
# 3 -0.002288 -0.005654 0.009720 -0.000002 -0.000558 0.000000
# 4 0.000001 -0.000005 -0.000002 0.043303 0.000000 -0.025452
# 5 -0.000350 -0.002957 -0.000558 0.000000 0.018615 0.000001
# 6 0.000000 0.000001 0.000000 -0.025452 0.000001 0.067314
#
#
# Mechanical properties :
#
#
# Convention : Reuss Voigt Hill
#
# Bulk Modulus (GPa) = 33.73133 44.02517 38.87825
# Shear Modulus (GPa) = 22.89454 32.23543 27.56499
#
# Velocity S-wave (km/s) = 3.03475 3.60100 3.32993
# Velocity P-wave (km/s) = 5.08415 5.91603 5.51580
#
# Compressibility (1/GPa) = 0.02964603
#
# Stress axis : x y z
#
# Youngs Moduli (GPa) = 66.86433 33.57183 102.87923
#
# Poissons Ratio (x) = 0.14995 0.23535
# Poissons Ratio (y) = 0.29865 0.58169
# Poissons Ratio (z) = 0.15296 0.18982
#
# Static dielectric constant tensor:
#      x y z
#    x 2.010260 0.000000 -0.019880 
#    y 0.000000 1.915960 0.000000 
#    z -0.019880 0.000000 2.072240 
# 
# From -- ./inp_files/69186.got.cif
#   From: 2010.05.17/outbox.cif.g08.bks.cpg/sg5_35_cif.got.tgz:69186.got - 2010.06.03 18:56:24.
