data_PCOD9129653
_publ_section_title
;
Structure prediction by ZEFSAII (Michael W. Deem and Ramdas Pophale) SiO2 
 PCOD9129653
Probable space group: C 2
;
_chemical_formula_sum "Si O2"
_cell_formula_units_Z 26
_cell_length_a 11.993015
_cell_length_b 12.996126
_cell_length_c 7.080605
_cell_angle_alpha 90.000000
_cell_angle_beta 103.495502
_cell_angle_gamma 90.000000
_cell_volume 1073.130052
_symmetry_space_group_name_H-M "C 2"
_symmetry_group_IT_number 5
_symmetry_cell_setting 'monoclinic'
loop_
_space_group_symop_operation_xyz
x,y,z
-x,y,-z
1/2+x,1/2+y,z
1/2-x,1/2+y,-z
loop_
_atom_site_type_symbol
_atom_site_label
_atom_site_fract_x
_atom_site_fract_y
_atom_site_fract_z
Si Si1 0.500000 0.939070 0.500000
Si Si2 0.622363 0.173186 0.829312
Si Si3 0.124205 0.891961 0.957905
Si Si4 0.454179 0.615795 0.189023
Si Si5 0.099477 0.582003 0.243766
Si Si6 0.300004 0.796803 0.310689
Si Si7 0.286983 0.622656 0.573513
O O1 0.392474 0.869652 0.432054
O O2 0.518103 0.994178 0.303067
O O3 0.653601 0.293291 0.842514
O O4 0.487715 0.171691 0.720464
O O5 0.714623 0.115733 0.736356
O O6 0.868873 0.206363 0.222533
O O7 0.108979 0.004875 0.860033
O O8 0.214433 0.869172 0.161029
O O9 0.000000 0.872727 0.000000
O O10 0.576489 0.608067 0.352014
O O11 0.500000 0.644366 0.000000
O O12 0.122560 0.616786 0.037003
O O13 0.218622 0.555579 0.393220
O O14 0.253525 0.732555 0.468612
#
# Coordination Sequence:
#
# PCOD9129653 Si02
#       7
#     2   4   4   4   4   4   4
#     4  12  26  48  76 116 158 224 274 332 420 482
#     4  11  22  48  78 118 159 207 265 342 411 481
#     4  11  24  47  78 116 154 205 265 329 414 478
#     4  11  27  48  75 117 158 214 265 336 409 487
#     4  11  24  44  78 114 161 205 268 343 399 489
#     4  12  26  53  74 115 168 210 281 336 402 505
#     4  12  23  49  79 106 165 207 263 340 398 478
#
# _framework density 24.228192
#
# number of rings (size 3 to 8) (size 9 to 14) (size 15 to 20)
#    0.000    0.615    6.154    0.923    4.308    1.231 
#    5.538    4.615    0.000    0.000    0.000    0.000 
#    0.000    0.000    0.000    0.000    0.000    0.000 
#
# Total GULP energy -72384.721846 kJ/mol
# GULP energy per Si atom -5568.055527 kJ/mol
# Density = 2.417305 g / cm^3
# Si number density = 24.228192 Si / 1000 Ang^3
#
#
#
# Elastic Constant Matrix: (Units=GPa)
#
#
# Indices 1 2 3 4 5 6 
#
# 1 130.2491 25.8115 56.6227 0.0000 -7.2712 0.0000
# 2 25.8115 107.3359 35.0133 0.0000 -8.0930 0.0000
# 3 56.6227 35.0133 101.4482 0.0000 15.3050 0.0000
# 4 0.0000 0.0000 0.0000 42.9921 0.0000 1.7902
# 5 -7.2712 -8.0930 15.3050 0.0000 70.0081 0.0000
# 6 0.0000 0.0000 0.0000 1.7902 0.0000 42.9670
#
#
#
# Elastic Compliance Matrix: (Units=1/GPa)
#
#
# Indices 1 2 3 4 5 6 
#
# 1 0.010544 -0.000358 -0.006122 0.000000 0.002392 0.000000
# 2 -0.000358 0.010810 -0.003841 0.000000 0.002052 0.000000
# 3 -0.006122 -0.003841 0.015266 0.000000 -0.004417 0.000000
# 4 0.000000 0.000000 0.000000 0.023301 0.000000 -0.000971
# 5 0.002392 0.002052 -0.004417 0.000000 0.015735 0.000000
# 6 0.000000 0.000000 0.000000 -0.000971 0.000000 0.023314
#
#
# Mechanical properties :
#
#
# Convention : Reuss Voigt Hill
#
# Bulk Modulus (GPa) = 62.58514 63.76979 63.17747
# Shear Modulus (GPa) = 40.01984 45.96582 42.99283
#
# Velocity S-wave (km/s) = 4.06863 4.36042 4.21705
# Velocity P-wave (km/s) = 6.92526 7.19226 7.06002
#
# Compressibility (1/GPa) = 0.01597823
#
# Stress axis : x y z
#
# Youngs Moduli (GPa) = 94.84482 92.50493 65.50387
#
# Poissons Ratio (x) = 0.03312 0.40102
# Poissons Ratio (y) = 0.03396 0.25158
# Poissons Ratio (z) = 0.58065 0.35529
#
# Static dielectric constant tensor:
#      x y z
#    x 1.908870 0.000000 0.016940 
#    y 0.000000 2.025020 0.000000 
#    z 0.016940 0.000000 2.035450 
# 
# From -- ./inp_files/20484.got.cif
#   From: 2010.05.17/outbox.cif.g08.bks.cpg/sg5_11_cif.got.tgz:20484.got - 2010.06.03 18:56:24.
