data_PCOD9129695
_publ_section_title
;
Structure prediction by ZEFSAII (Michael W. Deem and Ramdas Pophale) SiO2 
 PCOD9129695
Probable space group: C 2
;
_chemical_formula_sum "Si O2"
_cell_formula_units_Z 26
_cell_length_a 21.708337
_cell_length_b 9.283505
_cell_length_c 7.489883
_cell_angle_alpha 90.000000
_cell_angle_beta 129.396845
_cell_angle_gamma 90.000000
_cell_volume 1166.441569
_symmetry_space_group_name_H-M "C 2"
_symmetry_group_IT_number 5
_symmetry_cell_setting 'monoclinic'
loop_
_space_group_symop_operation_xyz
x,y,z
-x,y,-z
1/2+x,1/2+y,z
1/2-x,1/2+y,-z
loop_
_atom_site_type_symbol
_atom_site_label
_atom_site_fract_x
_atom_site_fract_y
_atom_site_fract_z
Si Si1 0.857148 0.965170 0.187244
Si Si2 0.150733 0.361351 0.191089
Si Si3 0.475505 0.615541 0.135685
Si Si4 0.217101 0.269153 0.962265
Si Si5 0.000000 0.811604 0.500000
Si Si6 0.967376 0.594654 0.131876
Si Si7 0.595623 0.849190 0.466903
O O1 0.925337 0.901806 0.443115
O O2 0.916322 0.022401 0.143550
O O3 0.801351 0.103832 0.121650
O O4 0.797077 0.836638 0.033963
O O5 0.159386 0.360613 0.421062
O O6 0.077915 0.249590 0.031928
O O7 0.216152 0.301878 0.173505
O O8 0.115680 0.513657 0.061890
O O9 0.547356 0.697977 0.367876
O O10 0.500000 0.536610 0.000000
O O11 0.141875 0.353049 0.737561
O O12 0.035020 0.713456 0.721069
O O13 0.031870 0.475385 0.319800
O O14 0.000000 0.645866 0.000000
#
# Coordination Sequence:
#
# PCOD9129695 Si02
#       7
#     4   4   4   4   2   4   4
#     4  11  26  40  64  92 130 170 217 256 327 372
#     4   8  17  35  62  96 124 160 205 256 310 386
#     4   8  16  37  65  92 120 157 214 261 301 376
#     4  11  23  41  61  91 133 168 203 265 315 389
#     4  12  24  40  60  88 126 176 212 264 312 366
#     4   9  19  35  64  99 124 159 216 265 308 374
#     4   9  17  36  68  93 122 165 208 252 324 376
#
# _framework density 22.290012999999998
#
# number of rings (size 3 to 8) (size 9 to 14) (size 15 to 20)
#    0.000    2.462    0.000    3.692    4.308    4.923 
#    0.000    9.231    0.000    0.000    0.000    0.000 
#    0.000    0.000    0.000    0.000    0.000    0.000 
#
# Total GULP energy -72493.515750 kJ/mol
# GULP energy per Si atom -5576.424288 kJ/mol
# Density = 2.223928 g / cm^3
# Si number density = 22.290013 Si / 1000 Ang^3
#
#
#
# Elastic Constant Matrix: (Units=GPa)
#
#
# Indices 1 2 3 4 5 6 
#
# 1 82.2615 37.6213 32.1303 0.0000 0.6180 0.0000
# 2 37.6213 102.3158 25.0591 0.0000 5.5456 0.0000
# 3 32.1303 25.0591 36.4518 0.0000 10.7598 0.0000
# 4 0.0000 0.0000 0.0000 17.4287 0.0000 6.2524
# 5 0.6180 5.5456 10.7598 0.0000 31.1650 0.0000
# 6 0.0000 0.0000 0.0000 6.2524 0.0000 25.4932
#
#
#
# Elastic Compliance Matrix: (Units=1/GPa)
#
#
# Indices 1 2 3 4 5 6 
#
# 1 0.020617 -0.003627 -0.017537 0.000000 0.006291 0.000000
# 2 -0.003627 0.012407 -0.005236 0.000000 -0.000328 0.000000
# 3 -0.017537 -0.005236 0.051346 0.000000 -0.016448 0.000000
# 4 0.000000 0.000000 0.000000 0.062912 0.000000 -0.015430
# 5 0.006291 -0.000328 -0.016448 0.000000 0.037699 0.000000
# 6 0.000000 0.000000 0.000000 -0.015430 0.000000 0.043010
#
#
# Mechanical properties :
#
#
# Convention : Reuss Voigt Hill
#
# Bulk Modulus (GPa) = 31.67416 45.62783 38.65099
# Shear Modulus (GPa) = 17.16356 23.23195 20.19775
#
# Velocity S-wave (km/s) = 2.77792 3.23190 3.01347
# Velocity P-wave (km/s) = 4.95277 5.86868 5.43008
#
# Compressibility (1/GPa) = 0.03157147
#
# Stress axis : x y z
#
# Youngs Moduli (GPa) = 48.50260 80.59717 19.47588
#
# Poissons Ratio (x) = 0.29232 0.34154
# Poissons Ratio (y) = 0.17591 0.10197
# Poissons Ratio (z) = 0.85058 0.42199
#
# Static dielectric constant tensor:
#      x y z
#    x 1.874030 0.000000 -0.040550 
#    y 0.000000 1.889430 0.000000 
#    z -0.040550 0.000000 1.841800 
# 
# From -- ./inp_files/29140.got.cif
#   From: 2010.05.17/outbox.cif.g08.bks.cpg/sg5_15_cif.got.tgz:29140.got - 2010.06.03 18:56:24.
