data_PCOD9129986
_publ_section_title
;
Structure prediction by ZEFSAII (Michael W. Deem and Ramdas Pophale) SiO2 
 PCOD9129986
Probable space group: C 2
;
_chemical_formula_sum "Si O2"
_cell_formula_units_Z 24
_cell_length_a 15.223002
_cell_length_b 8.730795
_cell_length_c 13.762356
_cell_angle_alpha 90.000000
_cell_angle_beta 144.633329
_cell_angle_gamma 90.000000
_cell_volume 1058.718723
_symmetry_space_group_name_H-M "C 2"
_symmetry_group_IT_number 5
_symmetry_cell_setting 'monoclinic'
loop_
_space_group_symop_operation_xyz
x,y,z
-x,y,-z
1/2+x,1/2+y,z
1/2-x,1/2+y,-z
loop_
_atom_site_type_symbol
_atom_site_label
_atom_site_fract_x
_atom_site_fract_y
_atom_site_fract_z
Si Si1 0.732899 0.358460 0.817257
Si Si2 0.075595 0.369258 0.818239
Si Si3 0.947434 0.685101 0.621737
Si Si4 0.136451 0.175747 0.237675
Si Si5 0.264290 0.208962 0.827546
Si Si6 0.071898 0.838280 0.196003
O O1 0.567418 0.285678 0.670727
O O2 0.836704 0.251461 0.843115
O O3 0.742262 0.530606 0.786976
O O4 0.791030 0.370258 0.980750
O O5 0.132774 0.270846 0.778490
O O6 0.031709 0.536260 0.740489
O O7 0.939267 0.294205 0.755910
O O8 0.803403 0.637927 0.429145
O O9 0.895711 0.789166 0.665721
O O10 0.042533 0.018355 0.156478
O O11 0.288837 0.296288 0.748765
O O12 0.423689 0.243875 0.026956
#
# Coordination Sequence:
#
# PCOD9129986 Si02
#       6
#     4   4   4   4   4   4
#     4  12  24  45  72 106 136 184 242 289 346 421
#     4  12  24  44  72 106 137 187 240 287 352 418
#     4  12  25  48  70 104 147 184 232 292 364 422
#     4  12  28  43  72 105 146 186 227 299 360 422
#     4  11  25  42  71 103 132 183 234 299 332 414
#     4  11  24  44  69 102 142 178 237 286 356 412
#
# _framework density 22.66891
#
# number of rings (size 3 to 8) (size 9 to 14) (size 15 to 20)
#    0.000    0.333    3.333    5.000    9.333    0.000 
#    0.000    7.500    0.000    0.000    0.000    0.000 
#    0.000    0.000    0.000    0.000    0.000    0.000 
#
# Total GULP energy -67213.366414 kJ/mol
# GULP energy per Si atom -5601.113868 kJ/mol
# Density = 2.261732 g / cm^3
# Si number density = 22.668910 Si / 1000 Ang^3
#
#
#
# Elastic Constant Matrix: (Units=GPa)
#
#
# Indices 1 2 3 4 5 6 
#
# 1 105.2323 11.5106 2.3980 0.0000 -11.5838 0.0000
# 2 11.5106 121.7387 0.6487 0.0000 -14.7053 0.0000
# 3 2.3980 0.6487 54.3566 0.0000 5.2548 0.0000
# 4 0.0000 0.0000 0.0000 21.2794 0.0000 1.9837
# 5 -11.5838 -14.7053 5.2548 0.0000 24.1598 0.0000
# 6 0.0000 0.0000 0.0000 1.9837 0.0000 47.2224
#
#
#
# Elastic Compliance Matrix: (Units=1/GPa)
#
#
# Indices 1 2 3 4 5 6 
#
# 1 0.010093 -0.000368 -0.000906 0.000000 0.004812 0.000000
# 2 -0.000368 0.008902 -0.000610 0.000000 0.005374 0.000000
# 3 -0.000906 -0.000610 0.018920 0.000000 -0.004921 0.000000
# 4 0.000000 0.000000 0.000000 0.047179 0.000000 -0.001982
# 5 0.004812 0.005374 -0.004921 0.000000 0.048040 0.000000
# 6 0.000000 0.000000 0.000000 -0.001982 0.000000 0.021260
#
#
# Mechanical properties :
#
#
# Convention : Reuss Voigt Hill
#
# Bulk Modulus (GPa) = 29.28492 34.49358 31.88925
# Shear Modulus (GPa) = 29.49102 36.31701 32.90401
#
# Velocity S-wave (km/s) = 3.61078 4.00692 3.81399
# Velocity P-wave (km/s) = 5.50728 6.05446 5.78734
#
# Compressibility (1/GPa) = 0.03414726
#
# Stress axis : x y z
#
# Youngs Moduli (GPa) = 99.07408 112.34018 52.85423
#
# Poissons Ratio (x) = 0.04136 0.04789
# Poissons Ratio (y) = 0.03648 0.03222
# Poissons Ratio (z) = 0.08977 0.06847
#
# Static dielectric constant tensor:
#      x y z
#    x 1.803000 0.000000 -0.001300 
#    y 0.000000 1.783450 0.000000 
#    z -0.001300 0.000000 1.862000 
# 
# From -- ./inp_files/54256.got.cif
#   From: 2010.05.17/outbox.cif.g08.bks.cpg/sg5_28_cif.got.tgz:54256.got - 2010.06.03 18:56:24.
