data_PCOD9129829
_publ_section_title
;
Structure prediction by ZEFSAII (Michael W. Deem and Ramdas Pophale) SiO2 
 PCOD9129829
Probable space group: C 2
;
_chemical_formula_sum "Si O2"
_cell_formula_units_Z 30
_cell_length_a 15.486865
_cell_length_b 10.656461
_cell_length_c 17.853194
_cell_angle_alpha 90.000000
_cell_angle_beta 29.717259
_cell_angle_gamma 90.000000
_cell_volume 1460.592752
_symmetry_space_group_name_H-M "C 2"
_symmetry_group_IT_number 5
_symmetry_cell_setting 'monoclinic'
loop_
_space_group_symop_operation_xyz
x,y,z
-x,y,-z
1/2+x,1/2+y,z
1/2-x,1/2+y,-z
loop_
_atom_site_type_symbol
_atom_site_label
_atom_site_fract_x
_atom_site_fract_y
_atom_site_fract_z
Si Si1 0.139161 0.645750 0.521672
Si Si2 0.185306 0.425613 0.391039
Si Si3 0.213056 0.024591 0.239121
Si Si4 0.000000 0.826886 0.500000
Si Si5 0.614408 0.980259 0.198236
Si Si6 0.434007 0.737302 0.409363
Si Si7 0.552654 0.073041 0.078536
Si Si8 0.967758 0.847629 0.941529
O O1 0.233705 0.521307 0.419571
O O2 0.108179 0.739081 0.475799
O O3 0.268986 0.700715 0.484574
O O4 0.962605 0.594236 0.693818
O O5 0.141287 0.290881 0.457111
O O6 0.348214 0.409787 0.216054
O O7 0.000000 0.473874 0.500000
O O8 0.361130 0.065387 0.186602
O O9 0.068758 0.128524 0.327430
O O10 0.115450 0.911422 0.355991
O O11 0.316539 0.010721 0.081573
O O12 0.530008 0.853016 0.295603
O O13 0.564872 0.006191 0.149491
O O14 0.819088 0.952380 0.049573
O O15 0.587162 0.222970 0.062714
O O16 0.000000 0.796047 0.000000
#
# Coordination Sequence:
#
# PCOD9129829 Si02
#       8
#     4   4   4   2   4   4   4   4
#     4  11  26  46  65 100 142 183 229 294 350 419
#     4  11  24  42  71  97 134 177 226 286 346 412
#     4  11  25  43  71 100 135 188 233 287 344 419
#     4  12  28  46  68  98 144 184 236 282 366 414
#     4  11  25  44  71 104 142 181 233 297 351 418
#     4  11  24  43  70 102 130 180 244 279 342 412
#     4  11  23  45  66 104 144 175 233 288 350 419
#     4  12  23  41  70 102 135 177 232 284 348 420
#
# _framework density 20.539605999999999
#
# number of rings (size 3 to 8) (size 9 to 14) (size 15 to 20)
#    0.000    0.800    3.333    4.000   10.267    1.067 
#    0.000    2.667    0.000    0.000    0.000    0.000 
#    0.000    0.000    0.000    0.000    0.000    0.000 
#
# Total GULP energy -83743.964076 kJ/mol
# GULP energy per Si atom -5582.930938 kJ/mol
# Density = 2.049286 g / cm^3
# Si number density = 20.539606 Si / 1000 Ang^3
#
#
#
# Elastic Constant Matrix: (Units=GPa)
#
#
# Indices 1 2 3 4 5 6 
#
# 1 105.5910 40.6630 31.3229 0.0000 -4.7202 0.0000
# 2 40.6630 69.1368 47.5169 0.0000 -2.8821 0.0000
# 3 31.3229 47.5169 122.8889 0.0001 -7.4634 0.0001
# 4 0.0000 0.0000 0.0001 19.4537 -0.0001 11.1404
# 5 -4.7202 -2.8821 -7.4634 -0.0001 31.0641 0.0000
# 6 0.0000 0.0000 0.0001 11.1404 0.0000 48.1147
#
#
#
# Elastic Compliance Matrix: (Units=1/GPa)
#
#
# Indices 1 2 3 4 5 6 
#
# 1 0.012302 -0.006919 -0.000391 0.000000 0.001133 0.000000
# 2 -0.006919 0.023591 -0.007397 0.000000 -0.000640 0.000000
# 3 -0.000391 -0.007397 0.011216 0.000000 0.001949 0.000000
# 4 0.000000 0.000000 0.000000 0.059262 0.000000 -0.013721
# 5 0.001133 -0.000640 0.001949 0.000000 0.032773 0.000000
# 6 0.000000 0.000000 0.000000 -0.013721 0.000000 0.023961
#
#
# Mechanical properties :
#
#
# Convention : Reuss Voigt Hill
#
# Bulk Modulus (GPa) = 56.51846 59.62469 58.07157
# Shear Modulus (GPa) = 25.19956 31.60076 28.40016
#
# Velocity S-wave (km/s) = 3.50648 3.92666 3.72250
# Velocity P-wave (km/s) = 6.63102 7.04630 6.84181
#
# Compressibility (1/GPa) = 0.01769333
#
# Stress axis : x y z
#
# Youngs Moduli (GPa) = 81.28885 42.38945 89.16064
#
# Poissons Ratio (x) = 0.29330 0.03490
# Poissons Ratio (y) = 0.56245 0.65952
# Poissons Ratio (z) = 0.03181 0.31355
#
# Static dielectric constant tensor:
#      x y z
#    x 1.633600 0.000000 0.097880 
#    y 0.000000 1.745570 0.000000 
#    z 0.097880 0.000000 1.667380 
# 
# From -- ./inp_files/61640.got.cif
#   From: 2010.05.17/outbox.cif.g08.bks.cpg/sg5_31_cif.got.tgz:61640.got - 2010.06.03 18:56:24.
