data_PCOD9129399
_publ_section_title
;
Structure prediction by ZEFSAII (Michael W. Deem and Ramdas Pophale) SiO2 
 PCOD9129399
Probable space group: C 2
;
_chemical_formula_sum "Si O2"
_cell_formula_units_Z 28
_cell_length_a 26.070942
_cell_length_b 8.884908
_cell_length_c 9.195898
_cell_angle_alpha 90.000000
_cell_angle_beta 140.100231
_cell_angle_gamma 90.000000
_cell_volume 1366.357264
_symmetry_space_group_name_H-M "C 2"
_symmetry_group_IT_number 5
_symmetry_cell_setting 'monoclinic'
loop_
_space_group_symop_operation_xyz
x,y,z
-x,y,-z
1/2+x,1/2+y,z
1/2-x,1/2+y,-z
loop_
_atom_site_type_symbol
_atom_site_label
_atom_site_fract_x
_atom_site_fract_y
_atom_site_fract_z
Si Si1 0.053438 0.135740 0.302589
Si Si2 0.775353 0.412856 0.802899
Si Si3 0.640281 0.474970 0.727300
Si Si4 0.141653 0.915321 0.282323
Si Si5 0.130787 0.119365 0.010130
Si Si6 0.000000 0.405450 0.000000
Si Si7 0.000000 0.748854 0.500000
Si Si8 0.408626 0.131971 0.017991
O O1 0.055017 0.289844 0.213700
O O2 0.963444 0.115367 0.162484
O O3 0.110151 0.116575 0.565089
O O4 0.079928 0.998571 0.256157
O O5 0.720222 0.418193 0.824977
O O6 0.715317 0.367824 0.542628
O O7 0.842605 0.287567 0.959551
O O8 0.821428 0.567673 0.871302
O O9 0.652441 0.522859 0.917828
O O10 0.568863 0.352984 0.577291
O O11 0.103428 0.783725 0.102521
O O12 0.171172 0.044561 0.237185
O O13 0.951914 0.510807 0.007166
O O14 0.958667 0.660496 0.275490
#
# Coordination Sequence:
#
# PCOD9129399 Si02
#       8
#     4   4   4   4   4   2   2   4
#     4  11  21  44  70 102 130 183 239 279 344 425
#     4  11  27  44  65 107 144 180 231 296 363 406
#     4  11  25  43  75  99 134 191 237 281 353 430
#     4  11  23  43  75  97 140 187 235 286 350 434
#     4  12  21  44  70  95 139 183 235 282 343 434
#     4  12  26  40  70 104 142 178 230 296 344 406
#     4  12  26  46  70 108 138 190 238 290 346 424
#     4  12  27  45  69 111 146 178 236 302 351 415
#
# _framework density 20.492443999999999
#
# number of rings (size 3 to 8) (size 9 to 14) (size 15 to 20)
#    0.000    0.571    5.714    0.857    8.000    2.286 
#    0.000    1.429    0.000    0.000    0.000    0.000 
#    0.000    0.000    0.000    0.000    0.000    0.000 
#
# Total GULP energy -78238.063030 kJ/mol
# GULP energy per Si atom -5588.433074 kJ/mol
# Density = 2.044580 g / cm^3
# Si number density = 20.492444 Si / 1000 Ang^3
#
#
#
# Elastic Constant Matrix: (Units=GPa)
#
#
# Indices 1 2 3 4 5 6 
#
# 1 156.7598 55.9532 48.9494 0.0000 -6.9590 0.0000
# 2 55.9532 80.7534 8.3835 0.0000 8.7990 0.0000
# 3 48.9494 8.3835 60.7776 0.0000 -8.2819 0.0000
# 4 0.0000 0.0000 0.0000 22.8584 0.0000 -5.0424
# 5 -6.9590 8.7990 -8.2819 0.0000 29.5619 0.0000
# 6 0.0000 0.0000 0.0000 -5.0424 0.0000 37.7292
#
#
#
# Elastic Compliance Matrix: (Units=1/GPa)
#
#
# Indices 1 2 3 4 5 6 
#
# 1 0.011709 -0.007584 -0.008007 0.000000 0.002771 0.000000
# 2 -0.007584 0.018049 0.002748 0.000000 -0.006388 0.000000
# 3 -0.008007 0.002748 0.023034 0.000000 0.003750 0.000000
# 4 0.000000 0.000000 0.000000 0.045077 0.000000 0.006024
# 5 0.002771 -0.006388 0.003750 0.000000 0.037431 0.000000
# 6 0.000000 0.000000 0.000000 0.006024 0.000000 0.027310
#
#
# Mechanical properties :
#
#
# Convention : Reuss Voigt Hill
#
# Bulk Modulus (GPa) = 36.89136 58.31808 47.60472
# Shear Modulus (GPa) = 25.33807 30.36355 27.85081
#
# Velocity S-wave (km/s) = 3.52015 3.85345 3.69057
# Velocity P-wave (km/s) = 5.87907 6.95118 6.43748
#
# Compressibility (1/GPa) = 0.02710662
#
# Stress axis : x y z
#
# Youngs Moduli (GPa) = 85.40163 55.40494 43.41392
#
# Poissons Ratio (x) = 0.42019 0.34761
# Poissons Ratio (y) = 0.64768 -0.11930
# Poissons Ratio (z) = 0.68380 -0.15225
#
# Static dielectric constant tensor:
#      x y z
#    x 1.713220 0.000000 -0.002090 
#    y 0.000000 1.737490 0.000000 
#    z -0.002090 0.000000 1.742250 
# 
# From -- ./inp_files/31794.got.cif
#   From: 2010.05.17/outbox.cif.g08.bks.cpg/sg5_16_cif.got.tgz:31794.got - 2010.06.03 18:56:24.
