data_PCOD9129627
_publ_section_title
;
Structure prediction by ZEFSAII (Michael W. Deem and Ramdas Pophale) SiO2 
 PCOD9129627
Probable space group: C 2
;
_chemical_formula_sum "Si O2"
_cell_formula_units_Z 20
_cell_length_a 22.870338
_cell_length_b 5.131775
_cell_length_c 13.805231
_cell_angle_alpha 90.000000
_cell_angle_beta 146.682714
_cell_angle_gamma 90.000000
_cell_volume 889.966510
_symmetry_space_group_name_H-M "C 2"
_symmetry_group_IT_number 5
_symmetry_cell_setting 'monoclinic'
loop_
_space_group_symop_operation_xyz
x,y,z
-x,y,-z
1/2+x,1/2+y,z
1/2-x,1/2+y,-z
loop_
_atom_site_type_symbol
_atom_site_label
_atom_site_fract_x
_atom_site_fract_y
_atom_site_fract_z
Si Si1 0.551962 0.494670 0.477485
Si Si2 0.604241 0.211867 0.080187
Si Si3 0.389880 0.252319 0.135677
Si Si4 0.245347 0.208988 0.267835
Si Si5 0.337861 0.915204 0.229308
O O1 0.500000 0.357541 0.500000
O O2 0.451618 0.498912 0.266594
O O3 0.641202 0.329631 0.543516
O O4 0.606782 0.743202 0.608063
O O5 0.690968 0.438357 0.224087
O O6 0.660446 0.933383 0.168916
O O7 0.500000 0.240599 0.000000
O O8 0.574286 0.226335 0.925153
O O9 0.408564 0.025443 0.240132
O O10 0.262303 0.259920 0.951349
O O11 0.277121 0.153684 0.199829
#
# Coordination Sequence:
#
# PCOD9129627 Si02
#       5
#     4   4   4   4   4
#     4  12  24  40  66 111 152 184 228 304 377 450
#     4  11  25  48  76 102 141 205 257 300 357 430
#     4  11  23  42  72 104 146 203 237 300 384 434
#     4  11  22  46  68 102 151 180 244 316 352 435
#     4  11  23  44  66 109 150 192 245 302 371 466
#
# _framework density 22.472754999999999
#
# number of rings (size 3 to 8) (size 9 to 14) (size 15 to 20)
#    0.000    0.800    6.000    3.000    2.800    1.600 
#    0.000    2.000    0.000    0.000    0.000    0.000 
#    0.000    0.000    0.000    0.000    0.000    0.000 
#
# Total GULP energy -55709.980673 kJ/mol
# GULP energy per Si atom -5570.998067 kJ/mol
# Density = 2.242161 g / cm^3
# Si number density = 22.472755 Si / 1000 Ang^3
#
#
#
# Elastic Constant Matrix: (Units=GPa)
#
#
# Indices 1 2 3 4 5 6 
#
# 1 134.7087 34.1641 37.0617 0.0001 29.3418 0.0000
# 2 34.1641 136.4191 37.4334 0.0003 13.5903 0.0001
# 3 37.0617 37.4334 116.9542 0.0000 16.7760 0.0000
# 4 0.0001 0.0003 0.0000 24.3532 0.0001 9.8887
# 5 29.3418 13.5903 16.7760 0.0001 31.4165 0.0000
# 6 0.0000 0.0001 0.0000 9.8887 0.0000 26.4546
#
#
#
# Elastic Compliance Matrix: (Units=1/GPa)
#
#
# Indices 1 2 3 4 5 6 
#
# 1 0.009891 -0.001255 -0.001609 0.000000 -0.007836 0.000000
# 2 -0.001255 0.008349 -0.002084 0.000000 -0.001326 0.000000
# 3 -0.001609 -0.002084 0.010161 0.000000 -0.003022 0.000000
# 4 0.000000 0.000000 0.000000 0.048410 0.000000 -0.018096
# 5 -0.007836 -0.001326 -0.003022 0.000000 0.041336 0.000000
# 6 0.000000 0.000000 0.000000 -0.018096 0.000000 0.044565
#
#
# Mechanical properties :
#
#
# Convention : Reuss Voigt Hill
#
# Bulk Modulus (GPa) = 54.04051 67.26670 60.65360
# Shear Modulus (GPa) = 27.96801 35.07306 31.52054
#
# Velocity S-wave (km/s) = 3.53162 3.95485 3.74921
# Velocity P-wave (km/s) = 6.38193 7.13105 6.76687
#
# Compressibility (1/GPa) = 0.01850464
#
# Stress axis : x y z
#
# Youngs Moduli (GPa) = 101.10075 119.77916 98.41899
#
# Poissons Ratio (x) = 0.15032 0.15833
# Poissons Ratio (y) = 0.12688 0.20512
# Poissons Ratio (z) = 0.16264 0.24964
#
# Static dielectric constant tensor:
#      x y z
#    x 1.790790 0.000000 0.025400 
#    y 0.000000 2.002070 0.000000 
#    z 0.025400 0.000000 1.951920 
# 
# From -- ./inp_files/57477.got.cif
#   From: 2010.05.17/outbox.cif.g08.bks.cpg/sg5_29_cif.got.tgz:57477.got - 2010.06.03 18:56:24.
