data_PCOD9129769
_publ_section_title
;
Structure prediction by ZEFSAII (Michael W. Deem and Ramdas Pophale) SiO2 
 PCOD9129769
Probable space group: C 2
;
_chemical_formula_sum "Si O2"
_cell_formula_units_Z 22
_cell_length_a 7.300582
_cell_length_b 12.249610
_cell_length_c 14.431201
_cell_angle_alpha 90.000000
_cell_angle_beta 45.892605
_cell_angle_gamma 90.000000
_cell_volume 926.677729
_symmetry_space_group_name_H-M "C 2"
_symmetry_group_IT_number 5
_symmetry_cell_setting 'monoclinic'
loop_
_space_group_symop_operation_xyz
x,y,z
-x,y,-z
1/2+x,1/2+y,z
1/2-x,1/2+y,-z
loop_
_atom_site_type_symbol
_atom_site_label
_atom_site_fract_x
_atom_site_fract_y
_atom_site_fract_z
Si Si1 0.379077 0.383330 0.892731
Si Si2 0.467181 0.838140 0.165703
Si Si3 0.306261 0.608610 0.862938
Si Si4 0.822642 0.693734 0.276885
Si Si5 0.000000 0.370955 0.500000
Si Si6 0.302587 0.989875 0.389024
O O1 0.218220 0.351535 0.856738
O O2 0.469507 0.503381 0.836291
O O3 0.539986 0.274066 0.845299
O O4 0.218035 0.400358 0.042230
O O5 0.559545 0.714853 0.143538
O O6 0.358424 0.893193 0.295625
O O7 0.327678 0.619289 0.744149
O O8 0.000000 0.593831 0.000000
O O9 0.697631 0.785959 0.384707
O O10 0.934348 0.601496 0.305570
O O11 0.108780 0.445607 0.543290
O O12 0.000000 0.012946 0.500000
#
# Coordination Sequence:
#
# PCOD9129769 Si02
#       6
#     4   4   4   4   2   4
#     4  11  24  43  73 105 139 187 235 298 372 426
#     4  11  23  43  70 106 140 182 236 294 364 426
#     4  12  22  44  72 100 145 185 228 302 366 424
#     4  12  25  47  72 102 141 187 247 298 356 432
#     4  12  28  46  72 110 138 200 254 286 368 430
#     4  12  26  51  74 103 151 194 240 306 355 430
#
# _framework density 23.740724
#
# number of rings (size 3 to 8) (size 9 to 14) (size 15 to 20)
#    0.000    0.364    8.182    1.091    0.000    1.455 
#    4.909    0.000    0.000    0.000    0.000    0.000 
#    0.000    0.000    0.000    0.000    0.000    0.000 
#
# Total GULP energy -61392.349715 kJ/mol
# GULP energy per Si atom -5581.122701 kJ/mol
# Density = 2.368669 g / cm^3
# Si number density = 23.740724 Si / 1000 Ang^3
#
#
#
# Elastic Constant Matrix: (Units=GPa)
#
#
# Indices 1 2 3 4 5 6 
#
# 1 45.5664 28.5027 12.7642 -0.0029 16.2935 0.0026
# 2 28.5027 166.9842 17.5709 -0.0010 6.6807 0.0009
# 3 12.7642 17.5709 91.5802 -0.0014 15.6204 0.0017
# 4 -0.0029 -0.0010 -0.0014 31.7566 0.0010 15.5362
# 5 16.2935 6.6807 15.6204 0.0010 34.6953 -0.0014
# 6 0.0026 0.0009 0.0017 15.5362 -0.0014 42.0238
#
#
#
# Elastic Compliance Matrix: (Units=1/GPa)
#
#
# Indices 1 2 3 4 5 6 
#
# 1 0.029491 -0.004415 -0.001133 0.000005 -0.012489 -0.000004
# 2 -0.004415 0.006789 -0.000886 0.000000 0.001165 0.000000
# 3 -0.001133 -0.000886 0.012053 0.000001 -0.004724 -0.000001
# 4 0.000005 0.000000 0.000001 0.038442 -0.000004 -0.014212
# 5 -0.012489 0.001165 -0.004724 -0.000004 0.036590 0.000004
# 6 -0.000004 0.000000 -0.000001 -0.014212 0.000004 0.029050
#
#
# Mechanical properties :
#
#
# Convention : Reuss Voigt Hill
#
# Bulk Modulus (GPa) = 28.19696 46.86739 37.53217
# Shear Modulus (GPa) = 28.23189 38.04800 33.13994
#
# Velocity S-wave (km/s) = 3.45218 4.00765 3.74024
# Velocity P-wave (km/s) = 5.27190 6.41866 5.87334
#
# Compressibility (1/GPa) = 0.03546482
#
# Stress axis : x y z
#
# Youngs Moduli (GPa) = 33.90886 147.30166 82.96691
#
# Poissons Ratio (x) = 0.65033 0.09401
# Poissons Ratio (y) = 0.14971 0.07350
# Poissons Ratio (z) = 0.03842 0.13049
#
# Static dielectric constant tensor:
#      x y z
#    x 2.022080 0.000000 -0.155250 
#    y 0.000000 1.906680 0.000000 
#    z -0.155250 0.000000 2.076390 
# 
# From -- ./inp_files/35229.got.cif
#   From: 2010.05.17/outbox.cif.g08.bks.cpg/sg5_18_cif.got.tgz:35229.got - 2010.06.03 18:56:24.
