data_PCOD9129583
_publ_section_title
;
Structure prediction by ZEFSAII (Michael W. Deem and Ramdas Pophale) SiO2 
 PCOD9129583
Probable space group: C 2
;
_chemical_formula_sum "Si O2"
_cell_formula_units_Z 30
_cell_length_a 18.253224
_cell_length_b 14.998218
_cell_length_c 5.331463
_cell_angle_alpha 90.000000
_cell_angle_beta 115.208021
_cell_angle_gamma 90.000000
_cell_volume 1320.573587
_symmetry_space_group_name_H-M "C 2"
_symmetry_group_IT_number 5
_symmetry_cell_setting 'monoclinic'
loop_
_space_group_symop_operation_xyz
x,y,z
-x,y,-z
1/2+x,1/2+y,z
1/2-x,1/2+y,-z
loop_
_atom_site_type_symbol
_atom_site_label
_atom_site_fract_x
_atom_site_fract_y
_atom_site_fract_z
Si Si1 0.316194 0.792620 0.559400
Si Si2 0.321263 0.051734 0.167719
Si Si3 0.932258 0.951533 0.716021
Si Si4 0.669075 0.246495 0.706951
Si Si5 0.904281 0.474393 0.802008
Si Si6 0.000000 0.791526 0.500000
Si Si7 0.796639 0.902575 0.904056
Si Si8 0.551601 0.645452 0.334866
O O1 0.234858 0.766857 0.591799
O O2 0.367598 0.873684 0.754683
O O3 0.280195 0.839301 0.260046
O O4 0.370700 0.707831 0.589102
O O5 0.300315 0.155874 0.125751
O O6 0.372258 0.020323 0.493221
O O7 0.238888 0.994528 0.054413
O O8 0.366513 0.026759 0.980080
O O9 0.851745 0.922471 0.743827
O O10 0.978973 0.865382 0.681887
O O11 0.919331 0.043867 0.549101
O O12 0.000000 0.987694 0.000000
O O13 0.573988 0.225083 0.539354
O O14 0.655983 0.340451 0.834365
O O15 0.000000 0.471843 0.000000
O O16 0.500000 0.676700 0.500000
O O17 0.500000 0.657297 0.000000
#
# Coordination Sequence:
#
# PCOD9129583 Si02
#       8
#     4   4   4   4   4   2   4   4
#     4  11  25  45  70 104 143 186 237 292 362 428
#     4  11  27  47  73 106 142 190 237 297 356 430
#     4  11  22  44  66 100 137 187 227 298 352 420
#     4  12  26  45  71 105 139 191 241 295 359 431
#     4  11  25  47  74 101 145 187 238 296 358 421
#     4  12  24  42  72  94 144 180 244 290 360 416
#     4  11  24  46  70  99 145 186 238 296 364 422
#     4  11  26  44  73 109 143 185 239 290 357 430
#
# _framework density 22.717403000000001
#
# number of rings (size 3 to 8) (size 9 to 14) (size 15 to 20)
#    0.000    0.800    4.667    1.600    5.600    2.133 
#    2.400    0.000    0.000    0.000    0.000    0.000 
#    0.000    0.000    0.000    0.000    0.000    0.000 
#
# Total GULP energy -83544.339738 kJ/mol
# GULP energy per Si atom -5569.622649 kJ/mol
# Density = 2.266570 g / cm^3
# Si number density = 22.717403 Si / 1000 Ang^3
#
#
#
# Elastic Constant Matrix: (Units=GPa)
#
#
# Indices 1 2 3 4 5 6 
#
# 1 130.9252 47.8561 18.6129 0.0000 -9.2325 0.0000
# 2 47.8561 99.6363 -5.1318 0.0000 0.1062 0.0000
# 3 18.6129 -5.1318 73.0515 0.0000 -4.8363 0.0000
# 4 0.0000 0.0000 0.0000 17.7052 0.0000 2.2528
# 5 -9.2325 0.1062 -4.8363 0.0000 33.2006 0.0000
# 6 0.0000 0.0000 0.0000 2.2528 0.0000 92.3459
#
#
#
# Elastic Compliance Matrix: (Units=1/GPa)
#
#
# Indices 1 2 3 4 5 6 
#
# 1 0.010005 -0.004949 -0.002738 0.000000 0.002399 0.000000
# 2 -0.004949 0.012521 0.002067 0.000000 -0.001115 0.000000
# 3 -0.002738 0.002067 0.014622 0.000000 0.001362 0.000000
# 4 0.000000 0.000000 0.000000 0.056656 0.000000 -0.001382
# 5 0.002399 -0.001115 0.001362 0.000000 0.030989 0.000000
# 6 0.000000 0.000000 0.000000 -0.001382 0.000000 0.010863
#
#
# Mechanical properties :
#
#
# Convention : Reuss Voigt Hill
#
# Bulk Modulus (GPa) = 38.59882 47.36525 42.98204
# Shear Modulus (GPa) = 32.14733 44.80206 38.47470
#
# Velocity S-wave (km/s) = 3.76586 4.44570 4.11983
# Velocity P-wave (km/s) = 5.99472 6.87367 6.44919
#
# Compressibility (1/GPa) = 0.02590753
#
# Stress axis : x y z
#
# Youngs Moduli (GPa) = 99.94521 79.86371 68.39022
#
# Poissons Ratio (x) = 0.39527 0.18726
# Poissons Ratio (y) = 0.49466 -0.14135
# Poissons Ratio (z) = 0.27366 -0.16506
#
# Static dielectric constant tensor:
#      x y z
#    x 1.743310 0.000000 0.130980 
#    y 0.000000 1.902820 0.000000 
#    z 0.130980 0.000000 2.025200 
# 
# From -- ./inp_files/8645.got.cif
#   From: 2010.05.17/outbox.cif.g08.bks.cpg/sg5_5_cif.got.tgz:8645.got - 2010.06.03 18:56:24.
