data_PCOD9129283
_publ_section_title
;
Structure prediction by ZEFSAII (Michael W. Deem and Ramdas Pophale) SiO2 
 PCOD9129283
Probable space group: C 2
;
_chemical_formula_sum "Si O2"
_cell_formula_units_Z 24
_cell_length_a 13.199400
_cell_length_b 20.853078
_cell_length_c 4.820644
_cell_angle_alpha 90.000000
_cell_angle_beta 71.305908
_cell_angle_gamma 90.000000
_cell_volume 1256.871780
_symmetry_space_group_name_H-M "C 2"
_symmetry_group_IT_number 5
_symmetry_cell_setting 'monoclinic'
loop_
_space_group_symop_operation_xyz
x,y,z
-x,y,-z
1/2+x,1/2+y,z
1/2-x,1/2+y,-z
loop_
_atom_site_type_symbol
_atom_site_label
_atom_site_fract_x
_atom_site_fract_y
_atom_site_fract_z
Si Si1 0.575850 0.583570 0.187490
Si Si2 0.290635 0.696031 0.211156
Si Si3 0.073045 0.748029 0.174955
Si Si4 0.625295 0.767755 0.350216
Si Si5 0.126938 0.950070 0.344017
Si Si6 0.798475 0.866873 0.212645
O O1 0.500000 0.612739 0.500000
O O2 0.637020 0.526789 0.295475
O O3 0.500000 0.557986 0.000000
O O4 0.654176 0.632365 0.959496
O O5 0.167588 0.705281 0.227004
O O6 0.315199 0.714116 0.508221
O O7 0.351744 0.751401 0.988397
O O8 0.000000 0.768978 0.500000
O O9 0.872868 0.808026 0.035311
O O10 0.000000 0.715928 0.000000
O O11 0.500000 0.767856 0.500000
O O12 0.683615 0.834688 0.352634
O O13 0.172243 0.903411 0.536117
O O14 0.000000 0.942684 0.500000
O O15 0.181411 0.921596 0.026391
#
# Coordination Sequence:
#
# PCOD9129283 Si02
#       6
#     4   4   4   4   4   4
#     4  11  22  37  57  82 111 144 183 229 277 327
#     4  11  22  36  57  83 112 146 183 228 278 328
#     4  11  21  35  56  84 116 147 181 225 278 333
#     4  11  22  36  56  83 113 146 183 227 277 329
#     4  11  21  34  54  80 109 142 179 222 272 325
#     4  11  21  34  54  80 111 143 177 221 272 326
#
# _framework density 19.095026000000001
#
# number of rings (size 3 to 8) (size 9 to 14) (size 15 to 20)
#    0.000    1.000    0.000   12.000    0.000    0.000 
#    0.000    0.000    0.000    3.000    0.000    0.000 
#    0.000    0.000    0.000    0.000    0.000    0.000 
#
# Total GULP energy -66889.481035 kJ/mol
# GULP energy per Si atom -5574.123420 kJ/mol
# Density = 1.905157 g / cm^3
# Si number density = 19.095026 Si / 1000 Ang^3
#
#
#
# Elastic Constant Matrix: (Units=GPa)
#
#
# Indices 1 2 3 4 5 6 
#
# 1 88.9828 35.3263 36.1239 0.0000 -1.4426 0.0000
# 2 35.3263 101.0257 26.9886 0.0000 -0.0322 0.0000
# 3 36.1239 26.9886 116.3733 0.0000 23.2816 0.0000
# 4 0.0000 0.0000 0.0000 34.9637 0.0000 -7.4194
# 5 -1.4426 -0.0322 23.2816 0.0000 36.6073 0.0000
# 6 0.0000 0.0000 0.0000 -7.4194 0.0000 18.5800
#
#
#
# Elastic Compliance Matrix: (Units=1/GPa)
#
#
# Indices 1 2 3 4 5 6 
#
# 1 0.014598 -0.003963 -0.004270 0.000000 0.003288 0.000000
# 2 -0.003963 0.011732 -0.001675 0.000000 0.000919 0.000000
# 3 -0.004270 -0.001675 0.011848 0.000000 -0.007705 0.000000
# 4 0.000000 0.000000 0.000000 0.031249 0.000000 0.012479
# 5 0.003288 0.000919 -0.007705 0.000000 0.032348 0.000000
# 6 0.000000 0.000000 0.000000 0.012479 0.000000 0.058804
#
#
# Mechanical properties :
#
#
# Convention : Reuss Voigt Hill
#
# Bulk Modulus (GPa) = 54.45630 55.91772 55.18701
# Shear Modulus (GPa) = 26.80741 31.89306 29.35024
#
# Velocity S-wave (km/s) = 3.75092 4.09128 3.92479
# Velocity P-wave (km/s) = 6.88039 7.18788 7.03581
#
# Compressibility (1/GPa) = 0.01836335
#
# Stress axis : x y z
#
# Youngs Moduli (GPa) = 68.50154 85.23819 84.39978
#
# Poissons Ratio (x) = 0.33779 0.36040
# Poissons Ratio (y) = 0.27146 0.14133
# Poissons Ratio (z) = 0.29251 0.14273
#
# Static dielectric constant tensor:
#      x y z
#    x 1.738180 0.000000 0.011480 
#    y 0.000000 1.677240 0.000000 
#    z 0.011480 0.000000 1.654420 
# 
# From -- ./inp_files/5768.got.cif
#   From: 2010.05.17/outbox.cif.g08.bks.cpg/sg5_3_cif.got.tgz:5768.got - 2010.06.03 18:56:24.
