data_PCOD9129984
_publ_section_title
;
Structure prediction by ZEFSAII (Michael W. Deem and Ramdas Pophale) SiO2 
 PCOD9129984
Probable space group: C 2
;
_chemical_formula_sum "Si O2"
_cell_formula_units_Z 26
_cell_length_a 8.320785
_cell_length_b 19.588210
_cell_length_c 11.428428
_cell_angle_alpha 90.000000
_cell_angle_beta 41.752951
_cell_angle_gamma 90.000000
_cell_volume 1240.416875
_symmetry_space_group_name_H-M "C 2"
_symmetry_group_IT_number 5
_symmetry_cell_setting 'monoclinic'
loop_
_space_group_symop_operation_xyz
x,y,z
-x,y,-z
1/2+x,1/2+y,z
1/2-x,1/2+y,-z
loop_
_atom_site_type_symbol
_atom_site_label
_atom_site_fract_x
_atom_site_fract_y
_atom_site_fract_z
Si Si1 0.752811 0.847580 0.926840
Si Si2 0.751373 0.699352 0.571863
Si Si3 0.000316 0.981899 0.139233
Si Si4 0.863276 0.132944 0.948174
Si Si5 0.557404 0.820392 0.287535
Si Si6 0.917133 0.724579 0.241878
Si Si7 0.500000 0.941988 0.500000
O O1 0.886517 0.919505 0.850677
O O2 0.913618 0.784561 0.796546
O O3 0.500000 0.848872 0.000000
O O4 0.701281 0.835265 0.091814
O O5 0.536636 0.662011 0.754406
O O6 0.681432 0.779088 0.615507
O O7 0.782179 0.684928 0.418243
O O8 0.000000 0.683571 0.500000
O O9 0.731236 0.987569 0.339805
O O10 0.148152 0.051979 0.064905
O O11 0.000000 0.965042 0.000000
O O12 0.609657 0.172645 0.081320
O O13 0.000000 0.144138 0.000000
O O14 0.726178 0.767893 0.269699
O O15 0.492540 0.887978 0.395618
#
# Coordination Sequence:
#
# PCOD9129984 Si02
#       7
#     4   4   4   4   4   4   2
#     4  12  23  43  69 100 134 171 226 289 340 400
#     4  12  23  38  63  99 136 170 217 283 342 392
#     4  11  24  44  68  95 136 186 228 272 340 414
#     4  11  25  41  65  99 136 186 226 275 338 399
#     4  12  23  41  72 104 129 176 222 287 348 398
#     4  12  22  42  67  99 134 173 229 279 337 404
#     4  12  22  40  72 100 132 172 230 276 328 416
#
# _framework density 20.960694
#
# number of rings (size 3 to 8) (size 9 to 14) (size 15 to 20)
#    0.000    0.308    7.692    1.846    1.077    0.000 
#    2.769    0.000    0.000    0.000    0.000    0.000 
#    0.000    0.000    0.000    0.000    0.000    0.000 
#
# Total GULP energy -72654.405803 kJ/mol
# GULP energy per Si atom -5588.800446 kJ/mol
# Density = 2.091299 g / cm^3
# Si number density = 20.960694 Si / 1000 Ang^3
#
#
#
# Elastic Constant Matrix: (Units=GPa)
#
#
# Indices 1 2 3 4 5 6 
#
# 1 63.0821 15.1943 27.5249 0.0000 -0.7366 0.0000
# 2 15.1943 97.6459 24.5789 0.0000 -8.8538 0.0000
# 3 27.5249 24.5789 148.5120 0.0000 -1.2931 0.0000
# 4 0.0000 0.0000 0.0000 12.1851 0.0000 -2.1285
# 5 -0.7366 -8.8538 -1.2931 0.0000 27.1743 0.0000
# 6 0.0000 0.0000 0.0000 -2.1285 0.0000 18.8140
#
#
#
# Elastic Compliance Matrix: (Units=1/GPa)
#
#
# Indices 1 2 3 4 5 6 
#
# 1 0.017617 -0.002033 -0.002932 0.000000 -0.000324 0.000000
# 2 -0.002033 0.011244 -0.001453 0.000000 0.003539 0.000000
# 3 -0.002932 -0.001453 0.007516 0.000000 -0.000195 0.000000
# 4 0.000000 0.000000 0.000000 0.083722 0.000000 0.009472
# 5 -0.000324 0.003539 -0.000195 0.000000 0.037934 0.000000
# 6 0.000000 0.000000 0.000000 0.009472 0.000000 0.054223
#
#
# Mechanical properties :
#
#
# Convention : Reuss Voigt Hill
#
# Bulk Modulus (GPa) = 42.47795 49.31515 45.89655
# Shear Modulus (GPa) = 21.46478 27.76414 24.61446
#
# Velocity S-wave (km/s) = 3.20355 3.64343 3.43055
# Velocity P-wave (km/s) = 5.83036 6.42479 6.13478
#
# Compressibility (1/GPa) = 0.02354163
#
# Stress axis : x y z
#
# Youngs Moduli (GPa) = 56.76215 88.93513 133.05625
#
# Poissons Ratio (x) = 0.18079 0.39006
# Poissons Ratio (y) = 0.11539 0.19338
# Poissons Ratio (z) = 0.16640 0.12925
#
# Static dielectric constant tensor:
#      x y z
#    x 1.787210 0.000000 0.016540 
#    y 0.000000 1.756490 0.000000 
#    z 0.016540 0.000000 1.801930 
# 
# From -- ./inp_files/37282.got.cif
#   From: 2010.05.17/outbox.cif.g08.bks.cpg/sg5_19_cif.got.tgz:37282.got - 2010.06.03 18:56:24.
