data_PCOD9129752
_publ_section_title
;
Structure prediction by ZEFSAII (Michael W. Deem and Ramdas Pophale) SiO2 
 PCOD9129752
Probable space group: C 2
;
_chemical_formula_sum "Si O2"
_cell_formula_units_Z 24
_cell_length_a 8.489309
_cell_length_b 17.999067
_cell_length_c 8.818730
_cell_angle_alpha 90.000000
_cell_angle_beta 125.754221
_cell_angle_gamma 90.000000
_cell_volume 1093.536951
_symmetry_space_group_name_H-M "C 2"
_symmetry_group_IT_number 5
_symmetry_cell_setting 'monoclinic'
loop_
_space_group_symop_operation_xyz
x,y,z
-x,y,-z
1/2+x,1/2+y,z
1/2-x,1/2+y,-z
loop_
_atom_site_type_symbol
_atom_site_label
_atom_site_fract_x
_atom_site_fract_y
_atom_site_fract_z
Si Si1 0.690693 0.956000 0.513890
Si Si2 0.791820 0.432593 0.834134
Si Si3 0.956375 0.049085 0.154568
Si Si4 0.796742 0.279912 0.460699
Si Si5 0.033360 0.218465 0.841510
Si Si6 0.580091 0.308800 0.890488
O O1 0.500000 0.981114 0.500000
O O2 0.693106 0.955185 0.332460
O O3 0.710868 0.868697 0.564812
O O4 0.867836 0.006356 0.665927
O O5 0.733307 0.503163 0.903523
O O6 0.642729 0.368020 0.798651
O O7 0.000000 0.402919 0.000000
O O8 0.944003 0.134052 0.201360
O O9 0.000000 0.046741 0.000000
O O10 0.589778 0.256762 0.275495
O O11 0.000000 0.253367 0.500000
O O12 0.846402 0.257123 0.659663
O O13 0.231118 0.265439 0.941718
O O14 0.000000 0.212984 0.000000
O O15 0.500000 0.346750 0.000000
#
# Coordination Sequence:
#
# PCOD9129752 Si02
#       6
#     4   4   4   4   4   4
#     4  11  24  44  71 104 138 176 233 289 348 412
#     4  12  25  42  73 103 135 183 236 288 343 417
#     4  11  25  47  68  98 145 185 229 286 347 412
#     4  11  23  42  73 103 136 182 230 291 350 408
#     4  11  26  47  68 104 143 185 235 287 345 420
#     4  12  24  44  75 106 141 184 234 290 349 411
#
# _framework density 21.947132
#
# number of rings (size 3 to 8) (size 9 to 14) (size 15 to 20)
#    0.000    0.667    3.333    4.500    2.333    4.000 
#    9.000    0.000    0.000    0.000    0.000    0.000 
#    0.000    0.000    0.000    0.000    0.000    0.000 
#
# Total GULP energy -67035.217152 kJ/mol
# GULP energy per Si atom -5586.268096 kJ/mol
# Density = 2.189718 g / cm^3
# Si number density = 21.947132 Si / 1000 Ang^3
#
#
#
# Elastic Constant Matrix: (Units=GPa)
#
#
# Indices 1 2 3 4 5 6 
#
# 1 119.8713 26.7382 36.8455 0.0000 -7.0098 0.0000
# 2 26.7382 86.4800 18.8786 0.0000 2.2434 0.0000
# 3 36.8455 18.8786 142.1188 0.0000 1.3990 0.0000
# 4 0.0000 0.0000 0.0000 25.8696 0.0000 0.8807
# 5 -7.0098 2.2434 1.3990 0.0000 44.1745 0.0000
# 6 0.0000 0.0000 0.0000 0.8807 0.0000 11.7891
#
#
#
# Elastic Compliance Matrix: (Units=1/GPa)
#
#
# Indices 1 2 3 4 5 6 
#
# 1 0.009688 -0.002563 -0.002188 0.000000 0.001737 0.000000
# 2 -0.002563 0.012600 -0.000999 0.000000 -0.001015 0.000000
# 3 -0.002188 -0.000999 0.007742 0.000000 -0.000542 0.000000
# 4 0.000000 0.000000 0.000000 0.038754 0.000000 -0.002895
# 5 0.001737 -0.001015 -0.000542 0.000000 0.022982 0.000000
# 6 0.000000 0.000000 0.000000 -0.002895 0.000000 0.085041
#
#
# Mechanical properties :
#
#
# Convention : Reuss Voigt Hill
#
# Bulk Modulus (GPa) = 53.96903 57.04386 55.50645
# Shear Modulus (GPa) = 25.70903 34.10047 29.90475
#
# Velocity S-wave (km/s) = 3.42630 3.94605 3.69532
# Velocity P-wave (km/s) = 6.34795 6.84176 6.59948
#
# Compressibility (1/GPa) = 0.01852914
#
# Stress axis : x y z
#
# Youngs Moduli (GPa) = 103.21891 79.36372 129.16863
#
# Poissons Ratio (x) = 0.20339 0.28267
# Poissons Ratio (y) = 0.26452 0.12909
# Poissons Ratio (z) = 0.22588 0.07931
#
# Static dielectric constant tensor:
#      x y z
#    x 1.936010 0.000000 -0.024590 
#    y 0.000000 1.801780 0.000000 
#    z -0.024590 0.000000 1.871840 
# 
# From -- ./inp_files/16845.got.cif
#   From: 2010.05.17/outbox.cif.g08.bks.cpg/sg5_9_cif.got.tgz:16845.got - 2010.06.03 18:56:24.
