data_PCOD9129701
_publ_section_title
;
Structure prediction by ZEFSAII (Michael W. Deem and Ramdas Pophale) SiO2 
 PCOD9129701
Probable space group: C 2
;
_chemical_formula_sum "Si O2"
_cell_formula_units_Z 20
_cell_length_a 8.677048
_cell_length_b 21.693632
_cell_length_c 9.596069
_cell_angle_alpha 90.000000
_cell_angle_beta 30.503604
_cell_angle_gamma 90.000000
_cell_volume 916.880800
_symmetry_space_group_name_H-M "C 2"
_symmetry_group_IT_number 5
_symmetry_cell_setting 'monoclinic'
loop_
_space_group_symop_operation_xyz
x,y,z
-x,y,-z
1/2+x,1/2+y,z
1/2-x,1/2+y,-z
loop_
_atom_site_type_symbol
_atom_site_label
_atom_site_fract_x
_atom_site_fract_y
_atom_site_fract_z
Si Si1 0.742388 0.033970 0.090452
Si Si2 0.419859 0.472889 0.401352
Si Si3 0.672972 0.360806 0.717603
Si Si4 0.258066 0.221739 0.407801
Si Si5 0.106832 0.175636 0.061260
O O1 0.771999 0.107713 0.073200
O O2 0.413585 0.003181 0.365292
O O3 0.000000 0.010187 0.000000
O O4 0.846988 0.018649 0.853547
O O5 0.500000 0.465521 0.500000
O O6 0.468358 0.409162 0.279375
O O7 0.741566 0.296050 0.587436
O O8 0.000000 0.388001 0.500000
O O9 0.500000 0.351602 0.000000
O O10 0.600464 0.206990 0.099296
O O11 0.000000 0.203144 0.500000
O O12 0.168844 0.185362 0.617499
O O13 0.000000 0.205743 0.000000
#
# Coordination Sequence:
#
# PCOD9129701 Si02
#       5
#     4   4   4   4   4
#     4  11  24  43  64  89 127 173 210 247 311 388
#     4  12  25  40  64  97 126 159 210 269 316 357
#     4  11  23  43  66  90 125 171 212 251 311 387
#     4  11  23  41  65  93 124 164 212 259 310 370
#     4  11  24  41  64  93 127 167 209 256 313 372
#
# _framework density 21.813088
#
# number of rings (size 3 to 8) (size 9 to 14) (size 15 to 20)
#    0.000    0.800    0.000    9.000    0.000    9.600 
#    0.000    0.000    0.000    0.000    0.000    0.000 
#    0.000    0.000    0.000    0.000    0.000    0.000 
#
# Total GULP energy -55832.828549 kJ/mol
# GULP energy per Si atom -5583.282855 kJ/mol
# Density = 2.176344 g / cm^3
# Si number density = 21.813088 Si / 1000 Ang^3
#
#
#
# Elastic Constant Matrix: (Units=GPa)
#
#
# Indices 1 2 3 4 5 6 
#
# 1 72.9630 27.6186 5.6535 0.0000 14.3287 0.0000
# 2 27.6186 55.9627 5.1529 0.0000 -0.8569 0.0000
# 3 5.6535 5.1529 109.8469 0.0000 4.2928 0.0000
# 4 0.0000 0.0000 0.0000 30.0599 0.0000 -3.2002
# 5 14.3287 -0.8569 4.2928 0.0000 36.0149 0.0000
# 6 0.0000 0.0000 0.0000 -3.2002 0.0000 24.9773
#
#
#
# Elastic Compliance Matrix: (Units=1/GPa)
#
#
# Indices 1 2 3 4 5 6 
#
# 1 0.018771 -0.009360 -0.000228 0.000000 -0.007664 0.000000
# 2 -0.009360 0.022624 -0.000750 0.000000 0.004352 0.000000
# 3 -0.000228 -0.000750 0.009190 0.000000 -0.001023 0.000000
# 4 0.000000 0.000000 0.000000 0.033727 0.000000 0.004321
# 5 -0.007664 0.004352 -0.001023 0.000000 0.031041 0.000000
# 6 0.000000 0.000000 0.000000 0.004321 0.000000 0.040590
#
#
# Mechanical properties :
#
#
# Convention : Reuss Voigt Hill
#
# Bulk Modulus (GPa) = 33.43254 35.06920 34.25087
# Shear Modulus (GPa) = 26.79679 31.56692 29.18186
#
# Velocity S-wave (km/s) = 3.50876 3.80828 3.66158
# Velocity P-wave (km/s) = 5.63696 5.95393 5.79761
#
# Compressibility (1/GPa) = 0.02991098
#
# Stress axis : x y z
#
# Youngs Moduli (GPa) = 53.27233 44.20035 108.80893
#
# Poissons Ratio (x) = 0.41374 0.02476
# Poissons Ratio (y) = 0.49865 0.08156
# Poissons Ratio (z) = 0.01212 0.03313
#
# Static dielectric constant tensor:
#      x y z
#    x 1.745030 0.000000 0.023370 
#    y 0.000000 1.803580 0.000000 
#    z 0.023370 0.000000 1.762670 
# 
# From -- ./inp_files/17259.got.cif
#   From: 2010.05.17/outbox.cif.g08.bks.cpg/sg5_9_cif.got.tgz:17259.got - 2010.06.03 18:56:24.
