data_PCOD9129030
_publ_section_title
;
Structure prediction by ZEFSAII (Michael W. Deem and Ramdas Pophale) SiO2 
 PCOD9129030
Probable space group: C 2
;
_chemical_formula_sum "Si O2"
_cell_formula_units_Z 30
_cell_length_a 13.672029
_cell_length_b 5.345473
_cell_length_c 18.949010
_cell_angle_alpha 90.000000
_cell_angle_beta 61.641066
_cell_angle_gamma 90.000000
_cell_volume 1218.661245
_symmetry_space_group_name_H-M "C 2"
_symmetry_group_IT_number 5
_symmetry_cell_setting 'monoclinic'
loop_
_space_group_symop_operation_xyz
x,y,z
-x,y,-z
1/2+x,1/2+y,z
1/2-x,1/2+y,-z
loop_
_atom_site_type_symbol
_atom_site_label
_atom_site_fract_x
_atom_site_fract_y
_atom_site_fract_z
Si Si1 0.284685 0.057650 0.825420
Si Si2 0.058774 0.882191 0.850459
Si Si3 0.308372 0.336902 0.952317
Si Si4 0.000000 0.023685 0.500000
Si Si5 0.025145 0.212716 0.247083
Si Si6 0.725134 0.804903 0.466015
Si Si7 0.620125 0.335347 0.331075
Si Si8 0.344803 0.081119 0.304948
O O1 0.297720 0.294891 0.871490
O O2 0.334227 0.103981 0.730108
O O3 0.158260 0.972087 0.865579
O O4 0.369811 0.851735 0.823487
O O5 0.104749 0.653852 0.788060
O O6 0.939443 0.833832 0.925338
O O7 0.037423 0.082151 0.795869
O O8 0.251427 0.591948 0.995931
O O9 0.896590 0.203928 0.515057
O O10 0.967009 0.842101 0.575930
O O11 0.938978 0.412951 0.308622
O O12 0.068454 0.022966 0.290878
O O13 0.729930 0.077431 0.499662
O O14 0.806377 0.802744 0.369721
O O15 0.732140 0.437641 0.327840
#
# Coordination Sequence:
#
# PCOD9129030 Si02
#       8
#     4   4   4   2   4   4   4   4
#     4  12  26  46  78 111 144 204 248 303 373 450
#     4  12  26  47  77 107 147 193 249 305 366 453
#     4  12  29  53  80 116 155 193 242 307 383 455
#     4  10  26  46  64 110 158 200 252 328 366 438
#     4  12  22  43  73 105 144 194 253 307 366 436
#     4  11  27  46  68 102 149 202 251 311 386 431
#     4  11  23  44  71 104 148 199 259 305 378 433
#     4  11  24  41  73 105 140 193 260 306 360 454
#
# _framework density 24.617177999999999
#
# number of rings (size 3 to 8) (size 9 to 14) (size 15 to 20)
#    0.000    0.533    5.333    1.600    5.600    1.067 
#    0.000    4.000    0.000    0.000    0.000    0.000 
#    0.000    0.000    0.000    0.000    0.000    0.000 
#
# Total GULP energy -84016.736175 kJ/mol
# GULP energy per Si atom -5601.115745 kJ/mol
# Density = 2.456115 g / cm^3
# Si number density = 24.617178 Si / 1000 Ang^3
#
#
#
# Elastic Constant Matrix: (Units=GPa)
#
#
# Indices 1 2 3 4 5 6 
#
# 1 150.6731 16.7482 16.3719 0.0005 -34.3131 -0.0001
# 2 16.7482 68.5078 38.5533 0.0025 -12.7511 0.0026
# 3 16.3719 38.5533 90.9539 -0.0018 -20.9726 -0.0041
# 4 0.0005 0.0025 -0.0018 41.2101 -0.0002 -4.7844
# 5 -34.3131 -12.7511 -20.9726 -0.0002 40.3732 0.0005
# 6 -0.0001 0.0026 -0.0041 -4.7844 0.0005 1.7066
#
#
#
# Elastic Compliance Matrix: (Units=1/GPa)
#
#
# Indices 1 2 3 4 5 6 
#
# 1 0.008287 -0.001039 0.000565 0.000000 0.007008 0.000002
# 2 -0.001039 0.019455 -0.007778 -0.000011 0.001221 -0.000079
# 3 0.000565 -0.007778 0.015603 0.000010 0.006129 0.000076
# 4 0.000000 -0.000011 0.000010 0.035975 0.000001 0.100853
# 5 0.007008 0.001221 0.006129 0.000001 0.034295 0.000007
# 6 0.000002 -0.000079 0.000076 0.100853 0.000007 0.868686
#
#
# Mechanical properties :
#
#
# Convention : Reuss Voigt Hill
#
# Bulk Modulus (GPa) = 37.25747 50.38686 43.82217
# Shear Modulus (GPa) = 4.96153 32.55542 18.75848
#
# Velocity S-wave (km/s) = 1.42121 3.64052 2.76344
# Velocity P-wave (km/s) = 4.22620 6.17930 5.29361
#
# Compressibility (1/GPa) = 0.02684025
#
# Stress axis : x y z
#
# Youngs Moduli (GPa) = 120.67001 51.39961 64.08987
#
# Poissons Ratio (x) = 0.05343 -0.03621
# Poissons Ratio (y) = 0.12543 0.49850
# Poissons Ratio (z) = -0.06817 0.39979
#
# Static dielectric constant tensor:
#      x y z
#    x 1.919070 0.000000 0.032160 
#    y 0.000000 2.009770 0.000000 
#    z 0.032160 0.000000 2.035470 
# 
# From -- ./inp_files/65672.got.cif
#   From: 2010.05.17/outbox.cif.g08.bks.cpg/sg5_33_cif.got.tgz:65672.got - 2010.06.03 18:56:24.
