data_PCOD9129464
_publ_section_title
;
Structure prediction by ZEFSAII (Michael W. Deem and Ramdas Pophale) SiO2 
 PCOD9129464
Probable space group: C 2
;
_chemical_formula_sum "Si O2"
_cell_formula_units_Z 30
_cell_length_a 13.765425
_cell_length_b 18.438654
_cell_length_c 11.490613
_cell_angle_alpha 90.000000
_cell_angle_beta 33.427195
_cell_angle_gamma 90.000000
_cell_volume 1606.632782
_symmetry_space_group_name_H-M "C 2"
_symmetry_group_IT_number 5
_symmetry_cell_setting 'monoclinic'
loop_
_space_group_symop_operation_xyz
x,y,z
-x,y,-z
1/2+x,1/2+y,z
1/2-x,1/2+y,-z
loop_
_atom_site_type_symbol
_atom_site_label
_atom_site_fract_x
_atom_site_fract_y
_atom_site_fract_z
Si Si1 0.295693 0.916030 0.424699
Si Si2 0.205837 0.781639 0.931058
Si Si3 0.500016 0.521406 0.638700
Si Si4 0.704473 0.916068 0.016212
Si Si5 0.794670 0.781543 0.342506
Si Si6 0.499768 0.677901 0.260858
Si Si7 0.791403 0.815014 0.708769
Si Si8 0.500000 0.692530 0.000000
O O1 0.248273 0.864645 0.580759
O O2 0.259464 0.862750 0.351953
O O3 0.168764 0.983642 0.529577
O O4 0.500067 0.936447 0.223680
O O5 0.235578 0.769861 0.764275
O O6 0.332989 0.728571 0.875746
O O7 0.248427 0.864818 0.922009
O O8 0.000318 0.768294 0.163360
O O9 0.500000 0.505519 0.500000
O O10 0.331328 0.483669 0.867083
O O11 0.500046 0.606711 0.660564
O O12 0.740999 0.862614 0.870977
O O13 0.667946 0.728349 0.541092
O O14 0.499988 0.654386 0.125300
O O15 0.671611 0.744173 0.828472
O O16 0.000000 0.800651 0.500000
#
# Coordination Sequence:
#
# PCOD9129464 Si02
#       8
#     4   4   4   4   4   4   4   2
#     4  12  21  37  65  96 124 160 214 264 312 370
#     4  11  22  39  67  97 127 168 214 259 308 377
#     4  12  26  42  62  92 134 171 209 267 323 376
#     4  12  21  37  65  96 124 160 214 264 312 370
#     4  11  22  39  67  97 127 168 214 259 308 377
#     4  12  26  44  64  92 135 167 211 262 329 379
#     4  12  18  34  66  98 120 150 209 272 308 362
#     4  12  24  40  68  96 122 164 212 274 312 382
#
# _framework density 18.672594
#
# number of rings (size 3 to 8) (size 9 to 14) (size 15 to 20)
#    0.000    0.267    9.333    1.200    0.000    1.067 
#    2.400    0.000    0.000    0.000    0.000    0.000 
#    0.000    0.000    0.000    0.000    0.000    0.000 
#
# Total GULP energy -83831.275495 kJ/mol
# GULP energy per Si atom -5588.751700 kJ/mol
# Density = 1.863009 g / cm^3
# Si number density = 18.672594 Si / 1000 Ang^3
#
#
#
# Elastic Constant Matrix: (Units=GPa)
#
#
# Indices 1 2 3 4 5 6 
#
# 1 80.5049 18.3755 55.9618 -0.0073 -11.1316 0.0047
# 2 18.3755 78.1743 29.5070 -0.0016 -13.0269 0.0014
# 3 55.9618 29.5070 115.2974 -0.0005 -29.1579 0.0015
# 4 -0.0073 -0.0016 -0.0005 24.5893 0.0005 5.7329
# 5 -11.1316 -13.0269 -29.1579 0.0005 38.5162 0.0019
# 6 0.0047 0.0014 0.0015 5.7329 0.0019 29.4011
#
#
#
# Elastic Compliance Matrix: (Units=1/GPa)
#
#
# Indices 1 2 3 4 5 6 
#
# 1 0.018959 -0.001251 -0.009403 0.000006 -0.002062 -0.000004
# 2 -0.001251 0.014444 -0.002406 0.000001 0.002702 -0.000001
# 3 -0.009403 -0.002406 0.016029 -0.000003 0.008603 0.000001
# 4 0.000006 0.000001 -0.000003 0.042605 0.000000 -0.008308
# 5 -0.002062 0.002702 0.008603 0.000000 0.032794 -0.000002
# 6 -0.000004 -0.000001 0.000001 -0.008308 -0.000002 0.035632
#
#
# Mechanical properties :
#
#
# Convention : Reuss Voigt Hill
#
# Bulk Modulus (GPa) = 42.89793 53.51836 48.20814
# Shear Modulus (GPa) = 25.72636 29.84349 27.78492
#
# Velocity S-wave (km/s) = 3.71585 4.00215 3.86165
# Velocity P-wave (km/s) = 6.43690 7.07672 6.76438
#
# Compressibility (1/GPa) = 0.02331115
#
# Stress axis : x y z
#
# Youngs Moduli (GPa) = 52.74668 69.23077 62.38820
#
# Poissons Ratio (x) = 0.08659 0.58666
# Poissons Ratio (y) = 0.06597 0.15012
# Poissons Ratio (z) = 0.49600 0.16658
#
# Static dielectric constant tensor:
#      x y z
#    x 1.668400 0.000000 0.014850 
#    y 0.000000 1.596820 0.000000 
#    z 0.014850 0.000000 1.655910 
# 
# From -- ./inp_files/43290.got.cif
#   From: 2010.05.17/outbox.cif.g08.bks.cpg/sg5_22_cif.got.tgz:43290.got - 2010.06.03 18:56:24.
