data_PCOD9129118
_publ_section_title
;
Structure prediction by ZEFSAII (Michael W. Deem and Ramdas Pophale) SiO2 
 PCOD9129118
Probable space group: C 2
;
_chemical_formula_sum "Si O2"
_cell_formula_units_Z 24
_cell_length_a 18.225037
_cell_length_b 5.478292
_cell_length_c 19.183032
_cell_angle_alpha 90.000000
_cell_angle_beta 151.251583
_cell_angle_gamma 90.000000
_cell_volume 921.178750
_symmetry_space_group_name_H-M "C 2"
_symmetry_group_IT_number 5
_symmetry_cell_setting 'monoclinic'
loop_
_space_group_symop_operation_xyz
x,y,z
-x,y,-z
1/2+x,1/2+y,z
1/2-x,1/2+y,-z
loop_
_atom_site_type_symbol
_atom_site_label
_atom_site_fract_x
_atom_site_fract_y
_atom_site_fract_z
Si Si1 0.354886 0.167160 0.426773
Si Si2 0.546438 0.862835 0.963384
Si Si3 0.476918 0.886488 0.748616
Si Si4 0.358188 0.630804 0.226570
Si Si5 0.875047 0.782577 0.584349
Si Si6 0.771615 0.689558 0.731762
O O1 0.500000 0.145886 0.500000
O O2 0.408567 0.099107 0.548958
O O3 0.295939 0.445227 0.363202
O O4 0.241149 0.950952 0.313427
O O5 0.445578 0.109800 0.885800
O O6 0.505477 0.785039 0.849780
O O7 0.500000 0.736304 0.000000
O O8 0.724069 0.929999 0.107263
O O9 0.621600 0.818334 0.820639
O O10 0.306598 0.807692 0.578472
O O11 0.443945 0.177649 0.712814
O O12 0.521222 0.502137 0.355349
O O13 0.319778 0.720223 0.271820
#
# Coordination Sequence:
#
# PCOD9129118 Si02
#       6
#     4   4   4   4   4   4
#     4  12  24  42  78 112 153 199 257 326 390 453
#     4  10  26  53  76 109 157 211 265 321 395 478
#     4  12  26  46  75 108 154 202 262 329 395 471
#     4  11  26  50  70 113 152 207 265 320 400 468
#     4  12  26  42  75 110 151 200 258 335 394 461
#     4  11  25  48  76 112 155 206 259 320 385 469
#
# _framework density 26.053576
#
# number of rings (size 3 to 8) (size 9 to 14) (size 15 to 20)
#    0.000    0.667    5.000    1.500    7.000    0.000 
#    3.000    2.500    0.000    0.000    0.000    0.000 
#    0.000    0.000    0.000    0.000    0.000    0.000 
#
# Total GULP energy -66857.755874 kJ/mol
# GULP energy per Si atom -5571.479656 kJ/mol
# Density = 2.599428 g / cm^3
# Si number density = 26.053576 Si / 1000 Ang^3
#
#
#
# Elastic Constant Matrix: (Units=GPa)
#
#
# Indices 1 2 3 4 5 6 
#
# 1 168.4371 45.9980 36.8560 -0.0002 1.1087 0.0000
# 2 45.9980 56.8143 16.8112 0.0001 -20.8643 0.0002
# 3 36.8560 16.8112 79.8898 0.0000 -6.4499 0.0000
# 4 -0.0002 0.0001 0.0000 -4.6495 -0.0002 2.6150
# 5 1.1087 -20.8643 -6.4499 -0.0002 48.1845 0.0000
# 6 0.0000 0.0002 0.0000 2.6150 0.0000 38.0401
#
#
#
# Elastic Compliance Matrix: (Units=1/GPa)
#
#
# Indices 1 2 3 4 5 6 
#
# 1 0.008627 -0.007603 -0.002691 0.000000 -0.003851 0.000000
# 2 -0.007603 0.028778 -0.001545 0.000000 0.012429 0.000000
# 3 -0.002691 -0.001545 0.014188 0.000000 0.001292 0.000000
# 4 0.000000 0.000000 0.000000 -0.207070 -0.000001 0.014235
# 5 -0.003851 0.012429 0.001292 -0.000001 0.026397 0.000000
# 6 0.000000 0.000000 0.000000 0.014235 0.000000 0.025310
#
#
# Mechanical properties :
#
#
# Convention : Reuss Voigt Hill
#
# Bulk Modulus (GPa) = 35.82159 56.05241 45.93700
# Shear Modulus (GPa) = -70.63503 30.01341 -20.31081
#
# Velocity S-wave (km/s) = -5.21251 3.39778 -2.79512
# Velocity P-wave (km/s) = 4.73794 6.07899 2.69315
#
# Compressibility (1/GPa) = 0.02791613
#
# Stress axis : x y z
#
# Youngs Moduli (GPa) = 115.91060 34.74862 70.48113
#
# Poissons Ratio (x) = 0.26418 0.18968
# Poissons Ratio (y) = 0.88123 0.10889
# Poissons Ratio (z) = 0.31193 0.05368
#
# Static dielectric constant tensor:
#      x y z
#    x 2.368750 0.000000 0.101940 
#    y 0.000000 2.248820 0.000000 
#    z 0.101940 0.000000 2.510920 
# 
# From -- ./inp_files/66939.got.cif
#   From: 2010.05.17/outbox.cif.g08.bks.cpg/sg5_34_cif.got.tgz:66939.got - 2010.06.03 18:56:24.
