data_PCOD9129308
_publ_section_title
;
Structure prediction by ZEFSAII (Michael W. Deem and Ramdas Pophale) SiO2 
 PCOD9129308
Probable space group: C 2
;
_chemical_formula_sum "Si O2"
_cell_formula_units_Z 32
_cell_length_a 21.803129
_cell_length_b 11.056263
_cell_length_c 6.147204
_cell_angle_alpha 90.000000
_cell_angle_beta 93.564405
_cell_angle_gamma 90.000000
_cell_volume 1478.985356
_symmetry_space_group_name_H-M "C 2"
_symmetry_group_IT_number 5
_symmetry_cell_setting 'monoclinic'
loop_
_space_group_symop_operation_xyz
x,y,z
-x,y,-z
1/2+x,1/2+y,z
1/2-x,1/2+y,-z
loop_
_atom_site_type_symbol
_atom_site_label
_atom_site_fract_x
_atom_site_fract_y
_atom_site_fract_z
Si Si1 0.722564 0.598740 0.311723
Si Si2 0.263925 0.889696 0.009801
Si Si3 0.441835 0.859372 0.359974
Si Si4 0.135284 0.481870 0.302313
Si Si5 0.641471 0.692927 0.926588
Si Si6 0.838872 0.962036 0.314891
Si Si7 0.441400 0.092557 0.092967
Si Si8 0.345891 0.211325 0.389318
O O1 0.704478 0.534536 0.529356
O O2 0.771921 0.705256 0.344520
O O3 0.760022 0.497402 0.183475
O O4 0.662116 0.645334 0.169596
O O5 0.196144 0.895398 0.892641
O O6 0.308398 0.930558 0.823746
O O7 0.295177 0.768966 0.114680
O O8 0.500000 0.805061 0.500000
O O9 0.412763 0.783353 0.154956
O O10 0.388948 0.886241 0.526421
O O11 0.460517 0.991527 0.274058
O O12 0.145743 0.608374 0.427418
O O13 0.086269 0.515075 0.108912
O O14 0.626075 0.572329 0.788191
O O15 0.866121 0.847854 0.449196
O O16 0.387965 0.169912 0.195032
O O17 0.500000 0.158889 0.000000
#
# Coordination Sequence:
#
# PCOD9129308 Si02
#       8
#     4   4   4   4   4   4   4   4
#     4  11  23  38  60  93 131 175 214 263 327 393
#     4  11  21  37  62  96 128 169 212 261 325 396
#     4  11  23  39  67  98 124 165 217 277 333 382
#     4  11  21  37  65  94 128 163 211 274 330 378
#     4  11  25  39  62  93 135 170 221 260 330 403
#     4  11  26  39  60  94 140 176 212 264 330 405
#     4  11  22  41  68  99 126 162 220 281 330 380
#     4  11  23  39  63  96 132 174 219 261 334 396
#
# _framework density 21.636455000000002
#
# number of rings (size 3 to 8) (size 9 to 14) (size 15 to 20)
#    0.000    1.000    6.250    0.750    3.500    2.000 
#    0.000    0.000    2.750    0.750    0.000    0.000 
#    0.000    0.000    0.000    0.000    0.000    0.000 
#
# Total GULP energy -89158.321890 kJ/mol
# GULP energy per Si atom -5572.395118 kJ/mol
# Density = 2.158721 g / cm^3
# Si number density = 21.636455 Si / 1000 Ang^3
#
#
#
# Elastic Constant Matrix: (Units=GPa)
#
#
# Indices 1 2 3 4 5 6 
#
# 1 65.1274 7.7215 22.1270 0.0000 4.9584 0.0000
# 2 7.7215 106.5688 10.4716 0.0000 3.6381 0.0000
# 3 22.1270 10.4716 61.7891 0.0000 3.8003 0.0000
# 4 0.0000 0.0000 0.0000 18.5569 0.0000 3.8352
# 5 4.9584 3.6381 3.8003 0.0000 34.6574 0.0000
# 6 0.0000 0.0000 0.0000 3.8352 0.0000 13.5629
#
#
#
# Elastic Compliance Matrix: (Units=1/GPa)
#
#
# Indices 1 2 3 4 5 6 
#
# 1 0.017637 -0.000617 -0.006101 0.000000 -0.001789 0.000000
# 2 -0.000617 0.009588 -0.001357 0.000000 -0.000769 0.000000
# 3 -0.006101 -0.001357 0.018662 0.000000 -0.001031 0.000000
# 4 0.000000 0.000000 0.000000 0.057233 0.000000 -0.016184
# 5 -0.001789 -0.000769 -0.001031 0.000000 0.029304 0.000000
# 6 0.000000 0.000000 0.000000 -0.016184 0.000000 0.078307
#
#
# Mechanical properties :
#
#
# Convention : Reuss Voigt Hill
#
# Bulk Modulus (GPa) = 33.62810 34.90283 34.26547
# Shear Modulus (GPa) = 21.11548 26.23311 23.67429
#
# Velocity S-wave (km/s) = 3.12736 3.48580 3.31144
# Velocity P-wave (km/s) = 5.34945 5.68925 5.52197
#
# Compressibility (1/GPa) = 0.02973703
#
# Stress axis : x y z
#
# Youngs Moduli (GPa) = 56.69957 104.29822 53.58415
#
# Poissons Ratio (x) = 0.06438 0.32693
# Poissons Ratio (y) = 0.03500 0.07269
# Poissons Ratio (z) = 0.34593 0.14148
#
# Static dielectric constant tensor:
#      x y z
#    x 1.845780 0.000000 0.039760 
#    y 0.000000 1.858840 0.000000 
#    z 0.039760 0.000000 1.850240 
# 
# From -- ./inp_files/10337.got.cif
#   From: 2010.05.17/outbox.cif.g08.bks.cpg/sg5_6_cif.got.tgz:10337.got - 2010.06.03 18:56:24.
