data_PCOD9129159
_publ_section_title
;
Structure prediction by ZEFSAII (Michael W. Deem and Ramdas Pophale) SiO2 
 PCOD9129159
Probable space group: C 2
;
_chemical_formula_sum "Si O2"
_cell_formula_units_Z 24
_cell_length_a 13.092380
_cell_length_b 20.202008
_cell_length_c 11.441876
_cell_angle_alpha 90.000000
_cell_angle_beta 22.529322
_cell_angle_gamma 90.000000
_cell_volume 1159.541311
_symmetry_space_group_name_H-M "C 2"
_symmetry_group_IT_number 5
_symmetry_cell_setting 'monoclinic'
loop_
_space_group_symop_operation_xyz
x,y,z
-x,y,-z
1/2+x,1/2+y,z
1/2-x,1/2+y,-z
loop_
_atom_site_type_symbol
_atom_site_label
_atom_site_fract_x
_atom_site_fract_y
_atom_site_fract_z
Si Si1 0.000000 0.157260 0.000000
Si Si2 0.036353 0.823278 0.589575
Si Si3 0.156122 0.478174 0.560610
Si Si4 0.500000 0.063514 0.500000
Si Si5 0.599698 0.477818 0.267745
Si Si6 0.993598 0.262540 0.801178
Si Si7 0.776073 0.338102 0.640627
O O1 0.752879 0.111238 0.229305
O O2 0.964078 0.200777 0.156968
O O3 0.954590 0.899049 0.675598
O O4 0.000000 0.793653 0.500000
O O5 0.344705 0.817356 0.294709
O O6 0.813336 0.782417 0.896651
O O7 0.417852 0.503832 0.352503
O O8 0.219242 0.404121 0.445434
O O9 0.058135 0.518466 0.551369
O O10 0.911257 0.483466 0.910387
O O11 0.500000 0.502670 0.500000
O O12 0.147762 0.273261 0.516243
O O13 0.000000 0.348646 0.500000
O O14 0.500000 0.332329 0.000000
#
# Coordination Sequence:
#
# PCOD9129159 Si02
#       7
#     2   4   4   2   4   4   4
#     4  12  26  46  66  98 128 184 230 288 322 376
#     4  11  18  32  56  96 128 164 189 262 344 389
#     4  12  23  42  65  96 139 182 220 277 328 410
#     4  12  28  44  70  92 138 186 238 264 322 402
#     4  11  22  36  63 101 141 165 215 270 355 405
#     4  12  22  39  64  91 134 161 219 276 325 394
#     4  12  24  39  63  99 134 175 210 270 353 408
#
# _framework density 20.697838999999998
#
# number of rings (size 3 to 8) (size 9 to 14) (size 15 to 20)
#    0.000    0.333    5.833    4.500    1.167    2.667 
#    0.000    0.000    0.000   10.000    0.000    0.000 
#    0.000    0.000    0.000    0.000    0.000    0.000 
#
# Total GULP energy -66924.944653 kJ/mol
# GULP energy per Si atom -5577.078721 kJ/mol
# Density = 2.065073 g / cm^3
# Si number density = 20.697839 Si / 1000 Ang^3
#
#
#
# Elastic Constant Matrix: (Units=GPa)
#
#
# Indices 1 2 3 4 5 6 
#
# 1 97.6646 12.0104 22.4531 0.1201 8.3695 -0.0553
# 2 12.0104 64.7815 24.2361 0.1459 13.0795 -0.1975
# 3 22.4531 24.2361 129.3445 0.0307 10.2381 -0.0561
# 4 0.1201 0.1459 0.0307 26.0737 -0.0734 2.2224
# 5 8.3695 13.0795 10.2381 -0.0734 43.1161 0.0789
# 6 -0.0553 -0.1975 -0.0561 2.2224 0.0789 28.7692
#
#
#
# Elastic Compliance Matrix: (Units=1/GPa)
#
#
# Indices 1 2 3 4 5 6 
#
# 1 0.010858 -0.001149 -0.001560 -0.000047 -0.001389 0.000017
# 2 -0.001149 0.017576 -0.002741 -0.000114 -0.004458 0.000134
# 3 -0.001560 -0.002741 0.008587 0.000010 -0.000905 -0.000003
# 4 -0.000047 -0.000114 0.000010 0.038608 0.000112 -0.002984
# 5 -0.001389 -0.004458 -0.000905 0.000112 0.025030 -0.000112
# 6 0.000017 0.000134 -0.000003 -0.002984 -0.000112 0.034991
#
#
# Mechanical properties :
#
#
# Convention : Reuss Voigt Hill
#
# Bulk Modulus (GPa) = 38.28177 45.46554 41.87366
# Shear Modulus (GPa) = 32.20462 35.13120 33.66791
#
# Velocity S-wave (km/s) = 3.94882 4.12434 4.03754
# Velocity P-wave (km/s) = 6.27109 6.68538 6.48155
#
# Compressibility (1/GPa) = 0.02612209
#
# Stress axis : x y z
#
# Youngs Moduli (GPa) = 92.09735 56.89666 116.45219
#
# Poissons Ratio (x) = 0.06537 0.18162
# Poissons Ratio (y) = 0.10582 0.31918
# Poissons Ratio (z) = 0.14364 0.15594
#
# Static dielectric constant tensor:
#      x y z
#    x 1.804300 -0.000020 0.036070 
#    y -0.000020 1.740670 0.000020 
#    z 0.036070 0.000020 1.781350 
# 
# From -- ./inp_files/43463.got.cif
#   From: 2010.05.17/outbox.cif.g08.bks.cpg/sg5_22_cif.got.tgz:43463.got - 2010.06.03 18:56:24.
