data_PCOD9129611
_publ_section_title
;
Structure prediction by ZEFSAII (Michael W. Deem and Ramdas Pophale) SiO2 
 PCOD9129611
Probable space group: C 2
;
_chemical_formula_sum "Si O2"
_cell_formula_units_Z 24
_cell_length_a 12.235166
_cell_length_b 7.896946
_cell_length_c 11.270033
_cell_angle_alpha 90.000000
_cell_angle_beta 104.456746
_cell_angle_gamma 90.000000
_cell_volume 1054.436599
_symmetry_space_group_name_H-M "C 2"
_symmetry_group_IT_number 5
_symmetry_cell_setting 'monoclinic'
loop_
_space_group_symop_operation_xyz
x,y,z
-x,y,-z
1/2+x,1/2+y,z
1/2-x,1/2+y,-z
loop_
_atom_site_type_symbol
_atom_site_label
_atom_site_fract_x
_atom_site_fract_y
_atom_site_fract_z
Si Si1 0.148697 0.299080 0.856863
Si Si2 0.712028 0.408442 0.874306
Si Si3 0.621419 0.167671 0.476557
Si Si4 0.410205 0.971335 0.769445
Si Si5 0.521840 0.334979 0.140062
Si Si6 0.718358 0.448571 0.328433
O O1 0.399977 0.471231 0.773193
O O2 0.201012 0.362864 0.747335
O O3 0.162626 0.097836 0.864772
O O4 0.221325 0.371256 0.986415
O O5 0.798194 0.386879 0.790460
O O6 0.598949 0.298666 0.833188
O O7 0.500000 0.212514 0.500000
O O8 0.679094 0.321121 0.421656
O O9 0.598127 0.022594 0.370526
O O10 0.710953 0.097415 0.594404
O O11 0.521194 0.865244 0.828837
O O12 0.416818 0.153142 0.839504
O O13 0.500000 0.387133 0.000000
#
# Coordination Sequence:
#
# PCOD9129611 Si02
#       6
#     4   4   4   4   4   4
#     4  12  23  44  70 100 142 177 225 286 343 409
#     4  12  24  43  69 102 140 179 225 284 350 407
#     4  11  24  47  71  96 139 185 232 282 336 397
#     4  11  24  44  69  99 136 185 229 281 341 403
#     4  11  22  45  69  98 143 178 223 288 341 403
#     4  11  25  47  70 101 136 182 232 281 338 404
#
# _framework density 22.760971000000001
#
# number of rings (size 3 to 8) (size 9 to 14) (size 15 to 20)
#    0.000    0.667    6.667    2.500    0.000    5.333 
#    6.000    0.000    0.000    0.000    0.000    0.000 
#    0.000    0.000    0.000    0.000    0.000    0.000 
#
# Total GULP energy -67187.959251 kJ/mol
# GULP energy per Si atom -5598.996604 kJ/mol
# Density = 2.270917 g / cm^3
# Si number density = 22.760971 Si / 1000 Ang^3
#
#
#
# Elastic Constant Matrix: (Units=GPa)
#
#
# Indices 1 2 3 4 5 6 
#
# 1 153.0883 23.1099 17.8917 0.0000 1.1092 0.0000
# 2 23.1099 49.7565 34.9553 0.0000 12.4029 0.0000
# 3 17.8917 34.9553 93.9996 0.0000 9.6459 0.0000
# 4 0.0000 0.0000 0.0000 18.5580 0.0000 -5.0489
# 5 1.1092 12.4029 9.6459 0.0000 50.4181 0.0000
# 6 0.0000 0.0000 0.0000 -5.0489 0.0000 28.3332
#
#
#
# Elastic Compliance Matrix: (Units=1/GPa)
#
#
# Indices 1 2 3 4 5 6 
#
# 1 0.007050 -0.003323 -0.000178 0.000000 0.000696 0.000000
# 2 -0.003323 0.029987 -0.009965 0.000000 -0.005397 0.000000
# 3 -0.000178 -0.009965 0.014409 0.000000 -0.000301 0.000000
# 4 0.000000 0.000000 0.000000 0.056631 0.000000 0.010092
# 5 0.000696 -0.005397 -0.000301 0.000000 0.021204 0.000000
# 6 0.000000 0.000000 0.000000 0.010092 0.000000 0.037093
#
#
# Mechanical properties :
#
#
# Convention : Reuss Voigt Hill
#
# Bulk Modulus (GPa) = 40.79216 49.86202 45.32709
# Shear Modulus (GPa) = 24.81691 34.18770 29.50230
#
# Velocity S-wave (km/s) = 3.30559 3.87981 3.60416
# Velocity P-wave (km/s) = 5.70352 6.48266 6.10553
#
# Compressibility (1/GPa) = 0.02451452
#
# Stress axis : x y z
#
# Youngs Moduli (GPa) = 141.85352 33.34741 69.40272
#
# Poissons Ratio (x) = 0.11082 0.01232
# Poissons Ratio (y) = 0.47139 0.69159
# Poissons Ratio (z) = 0.02518 0.33230
#
# Static dielectric constant tensor:
#      x y z
#    x 1.855970 0.000000 -0.007680 
#    y 0.000000 1.837630 0.000000 
#    z -0.007680 0.000000 1.835760 
# 
# From -- ./inp_files/38347.got.cif
#   From: 2010.05.17/outbox.cif.g08.bks.cpg/sg5_20_cif.got.tgz:38347.got - 2010.06.03 18:56:24.
