data_PCOD9129504
_publ_section_title
;
Structure prediction by ZEFSAII (Michael W. Deem and Ramdas Pophale) SiO2 
 PCOD9129504
Probable space group: C 2
;
_chemical_formula_sum "Si O2"
_cell_formula_units_Z 20
_cell_length_a 11.866718
_cell_length_b 15.866135
_cell_length_c 4.951349
_cell_angle_alpha 90.000000
_cell_angle_beta 90.576956
_cell_angle_gamma 90.000000
_cell_volume 932.187526
_symmetry_space_group_name_H-M "C 2"
_symmetry_group_IT_number 5
_symmetry_cell_setting 'monoclinic'
loop_
_space_group_symop_operation_xyz
x,y,z
-x,y,-z
1/2+x,1/2+y,z
1/2-x,1/2+y,-z
loop_
_atom_site_type_symbol
_atom_site_label
_atom_site_fract_x
_atom_site_fract_y
_atom_site_fract_z
Si Si1 0.278129 0.898320 0.509936
Si Si2 0.779989 0.667363 0.967418
Si Si3 0.573124 0.746081 0.252434
Si Si4 0.132191 0.855348 0.987481
Si Si5 0.869951 0.580742 0.462081
O O1 0.355312 0.819395 0.599438
O O2 0.215958 0.885934 0.224828
O O3 0.348591 0.983497 0.525184
O O4 0.177645 0.898620 0.721019
O O5 0.657006 0.683902 0.092316
O O6 0.836776 0.597040 0.153559
O O7 0.846959 0.754563 0.015450
O O8 0.793471 0.638532 0.658890
O O9 0.500000 0.709012 0.500000
O O10 0.500000 0.782496 0.000000
O O11 0.000000 0.871859 0.000000
O O12 0.000000 0.604377 0.500000
#
# Coordination Sequence:
#
# PCOD9129504 Si02
#       5
#     4   4   4   4   4
#     4  11  24  40  64  94 124 160 212 254 304 376
#     4  11  24  40  63  94 123 159 212 253 305 375
#     4  11  22  41  66  91 124 167 209 256 305 364
#     4  11  22  42  66  89 122 166 209 256 303 363
#     4  12  24  41  63  92 127 160 200 263 319 358
#
# _framework density 21.454909000000001
#
# number of rings (size 3 to 8) (size 9 to 14) (size 15 to 20)
#    0.000    0.800    0.000   10.200    0.000    1.600 
#    0.000   10.000    0.000    0.000    0.000    0.000 
#    0.000    0.000    0.000    0.000    0.000    0.000 
#
# Total GULP energy -55905.306792 kJ/mol
# GULP energy per Si atom -5590.530679 kJ/mol
# Density = 2.140608 g / cm^3
# Si number density = 21.454909 Si / 1000 Ang^3
#
#
#
# Elastic Constant Matrix: (Units=GPa)
#
#
# Indices 1 2 3 4 5 6 
#
# 1 -350.0833 199.3461 -861.2087 0.0000 -237.3968 0.0000
# 2 199.3461 -41.4142 381.5298 0.0000 90.3059 0.0000
# 3 -861.2087 381.5298-1614.1737 0.0000 -441.4335 0.0000
# 4 0.0000 0.0000 0.0000 351.8867 0.0000 -272.7590
# 5 -237.3968 90.3059 -441.4335 0.0000 -73.2949 0.0000
# 6 0.0000 0.0000 0.0000 -272.7590 0.0000 246.3119
#
#
#
# Elastic Compliance Matrix: (Units=1/GPa)
#
#
# Indices 1 2 3 4 5 6 
#
# 1 0.009190 0.000982 -0.004850 0.000000 0.000655 0.000000
# 2 0.000982 0.022520 0.002966 0.000000 0.006702 0.000000
# 3 -0.004850 0.002966 0.004059 0.000000 -0.005081 0.000000
# 4 0.000000 0.000000 0.000000 0.020064 0.000000 0.022218
# 5 0.000655 0.006702 -0.005081 0.000000 0.023095 0.000000
# 6 0.000000 0.000000 0.000000 0.022218 0.000000 0.028664
#
#
# Mechanical properties :
#
#
# Convention : Reuss Voigt Hill
#
# Bulk Modulus (GPa) = 29.44243 -285.14853 -127.85305
# Shear Modulus (GPa) = 41.41933 -10.04183 15.68875
#
# Velocity S-wave (km/s) = 4.39855 -2.16578 2.70708
# Velocity P-wave (km/s) = 6.28880 11.80884 7.06752
#
# Compressibility (1/GPa) = 0.03396458
#
# Stress axis : x y z
#
# Youngs Moduli (GPa) = 108.81271 44.40528 246.38151
#
# Poissons Ratio (x) = -0.04361 1.19498
# Poissons Ratio (y) = -0.10686 -0.73078
# Poissons Ratio (z) = 0.52776 -0.13171
#
# Static dielectric constant tensor:
#      x y z
#    x 1.316800 0.000000 -0.301320 
#    y 0.000000 2.205630 0.000000 
#    z -0.301320 0.000000 1.581000 
# 
# From -- ./inp_files/4753.got.cif
#   From: 2010.05.17/outbox.cif.g08.bks.cpg/sg5_3_cif.got.tgz:4753.got - 2010.06.03 18:56:24.
