data_PCOD9129080
_publ_section_title
;
Structure prediction by ZEFSAII (Michael W. Deem and Ramdas Pophale) SiO2 
 PCOD9129080
Probable space group: C 2
;
_chemical_formula_sum "Si O2"
_cell_formula_units_Z 20
_cell_length_a 18.088233
_cell_length_b 5.394491
_cell_length_c 7.937109
_cell_angle_alpha 90.000000
_cell_angle_beta 87.449614
_cell_angle_gamma 90.000000
_cell_volume 773.710639
_symmetry_space_group_name_H-M "C 2"
_symmetry_group_IT_number 5
_symmetry_cell_setting 'monoclinic'
loop_
_space_group_symop_operation_xyz
x,y,z
-x,y,-z
1/2+x,1/2+y,z
1/2-x,1/2+y,-z
loop_
_atom_site_type_symbol
_atom_site_label
_atom_site_fract_x
_atom_site_fract_y
_atom_site_fract_z
Si Si1 0.664412 0.048750 0.686085
Si Si2 0.264676 0.705033 0.094760
Si Si3 0.815255 0.363477 0.672159
Si Si4 0.962354 0.322885 0.817715
Si Si5 0.978013 0.827295 0.201775
O O1 0.744942 0.180650 0.665141
O O2 0.605340 0.250693 0.750004
O O3 0.665206 0.837213 0.829367
O O4 0.649803 0.913531 0.512181
O O5 0.213190 0.627825 0.256433
O O6 0.270495 0.435638 0.005422
O O7 0.875159 0.273321 0.803153
O O8 0.975683 0.592469 0.737690
O O9 0.001303 0.091361 0.726446
O O10 0.000000 0.341797 0.000000
O O11 0.000000 0.846573 0.000000
#
# Coordination Sequence:
#
# PCOD9129080 Si02
#       5
#     4   4   4   4   4
#     4  12  28  51  85 126 175 222 288 364 437 507
#     4  12  28  44  80 126 168 222 276 356 430 504
#     4  12  28  51  85 126 175 222 288 364 437 507
#     4  10  26  48  78 114 163 219 277 340 418 511
#     4  10  26  48  78 114 163 219 277 340 418 511
#
# _framework density 25.849459
#
# number of rings (size 3 to 8) (size 9 to 14) (size 15 to 20)
#    0.000    0.800    4.000    0.000   11.200    4.000 
#    0.000    2.000    0.000    0.000    0.000    0.000 
#    0.000    0.000    0.000    0.000    0.000    0.000 
#
# Total GULP energy -55916.863878 kJ/mol
# GULP energy per Si atom -5591.686388 kJ/mol
# Density = 2.579062 g / cm^3
# Si number density = 25.849459 Si / 1000 Ang^3
#
#
#
# Elastic Constant Matrix: (Units=GPa)
#
#
# Indices 1 2 3 4 5 6 
#
# 1 122.8007 1.2327 9.2404 0.0000 6.4306 0.0000
# 2 1.2327 143.1823 8.9223 0.0000 8.7082 0.0000
# 3 9.2404 8.9223 118.5376 0.0000 7.5219 0.0000
# 4 0.0000 0.0000 0.0000 35.3617 0.0000 -16.7303
# 5 6.4306 8.7082 7.5219 0.0000 28.7281 0.0000
# 6 0.0000 0.0000 0.0000 -16.7303 0.0000 48.7850
#
#
#
# Elastic Compliance Matrix: (Units=1/GPa)
#
#
# Indices 1 2 3 4 5 6 
#
# 1 0.008274 0.000068 -0.000540 0.000000 -0.001731 0.000000
# 2 0.000068 0.007135 -0.000411 0.000000 -0.002070 0.000000
# 3 -0.000540 -0.000411 0.008637 0.000000 -0.002016 0.000000
# 4 0.000000 0.000000 0.000000 0.033756 0.000000 0.011576
# 5 -0.001731 -0.002070 -0.002016 0.000000 0.036352 0.000000
# 6 0.000000 0.000000 0.000000 0.011576 0.000000 0.024468
#
#
# Mechanical properties :
#
#
# Convention : Reuss Voigt Hill
#
# Bulk Modulus (GPa) = 44.88506 47.03460 45.95983
# Shear Modulus (GPa) = 39.11880 46.91663 43.01772
#
# Velocity S-wave (km/s) = 3.89438 4.26490 4.08384
# Velocity P-wave (km/s) = 6.13378 6.51825 6.32893
#
# Compressibility (1/GPa) = 0.02227913
#
# Stress axis : x y z
#
# Youngs Moduli (GPa) = 120.86202 140.15325 115.77941
#
# Poissons Ratio (x) = -0.00949 0.06255
# Poissons Ratio (y) = -0.00818 0.04758
# Poissons Ratio (z) = 0.06529 0.05760
#
# Static dielectric constant tensor:
#      x y z
#    x 2.078070 0.000000 0.062350 
#    y 0.000000 2.001240 0.000000 
#    z 0.062350 0.000000 1.879780 
# 
# From -- ./inp_files/25956.got.cif
#   From: 2010.05.17/outbox.cif.g08.bks.cpg/sg5_13_cif.got.tgz:25956.got - 2010.06.03 18:56:24.
