data_PCOD9129219
_publ_section_title
;
Structure prediction by ZEFSAII (Michael W. Deem and Ramdas Pophale) SiO2 
 PCOD9129219
Probable space group: C 2
;
_chemical_formula_sum "Si O2"
_cell_formula_units_Z 32
_cell_length_a 23.368407
_cell_length_b 9.461305
_cell_length_c 20.537901
_cell_angle_alpha 90.000000
_cell_angle_beta 162.166344
_cell_angle_gamma 90.000000
_cell_volume 1390.652892
_symmetry_space_group_name_H-M "C 2"
_symmetry_group_IT_number 5
_symmetry_cell_setting 'monoclinic'
loop_
_space_group_symop_operation_xyz
x,y,z
-x,y,-z
1/2+x,1/2+y,z
1/2-x,1/2+y,-z
loop_
_atom_site_type_symbol
_atom_site_label
_atom_site_fract_x
_atom_site_fract_y
_atom_site_fract_z
Si Si1 0.429766 0.104980 0.670728
Si Si2 0.957751 0.757594 0.087448
Si Si3 0.570920 0.585330 0.466881
Si Si4 0.857540 0.385315 0.489929
Si Si5 0.374216 0.749796 0.926208
Si Si6 0.793309 0.949917 0.811070
Si Si7 0.801585 0.367137 0.633341
Si Si8 0.232899 0.551066 0.191186
O O1 0.565855 0.196107 0.865698
O O2 0.292653 0.227569 0.497885
O O3 0.466664 0.006228 0.647842
O O4 0.346574 0.986766 0.629071
O O5 0.142383 0.856369 0.282744
O O6 0.961831 0.618650 0.044110
O O7 0.795246 0.841593 0.873674
O O8 0.564154 0.727245 0.417187
O O9 0.660918 0.450085 0.529461
O O10 0.368055 0.558711 0.276000
O O11 0.691040 0.623754 0.661720
O O12 0.841671 0.429308 0.396753
O O13 0.270898 0.602428 0.820789
O O14 0.259764 0.886999 0.783612
O O15 0.500000 0.721234 0.000000
O O16 0.510431 0.805854 0.130075
O O17 0.000000 0.932271 0.000000
#
# Coordination Sequence:
#
# PCOD9129219 Si02
#       8
#     4   4   4   4   4   4   4   4
#     4  12  23  36  64  99 122 160 211 252 313 376
#     4  11  20  38  63  90 118 160 210 252 302 381
#     4  11  23  41  61  88 128 164 205 259 320 368
#     4  11  21  40  63  92 125 162 202 261 314 368
#     4  11  20  36  64  93 117 152 203 262 307 360
#     4   9  20  34  61  92 121 151 203 258 308 357
#     4  12  22  38  63  88 126 159 197 258 314 371
#     4  11  23  38  64  92 117 163 216 256 307 381
#
# _framework density 23.010774000000001
#
# number of rings (size 3 to 8) (size 9 to 14) (size 15 to 20)
#    0.000    1.000    6.250    2.250    0.000    0.000 
#    0.000    2.500    0.000    0.000    0.000    0.000 
#    0.000    0.000    0.000    0.000    0.000    0.000 
#
# Total GULP energy -89193.795490 kJ/mol
# GULP energy per Si atom -5574.612218 kJ/mol
# Density = 2.295840 g / cm^3
# Si number density = 23.010774 Si / 1000 Ang^3
#
#
#
# Elastic Constant Matrix: (Units=GPa)
#
#
# Indices 1 2 3 4 5 6 
#
# 1 54.7336 32.1876 28.9671 -0.0023 -20.2510 -0.0015
# 2 32.1876 159.8691 31.3368 -0.0038 -34.4077 -0.0021
# 3 28.9671 31.3368 56.7559 -0.0029 -23.7547 -0.0024
# 4 -0.0023 -0.0038 -0.0029 37.7167 -0.0024 -27.8246
# 5 -20.2510 -34.4077 -23.7547 -0.0024 33.7419 -0.0017
# 6 -0.0015 -0.0021 -0.0024 -27.8246 -0.0017 36.4857
#
#
#
# Elastic Compliance Matrix: (Units=1/GPa)
#
#
# Indices 1 2 3 4 5 6 
#
# 1 0.027375 -0.001978 -0.009708 0.000004 0.007579 0.000004
# 2 -0.001978 0.008239 -0.000737 0.000004 0.006695 0.000003
# 3 -0.009708 -0.000737 0.028678 0.000009 0.013611 0.000009
# 4 0.000004 0.000004 0.000009 0.060616 0.000019 0.046227
# 5 0.007579 0.006695 0.013611 0.000019 0.050596 0.000019
# 6 0.000004 0.000003 0.000009 0.046227 0.000019 0.062661
#
#
# Mechanical properties :
#
#
# Convention : Reuss Voigt Hill
#
# Bulk Modulus (GPa) = 25.35068 50.70460 38.02764
# Shear Modulus (GPa) = 18.10549 33.51331 25.80940
#
# Velocity S-wave (km/s) = 2.80809 3.82045 3.35270
# Velocity P-wave (km/s) = 4.64269 6.44547 5.61688
#
# Compressibility (1/GPa) = 0.03944667
#
# Stress axis : x y z
#
# Youngs Moduli (GPa) = 36.52948 121.37653 34.86992
#
# Poissons Ratio (x) = 0.24004 0.33851
# Poissons Ratio (y) = 0.07224 0.02571
# Poissons Ratio (z) = 0.35462 0.08949
#
# Static dielectric constant tensor:
#      x y z
#    x 1.884490 0.000000 0.002980 
#    y 0.000000 1.949670 0.000000 
#    z 0.002980 0.000000 1.908320 
# 
# From -- ./inp_files/67588.got.cif
#   From: 2010.05.17/outbox.cif.g08.bks.cpg/sg5_34_cif.got.tgz:67588.got - 2010.06.03 18:56:24.
