data_PCOD9129612
_publ_section_title
;
Structure prediction by ZEFSAII (Michael W. Deem and Ramdas Pophale) SiO2 
 PCOD9129612
Probable space group: C 2
;
_chemical_formula_sum "Si O2"
_cell_formula_units_Z 30
_cell_length_a 11.880070
_cell_length_b 7.609750
_cell_length_c 29.063852
_cell_angle_alpha 90.000000
_cell_angle_beta 151.435797
_cell_angle_gamma 90.000000
_cell_volume 1256.320847
_symmetry_space_group_name_H-M "C 2"
_symmetry_group_IT_number 5
_symmetry_cell_setting 'monoclinic'
loop_
_space_group_symop_operation_xyz
x,y,z
-x,y,-z
1/2+x,1/2+y,z
1/2-x,1/2+y,-z
loop_
_atom_site_type_symbol
_atom_site_label
_atom_site_fract_x
_atom_site_fract_y
_atom_site_fract_z
Si Si1 0.622553 0.844960 0.845837
Si Si2 0.610287 0.239319 0.143231
Si Si3 0.918447 0.928600 0.371897
Si Si4 0.847479 0.383094 0.041869
Si Si5 0.978717 0.641834 0.653816
Si Si6 0.206137 0.313230 0.693971
Si Si7 0.795541 0.711942 0.166501
Si Si8 0.000000 0.947146 0.500000
O O1 0.347757 0.871935 0.736495
O O2 0.668088 0.786664 0.914087
O O3 0.744378 0.726134 0.851296
O O4 0.725644 0.037940 0.871776
O O5 0.776529 0.261009 0.246065
O O6 0.450316 0.070300 0.092165
O O7 0.414436 0.391395 0.071434
O O8 0.988940 0.853399 0.446864
O O9 0.062223 0.831006 0.383950
O O10 0.923379 0.142031 0.374366
O O11 0.044719 0.305305 0.079217
O O12 0.736044 0.560332 0.583340
O O13 0.087150 0.504567 0.655170
O O14 0.138383 0.661805 0.756803
O O15 0.472274 0.314312 0.769023
#
# Coordination Sequence:
#
# PCOD9129612 Si02
#       8
#     4   4   4   4   4   4   4   2
#     4  11  22  47  65  91 139 182 225 294 352 398
#     4  12  24  42  68  97 141 184 238 293 344 413
#     4  11  25  48  72 104 141 180 234 292 351 429
#     4  12  26  41  65 102 136 185 240 288 345 416
#     4  12  25  47  75 100 143 183 232 294 359 421
#     4  11  24  48  73 103 139 195 234 286 362 415
#     4  11  22  45  70  95 137 182 233 287 347 422
#     4  12  26  48  72 112 140 176 236 298 350 436
#
# _framework density 23.879251
#
# number of rings (size 3 to 8) (size 9 to 14) (size 15 to 20)
#    0.000    0.533    8.000    1.200    3.733    0.533 
#    4.800    1.333    0.000    0.000    0.000    0.000 
#    0.000    0.000    0.000    0.000    0.000    0.000 
#
# Total GULP energy -83894.102807 kJ/mol
# GULP energy per Si atom -5592.940187 kJ/mol
# Density = 2.382490 g / cm^3
# Si number density = 23.879251 Si / 1000 Ang^3
#
#
#
# Elastic Constant Matrix: (Units=GPa)
#
#
# Indices 1 2 3 4 5 6 
#
# 1 117.9050 19.3395 -4.6953 0.0000 -4.8086 0.0000
# 2 19.3395 46.9451 -9.4259 0.0000 0.6624 0.0000
# 3 -4.6953 -9.4259 37.1435 -0.0001 -8.6474 0.0000
# 4 0.0000 0.0000 -0.0001 13.3967 0.0000 -2.7535
# 5 -4.8086 0.6624 -8.6474 0.0000 39.7701 0.0000
# 6 0.0000 0.0000 0.0000 -2.7535 0.0000 38.2867
#
#
#
# Elastic Compliance Matrix: (Units=1/GPa)
#
#
# Indices 1 2 3 4 5 6 
#
# 1 0.009159 -0.003687 0.000521 0.000000 0.001282 0.000000
# 2 -0.003687 0.023960 0.005707 0.000000 0.000396 0.000000
# 3 0.000521 0.005707 0.029945 0.000000 0.006479 0.000000
# 4 0.000000 0.000000 0.000000 0.075765 0.000000 0.005449
# 5 0.001282 0.000396 0.006479 0.000000 0.026702 0.000000
# 6 0.000000 0.000000 0.000000 0.005449 0.000000 0.026511
#
#
# Mechanical properties :
#
#
# Convention : Reuss Voigt Hill
#
# Bulk Modulus (GPa) = 14.67447 23.60338 19.13892
# Shear Modulus (GPa) = 23.84632 31.40907 27.62770
#
# Velocity S-wave (km/s) = 3.16352 3.63068 3.40512
# Velocity P-wave (km/s) = 4.41616 5.24230 4.84686
#
# Compressibility (1/GPa) = 0.06814556
#
# Stress axis : x y z
#
# Youngs Moduli (GPa) = 109.18041 41.73541 33.39464
#
# Poissons Ratio (x) = 0.15387 -0.01739
# Poissons Ratio (y) = 0.40252 -0.19057
# Poissons Ratio (z) = -0.05685 -0.23817
#
# Static dielectric constant tensor:
#      x y z
#    x 1.928710 0.000000 -0.023600 
#    y 0.000000 1.965490 0.000000 
#    z -0.023600 0.000000 1.915000 
# 
# From -- ./inp_files/71712.got.cif
#   From: 2010.05.17/outbox.cif.g08.bks.cpg/sg5_36_cif.got.tgz:71712.got - 2010.06.03 18:56:24.
