data_PCOD9129435
_publ_section_title
;
Structure prediction by ZEFSAII (Michael W. Deem and Ramdas Pophale) SiO2 
 PCOD9129435
Probable space group: C 2
;
_chemical_formula_sum "Si O2"
_cell_formula_units_Z 32
_cell_length_a 20.540149
_cell_length_b 8.887686
_cell_length_c 14.245920
_cell_angle_alpha 90.000000
_cell_angle_beta 35.315384
_cell_angle_gamma 90.000000
_cell_volume 1503.378333
_symmetry_space_group_name_H-M "C 2"
_symmetry_group_IT_number 5
_symmetry_cell_setting 'monoclinic'
loop_
_space_group_symop_operation_xyz
x,y,z
-x,y,-z
1/2+x,1/2+y,z
1/2-x,1/2+y,-z
loop_
_atom_site_type_symbol
_atom_site_label
_atom_site_fract_x
_atom_site_fract_y
_atom_site_fract_z
Si Si1 0.075236 0.983710 0.603859
Si Si2 0.270526 0.526660 0.409613
Si Si3 0.136131 0.124839 0.046796
Si Si4 0.111549 0.747884 0.821359
Si Si5 0.967571 0.642223 0.283873
Si Si6 0.298896 0.964909 0.977367
Si Si7 0.125676 0.244954 0.857833
Si Si8 0.275064 0.527330 0.735516
O O1 0.038802 0.809649 0.663366
O O2 0.188762 0.014401 0.531013
O O3 0.108626 0.027978 0.459049
O O4 0.978940 0.081484 0.766184
O O5 0.311760 0.375249 0.313376
O O6 0.138759 0.551066 0.551733
O O7 0.336227 0.661600 0.280824
O O8 0.175605 0.289811 0.035216
O O9 0.122840 0.133470 0.950496
O O10 0.228598 0.002251 0.967603
O O11 0.060773 0.654916 0.793493
O O12 0.188556 0.653932 0.801364
O O13 0.000000 0.814832 0.000000
O O14 0.085021 0.558470 0.159709
O O15 0.223373 0.023627 0.153976
O O16 0.215537 0.371594 0.775701
O O17 0.000000 0.310540 0.000000
#
# Coordination Sequence:
#
# PCOD9129435 Si02
#       8
#     4   4   4   4   4   4   4   4
#     4  11  23  40  66  97 135 171 216 275 327 390
#     4  11  23  36  63 102 136 169 212 273 336 377
#     4  11  26  44  71  93 129 178 225 267 329 392
#     4  11  22  36  60  99 136 173 213 271 324 385
#     4  11  23  40  63  95 138 172 215 271 326 392
#     4  11  26  46  68  92 128 181 222 268 324 400
#     4  11  22  41  68 100 131 171 218 270 330 392
#     4  11  23  39  66  98 133 171 214 269 328 391
#
# _framework density 21.285392999999999
#
# number of rings (size 3 to 8) (size 9 to 14) (size 15 to 20)
#    0.000    1.000    5.000    1.500    5.250    1.500 
#    0.000    0.625    2.750    0.000    0.000    0.000 
#    0.000    0.000    0.000    0.000    0.000    0.000 
#
# Total GULP energy -89491.849432 kJ/mol
# GULP energy per Si atom -5593.240589 kJ/mol
# Density = 2.123695 g / cm^3
# Si number density = 21.285393 Si / 1000 Ang^3
#
#
#
# Elastic Constant Matrix: (Units=GPa)
#
#
# Indices 1 2 3 4 5 6 
#
# 1 30.9330 3.7496 9.2537 0.0000 0.1822 0.0000
# 2 3.7496 39.5188 7.2669 0.0000 0.5263 0.0000
# 3 9.2537 7.2669 110.9518 0.0000 3.6537 0.0000
# 4 0.0000 0.0000 0.0000 32.3441 0.0000 -3.3870
# 5 0.1822 0.5263 3.6537 0.0000 16.1278 0.0000
# 6 0.0000 0.0000 0.0000 -3.3870 0.0000 28.0949
#
#
#
# Elastic Compliance Matrix: (Units=1/GPa)
#
#
# Indices 1 2 3 4 5 6 
#
# 1 0.033437 -0.002694 -0.002622 0.000000 0.000304 0.000000
# 2 -0.002694 0.025833 -0.001451 0.000000 -0.000484 0.000000
# 3 -0.002622 -0.001451 0.009394 0.000000 -0.002051 0.000000
# 4 0.000000 0.000000 0.000000 0.031313 0.000000 0.003775
# 5 0.000304 -0.000484 -0.002051 0.000000 0.062482 0.000000
# 6 0.000000 0.000000 0.000000 0.003775 0.000000 0.036049
#
#
# Mechanical properties :
#
#
# Convention : Reuss Voigt Hill
#
# Bulk Modulus (GPa) = 18.13937 24.66046 21.39992
# Shear Modulus (GPa) = 21.69944 26.05559 23.87751
#
# Velocity S-wave (km/s) = 3.19635 3.50252 3.35293
# Velocity P-wave (km/s) = 4.70773 5.28844 5.00651
#
# Compressibility (1/GPa) = 0.05512871
#
# Stress axis : x y z
#
# Youngs Moduli (GPa) = 29.90677 38.70955 106.44826
#
# Poissons Ratio (x) = 0.10430 0.27914
# Poissons Ratio (y) = 0.08058 0.15449
# Poissons Ratio (z) = 0.07843 0.05618
#
# Static dielectric constant tensor:
#      x y z
#    x 1.758540 0.000000 0.028090 
#    y 0.000000 1.766800 0.000000 
#    z 0.028090 0.000000 1.787350 
# 
# From -- ./inp_files/57672.got.cif
#   From: 2010.05.17/outbox.cif.g08.bks.cpg/sg5_29_cif.got.tgz:57672.got - 2010.06.03 18:56:24.
