data_PCOD9129175
_publ_section_title
;
Structure prediction by ZEFSAII (Michael W. Deem and Ramdas Pophale) SiO2 
 PCOD9129175
Probable space group: C 2
;
_chemical_formula_sum "Si O2"
_cell_formula_units_Z 26
_cell_length_a 8.820327
_cell_length_b 17.376084
_cell_length_c 11.463861
_cell_angle_alpha 90.000000
_cell_angle_beta 137.125956
_cell_angle_gamma 90.000000
_cell_volume 1195.431659
_symmetry_space_group_name_H-M "C 2"
_symmetry_group_IT_number 5
_symmetry_cell_setting 'monoclinic'
loop_
_space_group_symop_operation_xyz
x,y,z
-x,y,-z
1/2+x,1/2+y,z
1/2-x,1/2+y,-z
loop_
_atom_site_type_symbol
_atom_site_label
_atom_site_fract_x
_atom_site_fract_y
_atom_site_fract_z
Si Si1 0.604004 0.227720 0.182979
Si Si2 0.970144 0.286422 0.685450
Si Si3 0.851228 0.176226 0.801872
Si Si4 0.265724 0.069715 0.617828
Si Si5 0.873097 0.418948 0.807655
Si Si6 0.000000 0.565171 0.500000
Si Si7 0.976307 0.810871 0.312224
O O1 0.641604 0.153684 0.288223
O O2 0.449685 0.290075 0.161842
O O3 0.830509 0.275133 0.290720
O O4 0.500000 0.205611 0.000000
O O5 0.986786 0.206453 0.767486
O O6 0.982043 0.360137 0.776492
O O7 0.729231 0.295977 0.490528
O O8 0.697726 0.105641 0.683284
O O9 0.680647 0.247046 0.718743
O O10 0.000000 0.166769 0.000000
O O11 0.344436 0.044490 0.530168
O O12 0.000000 0.071825 0.500000
O O13 0.370331 0.004285 0.758362
O O14 0.621770 0.390071 0.695855
O O15 0.000000 0.411170 0.000000
#
# Coordination Sequence:
#
# PCOD9129175 Si02
#       7
#     4   4   4   4   4   2   4
#     4  12  23  39  68 107 138 173 235 294 339 412
#     4  11  21  38  68 101 134 178 231 284 344 413
#     4  11  19  36  64  98 133 176 225 284 344 405
#     4  12  26  47  70 100 140 187 229 288 358 420
#     4  11  24  46  69  95 137 184 227 284 357 421
#     4  12  24  46  70  98 146 180 238 288 354 422
#     4  11  20  39  66  98 134 180 225 280 346 416
#
# _framework density 21.749468
#
# number of rings (size 3 to 8) (size 9 to 14) (size 15 to 20)
#    0.000    0.615    3.077    8.769    0.000    0.000 
#    8.308    0.000    0.000    0.000    0.000    0.000 
#    0.000    0.000    0.000    0.000    0.000    0.000 
#
# Total GULP energy -72460.955770 kJ/mol
# GULP energy per Si atom -5573.919675 kJ/mol
# Density = 2.169997 g / cm^3
# Si number density = 21.749468 Si / 1000 Ang^3
#
#
#
# Elastic Constant Matrix: (Units=GPa)
#
#
# Indices 1 2 3 4 5 6 
#
# 1 121.8171 23.4139 10.3273 0.0000 -5.6376 0.0000
# 2 23.4139 72.6423 21.5938 0.0000 -2.7400 0.0000
# 3 10.3273 21.5938 104.6708 -0.0001 -5.9811 -0.0001
# 4 0.0000 0.0000 -0.0001 11.7933 -0.0001 -18.6191
# 5 -5.6376 -2.7400 -5.9811 -0.0001 33.4524 0.0000
# 6 0.0000 0.0000 -0.0001 -18.6191 0.0000 10.3584
#
#
#
# Elastic Compliance Matrix: (Units=1/GPa)
#
#
# Indices 1 2 3 4 5 6 
#
# 1 0.008809 -0.002723 -0.000238 0.000000 0.001219 0.000000
# 2 -0.002723 0.015522 -0.002917 0.000000 0.000291 0.000000
# 3 -0.000238 -0.002917 0.010268 0.000000 0.001557 0.000000
# 4 0.000000 0.000000 0.000000 -0.046138 0.000000 -0.082932
# 5 0.001219 0.000291 0.001557 0.000000 0.030401 0.000000
# 6 0.000000 0.000000 0.000000 -0.082932 0.000000 -0.052528
#
#
# Mechanical properties :
#
#
# Convention : Reuss Voigt Hill
#
# Bulk Modulus (GPa) = 43.77529 45.53337 44.65433
# Shear Modulus (GPa) = -349.71206 27.37384 -161.16911
#
# Velocity S-wave (km/s) = -12.69410 3.55152 -8.61762
# Velocity P-wave (km/s) = 13.95288 6.14806 8.85675
#
# Compressibility (1/GPa) = 0.02284394
#
# Stress axis : x y z
#
# Youngs Moduli (GPa) = 113.52148 64.42599 97.39043
#
# Poissons Ratio (x) = 0.17541 0.02316
# Poissons Ratio (y) = 0.30907 0.28408
# Poissons Ratio (z) = 0.02699 0.18792
#
# Static dielectric constant tensor:
#      x y z
#    x 2.014170 0.000000 0.018310 
#    y 0.000000 1.776970 0.000000 
#    z 0.018310 0.000000 1.810250 
# 
# From -- ./inp_files/37414.got.cif
#   From: 2010.05.17/outbox.cif.g08.bks.cpg/sg5_19_cif.got.tgz:37414.got - 2010.06.03 18:56:24.
