data_PCOD9129052
_publ_section_title
;
Structure prediction by ZEFSAII (Michael W. Deem and Ramdas Pophale) SiO2 
 PCOD9129052
Probable space group: C 2
;
_chemical_formula_sum "Si O2"
_cell_formula_units_Z 20
_cell_length_a 9.512156
_cell_length_b 11.128436
_cell_length_c 7.046840
_cell_angle_alpha 90.000000
_cell_angle_beta 79.681597
_cell_angle_gamma 90.000000
_cell_volume 733.882430
_symmetry_space_group_name_H-M "C 2"
_symmetry_group_IT_number 5
_symmetry_cell_setting 'monoclinic'
loop_
_space_group_symop_operation_xyz
x,y,z
-x,y,-z
1/2+x,1/2+y,z
1/2-x,1/2+y,-z
loop_
_atom_site_type_symbol
_atom_site_label
_atom_site_fract_x
_atom_site_fract_y
_atom_site_fract_z
Si Si1 0.810628 0.093770 0.393340
Si Si2 0.500000 0.262878 0.000000
Si Si3 0.638291 0.419322 0.291935
Si Si4 0.193223 0.151999 0.047536
Si Si5 0.000000 0.538723 0.500000
Si Si6 0.549010 0.820262 0.737352
O O1 0.889503 0.217931 0.420994
O O2 0.644205 0.111201 0.482717
O O3 0.819706 0.098766 0.162225
O O4 0.859366 0.970279 0.487431
O O5 0.534124 0.337127 0.186570
O O6 0.355554 0.186015 0.055226
O O7 0.638348 0.547010 0.192848
O O8 0.795247 0.361490 0.221168
O O9 0.083737 0.259128 0.123491
O O10 0.013386 0.444868 0.325170
#
# Coordination Sequence:
#
# PCOD9129052 Si02
#       6
#     4   2   4   4   2   4
#     4  11  26  50  82 119 163 219 283 337 422 510
#     4  12  30  50  84 128 168 218 284 358 428 492
#     4  11  29  52  82 121 170 224 275 355 430 503
#     4  12  29  51  85 123 169 215 294 353 417 515
#     4  10  26  46  80 120 166 216 276 350 424 498
#     4  11  25  53  83 117 165 226 277 348 421 502
#
# _framework density 27.252320999999998
#
# number of rings (size 3 to 8) (size 9 to 14) (size 15 to 20)
#    0.000    0.800    2.000    1.800   11.200    0.000 
#    0.000    6.000    0.000    0.000    0.000    0.000 
#    0.000    0.000    0.000    0.000    0.000    0.000 
#
# Total GULP energy -55867.366338 kJ/mol
# GULP energy per Si atom -5586.736634 kJ/mol
# Density = 2.719029 g / cm^3
# Si number density = 27.252321 Si / 1000 Ang^3
#
#
#
# Elastic Constant Matrix: (Units=GPa)
#
#
# Indices 1 2 3 4 5 6 
#
# 1 191.7164 35.1718 39.2241 0.0000 16.3559 0.0000
# 2 35.1718 74.0873 48.2219 0.0000 -7.8972 0.0000
# 3 39.2241 48.2219 152.5283 0.0000 4.7335 0.0000
# 4 0.0000 0.0000 0.0000 219.3472 0.0000 -182.3028
# 5 16.3559 -7.8972 4.7335 0.0000 47.3437 0.0000
# 6 0.0000 0.0000 0.0000 -182.3028 0.0000 233.4502
#
#
#
# Elastic Compliance Matrix: (Units=1/GPa)
#
#
# Indices 1 2 3 4 5 6 
#
# 1 0.006057 -0.002741 -0.000614 0.000000 -0.002488 0.000000
# 2 -0.002741 0.018793 -0.005380 0.000000 0.004620 0.000000
# 3 -0.000614 -0.005380 0.008462 0.000000 -0.001531 0.000000
# 4 0.000000 0.000000 0.000000 0.012989 0.000000 0.010144
# 5 -0.002488 0.004620 -0.001531 0.000000 0.022905 0.000000
# 6 0.000000 0.000000 0.000000 0.010144 0.000000 0.012205
#
#
# Mechanical properties :
#
#
# Convention : Reuss Voigt Hill
#
# Bulk Modulus (GPa) = 63.12077 73.72975 68.42526
# Shear Modulus (GPa) = 48.00212 119.74249 83.87230
#
# Velocity S-wave (km/s) = 4.20145 6.63580 5.55365
# Velocity P-wave (km/s) = 6.83726 9.26418 8.14166
#
# Compressibility (1/GPa) = 0.01584265
#
# Stress axis : x y z
#
# Youngs Moduli (GPa) = 165.10445 53.21139 118.17033
#
# Poissons Ratio (x) = 0.14586 0.07252
# Poissons Ratio (y) = 0.45257 0.63574
# Poissons Ratio (z) = 0.10133 0.28627
#
# Static dielectric constant tensor:
#      x y z
#    x 1.972270 0.000000 0.030430 
#    y 0.000000 2.083470 0.000000 
#    z 0.030430 0.000000 2.307530 
# 
# From -- ./inp_files/14264.got.cif
#   From: 2010.05.17/outbox.cif.g08.bks.cpg/sg5_8_cif.got.tgz:14264.got - 2010.06.03 18:56:24.
