data_PCOD9129433
_publ_section_title
;
Structure prediction by ZEFSAII (Michael W. Deem and Ramdas Pophale) SiO2 
 PCOD9129433
Probable space group: C 2
;
_chemical_formula_sum "Si O2"
_cell_formula_units_Z 28
_cell_length_a 12.988620
_cell_length_b 7.888356
_cell_length_c 17.226437
_cell_angle_alpha 90.000000
_cell_angle_beta 144.507452
_cell_angle_gamma 90.000000
_cell_volume 1024.754442
_symmetry_space_group_name_H-M "C 2"
_symmetry_group_IT_number 5
_symmetry_cell_setting 'monoclinic'
loop_
_space_group_symop_operation_xyz
x,y,z
-x,y,-z
1/2+x,1/2+y,z
1/2-x,1/2+y,-z
loop_
_atom_site_type_symbol
_atom_site_label
_atom_site_fract_x
_atom_site_fract_y
_atom_site_fract_z
Si Si1 0.463998 0.432680 0.639283
Si Si2 0.996105 0.139044 0.188339
Si Si3 0.985402 0.273846 0.402742
Si Si4 0.274428 0.426464 0.937212
Si Si5 0.024737 0.579059 0.317811
Si Si6 0.579991 0.170300 0.167955
Si Si7 0.856441 0.312871 0.855560
O O1 0.427509 0.517626 0.699531
O O2 0.433982 0.583073 0.559393
O O3 0.404913 0.240538 0.590695
O O4 0.674446 0.390633 0.772826
O O5 0.896766 0.304683 0.159310
O O6 0.149750 0.197578 0.224781
O O7 0.835879 0.047816 0.044454
O O8 0.071126 0.412159 0.397179
O O9 0.773961 0.240350 0.262736
O O10 0.000000 0.330883 0.500000
O O11 0.191088 0.551958 0.821000
O O12 0.439868 0.299127 0.044052
O O13 0.070381 0.635891 0.256104
O O14 0.545995 0.985830 0.112693
O O15 0.000000 0.231216 0.000000
#
# Coordination Sequence:
#
# PCOD9129433 Si02
#       7
#     4   4   4   4   4   4   4
#     4  11  24  43  68 100 137 185 236 296 361 424
#     4  12  20  38  60  99 156 181 225 283 358 443
#     4  11  28  52  73 100 141 189 257 315 351 413
#     4  12  20  35  65 106 145 189 221 281 369 458
#     4  12  24  44  73 105 143 188 235 293 372 443
#     4  11  24  43  70 103 147 189 237 295 370 442
#     4  11  22  36  59 101 142 189 230 277 347 448
#
# _framework density 27.323619999999998
#
# number of rings (size 3 to 8) (size 9 to 14) (size 15 to 20)
#    0.000    0.571    5.714    2.571    4.000    0.571 
#    2.571    0.000    0.000    0.000    0.000    0.000 
#    0.000    0.000    0.000    0.000    0.000    0.000 
#
# Total GULP energy -78219.659524 kJ/mol
# GULP energy per Si atom -5587.118537 kJ/mol
# Density = 2.726143 g / cm^3
# Si number density = 27.323620 Si / 1000 Ang^3
#
#
#
# Elastic Constant Matrix: (Units=GPa)
#
#
# Indices 1 2 3 4 5 6 
#
# 1 117.6205 49.4922 19.6192 0.0000 -12.4800 0.0000
# 2 49.4922 147.4314 30.6076 0.0000 -11.2848 0.0000
# 3 19.6192 30.6076 94.5473 0.0000 1.9884 0.0000
# 4 0.0000 0.0000 0.0000 41.3149 0.0000 -7.6779
# 5 -12.4800 -11.2848 1.9884 0.0000 45.4797 0.0000
# 6 0.0000 0.0000 0.0000 -7.6779 0.0000 33.3898
#
#
#
# Elastic Compliance Matrix: (Units=1/GPa)
#
#
# Indices 1 2 3 4 5 6 
#
# 1 0.010191 -0.003015 -0.001183 0.000000 0.002100 0.000000
# 2 -0.003015 0.008333 -0.002100 0.000000 0.001332 0.000000
# 3 -0.001183 -0.002100 0.011530 0.000000 -0.001350 0.000000
# 4 0.000000 0.000000 0.000000 0.025285 0.000000 0.005814
# 5 0.002100 0.001332 -0.001350 0.000000 0.022954 0.000000
# 6 0.000000 0.000000 0.000000 0.005814 0.000000 0.031286
#
#
# Mechanical properties :
#
#
# Convention : Reuss Voigt Hill
#
# Bulk Modulus (GPa) = 57.27801 62.11527 59.69664
# Shear Modulus (GPa) = 39.06465 41.36222 40.21344
#
# Velocity S-wave (km/s) = 3.78524 3.89497 3.84050
# Velocity P-wave (km/s) = 6.33344 6.55822 6.44681
#
# Compressibility (1/GPa) = 0.01745871
#
# Stress axis : x y z
#
# Youngs Moduli (GPa) = 98.13032 120.00836 86.72737
#
# Poissons Ratio (x) = 0.36178 0.10259
# Poissons Ratio (y) = 0.29583 0.18213
# Poissons Ratio (z) = 0.11607 0.25202
#
# Static dielectric constant tensor:
#      x y z
#    x 2.236720 0.000000 0.027150 
#    y 0.000000 2.196920 0.000000 
#    z 0.027150 0.000000 2.148260 
# 
# From -- ./inp_files/61481.got.cif
#   From: 2010.05.17/outbox.cif.g08.bks.cpg/sg5_31_cif.got.tgz:61481.got - 2010.06.03 18:56:24.
