data_PCOD9129899
_publ_section_title
;
Structure prediction by ZEFSAII (Michael W. Deem and Ramdas Pophale) SiO2 
 PCOD9129899
Probable space group: C 2
;
_chemical_formula_sum "Si O2"
_cell_formula_units_Z 26
_cell_length_a 22.467562
_cell_length_b 8.566259
_cell_length_c 5.463880
_cell_angle_alpha 90.000000
_cell_angle_beta 88.398504
_cell_angle_gamma 90.000000
_cell_volume 1051.183724
_symmetry_space_group_name_H-M "C 2"
_symmetry_group_IT_number 5
_symmetry_cell_setting 'monoclinic'
loop_
_space_group_symop_operation_xyz
x,y,z
-x,y,-z
1/2+x,1/2+y,z
1/2-x,1/2+y,-z
loop_
_atom_site_type_symbol
_atom_site_label
_atom_site_fract_x
_atom_site_fract_y
_atom_site_fract_z
Si Si1 0.795235 0.286950 0.027142
Si Si2 0.600688 0.214482 0.388866
Si Si3 0.500000 0.406666 0.500000
Si Si4 0.841412 0.037416 0.665003
Si Si5 0.500000 0.591637 0.000000
Si Si6 0.000000 0.511890 0.500000
Si Si7 0.094439 0.276146 0.714258
Si Si8 0.223497 0.560247 0.353205
O O1 0.826118 0.137344 0.902084
O O2 0.779123 0.409828 0.821973
O O3 0.845976 0.356435 0.193797
O O4 0.743926 0.209951 0.191804
O O5 0.557170 0.304327 0.583914
O O6 0.630323 0.370280 0.270498
O O7 0.657254 0.108821 0.446944
O O8 0.545041 0.105919 0.305244
O O9 0.512815 0.501573 0.252045
O O10 0.882862 0.144071 0.480980
O O11 0.776814 0.027396 0.536511
O O12 0.442699 0.693668 0.068224
O O13 0.048196 0.400701 0.618325
#
# Coordination Sequence:
#
# PCOD9129899 Si02
#       8
#     4   4   2   4   2   2   4   4
#     4  11  25  45  73 108 144 193 255 316 385 457
#     4  11  24  47  69 106 152 194 256 312 391 461
#     4  11  25  48  74 115 151 204 254 321 389 460
#     4  11  23  47  76 102 139 196 247 317 382 459
#     4  12  24  46  80 110 148 204 262 314 380 472
#     4  11  27  46  68 109 153 198 246 325 389 456
#     4  11  26  43  75 103 146 196 252 313 380 465
#     4  11  25  44  72 108 144 192 250 317 385 461
#
# _framework density 24.734020000000001
#
# number of rings (size 3 to 8) (size 9 to 14) (size 15 to 20)
#    0.000    0.923    1.538    4.154    4.308    6.154 
#    8.308    0.000    0.000    0.000    0.000    0.000 
#    0.000    0.000    0.000    0.000    0.000    0.000 
#
# Total GULP energy -72492.583952 kJ/mol
# GULP energy per Si atom -5576.352612 kJ/mol
# Density = 2.467772 g / cm^3
# Si number density = 24.734020 Si / 1000 Ang^3
#
#
#
# Elastic Constant Matrix: (Units=GPa)
#
#
# Indices 1 2 3 4 5 6 
#
# 1 207.8315 76.9558 37.5883 0.0000 -8.2426 0.0000
# 2 76.9558 116.8615 34.8934 0.0000 1.7113 0.0000
# 3 37.5883 34.8934 66.8024 0.0000 -8.4480 0.0000
# 4 0.0000 0.0000 0.0000 30.7172 0.0000 -7.2355
# 5 -8.2426 1.7113 -8.4480 0.0000 45.1926 0.0000
# 6 0.0000 0.0000 0.0000 -7.2355 0.0000 42.2161
#
#
#
# Elastic Compliance Matrix: (Units=1/GPa)
#
#
# Indices 1 2 3 4 5 6 
#
# 1 0.006569 -0.003883 -0.001534 0.000000 0.001058 0.000000
# 2 -0.003883 0.012522 -0.004614 0.000000 -0.002045 0.000000
# 3 -0.001534 -0.004614 0.018671 0.000000 0.003385 0.000000
# 4 0.000000 0.000000 0.000000 0.033925 0.000000 0.005814
# 5 0.001058 -0.002045 0.003385 0.000000 0.023031 0.000000
# 6 0.000000 0.000000 0.000000 0.005814 0.000000 0.024684
#
#
# Mechanical properties :
#
#
# Convention : Reuss Voigt Hill
#
# Bulk Modulus (GPa) = 56.50086 76.70784 66.60435
# Shear Modulus (GPa) = 34.39636 39.76238 37.07937
#
# Velocity S-wave (km/s) = 3.73319 4.01384 3.87605
# Velocity P-wave (km/s) = 6.44013 7.24994 6.85700
#
# Compressibility (1/GPa) = 0.01769884
#
# Stress axis : x y z
#
# Youngs Moduli (GPa) = 152.23304 79.85906 53.55900
#
# Poissons Ratio (x) = 0.31011 0.08216
# Poissons Ratio (y) = 0.59115 0.24714
# Poissons Ratio (z) = 0.23352 0.36850
#
# Static dielectric constant tensor:
#      x y z
#    x 2.054130 0.000000 0.023950 
#    y 0.000000 2.126300 0.000000 
#    z 0.023950 0.000000 1.960290 
# 
# From -- ./inp_files/10190.got.cif
#   From: 2010.05.17/outbox.cif.g08.bks.cpg/sg5_6_cif.got.tgz:10190.got - 2010.06.03 18:56:24.
