data_PCOD9129663
_publ_section_title
;
Structure prediction by ZEFSAII (Michael W. Deem and Ramdas Pophale) SiO2 
 PCOD9129663
Probable space group: C 2
;
_chemical_formula_sum "Si O2"
_cell_formula_units_Z 20
_cell_length_a 10.307087
_cell_length_b 14.800655
_cell_length_c 7.326390
_cell_angle_alpha 90.000000
_cell_angle_beta 131.724006
_cell_angle_gamma 90.000000
_cell_volume 834.170669
_symmetry_space_group_name_H-M "C 2"
_symmetry_group_IT_number 5
_symmetry_cell_setting 'monoclinic'
loop_
_space_group_symop_operation_xyz
x,y,z
-x,y,-z
1/2+x,1/2+y,z
1/2-x,1/2+y,-z
loop_
_atom_site_type_symbol
_atom_site_label
_atom_site_fract_x
_atom_site_fract_y
_atom_site_fract_z
Si Si1 0.395410 0.709900 0.232639
Si Si2 0.274219 0.535578 0.927456
Si Si3 0.257760 0.266599 0.560073
Si Si4 0.884772 0.961233 0.632855
Si Si5 0.584855 0.079156 0.270480
O O1 0.500000 0.660143 0.500000
O O2 0.319360 0.640324 0.018195
O O3 0.555769 0.767799 0.306368
O O4 0.260031 0.764355 0.232336
O O5 0.411983 0.482488 0.182334
O O6 0.320921 0.502046 0.769518
O O7 0.069533 0.528426 0.769451
O O8 0.355164 0.355348 0.593095
O O9 0.345326 0.172957 0.580159
O O10 0.746430 0.014492 0.381741
O O11 0.500000 0.106058 0.000000
#
# Coordination Sequence:
#
# PCOD9129663 Si02
#       5
#     4   4   4   4   4
#     4   8  17  38  65  89 120 172 207 258 309 384
#     4  11  23  37  67  95 133 161 218 270 320 376
#     4   9  21  41  69  92 128 174 226 251 322 401
#     4  11  25  43  63 103 129 166 222 274 316 384
#     4  12  23  42  70  93 128 179 214 264 330 385
#
# _framework density 23.975909000000001
#
# number of rings (size 3 to 8) (size 9 to 14) (size 15 to 20)
#    1.200    0.400    4.000    0.600    8.400    0.000 
#    0.000    2.000    4.400    0.000    0.000    0.000 
#    0.000    0.000    0.000    0.000    0.000    0.000 
#
# Total GULP energy -55772.025250 kJ/mol
# GULP energy per Si atom -5577.202525 kJ/mol
# Density = 2.392134 g / cm^3
# Si number density = 23.975909 Si / 1000 Ang^3
#
#
#
# Elastic Constant Matrix: (Units=GPa)
#
#
# Indices 1 2 3 4 5 6 
#
# 1 121.7079 33.5985 23.2531 0.0000 32.2371 0.0000
# 2 33.5985 125.9835 19.1796 0.0000 21.5013 0.0000
# 3 23.2531 19.1796 63.1982 0.0000 20.5982 0.0000
# 4 0.0000 0.0000 0.0000 12.3864 0.0000 -11.4181
# 5 32.2371 21.5013 20.5982 0.0000 29.8595 0.0000
# 6 0.0000 0.0000 0.0000 -11.4181 0.0000 12.1118
#
#
#
# Elastic Compliance Matrix: (Units=1/GPa)
#
#
# Indices 1 2 3 4 5 6 
#
# 1 0.011639 -0.001088 -0.000145 0.000000 -0.011682 0.000000
# 2 -0.001088 0.009183 -0.000792 0.000000 -0.004891 0.000000
# 3 -0.000145 -0.000792 0.020486 0.000000 -0.013405 0.000000
# 4 0.000000 0.000000 0.000000 0.616435 0.000000 0.581127
# 5 -0.011682 -0.004891 -0.013405 0.000000 0.058872 0.000000
# 6 0.000000 0.000000 0.000000 0.581127 0.000000 0.630406
#
#
# Mechanical properties :
#
#
# Convention : Reuss Voigt Hill
#
# Bulk Modulus (GPa) = 26.83996 51.43910 39.13953
# Shear Modulus (GPa) = 3.66706 26.52876 15.09791
#
# Velocity S-wave (km/s) = 1.23806 3.32998 2.51213
# Velocity P-wave (km/s) = 3.64178 6.02379 4.97738
#
# Compressibility (1/GPa) = 0.03725788
#
# Stress axis : x y z
#
# Youngs Moduli (GPa) = 85.92036 108.89511 48.81348
#
# Poissons Ratio (x) = 0.11849 0.00706
# Poissons Ratio (y) = 0.09349 0.03868
# Poissons Ratio (z) = 0.01242 0.08628
#
# Static dielectric constant tensor:
#      x y z
#    x 2.040230 0.000000 -0.018990 
#    y 0.000000 1.853620 0.000000 
#    z -0.018990 0.000000 2.049680 
# 
# From -- ./inp_files/19872.got.cif
#   From: 2010.05.17/outbox.cif.g08.bks.cpg/sg5_10_cif.got.tgz:19872.got - 2010.06.03 18:56:24.
