data_PCOD9129604
_publ_section_title
;
Structure prediction by ZEFSAII (Michael W. Deem and Ramdas Pophale) SiO2 
 PCOD9129604
Probable space group: C 2
;
_chemical_formula_sum "Si O2"
_cell_formula_units_Z 30
_cell_length_a 13.966001
_cell_length_b 12.865841
_cell_length_c 9.415485
_cell_angle_alpha 90.000000
_cell_angle_beta 111.286852
_cell_angle_gamma 90.000000
_cell_volume 1576.390444
_symmetry_space_group_name_H-M "C 2"
_symmetry_group_IT_number 5
_symmetry_cell_setting 'monoclinic'
loop_
_space_group_symop_operation_xyz
x,y,z
-x,y,-z
1/2+x,1/2+y,z
1/2-x,1/2+y,-z
loop_
_atom_site_type_symbol
_atom_site_label
_atom_site_fract_x
_atom_site_fract_y
_atom_site_fract_z
Si Si1 0.773640 0.373920 0.379427
Si Si2 0.366958 0.564110 0.770532
Si Si3 0.764993 0.450446 0.807832
Si Si4 0.714013 0.247434 0.599223
Si Si5 0.371443 0.835457 0.127997
Si Si6 0.500000 0.131112 0.500000
Si Si7 0.563819 0.966652 0.316474
Si Si8 0.394524 0.589859 0.115717
O O1 0.691404 0.466778 0.329357
O O2 0.730364 0.276751 0.443450
O O3 0.810495 0.349917 0.241791
O O4 0.870977 0.413248 0.522814
O O5 0.302214 0.667296 0.696691
O O6 0.485302 0.571408 0.787199
O O7 0.369836 0.551096 0.942815
O O8 0.721910 0.354989 0.690480
O O9 0.854703 0.500228 0.759308
O O10 0.679239 0.531118 0.813673
O O11 0.815937 0.397440 0.972761
O O12 0.603723 0.196490 0.561323
O O13 0.484228 0.884837 0.208732
O O14 0.377877 0.713405 0.101986
O O15 0.504935 0.059791 0.361825
#
# Coordination Sequence:
#
# PCOD9129604 Si02
#       8
#     4   4   4   4   4   2   4   4
#     4  11  23  41  65  93 132 166 217 270 331 398
#     4  11  22  45  65  92 132 178 217 267 338 397
#     4  11  25  43  64 100 133 166 230 274 335 395
#     4  11  25  43  67  96 131 177 215 280 334 398
#     4  12  22  42  68  97 130 170 221 278 325 393
#     4  12  24  44  72  90 138 174 228 266 352 388
#     4  11  23  42  67  96 128 175 220 278 326 398
#     4  11  25  39  68  96 129 175 220 273 333 399
#
# _framework density 19.030818
#
# number of rings (size 3 to 8) (size 9 to 14) (size 15 to 20)
#    0.000    0.800    5.333    2.000    5.600    0.000 
#    0.000    2.667    0.000    0.000    0.000    0.000 
#    0.000    0.000    0.000    0.000    0.000    0.000 
#
# Total GULP energy -83859.839685 kJ/mol
# GULP energy per Si atom -5590.655979 kJ/mol
# Density = 1.898750 g / cm^3
# Si number density = 19.030818 Si / 1000 Ang^3
#
#
#
# Elastic Constant Matrix: (Units=GPa)
#
#
# Indices 1 2 3 4 5 6 
#
# 1 136.2434 49.2093 34.5357 0.0000 -11.5630 0.0000
# 2 49.2093 46.0248 10.8997 0.0000 10.6830 0.0000
# 3 34.5357 10.8997 66.9099 0.0000 -7.2896 0.0000
# 4 0.0000 0.0000 0.0000 18.6942 0.0000 -6.0245
# 5 -11.5630 10.6830 -7.2896 0.0000 38.3877 0.0000
# 6 0.0000 0.0000 0.0000 -6.0245 0.0000 40.3243
#
#
#
# Elastic Compliance Matrix: (Units=1/GPa)
#
#
# Indices 1 2 3 4 5 6 
#
# 1 0.015516 -0.017641 -0.004177 0.000000 0.008790 0.000000
# 2 -0.017641 0.044747 -0.000122 0.000000 -0.017790 0.000000
# 3 -0.004177 -0.000122 0.017347 0.000000 0.002070 0.000000
# 4 0.000000 0.000000 0.000000 0.056198 0.000000 0.008396
# 5 0.008790 -0.017790 0.002070 0.000000 0.034041 0.000000
# 6 0.000000 0.000000 0.000000 0.008396 0.000000 0.026053
#
#
# Mechanical properties :
#
#
# Convention : Reuss Voigt Hill
#
# Bulk Modulus (GPa) = 29.64756 48.71860 39.18308
# Shear Modulus (GPa) = 20.07810 29.78346 24.93078
#
# Velocity S-wave (km/s) = 3.25165 3.96032 3.62335
# Velocity P-wave (km/s) = 5.45070 6.82404 6.17567
#
# Compressibility (1/GPa) = 0.03372959
#
# Stress axis : x y z
#
# Youngs Moduli (GPa) = 64.44803 22.34784 57.64669
#
# Poissons Ratio (x) = 0.39424 0.24082
# Poissons Ratio (y) = 1.13692 0.00704
# Poissons Ratio (z) = 0.26923 0.00273
#
# Static dielectric constant tensor:
#      x y z
#    x 1.661760 0.000000 -0.014610 
#    y 0.000000 1.647660 0.000000 
#    z -0.014610 0.000000 1.645580 
# 
# From -- ./inp_files/23833.got.cif
#   From: 2010.05.17/outbox.cif.g08.bks.cpg/sg5_12_cif.got.tgz:23833.got - 2010.06.03 18:56:24.
