data_PCOD9129192
_publ_section_title
;
Structure prediction by ZEFSAII (Michael W. Deem and Ramdas Pophale) SiO2 
 PCOD9129192
Probable space group: C 2
;
_chemical_formula_sum "Si O2"
_cell_formula_units_Z 24
_cell_length_a 11.671201
_cell_length_b 14.705216
_cell_length_c 6.893142
_cell_angle_alpha 90.000000
_cell_angle_beta 111.816019
_cell_angle_gamma 90.000000
_cell_volume 1098.325016
_symmetry_space_group_name_H-M "C 2"
_symmetry_group_IT_number 5
_symmetry_cell_setting 'monoclinic'
loop_
_space_group_symop_operation_xyz
x,y,z
-x,y,-z
1/2+x,1/2+y,z
1/2-x,1/2+y,-z
loop_
_atom_site_type_symbol
_atom_site_label
_atom_site_fract_x
_atom_site_fract_y
_atom_site_fract_z
Si Si1 0.125588 0.784670 0.199917
Si Si2 0.676649 0.119542 0.786802
Si Si3 0.112204 0.597754 0.309846
Si Si4 0.538740 0.901029 0.297869
Si Si5 0.276396 0.308388 0.328326
Si Si6 0.265506 0.924553 0.030930
O O1 0.166246 0.677703 0.209777
O O2 0.127366 0.795986 0.435291
O O3 0.209151 0.865349 0.170423
O O4 0.000000 0.792596 0.000000
O O5 0.679147 0.097734 0.558182
O O6 0.532082 0.123464 0.752204
O O7 0.727665 0.221485 0.817007
O O8 0.695631 0.392670 0.794137
O O9 0.101579 0.492568 0.251793
O O10 0.500000 0.916922 0.500000
O O11 0.641870 0.824217 0.340320
O O12 0.407650 0.890142 0.111767
O O13 0.234680 0.532055 0.927619
#
# Coordination Sequence:
#
# PCOD9129192 Si02
#       6
#     4   4   4   4   4   4
#     4  11  23  38  61  96 130 162 205 255 311 367
#     4   9  18  37  60  90 125 159 206 255 301 365
#     4   9  17  35  64  90 121 159 201 259 307 356
#     4  11  19  40  65  92 125 162 205 260 312 363
#     4  11  23  37  64  95 127 164 205 258 316 364
#     4  11  22  40  63  93 124 166 208 258 308 372
#
# _framework density 21.851455999999999
#
# number of rings (size 3 to 8) (size 9 to 14) (size 15 to 20)
#    0.000    1.667    5.000    1.500    0.000    6.000 
#    0.000    1.667    0.000    2.000    4.333    0.000 
#    0.000    0.000    0.000    0.000    0.000    0.000 
#
# Total GULP energy -66962.892741 kJ/mol
# GULP energy per Si atom -5580.241062 kJ/mol
# Density = 2.180172 g / cm^3
# Si number density = 21.851456 Si / 1000 Ang^3
#
#
#
# Elastic Constant Matrix: (Units=GPa)
#
#
# Indices 1 2 3 4 5 6 
#
# 1 50.4231 56.2563 6.0797 0.0000 -12.7827 0.0000
# 2 56.2563 164.0225 46.1697 0.0000 -2.9885 0.0000
# 3 6.0797 46.1697 126.0506 0.0000 -16.0661 0.0000
# 4 0.0000 0.0000 0.0000 42.8820 0.0000 -9.6283
# 5 -12.7827 -2.9885 -16.0661 0.0000 25.9175 0.0000
# 6 0.0000 0.0000 0.0000 -9.6283 0.0000 46.8139
#
#
#
# Elastic Compliance Matrix: (Units=1/GPa)
#
#
# Indices 1 2 3 4 5 6 
#
# 1 0.043269 -0.016359 0.006932 0.000000 0.023752 0.000000
# 2 -0.016359 0.012999 -0.005222 0.000000 -0.009807 0.000000
# 3 0.006932 -0.005222 0.010718 0.000000 0.009461 0.000000
# 4 0.000000 0.000000 0.000000 0.024449 0.000000 0.005028
# 5 0.023752 -0.009807 0.009461 0.000000 0.055032 0.000000
# 6 0.000000 0.000000 0.000000 0.005028 0.000000 0.022395
#
#
# Mechanical properties :
#
#
# Convention : Reuss Voigt Hill
#
# Bulk Modulus (GPa) = 26.53370 61.94528 44.23949
# Shear Modulus (GPa) = 23.72794 38.58872 31.15833
#
# Velocity S-wave (km/s) = 3.29884 4.20689 3.78023
# Velocity P-wave (km/s) = 5.16516 7.21159 6.27240
#
# Compressibility (1/GPa) = 0.03768792
#
# Stress axis : x y z
#
# Youngs Moduli (GPa) = 23.11120 76.93036 93.30504
#
# Poissons Ratio (x) = 1.25850 -0.64682
# Poissons Ratio (y) = 0.37808 0.48725
# Poissons Ratio (z) = -0.16021 0.40174
#
# Static dielectric constant tensor:
#      x y z
#    x 1.841540 0.000000 -0.077850 
#    y 0.000000 1.853130 0.000000 
#    z -0.077850 0.000000 1.869690 
# 
# From -- ./inp_files/24260.got.cif
#   From: 2010.05.17/outbox.cif.g08.bks.cpg/sg5_13_cif.got.tgz:24260.got - 2010.06.03 18:56:24.
