data_PCOD9129626
_publ_section_title
;
Structure prediction by ZEFSAII (Michael W. Deem and Ramdas Pophale) SiO2 
 PCOD9129626
Probable space group: C 2
;
_chemical_formula_sum "Si O2"
_cell_formula_units_Z 32
_cell_length_a 22.936730
_cell_length_b 14.497962
_cell_length_c 8.277053
_cell_angle_alpha 90.000000
_cell_angle_beta 32.281141
_cell_angle_gamma 90.000000
_cell_volume 1469.994513
_symmetry_space_group_name_H-M "C 2"
_symmetry_group_IT_number 5
_symmetry_cell_setting 'monoclinic'
loop_
_space_group_symop_operation_xyz
x,y,z
-x,y,-z
1/2+x,1/2+y,z
1/2-x,1/2+y,-z
loop_
_atom_site_type_symbol
_atom_site_label
_atom_site_fract_x
_atom_site_fract_y
_atom_site_fract_z
Si Si1 0.095646 0.718120 0.395424
Si Si2 0.949654 0.102009 0.357405
Si Si3 0.383903 0.082401 0.355247
Si Si4 0.311048 0.847650 0.186799
Si Si5 0.572432 0.395810 0.670547
Si Si6 0.826115 0.162447 0.322218
Si Si7 0.962051 0.384412 0.256878
Si Si8 0.166808 0.248208 0.207172
O O1 0.123455 0.641406 0.463933
O O2 0.062397 0.809783 0.573172
O O3 0.000000 0.689636 0.500000
O O4 0.207174 0.738432 0.038371
O O5 0.869785 0.133306 0.395857
O O6 0.894738 0.151134 0.637972
O O7 0.955388 0.992307 0.347595
O O8 0.069566 0.139327 0.034857
O O9 0.281112 0.107458 0.484425
O O10 0.392733 0.974401 0.377629
O O11 0.500000 0.106309 0.000000
O O12 0.198381 0.900436 0.432018
O O13 0.299218 0.770371 0.354611
O O14 0.418842 0.909563 0.951063
O O15 0.329166 0.790056 0.980295
O O16 0.500000 0.383475 0.000000
O O17 0.899539 0.316670 0.521229
O O18 0.000000 0.337806 0.000000
#
# Coordination Sequence:
#
# PCOD9129626 Si02
#       8
#     4   4   4   4   4   4   4   4
#     4  11  27  45  64 100 139 188 226 270 354 414
#     4  11  25  41  74 102 132 183 233 288 333 403
#     4  11  26  45  70 102 137 183 227 287 339 406
#     4  11  24  43  69  98 139 181 224 282 346 402
#     4  11  24  45  67 100 137 182 227 281 338 402
#     4  11  22  46  68 102 134 175 239 273 343 399
#     4  11  25  41  69 105 129 175 235 279 342 395
#     4  11  24  45  66  98 135 180 225 284 339 400
#
# _framework density 21.768789000000002
#
# number of rings (size 3 to 8) (size 9 to 14) (size 15 to 20)
#    0.000    1.000    5.000    1.500    5.250    5.000 
#    2.250    0.000    0.000    0.000    0.000    0.000 
#    0.000    0.000    0.000    0.000    0.000    0.000 
#
# Total GULP energy -89492.253694 kJ/mol
# GULP energy per Si atom -5593.265856 kJ/mol
# Density = 2.171924 g / cm^3
# Si number density = 21.768789 Si / 1000 Ang^3
#
#
#
# Elastic Constant Matrix: (Units=GPa)
#
#
# Indices 1 2 3 4 5 6 
#
# 1 76.8153 -12.0756 29.7572 0.0000 -26.2090 0.0000
# 2 -12.0756 67.5387 12.7067 0.0000 2.1040 0.0000
# 3 29.7572 12.7067 125.2739 0.0000 -9.3737 0.0000
# 4 0.0000 0.0000 0.0000 27.0609 0.0000 -13.1660
# 5 -26.2090 2.1040 -9.3737 0.0000 43.8379 0.0000
# 6 0.0000 0.0000 0.0000 -13.1660 0.0000 21.2054
#
#
#
# Elastic Compliance Matrix: (Units=1/GPa)
#
#
# Indices 1 2 3 4 5 6 
#
# 1 0.018623 0.003778 -0.004052 0.000000 0.010086 0.000000
# 2 0.003778 0.015910 -0.002438 0.000000 0.000974 0.000000
# 3 -0.004052 -0.002438 0.009167 0.000000 -0.000346 0.000000
# 4 0.000000 0.000000 0.000000 0.052948 0.000000 0.032875
# 5 0.010086 0.000974 -0.000346 0.000000 0.028721 0.000000
# 6 0.000000 0.000000 0.000000 0.032875 0.000000 0.067569
#
#
# Mechanical properties :
#
#
# Convention : Reuss Voigt Hill
#
# Bulk Modulus (GPa) = 26.12682 36.71161 31.41921
# Shear Modulus (GPa) = 23.68301 34.37015 29.02658
#
# Velocity S-wave (km/s) = 3.30196 3.97781 3.65554
# Velocity P-wave (km/s) = 5.15415 6.16427 5.68171
#
# Compressibility (1/GPa) = 0.03827485
#
# Stress axis : x y z
#
# Youngs Moduli (GPa) = 53.69603 62.85272 109.09261
#
# Poissons Ratio (x) = -0.23745 0.44207
# Poissons Ratio (y) = -0.20286 0.26600
# Poissons Ratio (z) = 0.21759 0.15326
#
# Static dielectric constant tensor:
#      x y z
#    x 1.848750 0.000000 -0.013180 
#    y 0.000000 1.782940 0.000000 
#    z -0.013180 0.000000 1.772630 
# 
# From -- ./inp_files/31074.got.cif
#   From: 2010.05.17/outbox.cif.g08.bks.cpg/sg5_16_cif.got.tgz:31074.got - 2010.06.03 18:56:24.
