data_PCOD9129149
_publ_section_title
;
Structure prediction by ZEFSAII (Michael W. Deem and Ramdas Pophale) SiO2 
 PCOD9129149
Probable space group: C 2
;
_chemical_formula_sum "Si O2"
_cell_formula_units_Z 16
_cell_length_a 12.832643
_cell_length_b 6.608705
_cell_length_c 22.332916
_cell_angle_alpha 90.000000
_cell_angle_beta 158.904599
_cell_angle_gamma 90.000000
_cell_volume 681.688879
_symmetry_space_group_name_H-M "C 2"
_symmetry_group_IT_number 5
_symmetry_cell_setting 'monoclinic'
loop_
_space_group_symop_operation_xyz
x,y,z
-x,y,-z
1/2+x,1/2+y,z
1/2-x,1/2+y,-z
loop_
_atom_site_type_symbol
_atom_site_label
_atom_site_fract_x
_atom_site_fract_y
_atom_site_fract_z
Si Si1 0.500000 0.548800 0.000000
Si Si2 0.911379 0.335975 0.717429
Si Si3 0.000000 0.471388 0.500000
Si Si4 0.224733 0.830733 0.754041
Si Si5 0.880190 0.151156 0.531585
O O1 0.232949 0.405566 0.874112
O O2 0.422828 0.703976 0.904712
O O3 0.865622 0.354004 0.764419
O O4 0.723412 0.488289 0.574435
O O5 0.777818 0.112548 0.638509
O O6 0.023373 0.331035 0.570745
O O7 0.913744 0.717393 0.593453
O O8 0.111437 0.060436 0.701978
#
# Coordination Sequence:
#
# PCOD9129149 Si02
#       5
#     2   4   2   4   4
#     4  10  28  50  74 118 160 192 254 296 410 446
#     4  11  23  50  75 113 147 204 249 321 368 444
#     4  12  20  44  84 112 142 190 266 316 356 444
#     4  11  22  49  76 109 154 197 248 321 367 453
#     4  11  23  43  81 117 141 195 275 304 368 441
#
# _framework density 23.471118000000001
#
# number of rings (size 3 to 8) (size 9 to 14) (size 15 to 20)
#    0.000    1.000    5.000    1.500    0.000    0.000 
#   13.500    1.250    0.000    0.000    0.000    0.000 
#    0.000    0.000    0.000    0.000    0.000    0.000 
#
# Total GULP energy -44647.127640 kJ/mol
# GULP energy per Si atom -5580.890955 kJ/mol
# Density = 2.341770 g / cm^3
# Si number density = 23.471118 Si / 1000 Ang^3
#
#
#
# Elastic Constant Matrix: (Units=GPa)
#
#
# Indices 1 2 3 4 5 6 
#
# 1 172.7616 69.3798 76.3008 0.0018 14.0799 0.0000
# 2 69.3798 152.7848 78.4005 0.0060 5.7901 0.0000
# 3 76.3008 78.4005 122.4908 0.0184 17.7239 0.0014
# 4 0.0018 0.0060 0.0184 26.6571 0.0015 -2.7443
# 5 14.0799 5.7901 17.7239 0.0015 27.5298 -0.0005
# 6 0.0000 0.0000 0.0014 -2.7443 -0.0005 63.8039
#
#
#
# Elastic Compliance Matrix: (Units=1/GPa)
#
#
# Indices 1 2 3 4 5 6 
#
# 1 0.008304 -0.001738 -0.003858 0.000003 -0.001398 0.000000
# 2 -0.001738 0.010229 -0.005824 0.000002 0.002487 0.000000
# 3 -0.003858 -0.005824 0.015253 -0.000009 -0.006622 -0.000001
# 4 0.000003 0.000002 -0.000009 0.037680 0.000002 0.001621
# 5 -0.001398 0.002487 -0.006622 0.000002 0.040779 0.000001
# 6 0.000000 0.000000 -0.000001 0.001621 0.000001 0.015743
#
#
# Mechanical properties :
#
#
# Convention : Reuss Voigt Hill
#
# Bulk Modulus (GPa) = 91.36324 99.57771 95.47047
# Shear Modulus (GPa) = 32.36721 38.52857 35.44789
#
# Velocity S-wave (km/s) = 3.71755 4.05598 3.89044
# Velocity P-wave (km/s) = 7.57873 8.02822 7.80671
#
# Compressibility (1/GPa) = 0.01094532
#
# Stress axis : x y z
#
# Youngs Moduli (GPa) = 120.42117 97.76271 65.56136
#
# Poissons Ratio (x) = 0.16994 0.25293
# Poissons Ratio (y) = 0.20933 0.38183
# Poissons Ratio (z) = 0.46457 0.56938
#
# Static dielectric constant tensor:
#      x y z
#    x 1.956050 0.000000 -0.010940 
#    y 0.000000 1.992600 0.000000 
#    z -0.010940 0.000000 1.900200 
# 
# From -- ./inp_files/40881.got.cif
#   From: 2010.05.17/outbox.cif.g08.bks.cpg/sg5_21_cif.got.tgz:40881.got - 2010.06.03 18:56:24.
