data_PCOD9129492
_publ_section_title
;
Structure prediction by ZEFSAII (Michael W. Deem and Ramdas Pophale) SiO2 
 PCOD9129492
Probable space group: C 2
;
_chemical_formula_sum "Si O2"
_cell_formula_units_Z 30
_cell_length_a 12.583659
_cell_length_b 16.452379
_cell_length_c 15.990665
_cell_angle_alpha 90.000000
_cell_angle_beta 25.504940
_cell_angle_gamma 90.000000
_cell_volume 1425.492764
_symmetry_space_group_name_H-M "C 2"
_symmetry_group_IT_number 5
_symmetry_cell_setting 'monoclinic'
loop_
_space_group_symop_operation_xyz
x,y,z
-x,y,-z
1/2+x,1/2+y,z
1/2-x,1/2+y,-z
loop_
_atom_site_type_symbol
_atom_site_label
_atom_site_fract_x
_atom_site_fract_y
_atom_site_fract_z
Si Si1 0.026543 0.674780 0.706820
Si Si2 0.279735 0.248109 0.587862
Si Si3 0.746780 0.432133 0.457868
Si Si4 0.734271 0.509661 0.892599
Si Si5 0.709311 0.476597 0.099259
Si Si6 0.880272 0.297442 0.995623
Si Si7 0.000000 0.039266 0.500000
Si Si8 0.579403 0.126479 0.860991
O O1 0.842858 0.601249 0.813092
O O2 0.209408 0.685924 0.497819
O O3 0.093596 0.660712 0.756306
O O4 0.887962 0.760233 0.808616
O O5 0.500000 0.236153 0.500000
O O6 0.290634 0.339293 0.542643
O O7 0.029454 0.249210 0.818955
O O8 0.532455 0.460236 0.673516
O O9 0.695902 0.484930 0.410392
O O10 0.022229 0.453111 0.293909
O O11 0.500000 0.498795 0.000000
O O12 0.641194 0.491753 0.051962
O O13 0.868388 0.393534 0.990085
O O14 0.881322 0.552702 0.001490
O O15 0.000000 0.282590 0.000000
O O16 0.855199 0.091540 0.670921
O O17 0.500000 0.176670 0.000000
#
# Coordination Sequence:
#
# PCOD9129492 Si02
#       8
#     4   4   4   4   4   4   2   4
#     4  11  25  41  63 100 137 175 223 276 349 409
#     4  12  23  39  68 102 135 170 222 294 345 389
#     4  12  22  40  73 101 129 170 227 285 334 404
#     4  11  26  46  64  97 141 184 225 270 334 422
#     4  11  22  40  70 100 127 172 224 283 336 396
#     4  12  22  39  67  99 136 171 220 288 346 397
#     4  12  20  38  68 104 126 156 224 278 344 396
#     4  11  23  40  66  96 134 173 215 279 341 408
#
# _framework density 21.045354
#
# number of rings (size 3 to 8) (size 9 to 14) (size 15 to 20)
#    0.000    0.533    8.667    0.800    0.000    3.733 
#    0.000    0.667    2.933    0.000    0.000    0.000 
#    0.000    0.000    0.000    0.000    0.000    0.000 
#
# Total GULP energy -83717.539492 kJ/mol
# GULP energy per Si atom -5581.169299 kJ/mol
# Density = 2.099745 g / cm^3
# Si number density = 21.045354 Si / 1000 Ang^3
#
#
#
# Elastic Constant Matrix: (Units=GPa)
#
#
# Indices 1 2 3 4 5 6 
#
# 1 120.8750 19.7768 50.6781 -0.0056 18.3676 -0.0186
# 2 19.7768 42.7483 6.2524 0.1118 15.1882 -0.0244
# 3 50.6781 6.2524 120.4617 0.2209 30.9112 -0.0504
# 4 -0.0056 0.1118 0.2209 36.6747 -0.0321 17.3082
# 5 18.3676 15.1882 30.9112 -0.0321 40.8659 0.0123
# 6 -0.0186 -0.0244 -0.0504 17.3082 0.0123 11.6008
#
#
#
# Elastic Compliance Matrix: (Units=1/GPa)
#
#
# Indices 1 2 3 4 5 6 
#
# 1 0.010797 -0.004380 -0.004328 0.000156 0.000049 -0.000244
# 2 -0.004380 0.028938 0.003222 -0.000526 -0.011224 0.000865
# 3 -0.004328 0.003222 0.012116 -0.000405 -0.008417 0.000665
# 4 0.000156 -0.000526 -0.000405 0.092178 0.000545 -0.137532
# 5 0.000049 -0.011224 -0.008417 0.000545 0.034988 -0.000911
# 6 -0.000244 0.000865 0.000665 -0.137532 -0.000911 0.291403
#
#
# Mechanical properties :
#
#
# Convention : Reuss Voigt Hill
#
# Bulk Modulus (GPa) = 24.46233 48.61107 36.53670
# Shear Modulus (GPa) = 10.10069 31.65345 20.87707
#
# Velocity S-wave (km/s) = 2.19315 3.88243 3.15303
# Velocity P-wave (km/s) = 4.24995 6.57617 5.53661
#
# Compressibility (1/GPa) = 0.04087918
#
# Stress axis : x y z
#
# Youngs Moduli (GPa) = 92.62181 34.55722 82.53700
#
# Poissons Ratio (x) = 0.15135 0.35720
# Poissons Ratio (y) = 0.40567 -0.26595
# Poissons Ratio (z) = 0.40084 -0.11135
#
# Static dielectric constant tensor:
#      x y z
#    x 1.762000 0.000010 0.000540 
#    y 0.000010 1.798040 -0.000030 
#    z 0.000540 -0.000030 1.777490 
# 
# From -- ./inp_files/53404.got.cif
#   From: 2010.05.17/outbox.cif.g08.bks.cpg/sg5_27_cif.got.tgz:53404.got - 2010.06.03 18:56:24.
