data_PCOD9129537
_publ_section_title
;
Structure prediction by ZEFSAII (Michael W. Deem and Ramdas Pophale) SiO2 
 PCOD9129537
Probable space group: C 2
;
_chemical_formula_sum "Si O2"
_cell_formula_units_Z 26
_cell_length_a 19.947005
_cell_length_b 9.127702
_cell_length_c 7.584549
_cell_angle_alpha 90.000000
_cell_angle_beta 128.856699
_cell_angle_gamma 90.000000
_cell_volume 1075.347547
_symmetry_space_group_name_H-M "C 2"
_symmetry_group_IT_number 5
_symmetry_cell_setting 'monoclinic'
loop_
_space_group_symop_operation_xyz
x,y,z
-x,y,-z
1/2+x,1/2+y,z
1/2-x,1/2+y,-z
loop_
_atom_site_type_symbol
_atom_site_label
_atom_site_fract_x
_atom_site_fract_y
_atom_site_fract_z
Si Si1 0.241949 0.802330 0.950130
Si Si2 0.500000 0.141235 0.000000
Si Si3 0.968127 0.115331 0.628948
Si Si4 0.428198 0.284943 0.526134
Si Si5 0.178289 0.506854 0.201321
Si Si6 0.809635 0.220989 0.568765
Si Si7 0.840722 0.052047 0.978180
O O1 0.164434 0.738078 0.700090
O O2 0.296909 0.924877 0.936776
O O3 0.307295 0.666988 0.072057
O O4 0.195255 0.893394 0.027968
O O5 0.542911 0.231550 0.233203
O O6 0.578230 0.046388 0.050227
O O7 0.920926 0.961543 0.511301
O O8 0.000000 0.186769 0.500000
O O9 0.902817 0.210966 0.631328
O O10 0.056259 0.061018 0.863380
O O11 0.500000 0.243635 0.500000
O O12 0.203049 0.385958 0.389081
O O13 0.235348 0.649939 0.328783
O O14 0.812050 0.119363 0.746209
#
# Coordination Sequence:
#
# PCOD9129537 Si02
#       7
#     4   2   4   4   4   4   4
#     4  11  24  45  68 102 142 181 240 293 345 431
#     4  12  28  44  74 102 144 192 224 302 368 410
#     4  11  22  42  68 100 137 184 232 290 345 422
#     4  11  24  47  69 105 142 181 241 286 350 439
#     4  11  26  46  68 101 141 184 238 291 358 424
#     4  11  25  44  72 100 145 182 243 292 352 432
#     4  11  24  40  72  98 138 185 231 296 356 405
#
# _framework density 24.178229999999999
#
# number of rings (size 3 to 8) (size 9 to 14) (size 15 to 20)
#    0.000    0.923    4.615    2.308    8.615    2.462 
#    0.000    0.769    0.000    0.000    0.000    0.000 
#    0.000    0.000    0.000    0.000    0.000    0.000 
#
# Total GULP energy -72748.552976 kJ/mol
# GULP energy per Si atom -5596.042537 kJ/mol
# Density = 2.412320 g / cm^3
# Si number density = 24.178230 Si / 1000 Ang^3
#
#
#
# Elastic Constant Matrix: (Units=GPa)
#
#
# Indices 1 2 3 4 5 6 
#
# 1 141.6982 38.8379 31.4161 0.0000 7.8570 0.0000
# 2 38.8379 96.7630 39.3192 0.0000 2.7632 0.0000
# 3 31.4161 39.3192 67.2886 0.0000 7.0425 0.0000
# 4 0.0000 0.0000 0.0000 33.3992 0.0000 -1.3312
# 5 7.8570 2.7632 7.0425 0.0000 46.3993 0.0000
# 6 0.0000 0.0000 0.0000 -1.3312 0.0000 33.7480
#
#
#
# Elastic Compliance Matrix: (Units=1/GPa)
#
#
# Indices 1 2 3 4 5 6 
#
# 1 0.008277 -0.002314 -0.002419 0.000000 -0.000897 0.000000
# 2 -0.002314 0.014207 -0.007289 0.000000 0.000652 0.000000
# 3 -0.002419 -0.007289 0.020487 0.000000 -0.002266 0.000000
# 4 0.000000 0.000000 0.000000 0.029988 0.000000 0.001183
# 5 -0.000897 0.000652 -0.002266 0.000000 0.022009 0.000000
# 6 0.000000 0.000000 0.000000 0.001183 0.000000 0.029678
#
#
# Mechanical properties :
#
#
# Convention : Reuss Voigt Hill
#
# Bulk Modulus (GPa) = 52.83359 58.32183 55.57771
# Shear Modulus (GPa) = 32.25821 35.78776 34.02298
#
# Velocity S-wave (km/s) = 3.65661 3.85146 3.75530
# Velocity P-wave (km/s) = 6.30293 6.62966 6.46836
#
# Compressibility (1/GPa) = 0.01892735
#
# Stress axis : x y z
#
# Youngs Moduli (GPa) = 120.81036 70.38956 48.81096
#
# Poissons Ratio (x) = 0.16287 0.11806
# Poissons Ratio (y) = 0.27954 0.35580
# Poissons Ratio (z) = 0.29220 0.51310
#
# Static dielectric constant tensor:
#      x y z
#    x 1.954050 0.000000 -0.049420 
#    y 0.000000 1.866690 0.000000 
#    z -0.049420 0.000000 1.986400 
# 
# From -- ./inp_files/29150.got.cif
#   From: 2010.05.17/outbox.cif.g08.bks.cpg/sg5_15_cif.got.tgz:29150.got - 2010.06.03 18:56:24.
