data_PCOD9129507
_publ_section_title
;
Structure prediction by ZEFSAII (Michael W. Deem and Ramdas Pophale) SiO2 
 PCOD9129507
Probable space group: C 2
;
_chemical_formula_sum "Si O2"
_cell_formula_units_Z 24
_cell_length_a 21.111976
_cell_length_b 13.870931
_cell_length_c 12.261318
_cell_angle_alpha 90.000000
_cell_angle_beta 162.321639
_cell_angle_gamma 90.000000
_cell_volume 1090.380767
_symmetry_space_group_name_H-M "C 2"
_symmetry_group_IT_number 5
_symmetry_cell_setting 'monoclinic'
loop_
_space_group_symop_operation_xyz
x,y,z
-x,y,-z
1/2+x,1/2+y,z
1/2-x,1/2+y,-z
loop_
_atom_site_type_symbol
_atom_site_label
_atom_site_fract_x
_atom_site_fract_y
_atom_site_fract_z
Si Si1 0.220038 0.205550 0.404384
Si Si2 0.511281 0.019906 0.893983
Si Si3 0.959049 0.818244 0.197094
Si Si4 0.331715 0.718034 0.124117
Si Si5 0.985149 0.022521 0.604233
Si Si6 0.117361 0.331671 0.445427
O O1 0.376547 0.116769 0.670231
O O2 0.320901 0.282000 0.486458
O O3 0.181421 0.259779 0.454128
O O4 0.000000 0.169403 0.000000
O O5 0.420634 0.937513 0.665984
O O6 0.500000 0.982921 0.000000
O O7 0.747254 0.046253 0.246866
O O8 0.879384 0.746988 0.161881
O O9 0.798486 0.821838 0.832584
O O10 0.961121 0.925459 0.246024
O O11 0.500000 0.719699 0.500000
O O12 0.361120 0.612359 0.121375
O O13 0.406619 0.795804 0.159102
O O14 0.000000 0.004218 0.500000
#
# Coordination Sequence:
#
# PCOD9129507 Si02
#       6
#     4   4   4   4   4   4
#     4  12  26  43  64  94 129 171 218 266 321 382
#     4  12  25  43  66  94 129 172 216 265 320 380
#     4  11  23  42  68  97 131 170 212 265 322 380
#     4   9  20  39  65  93 126 166 208 257 317 376
#     4  11  22  41  67  96 130 172 214 262 319 381
#     4  11  23  42  66  96 130 167 212 265 321 383
#
# _framework density 22.010660000000001
#
# number of rings (size 3 to 8) (size 9 to 14) (size 15 to 20)
#    0.000    1.000    0.000    9.000    0.000    4.000 
#    0.000    0.000    0.000   10.000    0.000    0.000 
#    0.000    0.000    0.000    0.000    0.000    0.000 
#
# Total GULP energy -67207.256112 kJ/mol
# GULP energy per Si atom -5600.604676 kJ/mol
# Density = 2.196056 g / cm^3
# Si number density = 22.010660 Si / 1000 Ang^3
#
#
#
# Elastic Constant Matrix: (Units=GPa)
#
#
# Indices 1 2 3 4 5 6 
#
# 1 145.5102 44.5323 39.2859 0.0000 24.0234 0.0000
# 2 44.5323 120.3910 23.4419 0.0000 -4.4191 0.0000
# 3 39.2859 23.4419 67.5924 0.0000 18.0217 0.0000
# 4 0.0000 0.0000 0.0000 25.2366 0.0000 4.8309
# 5 24.0234 -4.4191 18.0217 0.0000 20.7655 0.0000
# 6 0.0000 0.0000 0.0000 4.8309 0.0000 39.9332
#
#
#
# Elastic Compliance Matrix: (Units=1/GPa)
#
#
# Indices 1 2 3 4 5 6 
#
# 1 0.010419 -0.003961 -0.001618 0.000000 -0.011492 0.000000
# 2 -0.003961 0.011018 -0.004379 0.000000 0.010727 0.000000
# 3 -0.001618 -0.004379 0.022122 0.000000 -0.018259 0.000000
# 4 0.000000 0.000000 0.000000 0.040564 0.000000 -0.004907
# 5 -0.011492 0.010727 -0.018259 0.000000 0.079581 0.000000
# 6 0.000000 0.000000 0.000000 -0.004907 0.000000 0.025636
#
#
# Mechanical properties :
#
#
# Convention : Reuss Voigt Hill
#
# Bulk Modulus (GPa) = 42.29609 60.89044 51.59327
# Shear Modulus (GPa) = 23.02707 32.26928 27.64817
#
# Velocity S-wave (km/s) = 3.23798 3.83309 3.54803
# Velocity P-wave (km/s) = 5.76517 6.87853 6.34632
#
# Compressibility (1/GPa) = 0.02364285
#
# Stress axis : x y z
#
# Youngs Moduli (GPa) = 95.98228 90.76254 45.20390
#
# Poissons Ratio (x) = 0.35948 0.07313
# Poissons Ratio (y) = 0.38015 0.19796
# Poissons Ratio (z) = 0.15529 0.39747
#
# Static dielectric constant tensor:
#      x y z
#    x 1.784650 0.000000 -0.007190 
#    y 0.000000 1.793240 0.000000 
#    z -0.007190 0.000000 1.802000 
# 
# From -- ./inp_files/46580.got.cif
#   From: 2010.05.17/outbox.cif.g08.bks.cpg/sg5_24_cif.got.tgz:46580.got - 2010.06.03 18:56:24.
