data_PCOD9129645
_publ_section_title
;
Structure prediction by ZEFSAII (Michael W. Deem and Ramdas Pophale) SiO2 
 PCOD9129645
Probable space group: C 2
;
_chemical_formula_sum "Si O2"
_cell_formula_units_Z 32
_cell_length_a 9.168042
_cell_length_b 11.418029
_cell_length_c 14.694788
_cell_angle_alpha 90.000000
_cell_angle_beta 81.840842
_cell_angle_gamma 90.000000
_cell_volume 1522.693799
_symmetry_space_group_name_H-M "C 2"
_symmetry_group_IT_number 5
_symmetry_cell_setting 'monoclinic'
loop_
_space_group_symop_operation_xyz
x,y,z
-x,y,-z
1/2+x,1/2+y,z
1/2-x,1/2+y,-z
loop_
_atom_site_type_symbol
_atom_site_label
_atom_site_fract_x
_atom_site_fract_y
_atom_site_fract_z
Si Si1 0.496209 0.166590 0.899800
Si Si2 0.081019 0.272694 0.736968
Si Si3 0.117573 0.914245 0.674642
Si Si4 0.656444 0.367527 0.168399
Si Si5 0.157859 0.649738 0.621806
Si Si6 0.128928 0.130770 0.554431
Si Si7 0.798924 0.121708 0.799790
Si Si8 0.589674 0.016077 0.266219
O O1 0.403250 0.286153 0.906272
O O2 0.661928 0.194734 0.851004
O O3 0.428540 0.079744 0.829663
O O4 0.500000 0.115716 0.000000
O O5 0.212310 0.298110 0.794427
O O6 0.141806 0.217727 0.638359
O O7 0.954907 0.185831 0.786452
O O8 0.001816 0.395894 0.725886
O O9 0.169013 0.789658 0.631546
O O10 0.977680 0.886021 0.749125
O O11 0.081454 0.005364 0.598487
O O12 0.246448 0.979569 0.719982
O O13 0.703739 0.500128 0.145367
O O14 0.226640 0.616252 0.519752
O O15 0.254885 0.599639 0.697886
O O16 0.993961 0.602360 0.655839
O O17 0.000000 0.176269 0.500000
#
# Coordination Sequence:
#
# PCOD9129645 Si02
#       8
#     4   4   4   4   4   4   4   4
#     4  11  25  49  72 103 139 167 227 292 338 418
#     4  12  23  42  74  96 136 192 223 274 345 410
#     4  12  24  43  70  94 140 189 227 284 343 404
#     4  12  23  45  73 100 131 186 226 270 359 411
#     4  11  23  42  63  98 137 185 234 288 325 395
#     4  12  25  39  61 101 139 178 241 285 324 393
#     4  11  22  47  67  97 142 178 222 276 347 406
#     4  11  23  46  69  95 137 184 223 280 357 404
#
# _framework density 21.015385999999999
#
# number of rings (size 3 to 8) (size 9 to 14) (size 15 to 20)
#    0.000    0.500    8.750    0.750    1.750    0.500 
#    4.500    0.625    0.000    0.000    0.000    0.000 
#    0.000    0.000    0.000    0.000    0.000    0.000 
#
# Total GULP energy -89457.076208 kJ/mol
# GULP energy per Si atom -5591.067263 kJ/mol
# Density = 2.096755 g / cm^3
# Si number density = 21.015386 Si / 1000 Ang^3
#
#
#
# Elastic Constant Matrix: (Units=GPa)
#
#
# Indices 1 2 3 4 5 6 
#
# 1 128.6819 14.1622 24.7452 0.0000 8.3885 0.0000
# 2 14.1622 94.2175 9.0294 0.0000 11.6502 0.0000
# 3 24.7452 9.0294 54.8188 0.0000 -3.3095 0.0000
# 4 0.0000 0.0000 0.0000 19.8781 0.0000 3.0291
# 5 8.3885 11.6502 -3.3095 0.0000 14.8163 0.0000
# 6 0.0000 0.0000 0.0000 3.0291 0.0000 45.3725
#
#
#
# Elastic Compliance Matrix: (Units=1/GPa)
#
#
# Indices 1 2 3 4 5 6 
#
# 1 0.009026 -0.000201 -0.004400 0.000000 -0.005935 0.000000
# 2 -0.000201 0.012118 -0.002507 0.000000 -0.009974 0.000000
# 3 -0.004400 -0.002507 0.021196 0.000000 0.009197 0.000000
# 4 0.000000 0.000000 0.000000 0.050824 0.000000 -0.003393
# 5 -0.005935 -0.009974 0.009197 0.000000 0.080750 0.000000
# 6 0.000000 0.000000 0.000000 -0.003393 0.000000 0.022266
#
#
# Mechanical properties :
#
#
# Convention : Reuss Voigt Hill
#
# Bulk Modulus (GPa) = 35.55716 41.51018 38.53367
# Shear Modulus (GPa) = 22.75098 31.33216 27.04157
#
# Velocity S-wave (km/s) = 3.29384 3.86543 3.59102
# Velocity P-wave (km/s) = 5.60555 6.30216 5.96403
#
# Compressibility (1/GPa) = 0.02812373
#
# Stress axis : x y z
#
# Youngs Moduli (GPa) = 110.78935 82.52444 47.17853
#
# Poissons Ratio (x) = 0.01661 0.20756
# Poissons Ratio (y) = 0.02230 0.11829
# Poissons Ratio (z) = 0.48742 0.20691
#
# Static dielectric constant tensor:
#      x y z
#    x 1.802450 0.000000 0.013880 
#    y 0.000000 1.786060 0.000000 
#    z 0.013880 0.000000 1.725010 
# 
# From -- ./inp_files/50501.got.cif
#   From: 2010.05.17/outbox.cif.g08.bks.cpg/sg5_26_cif.got.tgz:50501.got - 2010.06.03 18:56:24.
