data_PCOD9129248
_publ_section_title
;
Structure prediction by ZEFSAII (Michael W. Deem and Ramdas Pophale) SiO2 
 PCOD9129248
Probable space group: C 2
;
_chemical_formula_sum "Si O2"
_cell_formula_units_Z 32
_cell_length_a 10.843933
_cell_length_b 16.347178
_cell_length_c 15.912351
_cell_angle_alpha 90.000000
_cell_angle_beta 147.331149
_cell_angle_gamma 90.000000
_cell_volume 1522.589988
_symmetry_space_group_name_H-M "C 2"
_symmetry_group_IT_number 5
_symmetry_cell_setting 'monoclinic'
loop_
_space_group_symop_operation_xyz
x,y,z
-x,y,-z
1/2+x,1/2+y,z
1/2-x,1/2+y,-z
loop_
_atom_site_type_symbol
_atom_site_label
_atom_site_fract_x
_atom_site_fract_y
_atom_site_fract_z
Si Si1 0.150442 0.140270 0.669107
Si Si2 0.497598 0.288496 0.896714
Si Si3 0.525158 0.587745 0.769737
Si Si4 0.258450 0.946936 0.321125
Si Si5 0.029581 0.327820 0.918273
Si Si6 0.232953 0.573764 0.826254
Si Si7 0.039948 0.520361 0.893524
Si Si8 0.303484 0.201465 0.319004
O O1 0.341670 0.210828 0.783965
O O2 0.286121 0.054857 0.751808
O O3 0.000000 0.148428 0.500000
O O4 0.005835 0.136120 0.671699
O O5 0.379158 0.368963 0.790005
O O6 0.500000 0.294319 0.000000
O O7 0.750009 0.287033 0.000312
O O8 0.388486 0.502138 0.698162
O O9 0.406384 0.645098 0.770333
O O10 0.785160 0.567884 0.944512
O O11 0.500000 0.924366 0.500000
O O12 0.298249 0.005833 0.263913
O O13 0.052132 0.424699 0.919259
O O14 0.798399 0.291370 0.746279
O O15 0.000000 0.309015 0.000000
O O16 0.122675 0.540913 0.847509
O O17 0.131209 0.658484 0.731603
O O18 0.500000 0.584496 0.000000
O O19 0.500000 0.193999 0.500000
#
# Coordination Sequence:
#
# PCOD9129248 Si02
#       8
#     4   4   4   4   4   4   4   4
#     4  12  29  43  68 101 143 187 232 290 362 416
#     4  12  25  49  73 103 139 194 244 289 347 432
#     4  11  22  46  68 100 138 184 234 287 349 423
#     4  11  23  40  73 105 141 176 232 299 351 412
#     4  12  26  44  72 105 140 184 241 292 353 421
#     4  11  20  40  71 102 128 181 236 278 338 423
#     4  12  24  44  70  98 138 185 236 279 347 432
#     4  11  25  41  71 103 141 176 232 297 351 408
#
# _framework density 21.016819000000002
#
# number of rings (size 3 to 8) (size 9 to 14) (size 15 to 20)
#    0.000    0.500    3.750    6.750    5.250    0.500 
#    0.000    2.500    0.000    0.000    0.000    0.000 
#    0.000    0.000    0.000    0.000    0.000    0.000 
#
# Total GULP energy -89488.173809 kJ/mol
# GULP energy per Si atom -5593.010863 kJ/mol
# Density = 2.096898 g / cm^3
# Si number density = 21.016819 Si / 1000 Ang^3
#
#
#
# Elastic Constant Matrix: (Units=GPa)
#
#
# Indices 1 2 3 4 5 6 
#
# 1 91.9416 16.8265 10.0119 -0.0004 -16.5810 -0.0005
# 2 16.8265 75.6902 45.1273 0.0011 -3.7952 0.0004
# 3 10.0119 45.1273 109.1976 0.0000 -4.7650 -0.0002
# 4 -0.0004 0.0011 0.0000 16.8029 0.0007 -3.0940
# 5 -16.5810 -3.7952 -4.7650 0.0007 30.2390 0.0002
# 6 -0.0005 0.0004 -0.0002 -3.0940 0.0002 13.1840
#
#
#
# Elastic Compliance Matrix: (Units=1/GPa)
#
#
# Indices 1 2 3 4 5 6 
#
# 1 0.012510 -0.002573 0.000203 0.000000 0.006569 0.000001
# 2 -0.002573 0.018095 -0.007254 -0.000001 -0.000283 -0.000001
# 3 0.000203 -0.007254 0.012186 0.000000 0.001121 0.000000
# 4 0.000000 -0.000001 0.000000 0.062201 -0.000001 0.014597
# 5 0.006569 -0.000283 0.001121 -0.000001 0.036813 -0.000001
# 6 0.000001 -0.000001 0.000000 0.014597 -0.000001 0.079275
#
#
# Mechanical properties :
#
#
# Convention : Reuss Voigt Hill
#
# Bulk Modulus (GPa) = 42.47690 46.75120 44.61405
# Shear Modulus (GPa) = 20.14706 25.70277 22.92491
#
# Velocity S-wave (km/s) = 3.09951 3.50088 3.30629
# Velocity P-wave (km/s) = 5.75014 6.21567 5.98743
#
# Compressibility (1/GPa) = 0.02354221
#
# Stress axis : x y z
#
# Youngs Moduli (GPa) = 79.93738 55.26526 82.06173
#
# Poissons Ratio (x) = 0.14217 -0.01664
# Poissons Ratio (y) = 0.20565 0.59530
# Poissons Ratio (z) = -0.01621 0.40091
#
# Static dielectric constant tensor:
#      x y z
#    x 1.919550 0.000000 -0.004220 
#    y 0.000000 1.751140 0.000000 
#    z -0.004220 0.000000 1.727300 
# 
# From -- ./inp_files/53485.got.cif
#   From: 2010.05.17/outbox.cif.g08.bks.cpg/sg5_27_cif.got.tgz:53485.got - 2010.06.03 18:56:24.
