data_PCOD9129609
_publ_section_title
;
Structure prediction by ZEFSAII (Michael W. Deem and Ramdas Pophale) SiO2 
 PCOD9129609
Probable space group: C 2
;
_chemical_formula_sum "Si O2"
_cell_formula_units_Z 18
_cell_length_a 12.323622
_cell_length_b 7.345994
_cell_length_c 7.290791
_cell_angle_alpha 90.000000
_cell_angle_beta 94.796811
_cell_angle_gamma 90.000000
_cell_volume 657.718120
_symmetry_space_group_name_H-M "C 2"
_symmetry_group_IT_number 5
_symmetry_cell_setting 'monoclinic'
loop_
_space_group_symop_operation_xyz
x,y,z
-x,y,-z
1/2+x,1/2+y,z
1/2-x,1/2+y,-z
loop_
_atom_site_type_symbol
_atom_site_label
_atom_site_fract_x
_atom_site_fract_y
_atom_site_fract_z
Si Si1 0.500000 0.383350 0.500000
Si Si2 0.122213 0.776012 0.196407
Si Si3 0.319910 0.247008 0.194353
Si Si4 0.086589 0.370478 0.268060
Si Si5 0.644037 0.836755 0.706400
O O1 0.572240 0.427308 0.325305
O O2 0.393710 0.307474 0.375867
O O3 0.062785 0.584272 0.227179
O O4 0.247586 0.721121 0.260548
O O5 0.124381 0.817611 0.983069
O O6 0.194370 0.307801 0.180415
O O7 0.320556 0.029290 0.205193
O O8 0.116377 0.353765 0.487545
O O9 0.969300 0.278105 0.219413
#
# Coordination Sequence:
#
# PCOD9129609 Si02
#       5
#     2   4   4   4   4
#     4  12  22  44  66  96 136 172 218 268 332 382
#     4  12  24  42  71  98 130 176 221 266 327 390
#     4  12  24  42  71  98 130 176 221 266 327 390
#     4  11  22  45  69  96 134 175 214 271 329 384
#     4  11  22  45  69  96 134 175 214 271 329 384
#
# _framework density 27.367348
#
# number of rings (size 3 to 8) (size 9 to 14) (size 15 to 20)
#    0.000    0.444    6.667    2.000    0.000    2.667 
#    4.000    0.000    0.000    0.000    0.000    0.000 
#    0.000    0.000    0.000    0.000    0.000    0.000 
#
# Total GULP energy -50317.966766 kJ/mol
# GULP energy per Si atom -5590.885196 kJ/mol
# Density = 2.730506 g / cm^3
# Si number density = 27.367348 Si / 1000 Ang^3
#
#
#
# Elastic Constant Matrix: (Units=GPa)
#
#
# Indices 1 2 3 4 5 6 
#
# 1 213.6546 37.2058 35.3374 0.0000 -19.8934 0.0000
# 2 37.2058 52.5512 11.4937 0.0000 2.2498 0.0000
# 3 35.3374 11.4937 144.3708 0.0000 -22.7739 0.0000
# 4 0.0000 0.0000 0.0000 9.7877 0.0000 17.1089
# 5 -19.8934 2.2498 -22.7739 0.0000 60.8181 0.0000
# 6 0.0000 0.0000 0.0000 17.1089 0.0000 30.7974
#
#
#
# Elastic Compliance Matrix: (Units=1/GPa)
#
#
# Indices 1 2 3 4 5 6 
#
# 1 0.005650 -0.003896 -0.000806 0.000000 0.001690 0.000000
# 2 -0.003896 0.022162 -0.001213 0.000000 -0.002548 0.000000
# 3 -0.000806 -0.001213 0.007637 0.000000 0.002641 0.000000
# 4 0.000000 0.000000 0.000000 3.531713 0.000000 -1.961982
# 5 0.001690 -0.002548 0.002641 0.000000 0.018079 0.000000
# 6 0.000000 0.000000 0.000000 -1.961982 0.000000 1.122416
#
#
# Mechanical properties :
#
#
# Convention : Reuss Voigt Hill
#
# Bulk Modulus (GPa) = 42.33894 64.29451 53.31673
# Shear Modulus (GPa) = 1.05767 42.04994 21.55381
#
# Velocity S-wave (km/s) = 0.62234 3.92407 2.80942
# Velocity P-wave (km/s) = 4.00257 6.63892 5.48160
#
# Compressibility (1/GPa) = 0.02361892
#
# Stress axis : x y z
#
# Youngs Moduli (GPa) = 177.00413 45.12293 130.94056
#
# Poissons Ratio (x) = 0.17580 0.10554
# Poissons Ratio (y) = 0.68960 0.15879
# Poissons Ratio (z) = 0.14267 0.05472
#
# Static dielectric constant tensor:
#      x y z
#    x 2.171030 0.000000 -0.018570 
#    y 0.000000 2.115720 0.000000 
#    z -0.018570 0.000000 2.098900 
# 
# From -- ./inp_files/18343.got.cif
#   From: 2010.05.17/outbox.cif.g08.bks.cpg/sg5_10_cif.got.tgz:18343.got - 2010.06.03 18:56:24.
