data_PCOD9129345
_publ_section_title
;
Structure prediction by ZEFSAII (Michael W. Deem and Ramdas Pophale) SiO2 
 PCOD9129345
Probable space group: C 2
;
_chemical_formula_sum "Si O2"
_cell_formula_units_Z 32
_cell_length_a 14.533270
_cell_length_b 16.561848
_cell_length_c 12.784982
_cell_angle_alpha 90.000000
_cell_angle_beta 31.111621
_cell_angle_gamma 90.000000
_cell_volume 1590.071284
_symmetry_space_group_name_H-M "C 2"
_symmetry_group_IT_number 5
_symmetry_cell_setting 'monoclinic'
loop_
_space_group_symop_operation_xyz
x,y,z
-x,y,-z
1/2+x,1/2+y,z
1/2-x,1/2+y,-z
loop_
_atom_site_type_symbol
_atom_site_label
_atom_site_fract_x
_atom_site_fract_y
_atom_site_fract_z
Si Si1 0.051943 0.840710 0.827567
Si Si2 0.198480 0.580361 0.340299
Si Si3 0.248622 0.964825 0.907780
Si Si4 0.613947 0.612776 0.160187
Si Si5 0.952651 0.665858 0.925094
Si Si6 0.226363 0.543406 0.553640
Si Si7 0.948037 0.230057 0.159717
Si Si8 0.610596 0.877131 0.624856
O O1 0.255154 0.857598 0.600872
O O2 0.924925 0.910179 0.908350
O O3 0.002313 0.753277 0.831158
O O4 0.000000 0.838336 0.000000
O O5 0.201681 0.542443 0.452143
O O6 0.310201 0.662058 0.250155
O O7 0.000000 0.602433 0.500000
O O8 0.257586 0.512528 0.197903
O O9 0.226861 0.036691 0.010872
O O10 0.422477 0.910490 0.762285
O O11 0.420475 0.582018 0.384912
O O12 0.586095 0.673281 0.089359
O O13 0.741528 0.654366 0.118962
O O14 0.076012 0.600237 0.748438
O O15 0.000000 0.663102 0.000000
O O16 0.195383 0.450102 0.611057
O O17 0.899369 0.297864 0.292315
O O18 0.000000 0.271873 0.000000
#
# Coordination Sequence:
#
# PCOD9129345 Si02
#       8
#     4   4   4   4   4   4   4   4
#     4  11  25  40  66 103 136 172 227 290 356 408
#     4  11  21  40  70 105 135 182 232 292 354 419
#     4  12  23  39  71 101 140 177 226 288 353 412
#     4  11  22  44  70  99 134 181 237 289 346 424
#     4  11  25  47  69  93 137 192 234 287 349 427
#     4  11  23  40  70 100 134 184 238 290 351 426
#     4  11  25  42  69 103 147 184 231 297 361 423
#     4  12  24  44  63 101 146 181 229 292 350 422
#
# _framework density 20.124884999999999
#
# number of rings (size 3 to 8) (size 9 to 14) (size 15 to 20)
#    0.000    0.750    5.000    3.000    1.750    1.000 
#    2.250    2.500    0.000    0.000    0.000    0.000 
#    0.000    0.000    0.000    0.000    0.000    0.000 
#
# Total GULP energy -89269.909647 kJ/mol
# GULP energy per Si atom -5579.369353 kJ/mol
# Density = 2.007908 g / cm^3
# Si number density = 20.124885 Si / 1000 Ang^3
#
#
#
# Elastic Constant Matrix: (Units=GPa)
#
#
# Indices 1 2 3 4 5 6 
#
# 1 94.3624 38.5888 39.2110 -0.0009 -32.8276 0.0005
# 2 38.5888 119.6570 39.8649 0.0001 1.4297 -0.0005
# 3 39.2110 39.8649 92.6949 -0.0024 -11.1904 0.0007
# 4 -0.0009 0.0001 -0.0024 1.2472 0.0007 16.7860
# 5 -32.8276 1.4297 -11.1904 0.0007 30.2678 -0.0001
# 6 0.0005 -0.0005 0.0007 16.7860 -0.0001 24.2447
#
#
#
# Elastic Compliance Matrix: (Units=1/GPa)
#
#
# Indices 1 2 3 4 5 6 
#
# 1 0.023339 -0.006411 -0.004211 0.000000 0.024058 0.000000
# 2 -0.006411 0.011646 -0.003352 0.000002 -0.008743 -0.000001
# 3 -0.004211 -0.003352 0.014108 -0.000003 0.000807 0.000002
# 4 0.000000 0.000002 -0.000003 -0.096388 0.000000 0.066735
# 5 0.024058 -0.008743 0.000807 0.000000 0.059843 -0.000001
# 6 0.000000 -0.000001 0.000002 0.066735 -0.000001 -0.004958
#
#
# Mechanical properties :
#
#
# Convention : Reuss Voigt Hill
#
# Bulk Modulus (GPa) = 47.29266 60.22707 53.75986
# Shear Modulus (GPa) = 117.40948 23.75525 70.58236
#
# Velocity S-wave (km/s) = 7.64638 3.43941 5.92860
# Velocity P-wave (km/s) = 10.07506 6.76494 8.58112
#
# Compressibility (1/GPa) = 0.02114493
#
# Stress axis : x y z
#
# Youngs Moduli (GPa) = 42.84742 85.86646 70.87985
#
# Poissons Ratio (x) = 0.55050 0.29847
# Poissons Ratio (y) = 0.27470 0.23759
# Poissons Ratio (z) = 0.18043 0.28782
#
# Static dielectric constant tensor:
#      x y z
#    x 1.725520 0.000000 -0.006810 
#    y 0.000000 1.780020 0.000000 
#    z -0.006810 0.000000 1.769880 
# 
# From -- ./inp_files/43368.got.cif
#   From: 2010.05.17/outbox.cif.g08.bks.cpg/sg5_22_cif.got.tgz:43368.got - 2010.06.03 18:56:24.
