data_PCOD9129137
_publ_section_title
;
Structure prediction by ZEFSAII (Michael W. Deem and Ramdas Pophale) SiO2 
 PCOD9129137
Probable space group: C 2
;
_chemical_formula_sum "Si O2"
_cell_formula_units_Z 26
_cell_length_a 9.465972
_cell_length_b 14.179302
_cell_length_c 16.704045
_cell_angle_alpha 90.000000
_cell_angle_beta 145.382395
_cell_angle_gamma 90.000000
_cell_volume 1273.690588
_symmetry_space_group_name_H-M "C 2"
_symmetry_group_IT_number 5
_symmetry_cell_setting 'monoclinic'
loop_
_space_group_symop_operation_xyz
x,y,z
-x,y,-z
1/2+x,1/2+y,z
1/2-x,1/2+y,-z
loop_
_atom_site_type_symbol
_atom_site_label
_atom_site_fract_x
_atom_site_fract_y
_atom_site_fract_z
Si Si1 0.776966 0.881330 0.956533
Si Si2 0.017610 0.052761 0.695547
Si Si3 0.656502 0.176853 0.744524
Si Si4 0.186867 0.159502 0.929778
Si Si5 0.933621 0.559878 0.774314
Si Si6 0.500000 0.144038 0.500000
Si Si7 0.296179 0.372466 0.144481
O O1 0.696663 0.771374 0.916562
O O2 0.551585 0.954728 0.837263
O O3 0.884782 0.891517 0.096122
O O4 0.000000 0.899615 0.000000
O O5 0.169509 0.105706 0.837574
O O6 0.151704 0.070923 0.673598
O O7 0.736576 0.083334 0.581201
O O8 0.063432 0.943301 0.732660
O O9 0.489231 0.100785 0.712598
O O10 0.572641 0.199408 0.614600
O O11 0.667022 0.268198 0.805304
O O12 0.936151 0.139561 0.862922
O O13 0.407119 0.122051 0.087844
O O14 0.000000 0.390358 0.000000
#
# Coordination Sequence:
#
# PCOD9129137 Si02
#       7
#     4   4   4   4   4   2   4
#     4  12  23  33  59 109 136 156 197 253 354 397
#     4  11  23  42  64  90 134 170 214 262 312 397
#     4  11  23  42  66  90 134 172 216 262 309 394
#     4  11  20  37  61  99 136 161 198 269 342 381
#     4  12  21  36  66  99 128 161 211 276 332 374
#     4  10  28  48  60  84 128 192 226 248 308 372
#     4  12  20  41  70 102 128 160 205 277 343 373
#
# _framework density 20.413122000000001
#
# number of rings (size 3 to 8) (size 9 to 14) (size 15 to 20)
#    0.000    0.615    6.154    2.769    2.154    0.615 
#    0.000    6.154    0.000    0.000    0.000    0.000 
#    0.000    0.000    0.000    0.000    0.000    0.000 
#
# Total GULP energy -72611.063679 kJ/mol
# GULP energy per Si atom -5585.466437 kJ/mol
# Density = 2.036666 g / cm^3
# Si number density = 20.413122 Si / 1000 Ang^3
#
#
#
# Elastic Constant Matrix: (Units=GPa)
#
#
# Indices 1 2 3 4 5 6 
#
# 1 176.2644 21.6277 30.2277 0.0000 -0.7038 -0.0001
# 2 21.6277 62.2788 -12.2235 -0.0001 2.0451 0.0000
# 3 30.2277 -12.2235 47.8052 -0.0002 3.2882 0.0000
# 4 0.0000 -0.0001 -0.0002 11.6228 0.0000 0.3799
# 5 -0.7038 2.0451 3.2882 0.0000 28.6304 0.0000
# 6 -0.0001 0.0000 0.0000 0.3799 0.0000 16.2838
#
#
#
# Elastic Compliance Matrix: (Units=1/GPa)
#
#
# Indices 1 2 3 4 5 6 
#
# 1 0.007045 -0.003547 -0.005434 0.000000 0.001051 0.000000
# 2 -0.003547 0.018776 0.007199 0.000000 -0.002255 0.000000
# 3 -0.005434 0.007199 0.026448 0.000001 -0.003685 0.000000
# 4 0.000000 0.000000 0.000001 0.086103 0.000000 -0.002009
# 5 0.001051 -0.002255 -0.003685 0.000000 0.035538 0.000000
# 6 0.000000 0.000000 0.000000 -0.002009 0.000000 0.061458
#
#
# Mechanical properties :
#
#
# Convention : Reuss Voigt Hill
#
# Bulk Modulus (GPa) = 20.53200 40.62360 30.57780
# Shear Modulus (GPa) = 19.59505 27.75516 23.67511
#
# Velocity S-wave (km/s) = 3.10163 3.69137 3.40928
# Velocity P-wave (km/s) = 4.78611 6.17351 5.52355
#
# Compressibility (1/GPa) = 0.04870445
#
# Stress axis : x y z
#
# Youngs Moduli (GPa) = 141.95323 53.26024 37.80974
#
# Poissons Ratio (x) = 0.18893 0.20545
# Poissons Ratio (y) = 0.50356 -0.27219
# Poissons Ratio (z) = 0.77133 -0.38342
#
# Static dielectric constant tensor:
#      x y z
#    x 1.761770 0.000000 0.004370 
#    y 0.000000 1.740980 0.000000 
#    z 0.004370 0.000000 1.726000 
# 
# From -- ./inp_files/35811.got.cif
#   From: 2010.05.17/outbox.cif.g08.bks.cpg/sg5_18_cif.got.tgz:35811.got - 2010.06.03 18:56:24.
