data_PCOD9129458
_publ_section_title
;
Structure prediction by ZEFSAII (Michael W. Deem and Ramdas Pophale) SiO2 
 PCOD9129458
Probable space group: C 2
;
_chemical_formula_sum "Si O2"
_cell_formula_units_Z 24
_cell_length_a 8.759563
_cell_length_b 27.849556
_cell_length_c 7.569046
_cell_angle_alpha 90.000000
_cell_angle_beta 35.800555
_cell_angle_gamma 90.000000
_cell_volume 1080.120322
_symmetry_space_group_name_H-M "C 2"
_symmetry_group_IT_number 5
_symmetry_cell_setting 'monoclinic'
loop_
_space_group_symop_operation_xyz
x,y,z
-x,y,-z
1/2+x,1/2+y,z
1/2-x,1/2+y,-z
loop_
_atom_site_type_symbol
_atom_site_label
_atom_site_fract_x
_atom_site_fract_y
_atom_site_fract_z
Si Si1 0.583440 0.294530 0.115174
Si Si2 0.773948 0.694578 0.843202
Si Si3 0.265426 0.608573 0.855012
Si Si4 0.918837 0.352441 0.283292
Si Si5 0.499573 0.961628 0.215642
Si Si6 0.498319 0.512629 0.717846
O O1 0.662558 0.248265 0.153094
O O2 0.348364 0.324374 0.426114
O O3 0.500000 0.277757 0.000000
O O4 0.836904 0.327543 0.852299
O O5 0.000000 0.678787 0.500000
O O6 0.500000 0.694214 0.000000
O O7 0.776816 0.656931 0.998735
O O8 0.500000 0.617658 0.500000
O O9 0.373542 0.564518 0.872122
O O10 0.000000 0.594510 0.000000
O O11 0.905914 0.408207 0.347612
O O12 0.000000 0.350399 0.000000
O O13 0.500000 0.964788 0.000000
O O14 0.293915 0.999719 0.486232
O O15 0.796541 0.973802 0.983184
O O16 0.500000 0.510058 0.500000
#
# Coordination Sequence:
#
# PCOD9129458 Si02
#       6
#     4   4   4   4   4   4
#     4  12  25  42  63  89 123 160 203 253 309 367
#     4  12  26  44  65  89 122 160 203 252 309 371
#     4  11  22  39  65  95 125 158 203 254 304 357
#     4  11  22  39  64  93 124 161 205 252 301 356
#     4   9  17  30  54  88 120 154 198 244 287 341
#     4   9  16  30  54  88 122 153 194 245 290 340
#
# _framework density 22.219746000000001
#
# number of rings (size 3 to 8) (size 9 to 14) (size 15 to 20)
#    0.000    1.333    0.000    8.500    0.000    4.000 
#    0.000    0.000    0.000   10.000    0.000    0.000 
#    0.000    0.000    0.000    0.000    0.000    0.000 
#
# Total GULP energy -67123.366903 kJ/mol
# GULP energy per Si atom -5593.613909 kJ/mol
# Density = 2.216917 g / cm^3
# Si number density = 22.219746 Si / 1000 Ang^3
#
#
#
# Elastic Constant Matrix: (Units=GPa)
#
#
# Indices 1 2 3 4 5 6 
#
# 1 43.6370 4.9605 22.1596 0.0000 -9.8580 0.0000
# 2 4.9605 134.1566 65.1089 0.0000 -8.3622 0.0000
# 3 22.1596 65.1089 157.0999 0.0000 -29.4074 0.0000
# 4 0.0000 0.0000 0.0000 44.9763 0.0000 -5.1804
# 5 -9.8580 -8.3622 -29.4074 0.0000 30.3597 0.0000
# 6 0.0000 0.0000 0.0000 -5.1804 0.0000 12.1645
#
#
#
# Elastic Compliance Matrix: (Units=1/GPa)
#
#
# Indices 1 2 3 4 5 6 
#
# 1 0.025579 0.000803 -0.002864 0.000000 0.005753 0.000000
# 2 0.000803 0.009407 -0.004249 0.000000 -0.001264 0.000000
# 3 -0.002864 -0.004249 0.009939 0.000000 0.007527 0.000000
# 4 0.000000 0.000000 0.000000 0.023381 0.000000 0.009957
# 5 0.005753 -0.001264 0.007527 0.000000 0.041750 0.000000
# 6 0.000000 0.000000 0.000000 0.009957 0.000000 0.086447
#
#
# Mechanical properties :
#
#
# Convention : Reuss Voigt Hill
#
# Bulk Modulus (GPa) = 30.95394 57.70573 44.32983
# Shear Modulus (GPa) = 22.73852 33.67774 28.20813
#
# Velocity S-wave (km/s) = 3.20245 3.89738 3.56688
# Velocity P-wave (km/s) = 5.25693 6.80291 6.07927
#
# Compressibility (1/GPa) = 0.03230606
#
# Stress axis : x y z
#
# Youngs Moduli (GPa) = 39.09464 106.29851 100.61217
#
# Poissons Ratio (x) = -0.08532 0.28813
# Poissons Ratio (y) = -0.03138 0.42746
# Poissons Ratio (z) = 0.11196 0.45162
#
# Static dielectric constant tensor:
#      x y z
#    x 1.865910 0.000000 0.033120 
#    y 0.000000 1.800210 0.000000 
#    z 0.033120 0.000000 1.789540 
# 
# From -- ./inp_files/17606.got.cif
#   From: 2010.05.17/outbox.cif.g08.bks.cpg/sg5_9_cif.got.tgz:17606.got - 2010.06.03 18:56:24.
