data_PCOD9129395
_publ_section_title
;
Structure prediction by ZEFSAII (Michael W. Deem and Ramdas Pophale) SiO2 
 PCOD9129395
Probable space group: C 2
;
_chemical_formula_sum "Si O2"
_cell_formula_units_Z 30
_cell_length_a 21.405043
_cell_length_b 12.790277
_cell_length_c 8.069196
_cell_angle_alpha 90.000000
_cell_angle_beta 37.226161
_cell_angle_gamma 90.000000
_cell_volume 1336.456874
_symmetry_space_group_name_H-M "C 2"
_symmetry_group_IT_number 5
_symmetry_cell_setting 'monoclinic'
loop_
_space_group_symop_operation_xyz
x,y,z
-x,y,-z
1/2+x,1/2+y,z
1/2-x,1/2+y,-z
loop_
_atom_site_type_symbol
_atom_site_label
_atom_site_fract_x
_atom_site_fract_y
_atom_site_fract_z
Si Si1 0.432275 0.504780 0.392649
Si Si2 0.804488 0.289451 0.309364
Si Si3 0.854658 0.072672 0.884587
Si Si4 0.817938 0.316344 0.913463
Si Si5 0.911557 0.796276 0.559440
Si Si6 0.099262 0.646748 0.685287
Si Si7 0.000000 0.162119 0.000000
Si Si8 0.825826 0.438298 0.573455
O O1 0.350499 0.529350 0.707475
O O2 0.541916 0.535496 0.242491
O O3 0.423767 0.381504 0.386029
O O4 0.425886 0.582884 0.255937
O O5 0.811976 0.353742 0.118982
O O6 0.707586 0.207197 0.501972
O O7 0.792169 0.355693 0.503901
O O8 0.916590 0.233391 0.083796
O O9 0.856743 0.197356 0.855318
O O10 0.763604 0.017387 0.175852
O O11 0.697420 0.305972 0.120515
O O12 0.865907 0.379376 0.656871
O O13 0.920149 0.683794 0.461844
O O14 0.000000 0.820935 0.500000
O O15 0.103035 0.521531 0.672069
O O16 0.000000 0.680563 0.000000
#
# Coordination Sequence:
#
# PCOD9129395 Si02
#       8
#     4   4   4   4   4   4   2   4
#     4  11  22  37  74 103 137 183 241 315 365 411
#     4  11  27  47  76 109 145 199 249 303 363 451
#     4  11  21  44  67 105 141 184 246 305 354 434
#     4  11  23  47  72 103 147 187 252 296 365 442
#     4  11  22  41  68 107 136 186 247 301 365 432
#     4  11  28  49  70 109 154 190 249 302 365 454
#     4  12  24  46  72 108 150 186 256 306 372 424
#     4  12  24  49  75 100 158 200 229 313 374 432
#
# _framework density 22.447413999999998
#
# number of rings (size 3 to 8) (size 9 to 14) (size 15 to 20)
#    0.000    0.800    6.667    0.800    5.600    3.200 
#    4.800    0.000    0.000    0.000    0.000    0.000 
#    0.000    0.000    0.000    0.000    0.000    0.000 
#
# Total GULP energy -83626.557229 kJ/mol
# GULP energy per Si atom -5575.103815 kJ/mol
# Density = 2.239632 g / cm^3
# Si number density = 22.447414 Si / 1000 Ang^3
#
#
#
# Elastic Constant Matrix: (Units=GPa)
#
#
# Indices 1 2 3 4 5 6 
#
# 1 84.8606 37.8340 19.3576 0.0000 10.6994 0.0000
# 2 37.8340 112.2650 19.3042 0.0000 8.4603 0.0000
# 3 19.3576 19.3042 79.8921 0.0000 11.4066 0.0000
# 4 0.0000 0.0000 0.0000 32.7495 0.0000 10.3712
# 5 10.6994 8.4603 11.4066 0.0000 39.7044 0.0000
# 6 0.0000 0.0000 0.0000 10.3712 0.0000 24.3379
#
#
#
# Elastic Compliance Matrix: (Units=1/GPa)
#
#
# Indices 1 2 3 4 5 6 
#
# 1 0.014505 -0.004344 -0.002126 0.000000 -0.002372 0.000000
# 2 -0.004344 0.010669 -0.001426 0.000000 -0.000693 0.000000
# 3 -0.002126 -0.001426 0.013818 0.000000 -0.003093 0.000000
# 4 0.000000 0.000000 0.000000 0.035298 0.000000 -0.015042
# 5 -0.002372 -0.000693 -0.003093 0.000000 0.026862 0.000000
# 6 0.000000 0.000000 0.000000 -0.015042 0.000000 0.047498
#
#
# Mechanical properties :
#
#
# Convention : Reuss Voigt Hill
#
# Bulk Modulus (GPa) = 43.10520 47.77882 45.44201
# Shear Modulus (GPa) = 29.04004 32.72646 30.88325
#
# Velocity S-wave (km/s) = 3.60070 3.82241 3.71321
# Velocity P-wave (km/s) = 6.04410 6.38843 6.21865
#
# Compressibility (1/GPa) = 0.02319906
#
# Stress axis : x y z
#
# Youngs Moduli (GPa) = 68.94284 93.73033 72.36768
#
# Poissons Ratio (x) = 0.40715 0.15387
# Poissons Ratio (y) = 0.29948 0.10323
# Poissons Ratio (z) = 0.14658 0.13370
#
# Static dielectric constant tensor:
#      x y z
#    x 1.864000 0.000000 0.021060 
#    y 0.000000 1.903500 0.000000 
#    z 0.021060 0.000000 1.903280 
# 
# From -- ./inp_files/30929.got.cif
#   From: 2010.05.17/outbox.cif.g08.bks.cpg/sg5_16_cif.got.tgz:30929.got - 2010.06.03 18:56:24.
