data_PCOD9129630
_publ_section_title
;
Structure prediction by ZEFSAII (Michael W. Deem and Ramdas Pophale) SiO2 
 PCOD9129630
Probable space group: C 2
;
_chemical_formula_sum "Si O2"
_cell_formula_units_Z 32
_cell_length_a 11.467781
_cell_length_b 8.928865
_cell_length_c 22.456590
_cell_angle_alpha 90.000000
_cell_angle_beta 139.124045
_cell_angle_gamma 90.000000
_cell_volume 1504.798597
_symmetry_space_group_name_H-M "C 2"
_symmetry_group_IT_number 5
_symmetry_cell_setting 'monoclinic'
loop_
_space_group_symop_operation_xyz
x,y,z
-x,y,-z
1/2+x,1/2+y,z
1/2-x,1/2+y,-z
loop_
_atom_site_type_symbol
_atom_site_label
_atom_site_fract_x
_atom_site_fract_y
_atom_site_fract_z
Si Si1 0.439581 0.062340 0.321251
Si Si2 0.206647 0.072264 0.596643
Si Si3 0.825647 0.413435 0.392214
Si Si4 0.638900 0.804992 0.924503
Si Si5 0.585990 0.455129 0.894133
Si Si6 0.759152 0.368698 0.164065
Si Si7 0.753022 0.877218 0.272089
Si Si8 0.471325 0.560841 0.261627
O O1 0.351452 0.217097 0.307854
O O2 0.652079 0.054215 0.401670
O O3 0.374051 0.940896 0.342750
O O4 0.363218 0.016310 0.227123
O O5 0.246814 0.952047 0.663219
O O6 0.000000 0.060043 0.500000
O O7 0.242848 0.243809 0.629805
O O8 0.679691 0.536659 0.354462
O O9 0.000000 0.427534 0.500000
O O10 0.612753 0.628111 0.923131
O O11 0.762895 0.852475 0.915617
O O12 0.444702 0.863955 0.830999
O O13 0.732897 0.871659 0.018559
O O14 0.422699 0.377085 0.867168
O O15 0.554862 0.473418 0.811424
O O16 0.890611 0.226992 0.226469
O O17 0.864780 0.982227 0.272305
#
# Coordination Sequence:
#
# PCOD9129630 Si02
#       8
#     4   4   4   4   4   4   4   4
#     4  12  23  45  72  96 139 182 224 283 343 409
#     4  11  27  45  69 105 138 180 234 285 340 408
#     4  11  25  47  68 103 143 179 229 286 342 407
#     4  11  25  43  68 100 135 178 230 282 341 410
#     4  11  25  45  67 101 135 178 230 279 346 407
#     4  11  22  46  70  94 137 180 226 282 345 403
#     4  12  25  44  68 102 138 180 233 278 345 414
#     4  11  25  43  69 101 137 183 227 281 345 410
#
# _framework density 21.265305000000001
#
# number of rings (size 3 to 8) (size 9 to 14) (size 15 to 20)
#    0.000    0.750    5.000    1.875    3.500    2.000 
#    2.250    0.000    0.000    0.000    0.000    0.000 
#    0.000    0.000    0.000    0.000    0.000    0.000 
#
# Total GULP energy -89378.919299 kJ/mol
# GULP energy per Si atom -5586.182456 kJ/mol
# Density = 2.121690 g / cm^3
# Si number density = 21.265305 Si / 1000 Ang^3
#
#
#
# Elastic Constant Matrix: (Units=GPa)
#
#
# Indices 1 2 3 4 5 6 
#
# 1 100.8097 15.3675 7.7264 0.0000 18.8623 0.0000
# 2 15.3675 55.4538 18.0163 0.0000 -5.4717 0.0000
# 3 7.7264 18.0163 78.4461 0.0000 16.7657 0.0000
# 4 0.0000 0.0000 0.0000 25.3677 0.0000 4.3675
# 5 18.8623 -5.4717 16.7657 0.0000 29.0693 0.0000
# 6 0.0000 0.0000 0.0000 4.3675 0.0000 33.6985
#
#
#
# Elastic Compliance Matrix: (Units=1/GPa)
#
#
# Indices 1 2 3 4 5 6 
#
# 1 0.012474 -0.005178 0.002166 0.000000 -0.010318 0.000000
# 2 -0.005178 0.023024 -0.007325 0.000000 0.011919 0.000000
# 3 0.002166 -0.007325 0.016894 0.000000 -0.012528 0.000000
# 4 0.000000 0.000000 0.000000 0.040320 0.000000 -0.005226
# 5 -0.010318 0.011919 -0.012528 0.000000 0.050564 0.000000
# 6 0.000000 0.000000 0.000000 -0.005226 0.000000 0.030352
#
#
# Mechanical properties :
#
#
# Convention : Reuss Voigt Hill
#
# Bulk Modulus (GPa) = 31.52943 35.21443 33.37193
# Shear Modulus (GPa) = 24.40508 30.53373 27.46941
#
# Velocity S-wave (km/s) = 3.39137 3.79337 3.59799
# Velocity P-wave (km/s) = 5.49491 5.98178 5.74351
#
# Compressibility (1/GPa) = 0.03171640
#
# Stress axis : x y z
#
# Youngs Moduli (GPa) = 80.16926 43.43302 59.19240
#
# Poissons Ratio (x) = 0.22492 -0.12820
# Poissons Ratio (y) = 0.41515 0.43359
# Poissons Ratio (z) = -0.17364 0.31815
#
# Static dielectric constant tensor:
#      x y z
#    x 1.785790 0.000000 0.015490 
#    y 0.000000 1.760560 0.000000 
#    z 0.015490 0.000000 1.790530 
# 
# From -- ./inp_files/68291.got.cif
#   From: 2010.05.17/outbox.cif.g08.bks.cpg/sg5_35_cif.got.tgz:68291.got - 2010.06.03 18:56:24.
