data_PCOD9129181
_publ_section_title
;
Structure prediction by ZEFSAII (Michael W. Deem and Ramdas Pophale) SiO2 
 PCOD9129181
Probable space group: C 2
;
_chemical_formula_sum "Si O2"
_cell_formula_units_Z 24
_cell_length_a 8.620518
_cell_length_b 22.255845
_cell_length_c 7.465127
_cell_angle_alpha 90.000000
_cell_angle_beta 136.962839
_cell_angle_gamma 90.000000
_cell_volume 977.461917
_symmetry_space_group_name_H-M "C 2"
_symmetry_group_IT_number 5
_symmetry_cell_setting 'monoclinic'
loop_
_space_group_symop_operation_xyz
x,y,z
-x,y,-z
1/2+x,1/2+y,z
1/2-x,1/2+y,-z
loop_
_atom_site_type_symbol
_atom_site_label
_atom_site_fract_x
_atom_site_fract_y
_atom_site_fract_z
Si Si1 0.839139 0.227780 0.530292
Si Si2 0.981482 0.840779 0.783994
Si Si3 0.739782 0.530170 0.180368
Si Si4 0.447623 0.468485 0.655215
Si Si5 0.523486 0.136390 0.807902
Si Si6 0.739875 0.748818 0.159420
O O1 0.313473 0.284208 0.658327
O O2 0.285582 0.164624 0.547452
O O3 0.000000 0.219030 0.500000
O O4 0.926558 0.245921 0.801423
O O5 0.901932 0.897616 0.603482
O O6 0.210711 0.811542 0.900672
O O7 0.000000 0.864980 0.000000
O O8 0.748915 0.496760 0.381074
O O9 0.910019 0.577959 0.244181
O O10 0.500000 0.566028 0.000000
O O11 0.670250 0.482556 0.966189
O O12 0.500000 0.492884 0.500000
O O13 0.700937 0.189754 0.910780
O O14 0.500000 0.126296 0.000000
O O15 0.000000 0.749065 0.500000
#
# Coordination Sequence:
#
# PCOD9129181 Si02
#       6
#     4   4   4   4   4   4
#     4  11  23  39  60  97 129 169 209 259 328 382
#     4  11  19  37  68  95 132 162 208 265 319 387
#     4   8  20  38  60  92 124 169 211 265 313 369
#     4   9  18  39  65  94 129 171 210 265 323 373
#     4  11  21  40  62  88 127 166 210 267 313 379
#     4  11  22  38  60  99 127 166 207 261 329 384
#
# _framework density 24.553388999999999
#
# number of rings (size 3 to 8) (size 9 to 14) (size 15 to 20)
#    1.000    0.667    1.667    7.500    0.000    0.000 
#    6.000    0.833    3.667    0.000    0.000    0.000 
#    0.000    0.000    0.000    0.000    0.000    0.000 
#
# Total GULP energy -66874.083224 kJ/mol
# GULP energy per Si atom -5572.840269 kJ/mol
# Density = 2.449750 g / cm^3
# Si number density = 24.553389 Si / 1000 Ang^3
#
#
#
# Elastic Constant Matrix: (Units=GPa)
#
#
# Indices 1 2 3 4 5 6 
#
# 1 188.9145 79.3861 34.9240 0.0000 -27.6457 0.0000
# 2 79.3861 136.5643 13.0580 0.0000 6.9509 0.0000
# 3 34.9240 13.0580 79.1202 0.0000 -25.1020 0.0000
# 4 0.0000 0.0000 0.0000 24.1942 0.0000 -4.3852
# 5 -27.6457 6.9509 -25.1020 0.0000 55.1616 0.0000
# 6 0.0000 0.0000 0.0000 -4.3852 0.0000 36.3912
#
#
#
# Elastic Compliance Matrix: (Units=1/GPa)
#
#
# Indices 1 2 3 4 5 6 
#
# 1 0.008190 -0.004817 -0.001549 0.000000 0.004007 0.000000
# 2 -0.004817 0.010420 -0.000907 0.000000 -0.004140 0.000000
# 3 -0.001549 -0.000907 0.015500 0.000000 0.006392 0.000000
# 4 0.000000 0.000000 0.000000 0.042255 0.000000 0.005092
# 5 0.004007 -0.004140 0.006392 0.000000 0.023567 0.000000
# 6 0.000000 0.000000 0.000000 0.005092 0.000000 0.028093
#
#
# Mechanical properties :
#
#
# Convention : Reuss Voigt Hill
#
# Bulk Modulus (GPa) = 51.11208 73.25946 62.18577
# Shear Modulus (GPa) = 33.53614 41.63146 37.58380
#
# Velocity S-wave (km/s) = 3.69974 4.12217 3.91666
# Velocity P-wave (km/s) = 6.25402 7.24969 6.77018
#
# Compressibility (1/GPa) = 0.01956485
#
# Stress axis : x y z
#
# Youngs Moduli (GPa) = 122.09548 95.96812 64.51516
#
# Poissons Ratio (x) = 0.46227 0.09993
# Poissons Ratio (y) = 0.58813 0.05851
# Poissons Ratio (z) = 0.18913 0.08704
#
# Static dielectric constant tensor:
#      x y z
#    x 2.175550 0.000000 0.284340 
#    y 0.000000 1.837840 0.000000 
#    z 0.284340 0.000000 2.587860 
# 
# From -- ./inp_files/12891.got.cif
#   From: 2010.05.17/outbox.cif.g08.bks.cpg/sg5_7_cif.got.tgz:12891.got - 2010.06.03 18:56:24.
