data_PCOD9129879
_publ_section_title
;
Structure prediction by ZEFSAII (Michael W. Deem and Ramdas Pophale) SiO2 
 PCOD9129879
Probable space group: C 2
;
_chemical_formula_sum "Si O2"
_cell_formula_units_Z 28
_cell_length_a 20.699188
_cell_length_b 9.188594
_cell_length_c 8.425107
_cell_angle_alpha 90.000000
_cell_angle_beta 49.986089
_cell_angle_gamma 90.000000
_cell_volume 1227.278889
_symmetry_space_group_name_H-M "C 2"
_symmetry_group_IT_number 5
_symmetry_cell_setting 'monoclinic'
loop_
_space_group_symop_operation_xyz
x,y,z
-x,y,-z
1/2+x,1/2+y,z
1/2-x,1/2+y,-z
loop_
_atom_site_type_symbol
_atom_site_label
_atom_site_fract_x
_atom_site_fract_y
_atom_site_fract_z
Si Si1 0.396776 0.027430 0.398908
Si Si2 0.115985 0.858157 0.082184
Si Si3 0.000000 0.693531 0.500000
Si Si4 0.289312 0.151639 0.305351
Si Si5 0.201404 0.378574 0.902003
Si Si6 0.000000 0.985890 0.000000
Si Si7 0.379545 0.744111 0.257820
Si Si8 0.234634 0.566125 0.133499
O O1 0.461409 0.098826 0.418031
O O2 0.370839 0.121422 0.286542
O O3 0.308608 0.020432 0.634342
O O4 0.421459 0.868779 0.298341
O O5 0.071918 0.790664 0.305218
O O6 0.179470 0.751257 0.887888
O O7 0.171985 0.999748 0.031779
O O8 0.042479 0.896191 0.073402
O O9 0.214411 0.219971 0.525638
O O10 0.258411 0.996702 0.282471
O O11 0.129349 0.306174 0.906995
O O12 0.254983 0.240428 0.877542
O O13 0.180673 0.481254 0.084484
O O14 0.071355 0.094025 0.819584
#
# Coordination Sequence:
#
# PCOD9129879 Si02
#       8
#     4   4   2   4   4   2   4   4
#     4  11  24  44  75 103 148 187 244 295 368 429
#     4  12  26  48  74 105 148 195 241 302 363 437
#     4  12  28  48  68 114 146 188 236 310 382 424
#     4  11  23  46  77 104 138 197 257 294 348 442
#     4  11  24  41  71 109 144 182 247 303 358 419
#     4  12  26  46  72 110 154 188 242 302 372 426
#     4  11  25  45  73 109 145 194 244 304 358 435
#     4  12  23  45  72 110 142 194 243 297 355 440
#
# _framework density 22.814699999999998
#
# number of rings (size 3 to 8) (size 9 to 14) (size 15 to 20)
#    0.000    0.571    4.286    3.429    2.000    5.714 
#    0.000    0.000    0.000    0.000    0.000    0.000 
#    0.000    0.000    0.000    0.000    0.000    0.000 
#
# Total GULP energy -78282.530473 kJ/mol
# GULP energy per Si atom -5591.609319 kJ/mol
# Density = 2.276277 g / cm^3
# Si number density = 22.814700 Si / 1000 Ang^3
#
#
#
# Elastic Constant Matrix: (Units=GPa)
#
#
# Indices 1 2 3 4 5 6 
#
# 1 104.4882 55.3215 30.8423 0.0000 7.5741 0.0000
# 2 55.3215 129.5517 34.9661 0.0000 10.1879 0.0000
# 3 30.8423 34.9661 71.3425 0.0000 5.9855 0.0000
# 4 0.0000 0.0000 0.0000 33.9516 0.0000 11.8438
# 5 7.5741 10.1879 5.9855 0.0000 34.0054 0.0000
# 6 0.0000 0.0000 0.0000 11.8438 0.0000 44.9198
#
#
#
# Elastic Compliance Matrix: (Units=1/GPa)
#
#
# Indices 1 2 3 4 5 6 
#
# 1 0.013054 -0.004608 -0.003306 0.000000 -0.000945 0.000000
# 2 -0.004608 0.010648 -0.003091 0.000000 -0.001620 0.000000
# 3 -0.003306 -0.003091 0.017074 0.000000 -0.001343 0.000000
# 4 0.000000 0.000000 0.000000 0.032437 0.000000 -0.008553
# 5 -0.000945 -0.001620 -0.001343 0.000000 0.030339 0.000000
# 6 0.000000 0.000000 0.000000 -0.008553 0.000000 0.024517
#
#
# Mechanical properties :
#
#
# Convention : Reuss Voigt Hill
#
# Bulk Modulus (GPa) = 53.28539 60.84914 57.06726
# Shear Modulus (GPa) = 31.98264 34.85887 33.42075
#
# Velocity S-wave (km/s) = 3.74818 3.91309 3.83152
# Velocity P-wave (km/s) = 6.49140 6.86624 6.68145
#
# Compressibility (1/GPa) = 0.01876687
#
# Stress axis : x y z
#
# Youngs Moduli (GPa) = 76.60200 93.91221 58.56987
#
# Poissons Ratio (x) = 0.43274 0.19363
# Poissons Ratio (y) = 0.35298 0.18103
# Poissons Ratio (z) = 0.25324 0.29027
#
# Static dielectric constant tensor:
#      x y z
#    x 1.903060 0.000000 0.006150 
#    y 0.000000 1.854740 0.000000 
#    z 0.006150 0.000000 1.788480 
# 
# From -- ./inp_files/29132.got.cif
#   From: 2010.05.17/outbox.cif.g08.bks.cpg/sg5_15_cif.got.tgz:29132.got - 2010.06.03 18:56:24.
