data_PCOD9129638
_publ_section_title
;
Structure prediction by ZEFSAII (Michael W. Deem and Ramdas Pophale) SiO2 
 PCOD9129638
Probable space group: C 2
;
_chemical_formula_sum "Si O2"
_cell_formula_units_Z 30
_cell_length_a 13.772000
_cell_length_b 6.789630
_cell_length_c 12.440540
_cell_angle_alpha 90.000000
_cell_angle_beta 76.728432
_cell_angle_gamma 90.000000
_cell_volume 1132.207205
_symmetry_space_group_name_H-M "C 2"
_symmetry_group_IT_number 5
_symmetry_cell_setting 'monoclinic'
loop_
_space_group_symop_operation_xyz
x,y,z
-x,y,-z
1/2+x,1/2+y,z
1/2-x,1/2+y,-z
loop_
_atom_site_type_symbol
_atom_site_label
_atom_site_fract_x
_atom_site_fract_y
_atom_site_fract_z
Si Si1 0.000000 0.472901 0.000000
Si Si2 0.627350 0.755027 0.121076
Si Si3 0.361853 0.540685 0.482619
Si Si4 0.278461 0.602865 0.122339
Si Si5 0.988545 0.714349 0.354564
Si Si6 0.148520 0.492788 0.455729
Si Si7 0.790660 0.986407 0.732066
Si Si8 0.107560 0.749903 0.831122
O O1 0.086821 0.621197 0.942342
O O2 0.973214 0.335102 0.906697
O O3 0.688590 0.947088 0.141763
O O4 0.626055 0.595737 0.216042
O O5 0.689025 0.663779 0.005556
O O6 0.457043 0.430893 0.407686
O O7 0.267711 0.523007 0.424746
O O8 0.325119 0.440154 0.603063
O O9 0.375021 0.764102 0.517851
O O10 0.249494 0.794502 0.196954
O O11 0.368499 0.473780 0.148526
O O12 0.894429 0.596602 0.427063
O O13 0.982932 0.724459 0.228542
O O14 0.081178 0.590257 0.378817
O O15 0.703317 0.147935 0.753690
#
# Coordination Sequence:
#
# PCOD9129638 Si02
#       8
#     2   4   4   4   4   4   4   4
#     4  12  26  46  70 110 158 192 258 320 400 462
#     4  11  23  44  73 106 148 192 251 310 379 466
#     4  12  25  50  83 115 156 211 265 334 406 479
#     4  11  22  46  75 101 149 201 247 311 377 466
#     4  11  27  49  76 116 158 203 265 329 403 473
#     4  11  25  48  79 109 158 201 264 327 395 480
#     4  11  24  45  78 111 142 210 260 314 400 466
#     4  11  25  46  73 110 157 199 253 329 385 477
#
# _framework density 26.496918000000001
#
# number of rings (size 3 to 8) (size 9 to 14) (size 15 to 20)
#    0.000    0.800    5.333    0.800    3.733    4.800 
#    2.400    0.000    0.000    0.000    0.000    0.000 
#    0.000    0.000    0.000    0.000    0.000    0.000 
#
# Total GULP energy -84073.960767 kJ/mol
# GULP energy per Si atom -5604.930718 kJ/mol
# Density = 2.643661 g / cm^3
# Si number density = 26.496918 Si / 1000 Ang^3
#
#
#
# Elastic Constant Matrix: (Units=GPa)
#
#
# Indices 1 2 3 4 5 6 
#
# 1 135.7855 82.6101 31.4120 0.0000 23.7374 0.0000
# 2 82.6101 182.9753 27.1137 0.0000 10.5514 0.0000
# 3 31.4120 27.1137 107.4418 0.0000 8.5056 0.0000
# 4 0.0000 0.0000 0.0000 26.6686 0.0000 -4.5895
# 5 23.7374 10.5514 8.5056 0.0000 42.9741 0.0000
# 6 0.0000 0.0000 0.0000 -4.5895 0.0000 41.0443
#
#
#
# Elastic Compliance Matrix: (Units=1/GPa)
#
#
# Indices 1 2 3 4 5 6 
#
# 1 0.011433 -0.004617 -0.001795 0.000000 -0.004826 0.000000
# 2 -0.004617 0.007597 -0.000631 0.000000 0.000810 0.000000
# 3 -0.001795 -0.000631 0.010058 0.000000 -0.000844 0.000000
# 4 0.000000 0.000000 0.000000 0.038233 0.000000 0.004275
# 5 -0.004826 0.000810 -0.000844 0.000000 0.025904 0.000000
# 6 0.000000 0.000000 0.000000 0.004275 0.000000 0.024842
#
#
# Mechanical properties :
#
#
# Convention : Reuss Voigt Hill
#
# Bulk Modulus (GPa) = 66.66650 78.71935 72.69293
# Shear Modulus (GPa) = 36.45540 41.14185 38.79862
#
# Velocity S-wave (km/s) = 3.71325 3.94471 3.83073
# Velocity P-wave (km/s) = 6.60295 7.10781 6.86003
#
# Compressibility (1/GPa) = 0.01500004
#
# Stress axis : x y z
#
# Youngs Moduli (GPa) = 87.46894 131.63649 99.41979
#
# Poissons Ratio (x) = 0.60781 0.17848
# Poissons Ratio (y) = 0.40387 0.06276
# Poissons Ratio (z) = 0.15703 0.08310
#
# Static dielectric constant tensor:
#      x y z
#    x 2.182470 0.000000 0.016280 
#    y 0.000000 2.057040 0.000000 
#    z 0.016280 0.000000 2.003220 
# 
# From -- ./inp_files/65680.got.cif
#   From: 2010.05.17/outbox.cif.g08.bks.cpg/sg5_33_cif.got.tgz:65680.got - 2010.06.03 18:56:24.
