data_PCOD9129996
_publ_section_title
;
Structure prediction by ZEFSAII (Michael W. Deem and Ramdas Pophale) SiO2 
 PCOD9129996
Probable space group: C 2
;
_chemical_formula_sum "Si O2"
_cell_formula_units_Z 26
_cell_length_a 14.063832
_cell_length_b 15.593572
_cell_length_c 5.977086
_cell_angle_alpha 90.000000
_cell_angle_beta 53.851817
_cell_angle_gamma 90.000000
_cell_volume 1058.469014
_symmetry_space_group_name_H-M "C 2"
_symmetry_group_IT_number 5
_symmetry_cell_setting 'monoclinic'
loop_
_space_group_symop_operation_xyz
x,y,z
-x,y,-z
1/2+x,1/2+y,z
1/2-x,1/2+y,-z
loop_
_atom_site_type_symbol
_atom_site_label
_atom_site_fract_x
_atom_site_fract_y
_atom_site_fract_z
Si Si1 0.500000 0.702930 0.500000
Si Si2 0.892558 0.844992 0.806302
Si Si3 0.771289 0.705101 0.235601
Si Si4 0.319841 0.483078 0.198818
Si Si5 0.892183 0.552639 0.800035
Si Si6 0.735076 0.830493 0.626830
Si Si7 0.000000 0.417874 0.000000
Si Si8 0.000000 0.123481 0.000000
O O1 0.639335 0.730183 0.335719
O O2 0.484023 0.666573 0.778916
O O3 0.774894 0.843560 0.822632
O O4 0.000000 0.825435 0.500000
O O5 0.870745 0.770921 0.012044
O O6 0.903510 0.938073 0.899043
O O7 0.764981 0.734446 0.504163
O O8 0.817912 0.615853 0.068629
O O9 0.200173 0.511579 0.245135
O O10 0.298710 0.407160 0.403242
O O11 0.385833 0.564249 0.201012
O O12 0.000000 0.590861 0.500000
O O13 0.949214 0.479363 0.877533
O O14 0.600754 0.854617 0.777210
#
# Coordination Sequence:
#
# PCOD9129996 Si02
#       8
#     2   4   4   4   4   4   2   2
#     4  12  30  48  78 112 158 206 258 334 400 488
#     4  11  25  47  73 107 152 201 261 327 401 489
#     4  11  29  46  72 112 156 206 259 324 413 478
#     4  11  24  44  73 110 142 201 262 330 394 479
#     4  12  25  47  74 113 153 201 265 335 401 479
#     4  11  26  45  76 107 150 205 262 326 408 481
#     4  12  26  43  83 108 152 200 270 336 392 491
#     4  12  28  47  79 110 156 196 266 330 404 465
#
# _framework density 24.563779
#
# number of rings (size 3 to 8) (size 9 to 14) (size 15 to 20)
#    0.000    0.615    4.615    1.385    9.692    4.308 
#    0.000    0.000    0.000    0.000    0.000    0.000 
#    0.000    0.000    0.000    0.000    0.000    0.000 
#
# Total GULP energy -72559.750723 kJ/mol
# GULP energy per Si atom -5581.519286 kJ/mol
# Density = 2.450787 g / cm^3
# Si number density = 24.563779 Si / 1000 Ang^3
#
#
#
# Elastic Constant Matrix: (Units=GPa)
#
#
# Indices 1 2 3 4 5 6 
#
# 1 77.0822 5.4237 6.2610 0.0000 -2.9521 0.0000
# 2 5.4237 63.3133 31.8704 0.0000 0.9074 0.0000
# 3 6.2610 31.8704 100.5038 0.0000 -18.1240 0.0000
# 4 0.0000 0.0000 0.0000 44.1044 0.0000 -9.2940
# 5 -2.9521 0.9074 -18.1240 0.0000 53.8204 0.0000
# 6 0.0000 0.0000 0.0000 -9.2940 0.0000 23.9774
#
#
#
# Elastic Compliance Matrix: (Units=1/GPa)
#
#
# Indices 1 2 3 4 5 6 
#
# 1 0.013095 -0.000920 -0.000417 0.000000 0.000593 0.000000
# 2 -0.000920 0.019174 -0.006484 0.000000 -0.002557 0.000000
# 3 -0.000417 -0.006484 0.012826 0.000000 0.004406 0.000000
# 4 0.000000 0.000000 0.000000 0.024690 0.000000 0.009570
# 5 0.000593 -0.002557 0.004406 0.000000 0.020140 0.000000
# 6 0.000000 0.000000 0.000000 0.009570 0.000000 0.045416
#
#
# Mechanical properties :
#
#
# Convention : Reuss Voigt Hill
#
# Bulk Modulus (GPa) = 33.95315 36.44550 35.19932
# Shear Modulus (GPa) = 31.09452 37.53671 34.31562
#
# Velocity S-wave (km/s) = 3.56176 3.91337 3.74170
# Velocity P-wave (km/s) = 5.54683 5.94042 5.74700
#
# Compressibility (1/GPa) = 0.02945235
#
# Stress axis : x y z
#
# Youngs Moduli (GPa) = 76.36785 52.15440 77.96389
#
# Poissons Ratio (x) = 0.04800 0.03250
# Poissons Ratio (y) = 0.07029 0.50552
# Poissons Ratio (z) = 0.03183 0.33817
#
# Static dielectric constant tensor:
#      x y z
#    x 1.995200 0.000000 -0.005400 
#    y 0.000000 1.929110 0.000000 
#    z -0.005400 0.000000 2.026060 
# 
# From -- ./inp_files/7171.got.cif
#   From: 2010.05.17/outbox.cif.g08.bks.cpg/sg5_4_cif.got.tgz:7171.got - 2010.06.03 18:56:24.
