data_PCOD9129840
_publ_section_title
;
Structure prediction by ZEFSAII (Michael W. Deem and Ramdas Pophale) SiO2 
 PCOD9129840
Probable space group: C 2
;
_chemical_formula_sum "Si O2"
_cell_formula_units_Z 30
_cell_length_a 10.590711
_cell_length_b 8.932047
_cell_length_c 16.744174
_cell_angle_alpha 90.000000
_cell_angle_beta 121.903142
_cell_angle_gamma 90.000000
_cell_volume 1344.677777
_symmetry_space_group_name_H-M "C 2"
_symmetry_group_IT_number 5
_symmetry_cell_setting 'monoclinic'
loop_
_space_group_symop_operation_xyz
x,y,z
-x,y,-z
1/2+x,1/2+y,z
1/2-x,1/2+y,-z
loop_
_atom_site_type_symbol
_atom_site_label
_atom_site_fract_x
_atom_site_fract_y
_atom_site_fract_z
Si Si1 0.021548 0.524730 0.600365
Si Si2 0.122765 0.903860 0.109951
Si Si3 0.500000 0.859477 0.000000
Si Si4 0.286585 0.188793 0.117436
Si Si5 0.939826 0.837335 0.323795
Si Si6 0.622387 0.550242 0.272387
Si Si7 0.154035 0.394585 0.317542
Si Si8 0.578827 0.106470 0.151673
O O1 0.978088 0.693517 0.612625
O O2 0.200344 0.514392 0.672612
O O3 0.000000 0.500821 0.500000
O O4 0.918659 0.420222 0.620696
O O5 0.060337 0.986684 0.168374
O O6 0.182703 0.739411 0.155041
O O7 0.251880 0.016010 0.124905
O O8 0.000000 0.895850 0.000000
O O9 0.640514 0.756772 0.028762
O O10 0.560962 0.968118 0.088047
O O11 0.337556 0.274341 0.215486
O O12 0.422341 0.191410 0.102900
O O13 0.830708 0.892376 0.357918
O O14 0.044308 0.961826 0.318839
O O15 0.603768 0.728663 0.272826
O O16 0.105256 0.535276 0.246591
#
# Coordination Sequence:
#
# PCOD9129840 Si02
#       8
#     4   4   2   4   4   4   4   4
#     4  11  25  48  73 102 140 179 230 291 356 429
#     4  12  23  41  64  96 138 187 235 281 337 406
#     4  12  26  40  60 100 138 178 238 288 330 412
#     4  12  24  43  63  92 137 182 232 289 342 401
#     4  11  23  45  72 103 135 179 229 289 357 413
#     4  11  24  45  72 103 141 188 230 292 353 413
#     4  11  23  46  69 102 136 183 231 284 356 421
#     4  12  25  41  64  96 136 185 236 282 345 410
#
# _framework density 22.310176999999999
#
# number of rings (size 3 to 8) (size 9 to 14) (size 15 to 20)
#    0.000    0.533    8.000    0.000    1.867    5.333 
#    0.000    0.667    0.000    0.000    0.000    0.000 
#    0.000    0.000    0.000    0.000    0.000    0.000 
#
# Total GULP energy -83797.712029 kJ/mol
# GULP energy per Si atom -5586.514135 kJ/mol
# Density = 2.225940 g / cm^3
# Si number density = 22.310177 Si / 1000 Ang^3
#
#
#
# Elastic Constant Matrix: (Units=GPa)
#
#
# Indices 1 2 3 4 5 6 
#
# 1 98.6608 55.2697 17.2737 0.0000 -17.9344 0.0000
# 2 55.2697 112.9692 28.1080 0.0000 -14.1755 0.0000
# 3 17.2737 28.1080 70.8477 0.0000 -27.8686 0.0000
# 4 0.0000 0.0000 0.0000 16.9787 0.0000 -11.6902
# 5 -17.9344 -14.1755 -27.8686 0.0000 28.1544 0.0000
# 6 0.0000 0.0000 0.0000 -11.6902 0.0000 36.0631
#
#
#
# Elastic Compliance Matrix: (Units=1/GPa)
#
#
# Indices 1 2 3 4 5 6 
#
# 1 0.015158 -0.006946 0.002428 0.000000 0.008562 0.000000
# 2 -0.006946 0.013059 -0.004326 0.000000 -0.002131 0.000000
# 3 0.002428 -0.004326 0.024549 0.000000 0.023669 0.000000
# 4 0.000000 0.000000 0.000000 0.075820 0.000000 0.024578
# 5 0.008562 -0.002131 0.023669 0.000000 0.063327 0.000000
# 6 0.000000 0.000000 0.000000 0.024578 0.000000 0.035696
#
#
# Mechanical properties :
#
#
# Convention : Reuss Voigt Hill
#
# Bulk Modulus (GPa) = 28.50749 53.75339 41.13044
# Shear Modulus (GPa) = 19.45597 28.36098 23.90847
#
# Velocity S-wave (km/s) = 2.95628 3.56927 3.27714
# Velocity P-wave (km/s) = 4.94554 6.41344 5.72672
#
# Compressibility (1/GPa) = 0.03507850
#
# Stress axis : x y z
#
# Youngs Moduli (GPa) = 65.97190 76.57544 40.73412
#
# Poissons Ratio (x) = 0.53187 -0.09889
# Poissons Ratio (y) = 0.45822 0.17621
# Poissons Ratio (z) = -0.16016 0.33126
#
# Static dielectric constant tensor:
#      x y z
#    x 1.835560 0.000000 0.003550 
#    y 0.000000 1.863430 0.000000 
#    z 0.003550 0.000000 1.843130 
# 
# From -- ./inp_files/60310.got.cif
#   From: 2010.05.17/outbox.cif.g08.bks.cpg/sg5_31_cif.got.tgz:60310.got - 2010.06.03 18:56:24.
