data_PCOD9129289
_publ_section_title
;
Structure prediction by ZEFSAII (Michael W. Deem and Ramdas Pophale) SiO2 
 PCOD9129289
Probable space group: C 2
;
_chemical_formula_sum "Si O2"
_cell_formula_units_Z 32
_cell_length_a 11.053835
_cell_length_b 25.609399
_cell_length_c 8.531018
_cell_angle_alpha 90.000000
_cell_angle_beta 41.277499
_cell_angle_gamma 90.000000
_cell_volume 1593.177045
_symmetry_space_group_name_H-M "C 2"
_symmetry_group_IT_number 5
_symmetry_cell_setting 'monoclinic'
loop_
_space_group_symop_operation_xyz
x,y,z
-x,y,-z
1/2+x,1/2+y,z
1/2-x,1/2+y,-z
loop_
_atom_site_type_symbol
_atom_site_label
_atom_site_fract_x
_atom_site_fract_y
_atom_site_fract_z
Si Si1 0.476463 0.959450 0.339524
Si Si2 0.499216 0.851181 0.815271
Si Si3 0.873714 0.984112 0.498327
Si Si4 0.972292 0.183116 0.345609
Si Si5 0.227768 0.756138 0.096535
Si Si6 0.801107 0.768426 0.501334
Si Si7 0.029662 0.078120 0.154053
Si Si8 0.648839 0.053007 0.966042
O O1 0.500000 0.971174 0.500000
O O2 0.555990 0.902642 0.225027
O O3 0.271935 0.954307 0.465829
O O4 0.562284 0.006585 0.155223
O O5 0.694915 0.823788 0.584023
O O6 0.500000 0.864488 0.000000
O O7 0.348069 0.806663 0.936314
O O8 0.000000 0.952752 0.500000
O O9 0.772768 0.023813 0.715901
O O10 0.976457 0.022529 0.279267
O O11 0.813843 0.225760 0.480852
O O12 0.000000 0.172337 0.500000
O O13 0.918297 0.128432 0.319164
O O14 0.155045 0.208126 0.087952
O O15 0.226120 0.754009 0.287908
O O16 0.016359 0.764391 0.253917
O O17 0.231582 0.086929 0.031557
O O18 0.000000 0.074471 0.000000
O O19 0.500000 0.080910 0.000000
#
# Coordination Sequence:
#
# PCOD9129289 Si02
#       8
#     4   4   4   4   4   4   4   4
#     4  11  21  36  56  86 119 156 192 243 295 346
#     4   9  18  35  59  86 118 157 194 242 299 356
#     4   9  19  37  58  80 112 151 192 237 286 346
#     4  11  22  37  59  85 122 159 192 238 299 356
#     4   9  19  39  62  88 114 150 200 250 293 353
#     4   9  19  39  62  87 114 150 200 249 295 351
#     4  11  21  38  60  86 116 154 192 242 294 350
#     4   9  19  37  58  80 114 149 193 239 284 347
#
# _framework density 20.085650999999999
#
# number of rings (size 3 to 8) (size 9 to 14) (size 15 to 20)
#    0.000    2.250    0.000    4.875    0.000    2.500 
#   15.750    0.000    0.000    0.000    0.000    0.000 
#    0.000    0.000    0.000    0.000    0.000    0.000 
#
# Total GULP energy -89165.425602 kJ/mol
# GULP energy per Si atom -5572.839100 kJ/mol
# Density = 2.003993 g / cm^3
# Si number density = 20.085651 Si / 1000 Ang^3
#
#
#
# Elastic Constant Matrix: (Units=GPa)
#
#
# Indices 1 2 3 4 5 6 
#
# 1 120.5060 5.4547 33.9616 0.0000 19.3043 0.0000
# 2 5.4547 42.0756 -0.4802 0.0000 16.2229 0.0000
# 3 33.9616 -0.4802 43.6483 0.0000 -0.9124 0.0000
# 4 0.0000 0.0000 0.0000 30.7404 0.0000 -1.7524
# 5 19.3043 16.2229 -0.9124 0.0000 29.5603 0.0000
# 6 0.0000 0.0000 0.0000 -1.7524 0.0000 18.4590
#
#
#
# Elastic Compliance Matrix: (Units=1/GPa)
#
#
# Indices 1 2 3 4 5 6 
#
# 1 0.012544 0.001950 -0.009939 0.000000 -0.009569 0.000000
# 2 0.001950 0.030449 -0.001559 0.000000 -0.018032 0.000000
# 3 -0.009939 -0.001559 0.030800 0.000000 0.008297 0.000000
# 4 0.000000 0.000000 0.000000 0.032708 0.000000 0.003105
# 5 -0.009569 -0.018032 0.008297 0.000000 0.050230 0.000000
# 6 0.000000 0.000000 0.000000 0.003105 0.000000 0.054469
#
#
# Mechanical properties :
#
#
# Convention : Reuss Voigt Hill
#
# Bulk Modulus (GPa) = 18.28273 31.56690 24.92481
# Shear Modulus (GPa) = 20.11854 26.90484 23.51169
#
# Velocity S-wave (km/s) = 3.16830 3.66390 3.42507
# Velocity P-wave (km/s) = 4.74408 5.80078 5.29884
#
# Compressibility (1/GPa) = 0.05469642
#
# Stress axis : x y z
#
# Youngs Moduli (GPa) = 79.72016 32.84209 32.46780
#
# Poissons Ratio (x) = -0.06403 0.32269
# Poissons Ratio (y) = -0.15543 0.05062
# Poissons Ratio (z) = 0.79231 0.05120
#
# Static dielectric constant tensor:
#      x y z
#    x 1.644520 0.000000 -0.047270 
#    y 0.000000 1.688920 0.000000 
#    z -0.047270 0.000000 1.755080 
# 
# From -- ./inp_files/22137.got.cif
#   From: 2010.05.17/outbox.cif.g08.bks.cpg/sg5_12_cif.got.tgz:22137.got - 2010.06.03 18:56:24.
