data_PCOD9129696
_publ_section_title
;
Structure prediction by ZEFSAII (Michael W. Deem and Ramdas Pophale) SiO2 
 PCOD9129696
Probable space group: C 2
;
_chemical_formula_sum "Si O2"
_cell_formula_units_Z 16
_cell_length_a 15.364756
_cell_length_b 11.106695
_cell_length_c 11.239019
_cell_angle_alpha 90.000000
_cell_angle_beta 23.826998
_cell_angle_gamma 90.000000
_cell_volume 774.809428
_symmetry_space_group_name_H-M "C 2"
_symmetry_group_IT_number 5
_symmetry_cell_setting 'monoclinic'
loop_
_space_group_symop_operation_xyz
x,y,z
-x,y,-z
1/2+x,1/2+y,z
1/2-x,1/2+y,-z
loop_
_atom_site_type_symbol
_atom_site_label
_atom_site_fract_x
_atom_site_fract_y
_atom_site_fract_z
Si Si1 0.215563 0.079680 0.304096
Si Si2 0.500000 0.272134 0.000000
Si Si3 0.383968 0.633383 0.298956
Si Si4 0.500000 0.856577 0.000000
Si Si5 0.789861 0.491691 0.681811
O O1 0.161266 0.119325 0.506795
O O2 0.000000 0.084415 0.500000
O O3 0.395884 0.176627 0.037265
O O4 0.315791 0.946810 0.184616
O O5 0.697741 0.366259 0.745790
O O6 0.196235 0.577309 0.450635
O O7 0.424256 0.767596 0.199881
O O8 0.598556 0.555055 0.998161
O O9 0.000000 0.479105 0.500000
#
# Coordination Sequence:
#
# PCOD9129696 Si02
#       5
#     4   2   4   2   4
#     4  11  23  41  61  95 129 165 206 256 319 370
#     4   9  21  38  56  90 125 151 210 256 296 381
#     4   9  22  40  63  90 127 163 207 264 304 377
#     4   9  23  42  60  92 129 163 214 260 304 377
#     4   9  19  39  63  93 117 164 211 252 320 368
#
# _framework density 20.650238999999999
#
# number of rings (size 3 to 8) (size 9 to 14) (size 15 to 20)
#    0.000    3.000    0.000    0.750    7.000    8.000 
#    9.000    0.000    0.000    0.000    0.000    0.000 
#    0.000    0.000    0.000    0.000    0.000    0.000 
#
# Total GULP energy -44537.594364 kJ/mol
# GULP energy per Si atom -5567.199296 kJ/mol
# Density = 2.060324 g / cm^3
# Si number density = 20.650239 Si / 1000 Ang^3
#
#
#
# Elastic Constant Matrix: (Units=GPa)
#
#
# Indices 1 2 3 4 5 6 
#
# 1 174.1533 66.6952 78.3413 0.0000 -33.7164 -0.0001
# 2 66.6952 184.7924 50.7823 -0.0003 -17.6140 0.0001
# 3 78.3413 50.7823 71.5231 -0.0006 -25.6441 0.0005
# 4 0.0000 -0.0003 -0.0006 5.7677 0.0003 0.6330
# 5 -33.7164 -17.6140 -25.6441 0.0003 58.8833 -0.0001
# 6 -0.0001 0.0001 0.0005 0.6330 -0.0001 9.6621
#
#
#
# Elastic Compliance Matrix: (Units=1/GPa)
#
#
# Indices 1 2 3 4 5 6 
#
# 1 0.011511 -0.000862 -0.011525 -0.000001 0.001314 0.000001
# 2 -0.000862 0.006788 -0.003939 0.000000 -0.000179 0.000000
# 3 -0.011525 -0.003939 0.031539 0.000003 0.005958 -0.000002
# 4 -0.000001 0.000000 0.000003 0.174636 0.000000 -0.011442
# 5 0.001314 -0.000179 0.005958 0.000000 0.020276 0.000000
# 6 0.000001 0.000000 -0.000002 -0.011442 0.000000 0.104247
#
#
# Mechanical properties :
#
#
# Convention : Reuss Voigt Hill
#
# Bulk Modulus (GPa) = 58.19306 91.34516 74.76911
# Shear Modulus (GPa) = 12.90725 30.50594 21.70659
#
# Velocity S-wave (km/s) = 2.50279 3.84769 3.24567
# Velocity P-wave (km/s) = 6.04925 8.00438 7.09449
#
# Compressibility (1/GPa) = 0.01718418
#
# Stress axis : x y z
#
# Youngs Moduli (GPa) = 86.87224 147.31449 31.70726
#
# Poissons Ratio (x) = 0.12700 0.36543
# Poissons Ratio (y) = 0.07490 0.12491
# Poissons Ratio (z) = 1.00122 0.58034
#
# Static dielectric constant tensor:
#      x y z
#    x 1.710470 0.000000 0.040390 
#    y 0.000000 1.762110 0.000000 
#    z 0.040390 0.000000 1.885100 
# 
# From -- ./inp_files/42110.got.cif
#   From: 2010.05.17/outbox.cif.g08.bks.cpg/sg5_22_cif.got.tgz:42110.got - 2010.06.03 18:56:24.
