data_PCOD9129271
_publ_section_title
;
Structure prediction by ZEFSAII (Michael W. Deem and Ramdas Pophale) SiO2 
 PCOD9129271
Probable space group: C 2
;
_chemical_formula_sum "Si O2"
_cell_formula_units_Z 28
_cell_length_a 21.404032
_cell_length_b 12.452710
_cell_length_c 17.960664
_cell_angle_alpha 90.000000
_cell_angle_beta 163.531928
_cell_angle_gamma 90.000000
_cell_volume 1357.081124
_symmetry_space_group_name_H-M "C 2"
_symmetry_group_IT_number 5
_symmetry_cell_setting 'monoclinic'
loop_
_space_group_symop_operation_xyz
x,y,z
-x,y,-z
1/2+x,1/2+y,z
1/2-x,1/2+y,-z
loop_
_atom_site_type_symbol
_atom_site_label
_atom_site_fract_x
_atom_site_fract_y
_atom_site_fract_z
Si Si1 0.885128 0.446150 0.036295
Si Si2 0.453138 0.245650 0.360316
Si Si3 0.934585 0.646695 0.009872
Si Si4 0.200419 0.527540 0.897369
Si Si5 0.596342 0.655414 0.374580
Si Si6 0.765582 0.295410 0.100353
Si Si7 0.786881 0.802682 0.472594
O O1 0.879957 0.507497 0.109868
O O2 0.826779 0.531422 0.905368
O O3 0.131277 0.403702 0.306466
O O4 0.722106 0.343546 0.849380
O O5 0.500000 0.227018 0.500000
O O6 0.383757 0.134711 0.239753
O O7 0.670470 0.283316 0.565041
O O8 0.170544 0.644115 0.320156
O O9 0.000000 0.666266 0.000000
O O10 0.784755 0.735255 0.879976
O O11 0.154299 0.417739 0.801175
O O12 0.459930 0.548469 0.204436
O O13 0.438128 0.729641 0.246176
O O14 0.650564 0.709434 0.357805
O O15 0.529328 0.302312 0.787537
#
# Coordination Sequence:
#
# PCOD9129271 Si02
#       7
#     4   4   4   4   4   4   4
#     4  12  24  43  74  97 134 186 234 285 340 416
#     4  12  28  45  66 108 149 175 228 299 359 399
#     4  11  27  42  64 105 138 175 230 284 350 405
#     4  12  20  47  70  99 132 184 232 277 343 416
#     4  11  21  43  69  97 130 180 234 278 328 417
#     4  11  22  42  70  99 133 178 233 283 337 410
#     4  11  20  43  69  98 129 177 235 280 333 422
#
# _framework density 20.632517
#
# number of rings (size 3 to 8) (size 9 to 14) (size 15 to 20)
#    0.000    0.571    7.143    1.714    2.000    0.571 
#    2.571    0.000    0.000    0.000    0.000    0.000 
#    0.000    0.000    0.000    0.000    0.000    0.000 
#
# Total GULP energy -78188.996021 kJ/mol
# GULP energy per Si atom -5584.928287 kJ/mol
# Density = 2.058556 g / cm^3
# Si number density = 20.632517 Si / 1000 Ang^3
#
#
#
# Elastic Constant Matrix: (Units=GPa)
#
#
# Indices 1 2 3 4 5 6 
#
# 1 165.3941 54.0096 27.1569 -0.0034 11.4680 -0.0026
# 2 54.0096 127.8613 23.5806 -0.0084 12.5564 -0.0050
# 3 27.1569 23.5806 41.8856 0.0111 18.1087 0.0002
# 4 -0.0034 -0.0084 0.0111 26.6374 -0.0011 14.7627
# 5 11.4680 12.5564 18.1087 -0.0011 34.0342 -0.0008
# 6 -0.0026 -0.0050 0.0002 14.7627 -0.0008 36.6140
#
#
#
# Elastic Compliance Matrix: (Units=1/GPa)
#
#
# Indices 1 2 3 4 5 6 
#
# 1 0.007426 -0.002516 -0.003530 0.000002 0.000304 -0.000001
# 2 -0.002516 0.009596 -0.003386 0.000004 -0.000891 -0.000001
# 3 -0.003530 -0.003386 0.035086 -0.000021 -0.016230 0.000007
# 4 0.000002 0.000004 -0.000021 0.048344 0.000010 -0.019492
# 5 0.000304 -0.000891 -0.016230 0.000010 0.038244 -0.000003
# 6 -0.000001 -0.000001 0.000007 -0.019492 -0.000003 0.035171
#
#
# Mechanical properties :
#
#
# Convention : Reuss Voigt Hill
#
# Bulk Modulus (GPa) = 30.07985 60.51501 45.29743
# Shear Modulus (GPa) = 24.53247 34.81672 29.67459
#
# Velocity S-wave (km/s) = 3.45196 4.11234 3.79653
# Velocity P-wave (km/s) = 5.52255 7.20708 6.42030
#
# Compressibility (1/GPa) = 0.03324484
#
# Stress axis : x y z
#
# Youngs Moduli (GPa) = 134.65831 104.21499 28.50133
#
# Poissons Ratio (x) = 0.26218 0.10061
# Poissons Ratio (y) = 0.33876 0.09650
# Poissons Ratio (z) = 0.47534 0.35285
#
# Static dielectric constant tensor:
#      x y z
#    x 1.739590 0.000000 -0.003630 
#    y 0.000000 1.796400 0.000000 
#    z -0.003630 0.000000 1.737140 
# 
# From -- ./inp_files/62920.got.cif
#   From: 2010.05.17/outbox.cif.g08.bks.cpg/sg5_32_cif.got.tgz:62920.got - 2010.06.03 18:56:24.
