data_PCOD9129237
_publ_section_title
;
Structure prediction by ZEFSAII (Michael W. Deem and Ramdas Pophale) SiO2 
 PCOD9129237
Probable space group: C 2
;
_chemical_formula_sum "Si O2"
_cell_formula_units_Z 28
_cell_length_a 22.880326
_cell_length_b 5.194091
_cell_length_c 18.176735
_cell_angle_alpha 90.000000
_cell_angle_beta 145.633268
_cell_angle_gamma 90.000000
_cell_volume 1219.388827
_symmetry_space_group_name_H-M "C 2"
_symmetry_group_IT_number 5
_symmetry_cell_setting 'monoclinic'
loop_
_space_group_symop_operation_xyz
x,y,z
-x,y,-z
1/2+x,1/2+y,z
1/2-x,1/2+y,-z
loop_
_atom_site_type_symbol
_atom_site_label
_atom_site_fract_x
_atom_site_fract_y
_atom_site_fract_z
Si Si1 0.483056 0.666850 0.096952
Si Si2 0.347969 0.323602 0.049954
Si Si3 0.191592 0.955609 0.250183
Si Si4 0.502079 0.927650 0.737860
Si Si5 0.214002 0.432499 0.181473
Si Si6 0.641861 0.653271 0.791159
Si Si7 0.787089 0.632597 0.501451
O O1 0.420033 0.422366 0.059887
O O2 0.575237 0.566346 0.141797
O O3 0.531121 0.764765 0.224820
O O4 0.396543 0.861204 0.973390
O O5 0.353524 0.482426 0.130383
O O6 0.392556 0.051177 0.121170
O O7 0.235118 0.352200 0.899646
O O8 0.195882 0.671629 0.219006
O O9 0.246403 0.994366 0.385454
O O10 0.242816 0.166771 0.250757
O O11 0.531819 0.788611 0.691923
O O12 0.411795 0.130680 0.631248
O O13 0.310866 0.502866 0.228863
O O14 0.749985 0.924546 0.475511
#
# Coordination Sequence:
#
# PCOD9129237 Si02
#       7
#     4   4   4   4   4   4   4
#     4  11  24  42  67 109 135 185 232 297 354 413
#     4  11  20  38  70 103 143 175 240 295 351 400
#     4  12  28  47  70 105 146 191 234 281 362 427
#     4  11  24  41  77 103 133 185 241 300 344 400
#     4  12  27  44  70  99 156 190 224 285 359 443
#     4  11  22  39  64 105 142 185 226 291 350 413
#     4  12  26  51  77 102 140 180 245 305 339 411
#
# _framework density 22.962323999999999
#
# number of rings (size 3 to 8) (size 9 to 14) (size 15 to 20)
#    0.000    0.571    4.286    3.857    6.000    2.286 
#    0.000    0.714    0.000    0.000    0.000    0.000 
#    0.000    0.000    0.000    0.000    0.000    0.000 
#
# Total GULP energy -78067.524530 kJ/mol
# GULP energy per Si atom -5576.251752 kJ/mol
# Density = 2.291006 g / cm^3
# Si number density = 22.962324 Si / 1000 Ang^3
#
#
#
# Elastic Constant Matrix: (Units=GPa)
#
#
# Indices 1 2 3 4 5 6 
#
# 1 95.0372 17.6150 0.4051 0.0000 4.3054 0.0001
# 2 17.6150 75.5616 -10.4552 0.0004 -7.0538 0.0009
# 3 0.4051 -10.4552 36.9922 0.0000 -8.2790 0.0000
# 4 0.0000 0.0004 0.0000 19.1111 -0.0001 -1.6670
# 5 4.3054 -7.0538 -8.2790 -0.0001 29.1964 0.0002
# 6 0.0001 0.0009 0.0000 -1.6670 0.0002 45.6612
#
#
#
# Elastic Compliance Matrix: (Units=1/GPa)
#
#
# Indices 1 2 3 4 5 6 
#
# 1 0.011237 -0.003116 -0.001648 0.000000 -0.002877 0.000000
# 2 -0.003116 0.015278 0.005639 0.000000 0.005750 0.000000
# 3 -0.001648 0.005639 0.030969 0.000000 0.010387 0.000000
# 4 0.000000 0.000000 0.000000 0.052493 0.000000 0.001916
# 5 -0.002877 0.005750 0.010387 0.000000 0.039010 0.000000
# 6 0.000000 0.000000 0.000000 0.001916 0.000000 0.021970
#
#
# Mechanical properties :
#
#
# Convention : Reuss Voigt Hill
#
# Bulk Modulus (GPa) = 16.88224 24.74675 20.81449
# Shear Modulus (GPa) = 26.46182 32.12880 29.29531
#
# Velocity S-wave (km/s) = 3.39839 3.74464 3.57571
# Velocity P-wave (km/s) = 4.77146 5.43111 5.11194
#
# Compressibility (1/GPa) = 0.05923386
#
# Stress axis : x y z
#
# Youngs Moduli (GPa) = 88.99063 65.45509 32.29020
#
# Poissons Ratio (x) = 0.20397 0.05321
# Poissons Ratio (y) = 0.27731 -0.18208
# Poissons Ratio (z) = 0.14663 -0.36909
#
# Static dielectric constant tensor:
#      x y z
#    x 1.946850 0.000000 0.000910 
#    y 0.000000 1.935050 0.000000 
#    z 0.000910 0.000000 1.895290 
# 
# From -- ./inp_files/67246.got.cif
#   From: 2010.05.17/outbox.cif.g08.bks.cpg/sg5_34_cif.got.tgz:67246.got - 2010.06.03 18:56:24.
