data_PCOD9129014
_publ_section_title
;
Structure prediction by ZEFSAII (Michael W. Deem and Ramdas Pophale) SiO2 
 PCOD9129014
Probable space group: C 2
;
_chemical_formula_sum "Si O2"
_cell_formula_units_Z 18
_cell_length_a 7.935366
_cell_length_b 9.192281
_cell_length_c 12.070558
_cell_angle_alpha 90.000000
_cell_angle_beta 60.440080
_cell_angle_gamma 90.000000
_cell_volume 765.873597
_symmetry_space_group_name_H-M "C 2"
_symmetry_group_IT_number 5
_symmetry_cell_setting 'monoclinic'
loop_
_space_group_symop_operation_xyz
x,y,z
-x,y,-z
1/2+x,1/2+y,z
1/2-x,1/2+y,-z
loop_
_atom_site_type_symbol
_atom_site_label
_atom_site_fract_x
_atom_site_fract_y
_atom_site_fract_z
Si Si1 0.553058 0.976170 0.665875
Si Si2 0.858581 0.780257 0.445596
Si Si3 0.062456 0.279090 0.108064
Si Si4 0.888795 0.993037 0.251082
Si Si5 0.000000 0.812850 0.000000
O O1 0.671882 0.854279 0.560858
O O2 0.501246 0.927195 0.808315
O O3 0.342824 0.987920 0.678005
O O4 0.661231 0.131503 0.618203
O O5 0.953097 0.904434 0.337589
O O6 0.000000 0.745703 0.500000
O O7 0.290897 0.241416 0.046300
O O8 0.955492 0.155907 0.213304
O O9 0.000000 0.278900 0.000000
O O10 0.967766 0.910074 0.118515
#
# Coordination Sequence:
#
# PCOD9129014 Si02
#       5
#     4   4   4   4   2
#     4  11  26  48  73 107 153 192 254 311 372 449
#     4  12  26  45  76 107 148 200 249 311 378 443
#     4  11  25  51  79 109 157 200 244 315 375 446
#     4  11  25  50  71 109 154 190 250 316 362 452
#     4  10  26  44  74 114 152 194 254 302 368 450
#
# _framework density 23.502572000000001
#
# number of rings (size 3 to 8) (size 9 to 14) (size 15 to 20)
#    0.000    0.889    1.111    4.667    6.222    5.333 
#    4.000    1.111    0.000    0.000    0.000    0.000 
#    0.000    0.000    0.000    0.000    0.000    0.000 
#
# Total GULP energy -50359.347570 kJ/mol
# GULP energy per Si atom -5595.483063 kJ/mol
# Density = 2.344908 g / cm^3
# Si number density = 23.502572 Si / 1000 Ang^3
#
#
#
# Elastic Constant Matrix: (Units=GPa)
#
#
# Indices 1 2 3 4 5 6 
#
# 1 75.5718 43.6172 49.3649 0.0000 -16.1116 0.0000
# 2 43.6172 117.6261 66.3278 0.0000 -1.7372 0.0000
# 3 49.3649 66.3278 153.5829 0.0000 5.7398 0.0000
# 4 0.0000 0.0000 0.0000 23.6678 0.0000 -17.0573
# 5 -16.1116 -1.7372 5.7398 0.0000 54.1626 0.0000
# 6 0.0000 0.0000 0.0000 -17.0573 0.0000 15.9665
#
#
#
# Elastic Compliance Matrix: (Units=1/GPa)
#
#
# Indices 1 2 3 4 5 6 
#
# 1 0.020490 -0.004829 -0.004741 0.000000 0.006443 0.000000
# 2 -0.004829 0.012418 -0.003787 0.000000 -0.000637 0.000000
# 3 -0.004741 -0.003787 0.009766 0.000000 -0.002567 0.000000
# 4 0.000000 0.000000 0.000000 0.183650 0.000000 0.196197
# 5 0.006443 -0.000637 -0.002567 0.000000 0.020631 0.000000
# 6 0.000000 0.000000 0.000000 0.196197 0.000000 0.272232
#
#
# Mechanical properties :
#
#
# Convention : Reuss Voigt Hill
#
# Bulk Modulus (GPa) = 62.65665 73.93339 68.29502
# Shear Modulus (GPa) = 9.07072 31.25744 20.16408
#
# Velocity S-wave (km/s) = 1.96668 3.65082 2.93226
# Velocity P-wave (km/s) = 5.64575 7.02119 6.37070
#
# Compressibility (1/GPa) = 0.01596000
#
# Stress axis : x y z
#
# Youngs Moduli (GPa) = 48.80332 80.52568 102.39104
#
# Poissons Ratio (x) = 0.38890 0.48545
# Poissons Ratio (y) = 0.23569 0.38776
# Poissons Ratio (z) = 0.23138 0.30495
#
# Static dielectric constant tensor:
#      x y z
#    x 1.880720 0.000000 -0.021880 
#    y 0.000000 1.925490 0.000000 
#    z -0.021880 0.000000 1.873320 
# 
# From -- ./inp_files/34638.got.cif
#   From: 2010.05.17/outbox.cif.g08.bks.cpg/sg5_18_cif.got.tgz:34638.got - 2010.06.03 18:56:24.
