data_PCOD9129850
_publ_section_title
;
Structure prediction by ZEFSAII (Michael W. Deem and Ramdas Pophale) SiO2 
 PCOD9129850
Probable space group: C 2
;
_chemical_formula_sum "Si O2"
_cell_formula_units_Z 22
_cell_length_a 16.627975
_cell_length_b 7.763394
_cell_length_c 17.575523
_cell_angle_alpha 90.000000
_cell_angle_beta 24.239326
_cell_angle_gamma 90.000000
_cell_volume 931.460051
_symmetry_space_group_name_H-M "C 2"
_symmetry_group_IT_number 5
_symmetry_cell_setting 'monoclinic'
loop_
_space_group_symop_operation_xyz
x,y,z
-x,y,-z
1/2+x,1/2+y,z
1/2-x,1/2+y,-z
loop_
_atom_site_type_symbol
_atom_site_label
_atom_site_fract_x
_atom_site_fract_y
_atom_site_fract_z
Si Si1 0.202470 0.579040 0.364419
Si Si2 0.500000 0.394715 0.000000
Si Si3 0.784141 0.973732 0.692470
Si Si4 0.471606 0.092274 0.219629
Si Si5 0.175533 0.341525 0.530563
Si Si6 0.710287 0.635991 0.163742
O O1 0.387135 0.505588 0.160047
O O2 0.210907 0.784377 0.347269
O O3 0.190170 0.498209 0.458264
O O4 0.000000 0.522130 0.500000
O O5 0.332362 0.286405 0.100970
O O6 0.000000 0.052162 0.500000
O O7 0.640059 0.086336 0.765551
O O8 0.750370 0.976780 0.812338
O O9 0.386488 0.250396 0.341955
O O10 0.405703 0.924166 0.322336
O O11 0.695551 0.103911 0.000230
O O12 0.013831 0.196749 0.648404
#
# Coordination Sequence:
#
# PCOD9129850 Si02
#       6
#     4   2   4   4   4   4
#     4  11  24  42  70 105 138 178 236 287 341 417
#     4  12  22  40  76 102 134 180 234 290 340 408
#     4  11  23  45  75 104 135 183 240 287 341 415
#     4  12  26  46  71  99 142 187 229 290 359 403
#     4  12  26  48  68 102 147 182 230 293 352 419
#     4  12  24  45  73 101 139 185 236 283 348 415
#
# _framework density 23.618835000000001
#
# number of rings (size 3 to 8) (size 9 to 14) (size 15 to 20)
#    0.000    0.364    7.273    1.091    2.545    1.455 
#    9.818    0.000    0.000    0.000    0.000    0.000 
#    0.000    0.000    0.000    0.000    0.000    0.000 
#
# Total GULP energy -61514.261713 kJ/mol
# GULP energy per Si atom -5592.205610 kJ/mol
# Density = 2.356508 g / cm^3
# Si number density = 23.618835 Si / 1000 Ang^3
#
#
#
# Elastic Constant Matrix: (Units=GPa)
#
#
# Indices 1 2 3 4 5 6 
#
# 1 46.9100 13.0855 18.4920 0.0000 30.9843 0.0000
# 2 13.0855 60.3892 12.1268 -0.0003 16.1774 0.0001
# 3 18.4920 12.1268 126.1246 -0.0003 33.8152 0.0002
# 4 0.0000 -0.0003 -0.0003 41.0612 0.0001 12.3130
# 5 30.9843 16.1774 33.8152 0.0001 40.2941 0.0000
# 6 0.0000 0.0001 0.0002 12.3130 0.0000 34.5229
#
#
#
# Elastic Compliance Matrix: (Units=1/GPa)
#
#
# Indices 1 2 3 4 5 6 
#
# 1 0.044440 -0.000441 0.003408 0.000000 -0.036856 0.000000
# 2 -0.000441 0.018567 0.000241 0.000000 -0.007318 0.000000
# 3 0.003408 0.000241 0.010496 0.000000 -0.011526 0.000000
# 4 0.000000 0.000000 0.000000 0.027271 0.000000 -0.009726
# 5 -0.036856 -0.007318 -0.011526 0.000000 0.065769 0.000000
# 6 0.000000 0.000000 0.000000 -0.009726 0.000000 0.032435
#
#
# Mechanical properties :
#
#
# Convention : Reuss Voigt Hill
#
# Bulk Modulus (GPa) = 12.51248 35.64804 24.08026
# Shear Modulus (GPa) = 22.81022 35.82360 29.31691
#
# Velocity S-wave (km/s) = 3.11105 3.89876 3.52696
# Velocity P-wave (km/s) = 4.26778 5.94919 5.17720
#
# Compressibility (1/GPa) = 0.07992020
#
# Stress axis : x y z
#
# Youngs Moduli (GPa) = 22.50211 53.86000 95.27460
#
# Poissons Ratio (x) = 0.02374 -0.32470
# Poissons Ratio (y) = 0.00992 -0.02300
# Poissons Ratio (z) = -0.07669 -0.01300
#
# Static dielectric constant tensor:
#      x y z
#    x 1.915560 0.000000 0.039180 
#    y 0.000000 1.894160 0.000000 
#    z 0.039180 0.000000 1.934600 
# 
# From -- ./inp_files/67018.got.cif
#   From: 2010.05.17/outbox.cif.g08.bks.cpg/sg5_34_cif.got.tgz:67018.got - 2010.06.03 18:56:24.
