data_PCOD9129106
_publ_section_title
;
Structure prediction by ZEFSAII (Michael W. Deem and Ramdas Pophale) SiO2 
 PCOD9129106
Probable space group: C 2
;
_chemical_formula_sum "Si O2"
_cell_formula_units_Z 28
_cell_length_a 9.366491
_cell_length_b 9.956314
_cell_length_c 12.230851
_cell_angle_alpha 90.000000
_cell_angle_beta 114.690882
_cell_angle_gamma 90.000000
_cell_volume 1036.317431
_symmetry_space_group_name_H-M "C 2"
_symmetry_group_IT_number 5
_symmetry_cell_setting 'monoclinic'
loop_
_space_group_symop_operation_xyz
x,y,z
-x,y,-z
1/2+x,1/2+y,z
1/2-x,1/2+y,-z
loop_
_atom_site_type_symbol
_atom_site_label
_atom_site_fract_x
_atom_site_fract_y
_atom_site_fract_z
Si Si1 0.479415 0.163830 0.125480
Si Si2 0.859737 0.105439 0.545100
Si Si3 0.476151 0.015903 0.654594
Si Si4 0.172677 0.040690 0.030216
Si Si5 0.619868 0.510786 0.767730
Si Si6 0.763385 0.317316 0.235174
Si Si7 0.147195 0.781091 0.614037
O O1 0.526377 0.034668 0.214281
O O2 0.293650 0.161783 0.079959
O O3 0.821362 0.165636 0.229981
O O4 0.500000 0.157963 0.000000
O O5 0.702024 0.034935 0.446152
O O6 0.786637 0.238823 0.577343
O O7 0.000000 0.124479 0.500000
O O8 0.091839 0.392870 0.660203
O O9 0.414061 0.278408 0.784900
O O10 0.575478 0.144586 0.642114
O O11 0.221979 0.918438 0.123656
O O12 0.163867 0.985743 0.905654
O O13 0.000000 0.090023 0.000000
O O14 0.438475 0.526592 0.671267
O O15 0.686934 0.391172 0.715851
O O16 0.000000 0.839330 0.500000
#
# Coordination Sequence:
#
# PCOD9129106 Si02
#       7
#     4   4   4   4   4   4   4
#     4  11  23  47  84 117 168 229 285 354 425 522
#     4  11  26  52  85 124 176 226 296 368 453 523
#     4  10  26  50  83 124 173 229 296 358 445 536
#     4  11  28  48  81 128 176 229 286 358 447 525
#     4  12  27  49  85 125 172 228 293 363 439 534
#     4  11  26  50  86 120 170 233 291 357 436 514
#     4  10  26  51  80 117 164 229 289 362 434 531
#
# _framework density 27.018749
#
# number of rings (size 3 to 8) (size 9 to 14) (size 15 to 20)
#    0.000    1.143    1.429    1.714    8.000    5.714 
#    0.000    9.286    3.143    0.000    0.000    1.000 
#    0.000    0.000    0.000    0.000    0.000    0.000 
#
# Total GULP energy -78299.729988 kJ/mol
# GULP energy per Si atom -5592.837856 kJ/mol
# Density = 2.695725 g / cm^3
# Si number density = 27.018749 Si / 1000 Ang^3
#
#
#
# Elastic Constant Matrix: (Units=GPa)
#
#
# Indices 1 2 3 4 5 6 
#
# 1 213.8727 105.5537 82.5064 0.0000 43.8484 0.0000
# 2 105.5537 122.4843 15.1840 0.0000 21.5931 0.0000
# 3 82.5064 15.1840 117.9400 0.0000 32.3001 0.0000
# 4 0.0000 0.0000 0.0000 14.8157 0.0000 -2.4451
# 5 43.8484 21.5931 32.3001 0.0000 53.1393 0.0000
# 6 0.0000 0.0000 0.0000 -2.4451 0.0000 39.1703
#
#
#
# Elastic Compliance Matrix: (Units=1/GPa)
#
#
# Indices 1 2 3 4 5 6 
#
# 1 0.012495 -0.009516 -0.006900 0.000000 -0.002250 0.000000
# 2 -0.009516 0.016045 0.005071 0.000000 -0.001750 0.000000
# 3 -0.006900 0.005071 0.013986 0.000000 -0.004868 0.000000
# 4 0.000000 0.000000 0.000000 0.068198 0.000000 0.004257
# 5 -0.002250 -0.001750 -0.004868 0.000000 0.024345 0.000000
# 6 0.000000 0.000000 0.000000 0.004257 0.000000 0.025795
#
#
# Mechanical properties :
#
#
# Convention : Reuss Voigt Hill
#
# Bulk Modulus (GPa) = 50.41463 95.64279 73.02871
# Shear Modulus (GPa) = 26.29257 38.16193 32.22725
#
# Velocity S-wave (km/s) = 3.12288 3.76230 3.45740
# Velocity P-wave (km/s) = 5.63052 7.37216 6.55940
#
# Compressibility (1/GPa) = 0.01983551
#
# Stress axis : x y z
#
# Youngs Moduli (GPa) = 80.03042 62.32518 71.49850
#
# Poissons Ratio (x) = 0.59309 0.49334
# Poissons Ratio (y) = 0.76158 -0.36254
# Poissons Ratio (z) = 0.55221 -0.31603
#
# Static dielectric constant tensor:
#      x y z
#    x 2.253730 0.000000 -0.018190 
#    y 0.000000 2.148230 0.000000 
#    z -0.018190 0.000000 2.148170 
# 
# From -- ./inp_files/36508.got.cif
#   From: 2010.05.17/outbox.cif.g08.bks.cpg/sg5_19_cif.got.tgz:36508.got - 2010.06.03 18:56:24.
