data_PCOD9129053
_publ_section_title
;
Structure prediction by ZEFSAII (Michael W. Deem and Ramdas Pophale) SiO2 
 PCOD9129053
Probable space group: C 2
;
_chemical_formula_sum "Si O2"
_cell_formula_units_Z 14
_cell_length_a 21.903472
_cell_length_b 5.015781
_cell_length_c 5.060675
_cell_angle_alpha 90.000000
_cell_angle_beta 74.507029
_cell_angle_gamma 90.000000
_cell_volume 535.778478
_symmetry_space_group_name_H-M "C 2"
_symmetry_group_IT_number 5
_symmetry_cell_setting 'monoclinic'
loop_
_space_group_symop_operation_xyz
x,y,z
-x,y,-z
1/2+x,1/2+y,z
1/2-x,1/2+y,-z
loop_
_atom_site_type_symbol
_atom_site_label
_atom_site_fract_x
_atom_site_fract_y
_atom_site_fract_z
Si Si1 0.500000 0.210070 0.500000
Si Si2 0.382109 0.555058 0.436753
Si Si3 0.601777 0.924853 0.084596
Si Si4 0.291478 0.287091 0.894772
O O1 0.444813 0.383699 0.430218
O O2 0.532617 0.032624 0.236620
O O3 0.378115 0.776194 0.671537
O O4 0.320906 0.375512 0.579240
O O5 0.391100 0.720026 0.160493
O O6 0.649054 0.175105 0.005557
O O7 0.257066 0.541993 0.059502
#
# Coordination Sequence:
#
# PCOD9129053 Si02
#       4
#     2   4   4   4
#     4  10  26  46  84 120 164 214 264 334 404 486
#     4  11  26  50  79 120 161 211 269 329 404 479
#     4  11  26  50  79 120 161 211 269 329 404 479
#     4  11  24  53  82 123 160 215 268 336 398 481
#
# _framework density 26.130203000000002
#
# number of rings (size 3 to 8) (size 9 to 14) (size 15 to 20)
#    0.000    1.143    2.857    0.857    0.000   16.000 
#   10.286    0.000    0.000    0.000    0.000    0.000 
#    0.000    0.000    0.000    0.000    0.000    0.000 
#
# Total GULP energy -39277.404096 kJ/mol
# GULP energy per Si atom -5611.057728 kJ/mol
# Density = 2.607073 g / cm^3
# Si number density = 26.130203 Si / 1000 Ang^3
#
#
#
# Elastic Constant Matrix: (Units=GPa)
#
#
# Indices 1 2 3 4 5 6 
#
# 1 100.4415 69.7166 88.2818 0.0000 -45.6664 0.0000
# 2 69.7166 202.9079 122.1486 0.0000 -31.7781 0.0000
# 3 88.2818 122.1486 200.9510 0.0000 -20.8462 0.0000
# 4 0.0000 0.0000 0.0000 74.5355 0.0000 -24.2461
# 5 -45.6664 -31.7781 -20.8462 0.0000 52.4736 0.0000
# 6 0.0000 0.0000 0.0000 -24.2461 0.0000 54.3030
#
#
#
# Elastic Compliance Matrix: (Units=1/GPa)
#
#
# Indices 1 2 3 4 5 6 
#
# 1 0.028469 -0.000513 -0.010072 0.000000 0.020464 0.000000
# 2 -0.000513 0.008246 -0.004501 0.000000 0.002759 0.000000
# 3 -0.010072 -0.004501 0.011415 0.000000 -0.006956 0.000000
# 4 0.000000 0.000000 0.000000 0.015696 0.000000 0.007008
# 5 0.020464 0.002759 -0.006956 0.000000 0.035774 0.000000
# 6 0.000000 0.000000 0.000000 0.007008 0.000000 0.021544
#
#
# Mechanical properties :
#
#
# Convention : Reuss Voigt Hill
#
# Bulk Modulus (GPa) = 55.68479 118.28827 86.98653
# Shear Modulus (GPa) = 31.78565 51.20597 41.49581
#
# Velocity S-wave (km/s) = 3.49152 4.43159 3.98935
# Velocity P-wave (km/s) = 6.13279 8.45887 7.38795
#
# Compressibility (1/GPa) = 0.01795822
#
# Stress axis : x y z
#
# Youngs Moduli (GPa) = 35.12576 121.26709 87.60116
#
# Poissons Ratio (x) = 0.06226 0.88233
# Poissons Ratio (y) = 0.01804 0.39427
# Poissons Ratio (z) = 0.35379 0.54579
#
# Static dielectric constant tensor:
#      x y z
#    x 2.129720 0.000000 0.018700 
#    y 0.000000 2.105030 0.000000 
#    z 0.018700 0.000000 2.021310 
# 
# From -- ./inp_files/9002.got.cif
#   From: 2010.05.17/outbox.cif.g08.bks.cpg/sg5_5_cif.got.tgz:9002.got - 2010.06.03 18:56:24.
