data_PCOD9129056
_publ_section_title
;
Structure prediction by ZEFSAII (Michael W. Deem and Ramdas Pophale) SiO2 
 PCOD9129056
Probable space group: C 2
;
_chemical_formula_sum "Si O2"
_cell_formula_units_Z 12
_cell_length_a 5.458340
_cell_length_b 17.380174
_cell_length_c 5.028358
_cell_angle_alpha 90.000000
_cell_angle_beta 86.396580
_cell_angle_gamma 90.000000
_cell_volume 476.081642
_symmetry_space_group_name_H-M "C 2"
_symmetry_group_IT_number 5
_symmetry_cell_setting 'monoclinic'
loop_
_space_group_symop_operation_xyz
x,y,z
-x,y,-z
1/2+x,1/2+y,z
1/2-x,1/2+y,-z
loop_
_atom_site_type_symbol
_atom_site_label
_atom_site_fract_x
_atom_site_fract_y
_atom_site_fract_z
Si Si1 0.155632 0.238740 0.221087
Si Si2 0.500000 0.370800 0.000000
Si Si3 0.164852 0.477861 0.258215
Si Si4 0.500000 0.126536 0.500000
O O1 0.365527 0.181823 0.305416
O O2 0.000000 0.256836 0.500000
O O3 0.275267 0.312129 0.061667
O O4 0.000000 0.200043 0.000000
O O5 0.579210 0.433795 0.776572
O O6 0.183831 0.566783 0.343637
O O7 0.000000 0.440781 0.500000
O O8 0.000000 0.473831 0.000000
#
# Coordination Sequence:
#
# PCOD9129056 Si02
#       4
#     4   2   4   2
#     4  12  28  47  82 115 153 202 258 317 378 459
#     4  12  26  52  78 110 158 202 256 314 384 454
#     4  10  26  47  77 112 149 202 253 314 384 451
#     4  10  28  54  78 114 156 198 262 316 386 444
#
# _framework density 25.205760999999999
#
# number of rings (size 3 to 8) (size 9 to 14) (size 15 to 20)
#    1.000    0.000    0.000    4.000    7.000    9.333 
#    0.000    0.000    0.000    0.000    0.000    0.000 
#    0.000    0.000    0.000    0.000    0.000    0.000 
#
# Total GULP energy -33468.553854 kJ/mol
# GULP energy per Si atom -5578.092309 kJ/mol
# Density = 2.514839 g / cm^3
# Si number density = 25.205761 Si / 1000 Ang^3
#
#
#
# Elastic Constant Matrix: (Units=GPa)
#
#
# Indices 1 2 3 4 5 6 
#
# 1 99.9166 54.5819 68.0750 0.0000 -17.1005 0.0000
# 2 54.5819 152.4112 34.2492 0.0000 3.6640 0.0000
# 3 68.0750 34.2492 182.4778 0.0000 3.8686 0.0000
# 4 0.0000 0.0000 0.0000 33.5215 0.0000 -31.7886
# 5 -17.1005 3.6640 3.8686 0.0000 72.0492 0.0000
# 6 0.0000 0.0000 0.0000 -31.7886 0.0000 32.2545
#
#
#
# Elastic Compliance Matrix: (Units=1/GPa)
#
#
# Indices 1 2 3 4 5 6 
#
# 1 0.017445 -0.005090 -0.005652 0.000000 0.004703 0.000000
# 2 -0.005090 0.008341 0.000368 0.000000 -0.001652 0.000000
# 3 -0.005652 0.000368 0.007557 0.000000 -0.001766 0.000000
# 4 0.000000 0.000000 0.000000 0.456195 0.000000 0.449606
# 5 0.004703 -0.001652 -0.001766 0.000000 0.015174 0.000000
# 6 0.000000 0.000000 0.000000 0.449606 0.000000 0.474115
#
#
# Mechanical properties :
#
#
# Convention : Reuss Voigt Hill
#
# Bulk Modulus (GPa) = 79.39794 83.17974 81.28884
# Shear Modulus (GPa) = 4.98120 46.09168 25.53644
#
# Velocity S-wave (km/s) = 1.40730 4.28087 3.18641
# Velocity P-wave (km/s) = 5.84884 7.58330 6.77183
#
# Compressibility (1/GPa) = 0.01259479
#
# Stress axis : x y z
#
# Youngs Moduli (GPa) = 57.32321 119.88868 132.32700
#
# Poissons Ratio (x) = 0.61027 0.74795
# Poissons Ratio (y) = 0.29179 -0.04876
# Poissons Ratio (z) = 0.32401 -0.04418
#
# Static dielectric constant tensor:
#      x y z
#    x 1.968520 0.000000 -0.035680 
#    y 0.000000 1.968950 0.000000 
#    z -0.035680 0.000000 1.970600 
# 
# From -- ./inp_files/372.got.cif
#   From: 2010.05.17/outbox.cif.g08.bks.cpg/sg5_1_cif.got.tgz:372.got - 2010.06.03 18:56:24.
