data_PCOD9129799
_publ_section_title
;
Structure prediction by ZEFSAII (Michael W. Deem and Ramdas Pophale) SiO2 
 PCOD9129799
Probable space group: C 2
;
_chemical_formula_sum "Si O2"
_cell_formula_units_Z 22
_cell_length_a 5.052071
_cell_length_b 23.998343
_cell_length_c 8.070377
_cell_angle_alpha 90.000000
_cell_angle_beta 98.608098
_cell_angle_gamma 90.000000
_cell_volume 967.441106
_symmetry_space_group_name_H-M "C 2"
_symmetry_group_IT_number 5
_symmetry_cell_setting 'monoclinic'
loop_
_space_group_symop_operation_xyz
x,y,z
-x,y,-z
1/2+x,1/2+y,z
1/2-x,1/2+y,-z
loop_
_atom_site_type_symbol
_atom_site_label
_atom_site_fract_x
_atom_site_fract_y
_atom_site_fract_z
Si Si1 0.065931 0.445980 0.326789
Si Si2 0.227314 0.736139 0.877620
Si Si3 0.000000 0.033846 0.500000
Si Si4 0.713044 0.025945 0.893508
Si Si5 0.274573 0.833715 0.618698
Si Si6 0.678853 0.121958 0.678625
O O1 0.280257 0.494625 0.389636
O O2 0.151707 0.387552 0.257615
O O3 0.000000 0.422438 0.500000
O O4 0.798909 0.476869 0.241705
O O5 0.200916 0.783357 0.735402
O O6 0.251998 0.678271 0.777083
O O7 0.500000 0.746021 0.000000
O O8 0.000000 0.733652 0.000000
O O9 0.104335 0.077942 0.372109
O O10 0.568581 0.081485 0.811829
O O11 0.500000 0.000505 0.000000
O O12 0.000000 0.036141 0.000000
O O13 0.500000 0.815606 0.500000
O O14 0.000000 0.849545 0.500000
O O15 0.500000 0.133319 0.500000
#
# Coordination Sequence:
#
# PCOD9129799 Si02
#       6
#     4   4   2   4   4   4
#     4  11  23  44  70 106 144 192 244 305 346 437
#     4  12  29  51  73 106 151 189 242 308 375 433
#     4  12  20  42  74 106 146 174 250 300 352 424
#     4  12  25  41  64 104 150 187 231 288 372 436
#     4  11  25  47  79 105 140 192 255 301 356 425
#     4  12  26  42  74 101 140 194 245 299 355 432
#
# _framework density 22.740400999999999
#
# number of rings (size 3 to 8) (size 9 to 14) (size 15 to 20)
#    0.000    0.364    4.545    3.818    3.818    0.727 
#    0.000    3.636    0.000    0.000    0.000    0.000 
#    0.000    0.000    0.000    0.000    0.000    0.000 
#
# Total GULP energy -61293.253157 kJ/mol
# GULP energy per Si atom -5572.113923 kJ/mol
# Density = 2.268864 g / cm^3
# Si number density = 22.740401 Si / 1000 Ang^3
#
#
#
# Elastic Constant Matrix: (Units=GPa)
#
#
# Indices 1 2 3 4 5 6 
#
# 1 87.7975 -6.3267 0.8708 0.0000 -7.8835 0.0000
# 2 -6.3267 147.4089 6.8765 0.0000 -11.7255 0.0000
# 3 0.8708 6.8765 61.0056 0.0000 1.2815 0.0000
# 4 0.0000 0.0000 0.0000 -15.0664 0.0000 -2.6618
# 5 -7.8835 -11.7255 1.2815 0.0000 37.7414 0.0000
# 6 0.0000 0.0000 0.0000 -2.6618 0.0000 21.9140
#
#
#
# Elastic Compliance Matrix: (Units=1/GPa)
#
#
# Indices 1 2 3 4 5 6 
#
# 1 0.011686 0.000729 -0.000305 0.000000 0.002678 0.000000
# 2 0.000729 0.007043 -0.000854 0.000000 0.002369 0.000000
# 3 -0.000305 -0.000854 0.016511 0.000000 -0.000890 0.000000
# 4 0.000000 0.000000 0.000000 -0.064979 0.000000 -0.007893
# 5 0.002678 0.002369 -0.000890 0.000000 0.027822 0.000000
# 6 0.000000 0.000000 0.000000 -0.007893 0.000000 0.044674
#
#
# Mechanical properties :
#
#
# Convention : Reuss Voigt Hill
#
# Bulk Modulus (GPa) = 29.08712 33.22813 31.15763
# Shear Modulus (GPa) = 90.77891 28.57058 59.67475
#
# Velocity S-wave (km/s) = 6.32506 3.54839 5.12823
# Velocity P-wave (km/s) = 8.13391 5.60640 6.98542
#
# Compressibility (1/GPa) = 0.03437947
#
# Stress axis : x y z
#
# Youngs Moduli (GPa) = 85.57377 141.97580 60.56477
#
# Poissons Ratio (x) = -0.10347 0.01848
# Poissons Ratio (y) = -0.06237 0.05173
# Poissons Ratio (z) = 0.02612 0.12126
#
# Static dielectric constant tensor:
#      x y z
#    x 1.799160 0.000000 0.092400 
#    y 0.000000 1.833070 0.000000 
#    z 0.092400 0.000000 1.700650 
# 
# From -- ./inp_files/12544.got.cif
#   From: 2010.05.17/outbox.cif.g08.bks.cpg/sg5_7_cif.got.tgz:12544.got - 2010.06.03 18:56:24.
