data_PCOD9129508
_publ_section_title
;
Structure prediction by ZEFSAII (Michael W. Deem and Ramdas Pophale) SiO2 
 PCOD9129508
Probable space group: C 2
;
_chemical_formula_sum "Si O2"
_cell_formula_units_Z 20
_cell_length_a 14.695802
_cell_length_b 3.349856
_cell_length_c 11.661427
_cell_angle_alpha 90.000000
_cell_angle_beta 91.239250
_cell_angle_gamma 90.000000
_cell_volume 573.944021
_symmetry_space_group_name_H-M "C 2"
_symmetry_group_IT_number 5
_symmetry_cell_setting 'monoclinic'
loop_
_space_group_symop_operation_xyz
x,y,z
-x,y,-z
1/2+x,1/2+y,z
1/2-x,1/2+y,-z
loop_
_atom_site_type_symbol
_atom_site_label
_atom_site_fract_x
_atom_site_fract_y
_atom_site_fract_z
Si Si1 0.902275 0.884630 0.468115
Si Si2 0.030211 0.629912 0.774088
Si Si3 0.221104 0.630199 0.340660
Si Si4 0.573252 0.631315 0.103273
Si Si5 0.730569 0.131083 0.835538
O O1 0.926946 0.645333 0.352706
O O2 0.870664 0.655720 0.583512
O O3 0.000000 0.072805 0.500000
O O4 0.809034 0.101873 0.426419
O O5 0.285625 0.631331 0.698306
O O6 0.122234 0.630698 0.855399
O O7 0.000398 0.132156 0.776914
O O8 0.266276 0.631338 0.203056
O O9 0.681684 0.631366 0.078299
O O10 0.567345 0.131478 0.142147
O O11 0.500000 0.631364 0.000000
#
# Coordination Sequence:
#
# PCOD9129508 Si02
#       5
#     4   4   4   4   4
#     4  11  22  41  67  96 135 175 213 256 312 385
#     4  11  25  42  66  98 127 170 217 261 325 381
#     4  11  24  41  66 100 134 173 211 255 318 382
#     4  12  26  45  69  95 125 168 221 273 326 378
#     4  11  24  45  66  95 137 166 210 271 315 382
#
# _framework density 34.846601999999997
#
# number of rings (size 3 to 8) (size 9 to 14) (size 15 to 20)
#    0.000    0.800    0.000    9.000    0.000    3.200 
#    0.000   21.000    0.000    0.000    0.000    0.000 
#    0.000    0.000    0.000    0.000    0.000    0.000 
#
# Total GULP energy -56070.339992 kJ/mol
# GULP energy per Si atom -5607.033999 kJ/mol
# Density = 3.476729 g / cm^3
# Si number density = 34.846602 Si / 1000 Ang^3
#
#
#
# Elastic Constant Matrix: (Units=GPa)
#
#
# Indices 1 2 3 4 5 6 
#
# 1 334.2361 50.8950 46.3305 0.0000 -22.2833 0.0000
# 2 50.8950 300.3083 27.0943 0.0000 -51.0811 0.0000
# 3 46.3305 27.0943 116.3090 0.0000 -11.7189 0.0000
# 4 0.0000 0.0000 0.0000 101.0211 0.0000 -17.4827
# 5 -22.2833 -51.0811 -11.7189 0.0000 66.5168 0.0000
# 6 0.0000 0.0000 0.0000 -17.4827 0.0000 129.8957
#
#
#
# Elastic Compliance Matrix: (Units=1/GPa)
#
#
# Indices 1 2 3 4 5 6 
#
# 1 0.003245 -0.000340 -0.001150 0.000000 0.000623 0.000000
# 2 -0.000340 0.003908 -0.000493 0.000000 0.002801 0.000000
# 3 -0.001150 -0.000493 0.009258 0.000000 0.000867 0.000000
# 4 0.000000 0.000000 0.000000 0.010135 0.000000 0.001364
# 5 0.000623 0.002801 0.000867 0.000000 0.017546 0.000000
# 6 0.000000 0.000000 0.000000 0.001364 0.000000 0.007882
#
#
# Mechanical properties :
#
#
# Convention : Reuss Voigt Hill
#
# Bulk Modulus (GPa) = 80.35643 111.05479 95.70561
# Shear Modulus (GPa) = 83.20928 101.25563 92.23245
#
# Velocity S-wave (km/s) = 4.89189 5.39635 5.15030
# Velocity P-wave (km/s) = 7.41738 8.41227 7.93044
#
# Compressibility (1/GPa) = 0.01244455
#
# Stress axis : x y z
#
# Youngs Moduli (GPa) = 308.19449 255.85963 108.01180
#
# Poissons Ratio (x) = 0.08702 0.12427
# Poissons Ratio (y) = 0.10482 0.05323
# Poissons Ratio (z) = 0.35457 0.12609
#
# Static dielectric constant tensor:
#      x y z
#    x 2.254190 0.000000 -0.019390 
#    y 0.000000 3.182220 0.000000 
#    z -0.019390 0.000000 2.783450 
# 
# From -- ./inp_files/51825.got.cif
#   From: 2010.05.17/outbox.cif.g08.bks.cpg/sg5_26_cif.got.tgz:51825.got - 2010.06.03 18:56:24.
