data_PCOD9129321
_publ_section_title
;
Structure prediction by ZEFSAII (Michael W. Deem and Ramdas Pophale) SiO2 
 PCOD9129321
Probable space group: C 2
;
_chemical_formula_sum "Si O2"
_cell_formula_units_Z 28
_cell_length_a 12.320869
_cell_length_b 13.188703
_cell_length_c 9.589062
_cell_angle_alpha 90.000000
_cell_angle_beta 64.689721
_cell_angle_gamma 90.000000
_cell_volume 1408.610118
_symmetry_space_group_name_H-M "C 2"
_symmetry_group_IT_number 5
_symmetry_cell_setting 'monoclinic'
loop_
_space_group_symop_operation_xyz
x,y,z
-x,y,-z
1/2+x,1/2+y,z
1/2-x,1/2+y,-z
loop_
_atom_site_type_symbol
_atom_site_label
_atom_site_fract_x
_atom_site_fract_y
_atom_site_fract_z
Si Si1 0.686179 0.135380 0.647349
Si Si2 0.120247 0.191068 0.225069
Si Si3 0.142590 0.207043 0.682784
Si Si4 0.711857 0.584096 0.911649
Si Si5 0.378275 0.925931 0.164569
Si Si6 0.764917 0.872115 0.022893
Si Si7 0.948595 0.696412 0.878372
O O1 0.785156 0.169100 0.706205
O O2 0.749252 0.159975 0.466711
O O3 0.565924 0.202261 0.720704
O O4 0.642056 0.023464 0.723630
O O5 0.160300 0.298459 0.136221
O O6 0.980479 0.189938 0.333870
O O7 0.141292 0.110113 0.091219
O O8 0.150619 0.146748 0.823259
O O9 0.137605 0.324887 0.732636
O O10 0.713478 0.464945 0.886180
O O11 0.847462 0.623431 0.868524
O O12 0.500000 0.927493 0.000000
O O13 0.275808 0.917815 0.102483
O O14 0.880130 0.801266 0.941417
O O15 0.000000 0.660334 0.000000
#
# Coordination Sequence:
#
# PCOD9129321 Si02
#       7
#     4   4   4   4   4   4   4
#     4  12  26  44  67 100 143 174 216 287 354 393
#     4  11  22  44  67  95 131 183 230 273 324 418
#     4  12  26  44  66 103 140 171 223 294 335 399
#     4  11  22  42  69 100 129 174 238 275 326 402
#     4  12  22  46  76  97 127 196 237 260 334 427
#     4  11  21  38  73  99 123 173 240 274 320 393
#     4  11  21  41  67  98 129 174 225 278 320 409
#
# _framework density 19.877751
#
# number of rings (size 3 to 8) (size 9 to 14) (size 15 to 20)
#    0.000    0.571    8.571    2.143    0.000    2.857 
#    2.571    0.000    0.000    0.000    0.000    0.000 
#    0.000    0.000    0.000    0.000    0.000    0.000 
#
# Total GULP energy -78119.819061 kJ/mol
# GULP energy per Si atom -5579.987076 kJ/mol
# Density = 1.983251 g / cm^3
# Si number density = 19.877751 Si / 1000 Ang^3
#
#
#
# Elastic Constant Matrix: (Units=GPa)
#
#
# Indices 1 2 3 4 5 6 
#
# 1 80.3991 46.1608 14.1185 0.0000 -14.3961 0.0000
# 2 46.1608 125.9642 27.1034 0.0000 -12.2841 0.0000
# 3 14.1185 27.1034 66.2891 0.0000 -15.7926 0.0000
# 4 0.0000 0.0000 0.0000 21.7576 0.0000 7.8271
# 5 -14.3961 -12.2841 -15.7926 0.0000 35.0781 0.0000
# 6 0.0000 0.0000 0.0000 7.8271 0.0000 8.1468
#
#
#
# Elastic Compliance Matrix: (Units=1/GPa)
#
#
# Indices 1 2 3 4 5 6 
#
# 1 0.016504 -0.005560 -0.000103 0.000000 0.004780 0.000000
# 2 -0.005560 0.010660 -0.003169 0.000000 0.000025 0.000000
# 3 -0.000103 -0.003169 0.018066 0.000000 0.006982 0.000000
# 4 0.000000 0.000000 0.000000 0.070236 0.000000 -0.067480
# 5 0.004780 0.000025 0.006982 0.000000 0.033621 0.000000
# 6 0.000000 0.000000 0.000000 -0.067480 0.000000 0.187579
#
#
# Mechanical properties :
#
#
# Convention : Reuss Voigt Hill
#
# Bulk Modulus (GPa) = 36.27435 49.71308 42.99372
# Shear Modulus (GPa) = 13.75440 25.34784 19.55112
#
# Velocity S-wave (km/s) = 2.63335 3.57485 3.13959
# Velocity P-wave (km/s) = 5.24732 6.48869 5.90074
#
# Compressibility (1/GPa) = 0.02756769
#
# Stress axis : x y z
#
# Youngs Moduli (GPa) = 60.59131 93.80522 55.35180
#
# Poissons Ratio (x) = 0.52153 0.00571
# Poissons Ratio (y) = 0.33687 0.17539
# Poissons Ratio (z) = 0.00625 0.29723
#
# Static dielectric constant tensor:
#      x y z
#    x 1.710310 0.000000 -0.013340 
#    y 0.000000 1.737400 0.000000 
#    z -0.013340 0.000000 1.719610 
# 
# From -- ./inp_files/20538.got.cif
#   From: 2010.05.17/outbox.cif.g08.bks.cpg/sg5_11_cif.got.tgz:20538.got - 2010.06.03 18:56:24.
