data_PCOD9129254
_publ_section_title
;
Structure prediction by ZEFSAII (Michael W. Deem and Ramdas Pophale) SiO2 
 PCOD9129254
Probable space group: C 2
;
_chemical_formula_sum "Si O2"
_cell_formula_units_Z 30
_cell_length_a 11.170795
_cell_length_b 16.000514
_cell_length_c 9.425228
_cell_angle_alpha 90.000000
_cell_angle_beta 74.544545
_cell_angle_gamma 90.000000
_cell_volume 1623.730293
_symmetry_space_group_name_H-M "C 2"
_symmetry_group_IT_number 5
_symmetry_cell_setting 'monoclinic'
loop_
_space_group_symop_operation_xyz
x,y,z
-x,y,-z
1/2+x,1/2+y,z
1/2-x,1/2+y,-z
loop_
_atom_site_type_symbol
_atom_site_label
_atom_site_fract_x
_atom_site_fract_y
_atom_site_fract_z
Si Si1 0.491433 0.195410 0.333404
Si Si2 0.163023 0.577693 0.818140
Si Si3 0.901439 0.025888 0.158304
Si Si4 0.602790 0.333934 0.841906
Si Si5 0.726759 0.155918 0.090010
Si Si6 0.368203 0.783488 0.881657
Si Si7 0.500000 0.930699 0.000000
Si Si8 0.944142 0.131494 0.672937
O O1 0.500000 0.192985 0.500000
O O2 0.417900 0.118228 0.282469
O O3 0.428282 0.276466 0.282746
O O4 0.629974 0.193940 0.228174
O O5 0.308893 0.585163 0.728233
O O6 0.101525 0.490652 0.889992
O O7 0.159997 0.634781 0.961751
O O8 0.779319 0.069864 0.135782
O O9 0.958726 0.080158 0.264531
O O10 0.888442 0.930271 0.204599
O O11 0.000000 0.028091 0.000000
O O12 0.734158 0.309319 0.865788
O O13 0.500000 0.324523 0.000000
O O14 0.838340 0.220088 0.021818
O O15 0.437846 0.866622 0.908172
O O16 0.430060 0.723510 0.745700
O O17 0.000000 0.136596 0.500000
#
# Coordination Sequence:
#
# PCOD9129254 Si02
#       8
#     4   4   4   4   4   4   2   4
#     4  12  24  40  65  94 128 174 220 265 335 398
#     4  11  22  43  68  92 131 172 220 272 326 383
#     4  11  22  37  65  99 123 164 227 266 322 382
#     4  11  22  40  64  95 129 168 218 279 316 378
#     4  11  20  41  68  92 128 169 220 272 316 398
#     4  11  22  40  69  96 130 169 221 268 329 381
#     4  12  24  40  72 106 124 166 232 278 324 384
#     4  11  25  44  66  93 142 180 209 265 337 399
#
# _framework density 18.475975999999999
#
# number of rings (size 3 to 8) (size 9 to 14) (size 15 to 20)
#    0.000    0.800    8.000    1.600    3.733    0.533 
#    0.000    2.000    0.000    0.000    0.000    0.000 
#    0.000    0.000    0.000    0.000    0.000    0.000 
#
# Total GULP energy -83736.771809 kJ/mol
# GULP energy per Si atom -5582.451454 kJ/mol
# Density = 1.843392 g / cm^3
# Si number density = 18.475976 Si / 1000 Ang^3
#
#
#
# Elastic Constant Matrix: (Units=GPa)
#
#
# Indices 1 2 3 4 5 6 
#
# 1 77.7120 54.8961 49.4187 0.0000 11.8504 0.0000
# 2 54.8961 141.5260 52.5924 0.0000 11.0585 0.0000
# 3 49.4187 52.5924 137.9462 0.0000 5.0577 0.0000
# 4 0.0000 0.0000 0.0000 17.9924 0.0000 5.9934
# 5 11.8504 11.0585 5.0577 0.0000 26.2356 0.0000
# 6 0.0000 0.0000 0.0000 5.9934 0.0000 48.3711
#
#
#
# Elastic Compliance Matrix: (Units=1/GPa)
#
#
# Indices 1 2 3 4 5 6 
#
# 1 0.021191 -0.005830 -0.005145 0.000000 -0.006123 0.000000
# 2 -0.005830 0.010059 -0.001700 0.000000 -0.001279 0.000000
# 3 -0.005145 -0.001700 0.009697 0.000000 0.001171 0.000000
# 4 0.000000 0.000000 0.000000 0.057972 0.000000 -0.007183
# 5 -0.006123 -0.001279 0.001171 0.000000 0.041195 0.000000
# 6 0.000000 0.000000 0.000000 -0.007183 0.000000 0.021564
#
#
# Mechanical properties :
#
#
# Convention : Reuss Voigt Hill
#
# Bulk Modulus (GPa) = 64.10424 74.55542 69.32983
# Shear Modulus (GPa) = 26.01116 31.87163 28.94140
#
# Velocity S-wave (km/s) = 3.75619 4.15786 3.96211
# Velocity P-wave (km/s) = 7.32006 7.96810 7.65094
#
# Compressibility (1/GPa) = 0.01559959
#
# Stress axis : x y z
#
# Youngs Moduli (GPa) = 47.18894 99.41780 103.12156
#
# Poissons Ratio (x) = 0.57957 0.53053
# Poissons Ratio (y) = 0.27509 0.17526
# Poissons Ratio (z) = 0.24277 0.16896
#
# Static dielectric constant tensor:
#      x y z
#    x 1.650090 0.000000 -0.015530 
#    y 0.000000 1.671990 0.000000 
#    z -0.015530 0.000000 1.604480 
# 
# From -- ./inp_files/20626.got.cif
#   From: 2010.05.17/outbox.cif.g08.bks.cpg/sg5_11_cif.got.tgz:20626.got - 2010.06.03 18:56:24.
