data_PCOD9129457
_publ_section_title
;
Structure prediction by ZEFSAII (Michael W. Deem and Ramdas Pophale) SiO2 
 PCOD9129457
Probable space group: C 2
;
_chemical_formula_sum "Si O2"
_cell_formula_units_Z 32
_cell_length_a 23.785944
_cell_length_b 5.240872
_cell_length_c 10.281754
_cell_angle_alpha 90.000000
_cell_angle_beta 118.656480
_cell_angle_gamma 90.000000
_cell_volume 1124.717781
_symmetry_space_group_name_H-M "C 2"
_symmetry_group_IT_number 5
_symmetry_cell_setting 'monoclinic'
loop_
_space_group_symop_operation_xyz
x,y,z
-x,y,-z
1/2+x,1/2+y,z
1/2-x,1/2+y,-z
loop_
_atom_site_type_symbol
_atom_site_label
_atom_site_fract_x
_atom_site_fract_y
_atom_site_fract_z
Si Si1 0.304016 0.786570 0.438761
Si Si2 0.175739 0.634980 0.867998
Si Si3 0.057981 0.213549 0.974963
Si Si4 0.461284 0.084091 0.758776
Si Si5 0.329391 0.281026 0.642126
Si Si6 0.309427 0.639735 0.936836
Si Si7 0.932946 0.323223 0.475535
Si Si8 0.950441 0.890489 0.293770
O O1 0.323460 0.530962 0.542806
O O2 0.228473 0.781364 0.318048
O O3 0.355395 0.836738 0.383673
O O4 0.310527 0.035934 0.535180
O O5 0.185262 0.867980 0.983325
O O6 0.102114 0.671568 0.745306
O O7 0.179498 0.370058 0.948161
O O8 0.233159 0.675279 0.828026
O O9 0.132451 0.191860 0.103410
O O10 0.064098 0.062789 0.848332
O O11 0.025373 0.487283 0.902410
O O12 0.000000 0.104757 0.000000
O O13 0.401111 0.204103 0.766753
O O14 0.481307 0.288919 0.674671
O O15 0.440958 0.850757 0.641846
O O16 0.000000 0.455119 0.500000
O O17 0.059300 0.064040 0.594562
#
# Coordination Sequence:
#
# PCOD9129457 Si02
#       8
#     4   4   4   4   4   4   4   4
#     4   9  19  37  57  90 126 171 215 260 320 389
#     4   9  18  36  67  91 131 170 215 275 341 397
#     4  11  24  44  65  94 132 175 229 282 337 404
#     4  11  23  41  67  95 136 174 223 277 340 401
#     4   9  19  36  62  85 127 172 213 265 317 391
#     4   9  18  38  63  96 125 172 217 277 338 396
#     4  11  22  39  62  97 131 170 216 271 336 399
#     4  11  23  42  65  98 136 175 225 279 339 407
#
# _framework density 28.451582999999999
#
# number of rings (size 3 to 8) (size 9 to 14) (size 15 to 20)
#    0.000    2.000    2.500    0.750    1.750    3.000 
#    2.250    0.000    0.000    1.500    0.000    0.000 
#    0.000    0.000    0.000    0.000    0.000    0.000 
#
# Total GULP energy -89279.624624 kJ/mol
# GULP energy per Si atom -5579.976539 kJ/mol
# Density = 2.838683 g / cm^3
# Si number density = 28.451583 Si / 1000 Ang^3
#
#
#
# Elastic Constant Matrix: (Units=GPa)
#
#
# Indices 1 2 3 4 5 6 
#
# 1 334.5032 50.0511 62.4792 0.0000 45.8250 0.0000
# 2 50.0511 134.8685 22.9646 0.0000 -13.0227 0.0000
# 3 62.4792 22.9646 54.1392 0.0000 13.2375 0.0000
# 4 0.0000 0.0000 0.0000 47.9653 0.0000 34.0843
# 5 45.8250 -13.0227 13.2375 0.0000 48.0304 0.0000
# 6 0.0000 0.0000 0.0000 34.0843 0.0000 135.0553
#
#
#
# Elastic Compliance Matrix: (Units=1/GPa)
#
#
# Indices 1 2 3 4 5 6 
#
# 1 0.004341 -0.001341 -0.003581 0.000000 -0.003518 0.000000
# 2 -0.001341 0.008934 -0.003375 0.000000 0.004632 0.000000
# 3 -0.003581 -0.003375 0.025115 0.000000 -0.004421 0.000000
# 4 0.000000 0.000000 0.000000 0.025404 0.000000 -0.006411
# 5 -0.003518 0.004632 -0.004421 0.000000 0.026651 0.000000
# 6 0.000000 0.000000 0.000000 -0.006411 0.000000 0.009022
#
#
# Mechanical properties :
#
#
# Convention : Reuss Voigt Hill
#
# Bulk Modulus (GPa) = 45.87545 88.27785 67.07665
# Shear Modulus (GPa) = 40.54271 72.07795 56.31033
#
# Velocity S-wave (km/s) = 3.77898 5.03870 4.45361
# Velocity P-wave (km/s) = 5.93295 8.05892 7.07623
#
# Compressibility (1/GPa) = 0.02179815
#
# Stress axis : x y z
#
# Youngs Moduli (GPa) = 230.36456 111.93012 39.81630
#
# Poissons Ratio (x) = 0.15010 0.14256
# Poissons Ratio (y) = 0.30893 0.13436
# Poissons Ratio (z) = 0.82483 0.37772
#
# Static dielectric constant tensor:
#      x y z
#    x 2.244340 0.000000 0.173190 
#    y 0.000000 2.216130 0.000000 
#    z 0.173190 0.000000 2.445380 
# 
# From -- ./inp_files/56551.got.cif
#   From: 2010.05.17/outbox.cif.g08.bks.cpg/sg5_29_cif.got.tgz:56551.got - 2010.06.03 18:56:24.
