data_PCOD9129216
_publ_section_title
;
Structure prediction by ZEFSAII (Michael W. Deem and Ramdas Pophale) SiO2 
 PCOD9129216
Probable space group: C 2
;
_chemical_formula_sum "Si O2"
_cell_formula_units_Z 24
_cell_length_a 10.918018
_cell_length_b 21.822081
_cell_length_c 10.520119
_cell_angle_alpha 90.000000
_cell_angle_beta 26.133465
_cell_angle_gamma 90.000000
_cell_volume 1104.004022
_symmetry_space_group_name_H-M "C 2"
_symmetry_group_IT_number 5
_symmetry_cell_setting 'monoclinic'
loop_
_space_group_symop_operation_xyz
x,y,z
-x,y,-z
1/2+x,1/2+y,z
1/2-x,1/2+y,-z
loop_
_atom_site_type_symbol
_atom_site_label
_atom_site_fract_x
_atom_site_fract_y
_atom_site_fract_z
Si Si1 0.776176 0.584800 0.919989
Si Si2 0.473434 0.313682 0.795783
Si Si3 0.151870 0.103772 0.493104
Si Si4 0.500000 0.687819 0.000000
Si Si5 0.000000 0.905256 0.000000
Si Si6 0.500000 0.277537 0.500000
Si Si7 0.500000 0.992488 0.500000
Si Si8 0.504142 0.743532 0.345799
O O1 0.673812 0.642573 0.930593
O O2 0.018877 0.596873 0.797217
O O3 0.899894 0.535731 0.707709
O O4 0.506546 0.564954 0.251124
O O5 0.412325 0.318319 0.703154
O O6 0.796553 0.296350 0.494938
O O7 0.410251 0.363729 0.962636
O O8 0.301551 0.254936 0.006309
O O9 0.000000 0.092519 0.500000
O O10 0.093013 0.174497 0.583450
O O11 0.736053 0.732279 0.720258
O O12 0.757938 0.947579 0.280536
O O13 0.500000 0.751291 0.500000
#
# Coordination Sequence:
#
# PCOD9129216 Si02
#       8
#     4   4   4   2   2   2   2   4
#     4  12  23  42  64  97 130 174 224 268 322 390
#     4  12  23  40  64  91 131 167 219 266 327 380
#     4  11  23  37  64  97 146 171 206 253 333 408
#     4  12  23  40  66 102 144 178 203 254 332 412
#     4  12  25  46  68  92 118 172 237 286 326 366
#     4  12  25  38  64 104 144 172 203 260 340 422
#     4  12  27  44  72  90 112 166 237 294 316 364
#     4  11  20  36  59  97 128 177 207 247 308 410
#
# _framework density 21.739052000000001
#
# number of rings (size 3 to 8) (size 9 to 14) (size 15 to 20)
#    0.000    0.333    1.667   10.500    0.000    2.667 
#    0.000    0.000   11.000    0.000    0.000    0.000 
#    0.000    0.000    0.000    0.000    0.000    0.000 
#
# Total GULP energy -67022.499780 kJ/mol
# GULP energy per Si atom -5585.208315 kJ/mol
# Density = 2.168957 g / cm^3
# Si number density = 21.739052 Si / 1000 Ang^3
#
#
#
# Elastic Constant Matrix: (Units=GPa)
#
#
# Indices 1 2 3 4 5 6 
#
# 1 102.6217 29.1450 22.2103 0.0017 15.0098 0.0036
# 2 29.1450 60.2729 20.7837 0.0021 5.3300 0.0014
# 3 22.2103 20.7837 108.0923 0.0968 -0.1616 0.0185
# 4 0.0017 0.0021 0.0968 -376.6489 0.0201 -50.7031
# 5 15.0098 5.3300 -0.1616 0.0201 49.2080 0.0006
# 6 0.0036 0.0014 0.0185 -50.7031 0.0006 0.2645
#
#
#
# Elastic Compliance Matrix: (Units=1/GPa)
#
#
# Indices 1 2 3 4 5 6 
#
# 1 0.011938 -0.004981 -0.001500 0.000000 -0.003107 -0.000005
# 2 -0.004981 0.020034 -0.002830 -0.000001 -0.000660 0.000001
# 3 -0.001500 -0.002830 0.010105 0.000003 0.000797 -0.000006
# 4 0.000000 -0.000001 0.000003 -0.000099 0.000000 -0.018987
# 5 -0.003107 -0.000660 0.000797 0.000000 0.021344 0.000007
# 6 -0.000005 0.000001 -0.000006 -0.018987 0.000007 0.141044
#
#
# Mechanical properties :
#
#
# Convention : Reuss Voigt Hill
#
# Bulk Modulus (GPa) = 42.63279 46.14053 44.38666
# Shear Modulus (GPa) = 21.66331 -52.17875 -15.25772
#
# Velocity S-wave (km/s) = 3.16019 -4.90453 -2.65213
# Velocity P-wave (km/s) = 5.74190 3.28660 3.32924
#
# Compressibility (1/GPa) = 0.02345612
#
# Stress axis : x y z
#
# Youngs Moduli (GPa) = 83.76522 49.91582 98.96276
#
# Poissons Ratio (x) = 0.24862 0.14844
# Poissons Ratio (y) = 0.41721 0.28003
# Poissons Ratio (z) = 0.12564 0.14124
#
# Static dielectric constant tensor:
#      x y z
#    x 2.656420 -0.000040 0.037390 
#    y -0.000040 1.768720 0.000000 
#    z 0.037390 0.000000 1.800890 
# 
# From -- ./inp_files/40773.got.cif
#   From: 2010.05.17/outbox.cif.g08.bks.cpg/sg5_21_cif.got.tgz:40773.got - 2010.06.03 18:56:24.
