data_PCOD9129150
_publ_section_title
;
Structure prediction by ZEFSAII (Michael W. Deem and Ramdas Pophale) SiO2 
 PCOD9129150
Probable space group: C 2
;
_chemical_formula_sum "Si O2"
_cell_formula_units_Z 22
_cell_length_a 15.906344
_cell_length_b 11.071508
_cell_length_c 5.283805
_cell_angle_alpha 90.000000
_cell_angle_beta 100.278303
_cell_angle_gamma 90.000000
_cell_volume 915.583889
_symmetry_space_group_name_H-M "C 2"
_symmetry_group_IT_number 5
_symmetry_cell_setting 'monoclinic'
loop_
_space_group_symop_operation_xyz
x,y,z
-x,y,-z
1/2+x,1/2+y,z
1/2-x,1/2+y,-z
loop_
_atom_site_type_symbol
_atom_site_label
_atom_site_fract_x
_atom_site_fract_y
_atom_site_fract_z
Si Si1 0.150050 0.496720 0.701896
Si Si2 0.733262 0.314740 0.362968
Si Si3 0.129157 0.767922 0.809427
Si Si4 0.590313 0.883723 0.154099
Si Si5 0.000000 0.938176 0.500000
Si Si6 0.406588 0.672263 0.556505
O O1 0.243780 0.456913 0.658545
O O2 0.115336 0.628242 0.734890
O O3 0.099840 0.439571 0.437221
O O4 0.152092 0.433401 0.975942
O O5 0.696368 0.301584 0.623637
O O6 0.818970 0.227185 0.387213
O O7 0.668115 0.277705 0.109420
O O8 0.046654 0.851692 0.725017
O O9 0.597617 0.739019 0.176264
O O10 0.500000 0.919645 0.000000
O O11 0.926841 0.030480 0.561979
O O12 0.500000 0.718936 0.500000
#
# Coordination Sequence:
#
# PCOD9129150 Si02
#       6
#     4   4   4   4   2   4
#     4  11  25  42  71 106 144 193 255 303 372 460
#     4  11  25  47  76 108 148 209 255 312 380 456
#     4  12  28  49  73 109 159 206 247 316 396 454
#     4  11  21  41  70 104 136 190 240 317 362 429
#     4  10  28  50  76 118 160 200 252 328 388 458
#     4   9  22  46  78 113 148 193 262 314 372 450
#
# _framework density 24.028382000000001
#
# number of rings (size 3 to 8) (size 9 to 14) (size 15 to 20)
#    0.545    0.727    0.000    6.000    7.636    0.727 
#    3.273    0.000    0.000    0.000    0.000    0.000 
#    0.000    0.000    0.000    0.000    0.000    0.000 
#
# Total GULP energy -61279.401959 kJ/mol
# GULP energy per Si atom -5570.854724 kJ/mol
# Density = 2.397369 g / cm^3
# Si number density = 24.028382 Si / 1000 Ang^3
#
#
#
# Elastic Constant Matrix: (Units=GPa)
#
#
# Indices 1 2 3 4 5 6 
#
# 1 76.0683 14.7928 32.6974 0.0000 14.8716 0.0000
# 2 14.7928 137.4898 35.5279 0.0000 6.9100 0.0000
# 3 32.6974 35.5279 122.7272 0.0000 19.4629 0.0000
# 4 0.0000 0.0000 0.0000 26.2066 0.0000 12.5747
# 5 14.8716 6.9100 19.4629 0.0000 44.3149 0.0000
# 6 0.0000 0.0000 0.0000 12.5747 0.0000 16.2089
#
#
#
# Elastic Compliance Matrix: (Units=1/GPa)
#
#
# Indices 1 2 3 4 5 6 
#
# 1 0.015412 -0.000609 -0.003359 0.000000 -0.003602 0.000000
# 2 -0.000609 0.007888 -0.002105 0.000000 -0.000101 0.000000
# 3 -0.003359 -0.002105 0.010127 0.000000 -0.002992 0.000000
# 4 0.000000 0.000000 0.000000 0.060785 0.000000 -0.047157
# 5 -0.003602 -0.000101 -0.002992 0.000000 0.025105 0.000000
# 6 0.000000 0.000000 0.000000 -0.047157 0.000000 0.098278
#
#
# Mechanical properties :
#
#
# Convention : Reuss Voigt Hill
#
# Bulk Modulus (GPa) = 46.98988 55.81350 51.40169
# Shear Modulus (GPa) = 21.11172 34.23057 27.67115
#
# Velocity S-wave (km/s) = 2.96736 3.77847 3.39721
# Velocity P-wave (km/s) = 5.59810 6.50495 6.06849
#
# Compressibility (1/GPa) = 0.02128118
#
# Stress axis : x y z
#
# Youngs Moduli (GPa) = 64.88255 126.77705 98.74691
#
# Poissons Ratio (x) = 0.07725 0.33165
# Poissons Ratio (y) = 0.03954 0.20787
# Poissons Ratio (z) = 0.21791 0.26688
#
# Static dielectric constant tensor:
#      x y z
#    x 2.082590 0.000000 -0.034050 
#    y 0.000000 1.999230 0.000000 
#    z -0.034050 0.000000 1.940270 
# 
# From -- ./inp_files/8317.got.cif
#   From: 2010.05.17/outbox.cif.g08.bks.cpg/sg5_5_cif.got.tgz:8317.got - 2010.06.03 18:56:24.
