data_PCOD9129679
_publ_section_title
;
Structure prediction by ZEFSAII (Michael W. Deem and Ramdas Pophale) SiO2 
 PCOD9129679
Probable space group: C 2
;
_chemical_formula_sum "Si O2"
_cell_formula_units_Z 28
_cell_length_a 15.198747
_cell_length_b 5.116314
_cell_length_c 19.252164
_cell_angle_alpha 90.000000
_cell_angle_beta 124.765360
_cell_angle_gamma 90.000000
_cell_volume 1229.841032
_symmetry_space_group_name_H-M "C 2"
_symmetry_group_IT_number 5
_symmetry_cell_setting 'monoclinic'
loop_
_space_group_symop_operation_xyz
x,y,z
-x,y,-z
1/2+x,1/2+y,z
1/2-x,1/2+y,-z
loop_
_atom_site_type_symbol
_atom_site_label
_atom_site_fract_x
_atom_site_fract_y
_atom_site_fract_z
Si Si1 0.202208 0.372930 0.004941
Si Si2 0.203928 0.611455 0.676825
Si Si3 0.813811 0.141152 0.860841
Si Si4 0.677170 0.876231 0.466015
Si Si5 0.000000 0.789914 0.000000
Si Si6 0.000000 0.454891 0.500000
Si Si7 0.008314 0.426803 0.136990
Si Si8 0.836606 0.609112 0.687539
O O1 0.099909 0.266208 0.914948
O O2 0.212852 0.658518 0.978888
O O3 0.205836 0.362606 0.090212
O O4 0.214846 0.567873 0.766138
O O5 0.277817 0.383424 0.675620
O O6 0.084989 0.595742 0.590147
O O7 0.251428 0.893960 0.677606
O O8 0.897393 0.232622 0.840613
O O9 0.889476 0.948017 0.939599
O O10 0.764102 0.102587 0.525716
O O11 0.585472 0.827588 0.483157
O O12 0.635878 0.014792 0.377371
O O13 0.994332 0.609624 0.064172
O O14 0.052792 0.589870 0.220393
#
# Coordination Sequence:
#
# PCOD9129679 Si02
#       8
#     4   4   4   4   2   2   4   4
#     4  12  26  40  62  96 147 183 227 290 348 410
#     4  11  25  42  72 103 139 179 238 299 354 429
#     4  11  23  41  66 100 131 185 240 284 341 420
#     4  12  25  47  74 105 143 184 238 299 360 435
#     4  12  16  38  74  94 132 180 248 276 344 412
#     4  12  26  48  78 106 142 192 236 294 386 414
#     4  11  23  39  69  96 131 191 234 279 349 416
#     4  11  23  45  68 104 138 180 236 296 354 428
#
# _framework density 22.767171000000001
#
# number of rings (size 3 to 8) (size 9 to 14) (size 15 to 20)
#    0.000    0.571    7.143    0.857    0.000    3.429 
#    0.000    1.429    0.000    0.000    0.000    0.000 
#    0.000    0.000    0.000    0.000    0.000    0.000 
#
# Total GULP energy -77951.990683 kJ/mol
# GULP energy per Si atom -5567.999335 kJ/mol
# Density = 2.271535 g / cm^3
# Si number density = 22.767171 Si / 1000 Ang^3
#
#
#
# Elastic Constant Matrix: (Units=GPa)
#
#
# Indices 1 2 3 4 5 6 
#
# 1 77.1579 6.1772 13.0708 0.0000 1.6571 0.0000
# 2 6.1772 82.6259 5.6586 -0.0001 -6.0070 0.0001
# 3 13.0708 5.6586 191.5562 0.0000 14.2196 0.0000
# 4 0.0000 -0.0001 0.0000 15.3184 0.0000 3.8264
# 5 1.6571 -6.0070 14.2196 0.0000 23.3467 0.0000
# 6 0.0000 0.0001 0.0000 3.8264 0.0000 13.0129
#
#
#
# Elastic Compliance Matrix: (Units=1/GPa)
#
#
# Indices 1 2 3 4 5 6 
#
# 1 0.013193 -0.000980 -0.000820 0.000000 -0.000689 0.000000
# 2 -0.000980 0.012479 -0.000571 0.000000 0.003628 0.000000
# 3 -0.000820 -0.000571 0.005551 0.000000 -0.003469 0.000000
# 4 0.000000 0.000000 0.000000 0.070456 0.000000 -0.020717
# 5 -0.000689 0.003628 -0.003469 0.000000 0.045928 0.000000
# 6 0.000000 0.000000 0.000000 -0.020717 0.000000 0.082938
#
#
# Mechanical properties :
#
#
# Convention : Reuss Voigt Hill
#
# Bulk Modulus (GPa) = 37.76500 44.57258 41.16879
# Shear Modulus (GPa) = 20.48224 32.09784 26.29004
#
# Velocity S-wave (km/s) = 3.00265 3.75884 3.40182
# Velocity P-wave (km/s) = 5.35208 6.20150 5.79238
#
# Compressibility (1/GPa) = 0.02647955
#
# Stress axis : x y z
#
# Youngs Moduli (GPa) = 75.79988 80.13526 180.15506
#
# Poissons Ratio (x) = 0.07855 0.14774
# Poissons Ratio (y) = 0.07430 0.10288
# Poissons Ratio (z) = 0.06216 0.04576
#
# Static dielectric constant tensor:
#      x y z
#    x 2.218390 0.000000 0.048460 
#    y 0.000000 1.903920 0.000000 
#    z 0.048460 0.000000 1.999880 
# 
# From -- ./inp_files/61088.got.cif
#   From: 2010.05.17/outbox.cif.g08.bks.cpg/sg5_31_cif.got.tgz:61088.got - 2010.06.03 18:56:24.
