data_PCOD9129420
_publ_section_title
;
Structure prediction by ZEFSAII (Michael W. Deem and Ramdas Pophale) SiO2 
 PCOD9129420
Probable space group: C 2
;
_chemical_formula_sum "Si O2"
_cell_formula_units_Z 20
_cell_length_a 20.918074
_cell_length_b 8.286950
_cell_length_c 15.799313
_cell_angle_alpha 90.000000
_cell_angle_beta 162.130850
_cell_angle_gamma 90.000000
_cell_volume 840.373867
_symmetry_space_group_name_H-M "C 2"
_symmetry_group_IT_number 5
_symmetry_cell_setting 'monoclinic'
loop_
_space_group_symop_operation_xyz
x,y,z
-x,y,-z
1/2+x,1/2+y,z
1/2-x,1/2+y,-z
loop_
_atom_site_type_symbol
_atom_site_label
_atom_site_fract_x
_atom_site_fract_y
_atom_site_fract_z
Si Si1 0.806196 0.877050 0.465479
Si Si2 0.500000 0.127163 0.000000
Si Si3 0.337404 0.322536 0.216136
Si Si4 0.882219 0.997380 0.020132
Si Si5 0.265306 0.672004 0.174805
Si Si6 0.500000 0.626631 0.000000
O O1 0.640999 0.735023 0.240718
O O2 0.010806 0.827492 0.672051
O O3 0.695042 0.022845 0.277623
O O4 0.888566 0.940327 0.659113
O O5 0.595495 0.198494 0.034907
O O6 0.500000 0.303204 0.500000
O O7 0.219898 0.496312 0.076062
O O8 0.187123 0.167894 0.026610
O O9 0.867112 0.027815 0.900168
O O10 0.735758 0.850382 0.866364
O O11 0.500000 0.647821 0.500000
#
# Coordination Sequence:
#
# PCOD9129420 Si02
#       6
#     4   2   4   4   4   2
#     4  11  25  44  74 109 146 203 250 303 388 449
#     4  11  21  46  70  97 153 190 239 317 366 437
#     4  11  21  48  70 102 159 195 241 329 372 435
#     4  12  27  45  78 109 146 207 250 308 392 452
#     4  11  24  44  74 107 145 198 250 307 377 446
#     4  11  25  52  70 109 163 186 257 329 364 457
#
# _framework density 23.798933000000002
#
# number of rings (size 3 to 8) (size 9 to 14) (size 15 to 20)
#    0.000    0.800    6.000    2.400    5.600    0.000 
#    0.000    0.000    0.000    0.000    0.000    0.000 
#    0.000    0.000    0.000    0.000    0.000    0.000 
#
# Total GULP energy -55743.404866 kJ/mol
# GULP energy per Si atom -5574.340487 kJ/mol
# Density = 2.374477 g / cm^3
# Si number density = 23.798933 Si / 1000 Ang^3
#
#
#
# Elastic Constant Matrix: (Units=GPa)
#
#
# Indices 1 2 3 4 5 6 
#
# 1 58.9227 8.7813 5.8407 0.0001 19.0365 0.0000
# 2 8.7813 198.9688 38.4218 0.0000 12.0716 0.0001
# 3 5.8407 38.4218 82.5292 0.0004 -12.2888 0.0002
# 4 0.0001 0.0000 0.0004 14.2865 0.0002 -7.1144
# 5 19.0365 12.0716 -12.2888 0.0002 39.1301 0.0001
# 6 0.0000 0.0001 0.0002 -7.1144 0.0001 1.8522
#
#
#
# Elastic Compliance Matrix: (Units=1/GPa)
#
#
# Indices 1 2 3 4 5 6 
#
# 1 0.020913 0.000416 -0.003365 0.000000 -0.011359 -0.000001
# 2 0.000416 0.005802 -0.003176 0.000000 -0.002990 -0.000001
# 3 -0.003365 -0.003176 0.014921 0.000002 0.007303 0.000004
# 4 0.000000 0.000000 0.000002 -0.076686 0.000002 -0.294555
# 5 -0.011359 -0.002990 0.007303 0.000002 0.034298 0.000005
# 6 -0.000001 -0.000001 0.000004 -0.294555 0.000005 -0.591499
#
#
# Mechanical properties :
#
#
# Convention : Reuss Voigt Hill
#
# Bulk Modulus (GPa) = 34.02964 49.61203 41.82083
# Shear Modulus (GPa) = -8.76876 30.21220 10.72172
#
# Velocity S-wave (km/s) = -1.92159 3.56684 2.12483
# Velocity P-wave (km/s) = 3.06700 6.15262 4.86113
#
# Compressibility (1/GPa) = 0.02938615
#
# Stress axis : x y z
#
# Youngs Moduli (GPa) = 47.81754 172.34783 67.01951
#
# Poissons Ratio (x) = -0.07170 0.22553
# Poissons Ratio (y) = -0.01989 0.21285
# Poissons Ratio (z) = 0.16091 0.54735
#
# Static dielectric constant tensor:
#      x y z
#    x 2.012880 0.000000 -0.038690 
#    y 0.000000 2.020780 0.000000 
#    z -0.038690 0.000000 1.947710 
# 
# From -- ./inp_files/30639.got.cif
#   From: 2010.05.17/outbox.cif.g08.bks.cpg/sg5_16_cif.got.tgz:30639.got - 2010.06.03 18:56:24.
