data_PCOD9129151
_publ_section_title
;
Structure prediction by ZEFSAII (Michael W. Deem and Ramdas Pophale) SiO2 
 PCOD9129151
Probable space group: C 2
;
_chemical_formula_sum "Si O2"
_cell_formula_units_Z 20
_cell_length_a 15.077105
_cell_length_b 5.432715
_cell_length_c 19.635971
_cell_angle_alpha 90.000000
_cell_angle_beta 148.033000
_cell_angle_gamma 90.000000
_cell_volume 851.523061
_symmetry_space_group_name_H-M "C 2"
_symmetry_group_IT_number 5
_symmetry_cell_setting 'monoclinic'
loop_
_space_group_symop_operation_xyz
x,y,z
-x,y,-z
1/2+x,1/2+y,z
1/2-x,1/2+y,-z
loop_
_atom_site_type_symbol
_atom_site_label
_atom_site_fract_x
_atom_site_fract_y
_atom_site_fract_z
Si Si1 0.500000 0.005420 0.000000
Si Si2 0.274846 0.192511 0.667813
Si Si3 0.825374 0.940013 0.523602
Si Si4 0.325253 0.401635 0.273793
Si Si5 0.352290 0.202764 0.046829
Si Si6 0.000000 0.568634 0.500000
O O1 0.414048 0.154646 0.007851
O O2 0.651943 0.836594 0.126155
O O3 0.216623 0.962715 0.584091
O O4 0.472622 0.230802 0.797419
O O5 0.147889 0.404259 0.563782
O O6 0.222691 0.133010 0.710877
O O7 0.728315 0.176568 0.486425
O O8 0.018650 0.975984 0.670201
O O9 0.406793 0.205721 0.377603
O O10 0.243804 0.452466 0.989801
#
# Coordination Sequence:
#
# PCOD9129151 Si02
#       6
#     2   4   4   4   4   2
#     4  10  28  52  76 116 156 212 258 316 392 470
#     4  11  25  46  73 105 146 201 255 312 381 453
#     4  12  26  41  70 110 148 189 246 316 376 448
#     4  11  24  47  74 103 151 201 254 309 385 454
#     4  11  29  52  79 113 157 207 260 322 387 466
#     4  12  20  46  82 104 148 196 262 310 388 454
#
# _framework density 23.487325999999999
#
# number of rings (size 3 to 8) (size 9 to 14) (size 15 to 20)
#    0.000    0.800    4.000    1.200   11.200    0.800 
#    3.600    0.000    0.000    0.000    0.000    0.000 
#    0.000    0.000    0.000    0.000    0.000    0.000 
#
# Total GULP energy -55800.571956 kJ/mol
# GULP energy per Si atom -5580.057196 kJ/mol
# Density = 2.343387 g / cm^3
# Si number density = 23.487326 Si / 1000 Ang^3
#
#
#
# Elastic Constant Matrix: (Units=GPa)
#
#
# Indices 1 2 3 4 5 6 
#
# 1 109.7222 43.7608 48.9517 0.0000 18.1514 0.0000
# 2 43.7608 105.6051 64.1324 0.0000 23.5287 0.0000
# 3 48.9517 64.1324 238.1728 0.0000 37.2066 0.0000
# 4 0.0000 0.0000 0.0000 14.9983 0.0000 3.8283
# 5 18.1514 23.5287 37.2066 0.0000 44.4824 0.0000
# 6 0.0000 0.0000 0.0000 3.8283 0.0000 32.9975
#
#
#
# Elastic Compliance Matrix: (Units=1/GPa)
#
#
# Indices 1 2 3 4 5 6 
#
# 1 0.011345 -0.003651 -0.001066 0.000000 -0.001806 0.000000
# 2 -0.003651 0.013134 -0.002224 0.000000 -0.003597 0.000000
# 3 -0.001066 -0.002224 0.005481 0.000000 -0.002973 0.000000
# 4 0.000000 0.000000 0.000000 0.068709 0.000000 -0.007972
# 5 -0.001806 -0.003597 -0.002973 0.000000 0.027607 0.000000
# 6 0.000000 0.000000 0.000000 -0.007972 0.000000 0.031230
#
#
# Mechanical properties :
#
#
# Convention : Reuss Voigt Hill
#
# Bulk Modulus (GPa) = 62.20209 85.24334 73.72271
# Shear Modulus (GPa) = 28.28868 38.27263 33.28066
#
# Velocity S-wave (km/s) = 3.47425 4.04109 3.76834
# Velocity P-wave (km/s) = 6.52952 7.62535 7.09861
#
# Compressibility (1/GPa) = 0.01607663
#
# Stress axis : x y z
#
# Youngs Moduli (GPa) = 88.14749 76.13611 182.44211
#
# Poissons Ratio (x) = 0.27797 0.19456
# Poissons Ratio (y) = 0.32182 0.40582
# Poissons Ratio (z) = 0.09400 0.16936
#
# Static dielectric constant tensor:
#      x y z
#    x 2.236790 0.000000 -0.042510 
#    y 0.000000 1.901620 0.000000 
#    z -0.042510 0.000000 1.894870 
# 
# From -- ./inp_files/41000.got.cif
#   From: 2010.05.17/outbox.cif.g08.bks.cpg/sg5_21_cif.got.tgz:41000.got - 2010.06.03 18:56:24.
