data_PCOD9129908
_publ_section_title
;
Structure prediction by ZEFSAII (Michael W. Deem and Ramdas Pophale) SiO2 
 PCOD9129908
Probable space group: C 2
;
_chemical_formula_sum "Si O2"
_cell_formula_units_Z 20
_cell_length_a 12.913697
_cell_length_b 11.152920
_cell_length_c 7.421564
_cell_angle_alpha 90.000000
_cell_angle_beta 134.032037
_cell_angle_gamma 90.000000
_cell_volume 768.482657
_symmetry_space_group_name_H-M "C 2"
_symmetry_group_IT_number 5
_symmetry_cell_setting 'monoclinic'
loop_
_space_group_symop_operation_xyz
x,y,z
-x,y,-z
1/2+x,1/2+y,z
1/2-x,1/2+y,-z
loop_
_atom_site_type_symbol
_atom_site_label
_atom_site_fract_x
_atom_site_fract_y
_atom_site_fract_z
Si Si1 0.162264 0.750000 0.817744
Si Si2 0.945090 0.964646 0.657940
Si Si3 0.154713 0.558773 0.120866
Si Si4 0.784615 0.770295 0.531672
Si Si5 0.022633 0.229917 0.741080
O O1 0.059633 0.859432 0.753875
O O2 0.159297 0.730394 0.598313
O O3 0.145388 0.627641 0.915797
O O4 0.326831 0.791047 0.044009
O O5 0.848474 0.894900 0.684524
O O6 0.000000 0.233483 0.500000
O O7 0.019474 0.088915 0.789239
O O8 0.173311 0.669594 0.279429
O O9 0.310977 0.493322 0.351780
O O10 0.000000 0.505462 0.000000
O O11 0.613946 0.781868 0.323467
#
# Coordination Sequence:
#
# PCOD9129908 Si02
#       5
#     4   4   4   4   4
#     4  12  24  45  78 112 157 208 248 332 375 458
#     4  11  25  48  80 111 154 207 259 311 396 455
#     4  11  25  48  76 114 158 204 255 324 384 455
#     4  11  24  45  71 114 150 201 270 303 382 476
#     4  11  23  48  72 109 160 204 255 320 385 455
#
# _framework density 26.025310000000001
#
# number of rings (size 3 to 8) (size 9 to 14) (size 15 to 20)
#    0.000    0.800    6.000    2.400    0.000    1.600 
#   14.400    0.000    0.000    0.000    0.000    0.000 
#    0.000    0.000    0.000    0.000    0.000    0.000 
#
# Total GULP energy -55794.473608 kJ/mol
# GULP energy per Si atom -5579.447361 kJ/mol
# Density = 2.596607 g / cm^3
# Si number density = 26.025310 Si / 1000 Ang^3
#
#
#
# Elastic Constant Matrix: (Units=GPa)
#
#
# Indices 1 2 3 4 5 6 
#
# 1 123.5564 31.3543 33.4179 0.0000 18.6791 0.0000
# 2 31.3543 89.0926 48.2143 0.0000 15.6370 0.0000
# 3 33.4179 48.2143 119.3628 0.0000 23.5190 0.0000
# 4 0.0000 0.0000 0.0000 56.8553 0.0000 16.1662
# 5 18.6791 15.6370 23.5190 0.0000 71.6349 0.0000
# 6 0.0000 0.0000 0.0000 16.1662 0.0000 50.9713
#
#
#
# Elastic Compliance Matrix: (Units=1/GPa)
#
#
# Indices 1 2 3 4 5 6 
#
# 1 0.009263 -0.002247 -0.001397 0.000000 -0.001466 0.000000
# 2 -0.002247 0.015026 -0.005249 0.000000 -0.000971 0.000000
# 3 -0.001397 -0.005249 0.011324 0.000000 -0.002208 0.000000
# 4 0.000000 0.000000 0.000000 0.019332 0.000000 -0.006131
# 5 -0.001466 -0.000971 -0.002208 0.000000 0.015279 0.000000
# 6 0.000000 0.000000 0.000000 -0.006131 0.000000 0.021564
#
#
# Mechanical properties :
#
#
# Convention : Reuss Voigt Hill
#
# Bulk Modulus (GPa) = 56.09213 61.99831 59.04522
# Shear Modulus (GPa) = 43.28409 50.49398 46.88904
#
# Velocity S-wave (km/s) = 4.08260 4.40953 4.24921
# Velocity P-wave (km/s) = 6.61991 7.05687 6.84188
#
# Compressibility (1/GPa) = 0.01782781
#
# Stress axis : x y z
#
# Youngs Moduli (GPa) = 107.95531 66.55116 88.30568
#
# Poissons Ratio (x) = 0.14951 0.12336
# Poissons Ratio (y) = 0.24253 0.46354
# Poissons Ratio (z) = 0.15081 0.34934
#
# Static dielectric constant tensor:
#      x y z
#    x 2.200630 0.000000 0.067240 
#    y 0.000000 2.126440 0.000000 
#    z 0.067240 0.000000 2.143580 
# 
# From -- ./inp_files/24277.got.cif
#   From: 2010.05.17/outbox.cif.g08.bks.cpg/sg5_13_cif.got.tgz:24277.got - 2010.06.03 18:56:24.
