data_PCOD9129036
_publ_section_title
;
Structure prediction by ZEFSAII (Michael W. Deem and Ramdas Pophale) SiO2 
 PCOD9129036
Probable space group: C 2
;
_chemical_formula_sum "Si O2"
_cell_formula_units_Z 24
_cell_length_a 28.207254
_cell_length_b 4.809839
_cell_length_c 23.802356
_cell_angle_alpha 90.000000
_cell_angle_beta 163.137785
_cell_angle_gamma 90.000000
_cell_volume 936.732987
_symmetry_space_group_name_H-M "C 2"
_symmetry_group_IT_number 5
_symmetry_cell_setting 'monoclinic'
loop_
_space_group_symop_operation_xyz
x,y,z
-x,y,-z
1/2+x,1/2+y,z
1/2-x,1/2+y,-z
loop_
_atom_site_type_symbol
_atom_site_label
_atom_site_fract_x
_atom_site_fract_y
_atom_site_fract_z
Si Si1 0.500000 0.370821 0.500000
Si Si2 0.092559 0.520178 0.426163
Si Si3 0.217668 0.410644 0.744853
Si Si4 0.306431 0.025596 0.690185
Si Si5 0.739809 0.563892 0.077404
Si Si6 0.500000 0.667359 0.000000
Si Si7 0.518132 0.063913 0.817542
O O1 0.645825 0.600734 0.668688
O O2 0.406873 0.988547 0.235822
O O3 0.097347 0.628435 0.575568
O O4 0.094537 0.466964 0.361526
O O5 0.151287 0.832770 0.500785
O O6 0.223392 0.323588 0.605332
O O7 0.233041 0.520639 0.825698
O O8 0.390382 0.462878 0.913175
O O9 0.426164 0.039280 0.772302
O O10 0.399540 0.873364 0.845719
O O11 0.587305 0.372403 0.886846
O O12 0.681446 0.877020 0.002617
#
# Coordination Sequence:
#
# PCOD9129036 Si02
#       7
#     2   4   4   4   4   2   4
#     4  10  26  46  72 100 140 198 242 310 344 440
#     4  12  27  47  78 108 145 190 246 306 369 436
#     4  11  26  47  72 103 148 190 250 299 369 430
#     4  12  28  48  73 107 149 194 246 299 366 435
#     4  12  25  46  74 112 143 189 238 308 368 434
#     4  12  30  50  72 110 148 204 246 302 364 444
#     4  12  24  50  75 109 147 190 242 304 370 438
#
# _framework density 25.620964000000001
#
# number of rings (size 3 to 8) (size 9 to 14) (size 15 to 20)
#    0.000    0.333    1.667    6.000    7.000    1.333 
#    0.000    0.000    0.000    0.000    0.000    0.000 
#    0.000    0.000    0.000    0.000    0.000    0.000 
#
# Total GULP energy -67194.087171 kJ/mol
# GULP energy per Si atom -5599.507264 kJ/mol
# Density = 2.556265 g / cm^3
# Si number density = 25.620964 Si / 1000 Ang^3
#
#
#
# Elastic Constant Matrix: (Units=GPa)
#
#
# Indices 1 2 3 4 5 6 
#
# 1 123.1909 12.4291 24.8224 0.0025 1.7461 -0.0001
# 2 12.4291 124.6660 13.1148 0.0088 -0.2848 -0.0027
# 3 24.8224 13.1148 85.1172 0.0012 -6.5356 -0.0011
# 4 0.0025 0.0088 0.0012 32.4640 0.0009 14.6145
# 5 1.7461 -0.2848 -6.5356 0.0009 34.9193 -0.0003
# 6 -0.0001 -0.0027 -0.0011 14.6145 -0.0003 22.7972
#
#
#
# Elastic Compliance Matrix: (Units=1/GPa)
#
#
# Indices 1 2 3 4 5 6 
#
# 1 0.008698 -0.000605 -0.002513 0.000000 -0.000910 0.000000
# 2 -0.000605 0.008197 -0.001095 -0.000004 -0.000108 0.000003
# 3 -0.002513 -0.001095 0.012844 0.000000 0.002521 0.000001
# 4 0.000000 -0.000004 0.000000 0.043299 -0.000001 -0.027757
# 5 -0.000910 -0.000108 0.002521 -0.000001 0.029154 0.000001
# 6 0.000000 0.000003 0.000001 -0.027757 0.000001 0.061659
#
#
# Mechanical properties :
#
#
# Convention : Reuss Voigt Hill
#
# Bulk Modulus (GPa) = 46.92112 48.18962 47.55537
# Shear Modulus (GPa) = 27.87375 36.87663 32.37519
#
# Velocity S-wave (km/s) = 3.30195 3.79795 3.55860
# Velocity P-wave (km/s) = 5.73503 6.17106 5.95704
#
# Compressibility (1/GPa) = 0.02131236
#
# Stress axis : x y z
#
# Youngs Moduli (GPa) = 114.97145 122.00085 77.85951
#
# Poissons Ratio (x) = 0.07379 0.19568
# Poissons Ratio (y) = 0.06954 0.08524
# Poissons Ratio (z) = 0.28895 0.13357
#
# Static dielectric constant tensor:
#      x y z
#    x 2.028590 0.000000 -0.035660 
#    y 0.000000 1.940530 0.000000 
#    z -0.035660 0.000000 2.125810 
# 
# From -- ./inp_files/67701.got.cif
#   From: 2010.05.17/outbox.cif.g08.bks.cpg/sg5_34_cif.got.tgz:67701.got - 2010.06.03 18:56:24.
