data_PCOD9129045
_publ_section_title
;
Structure prediction by ZEFSAII (Michael W. Deem and Ramdas Pophale) SiO2 
 PCOD9129045
Probable space group: C 2
;
_chemical_formula_sum "Si O2"
_cell_formula_units_Z 30
_cell_length_a 8.906415
_cell_length_b 14.253710
_cell_length_c 11.930108
_cell_angle_alpha 90.000000
_cell_angle_beta 110.074350
_cell_angle_gamma 90.000000
_cell_volume 1422.510574
_symmetry_space_group_name_H-M "C 2"
_symmetry_group_IT_number 5
_symmetry_cell_setting 'monoclinic'
loop_
_space_group_symop_operation_xyz
x,y,z
-x,y,-z
1/2+x,1/2+y,z
1/2-x,1/2+y,-z
loop_
_atom_site_type_symbol
_atom_site_label
_atom_site_fract_x
_atom_site_fract_y
_atom_site_fract_z
Si Si1 0.175894 0.582440 0.488403
Si Si2 0.311527 0.890558 0.205809
Si Si3 0.294477 0.596333 0.753383
Si Si4 0.902035 0.791955 0.283834
Si Si5 0.244815 0.271363 0.583593
Si Si6 0.647039 0.887171 0.354692
Si Si7 0.156208 0.770367 0.980631
Si Si8 0.000000 0.171741 0.000000
O O1 0.303641 0.578749 0.622560
O O2 0.243270 0.659145 0.418659
O O3 0.151013 0.484462 0.420826
O O4 0.000000 0.603632 0.500000
O O5 0.292770 0.825990 0.312142
O O6 0.499172 0.880038 0.232802
O O7 0.205665 0.851131 0.079407
O O8 0.279940 0.999479 0.221256
O O9 0.182001 0.689304 0.729942
O O10 0.443852 0.617987 0.872443
O O11 0.797403 0.868646 0.317299
O O12 0.070232 0.795677 0.387231
O O13 0.911448 0.808090 0.153943
O O14 0.145867 0.308752 0.452465
O O15 0.329469 0.721335 0.994501
O O16 0.000000 0.719714 0.000000
#
# Coordination Sequence:
#
# PCOD9129045 Si02
#       8
#     4   4   4   4   4   4   4   2
#     4  12  21  41  66 100 137 184 227 283 362 422
#     4  12  24  41  70 100 136 180 233 288 348 418
#     4  11  22  43  70  94 136 185 235 278 353 423
#     4  11  23  44  69  96 136 187 229 284 354 412
#     4  12  22  39  69  96 137 181 223 283 354 420
#     4  12  23  41  66 100 136 178 233 285 342 432
#     4  11  24  46  73 101 140 184 242 291 350 411
#     4  10  26  46  76 100 134 196 242 288 350 422
#
# _framework density 21.089475
#
# number of rings (size 3 to 8) (size 9 to 14) (size 15 to 20)
#    0.000    0.533    6.667    2.400    0.933    0.000 
#    0.000    8.000    5.867    0.000    0.000    0.000 
#    0.000    0.000    0.000    0.000    0.000    0.000 
#
# Total GULP energy -83593.071179 kJ/mol
# GULP energy per Si atom -5572.871412 kJ/mol
# Density = 2.104147 g / cm^3
# Si number density = 21.089475 Si / 1000 Ang^3
#
#
#
# Elastic Constant Matrix: (Units=GPa)
#
#
# Indices 1 2 3 4 5 6 
#
# 1 80.3232 14.2165 17.9852 0.0000 10.8952 0.0000
# 2 14.2165 56.6960 3.3906 0.0000 10.1994 0.0000
# 3 17.9852 3.3906 90.5216 0.0000 9.0795 0.0000
# 4 0.0000 0.0000 0.0000 28.2435 0.0000 6.0212
# 5 10.8952 10.1994 9.0795 0.0000 34.1154 0.0000
# 6 0.0000 0.0000 0.0000 6.0212 0.0000 -4.8808
#
#
#
# Elastic Compliance Matrix: (Units=1/GPa)
#
#
# Indices 1 2 3 4 5 6 
#
# 1 0.013876 -0.002805 -0.002354 0.000000 -0.002966 0.000000
# 2 -0.002805 0.019209 0.000333 0.000000 -0.004936 0.000000
# 3 -0.002354 0.000333 0.011751 0.000000 -0.002475 0.000000
# 4 0.000000 0.000000 0.000000 0.028034 0.000000 0.034584
# 5 -0.002966 -0.004936 -0.002475 0.000000 0.032394 0.000000
# 6 0.000000 0.000000 0.000000 0.034584 0.000000 -0.162221
#
#
# Mechanical properties :
#
#
# Convention : Reuss Voigt Hill
#
# Bulk Modulus (GPa) = 28.42296 33.19173 30.80734
# Shear Modulus (GPa) = -140.53834 24.29218 -58.12308
#
# Velocity S-wave (km/s) = -8.17213 3.39759 -5.25548
# Velocity P-wave (km/s) = 8.69128 5.58249 4.71032
#
# Compressibility (1/GPa) = 0.03518283
#
# Stress axis : x y z
#
# Youngs Moduli (GPa) = 72.06871 52.05819 85.10189
#
# Poissons Ratio (x) = 0.14602 0.20035
# Poissons Ratio (y) = 0.20215 -0.02833
# Poissons Ratio (z) = 0.16967 -0.01733
#
# Static dielectric constant tensor:
#      x y z
#    x 1.832970 0.000000 -0.003070 
#    y 0.000000 1.773780 0.000000 
#    z -0.003070 0.000000 1.749780 
# 
# From -- ./inp_files/36451.got.cif
#   From: 2010.05.17/outbox.cif.g08.bks.cpg/sg5_19_cif.got.tgz:36451.got - 2010.06.03 18:56:24.
