data_PCOD9129421
_publ_section_title
;
Structure prediction by ZEFSAII (Michael W. Deem and Ramdas Pophale) SiO2 
 PCOD9129421
Probable space group: C 2
;
_chemical_formula_sum "Si O2"
_cell_formula_units_Z 26
_cell_length_a 6.904639
_cell_length_b 12.415122
_cell_length_c 14.550839
_cell_angle_alpha 90.000000
_cell_angle_beta 124.708875
_cell_angle_gamma 90.000000
_cell_volume 1025.371705
_symmetry_space_group_name_H-M "C 2"
_symmetry_group_IT_number 5
_symmetry_cell_setting 'monoclinic'
loop_
_space_group_symop_operation_xyz
x,y,z
-x,y,-z
1/2+x,1/2+y,z
1/2-x,1/2+y,-z
loop_
_atom_site_type_symbol
_atom_site_label
_atom_site_fract_x
_atom_site_fract_y
_atom_site_fract_z
Si Si1 0.949456 0.554850 0.385984
Si Si2 0.000000 0.168721 0.000000
Si Si3 0.621052 0.798876 0.873703
Si Si4 0.842716 0.977288 0.837535
Si Si5 0.378756 0.418743 0.262966
Si Si6 0.459275 0.657276 0.314870
Si Si7 0.690561 0.266267 0.467604
O O1 0.891460 0.475187 0.289694
O O2 0.706683 0.619127 0.336346
O O3 0.000000 0.506989 0.500000
O O4 0.135798 0.646773 0.413396
O O5 0.164984 0.241701 0.981986
O O6 0.876795 0.093723 0.891378
O O7 0.781036 0.901112 0.903793
O O8 0.350579 0.842889 0.796843
O O9 0.671628 0.721177 0.800752
O O10 0.048133 0.943714 0.822901
O O11 0.350424 0.537797 0.302307
O O12 0.595311 0.355314 0.370808
O O13 0.552574 0.743293 0.416760
O O14 0.500000 0.282440 0.500000
#
# Coordination Sequence:
#
# PCOD9129421 Si02
#       7
#     4   2   4   4   4   4   4
#     4   8  15  37  64  93 138 177 210 278 340 398
#     4  12  26  52  68 100 146 172 234 316 346 410
#     4  12  25  46  72  97 137 181 233 297 354 406
#     4  11  26  45  71 104 132 184 236 286 354 422
#     4  11  21  46  72  99 143 188 231 285 348 416
#     4   9  19  38  63 102 139 173 232 279 331 417
#     4   9  16  35  67  97 142 191 210 279 346 393
#
# _framework density 25.356659000000001
#
# number of rings (size 3 to 8) (size 9 to 14) (size 15 to 20)
#    0.000    2.154    6.154    0.000    2.154    3.692 
#    5.538    1.538    0.000    0.000    0.000    0.000 
#    0.000    0.000    0.000    0.000    0.000    0.000 
#
# Total GULP energy -72572.515410 kJ/mol
# GULP energy per Si atom -5582.501185 kJ/mol
# Density = 2.529895 g / cm^3
# Si number density = 25.356659 Si / 1000 Ang^3
#
#
#
# Elastic Constant Matrix: (Units=GPa)
#
#
# Indices 1 2 3 4 5 6 
#
# 1 57.0688 38.9092 28.5833 0.0000 -6.3664 0.0000
# 2 38.9092 115.1957 55.4878 0.0000 -14.2753 0.0000
# 3 28.5833 55.4878 117.9461 0.0000 -20.7305 0.0000
# 4 0.0000 0.0000 0.0000 53.2341 0.0000 -24.7555
# 5 -6.3664 -14.2753 -20.7305 0.0000 38.5499 0.0000
# 6 0.0000 0.0000 0.0000 -24.7555 0.0000 17.8066
#
#
#
# Elastic Compliance Matrix: (Units=1/GPa)
#
#
# Indices 1 2 3 4 5 6 
#
# 1 0.023329 -0.006666 -0.002512 0.000000 0.000034 0.000000
# 2 -0.006666 0.013203 -0.004340 0.000000 0.001454 0.000000
# 3 -0.002512 -0.004340 0.011898 0.000000 0.004376 0.000000
# 4 0.000000 0.000000 0.000000 0.053141 0.000000 0.073880
# 5 0.000034 0.001454 0.004376 0.000000 0.028838 0.000000
# 6 0.000000 0.000000 0.000000 0.073880 0.000000 0.158870
#
#
# Mechanical properties :
#
#
# Convention : Reuss Voigt Hill
#
# Bulk Modulus (GPa) = 46.74055 59.57457 53.15756
# Shear Modulus (GPa) = 15.45844 33.06680 24.26262
#
# Velocity S-wave (km/s) = 2.47177 3.61511 3.09666
# Velocity P-wave (km/s) = 5.15940 6.40086 5.81336
#
# Compressibility (1/GPa) = 0.02139470
#
# Stress axis : x y z
#
# Youngs Moduli (GPa) = 42.86475 75.73861 84.04529
#
# Poissons Ratio (x) = 0.50485 0.21111
# Poissons Ratio (y) = 0.28572 0.36480
# Poissons Ratio (z) = 0.10767 0.32874
#
# Static dielectric constant tensor:
#      x y z
#    x 2.022690 0.000000 -0.017880 
#    y 0.000000 2.033350 0.000000 
#    z -0.017880 0.000000 2.059360 
# 
# From -- ./inp_files/50363.got.cif
#   From: 2010.05.17/outbox.cif.g08.bks.cpg/sg5_26_cif.got.tgz:50363.got - 2010.06.03 18:56:24.
