data_PCOD9129193
_publ_section_title
;
Structure prediction by ZEFSAII (Michael W. Deem and Ramdas Pophale) SiO2 
 PCOD9129193
Probable space group: C 2
;
_chemical_formula_sum "Si O2"
_cell_formula_units_Z 26
_cell_length_a 20.560844
_cell_length_b 9.902532
_cell_length_c 8.219061
_cell_angle_alpha 90.000000
_cell_angle_beta 39.773208
_cell_angle_gamma 90.000000
_cell_volume 1070.582018
_symmetry_space_group_name_H-M "C 2"
_symmetry_group_IT_number 5
_symmetry_cell_setting 'monoclinic'
loop_
_space_group_symop_operation_xyz
x,y,z
-x,y,-z
1/2+x,1/2+y,z
1/2-x,1/2+y,-z
loop_
_atom_site_type_symbol
_atom_site_label
_atom_site_fract_x
_atom_site_fract_y
_atom_site_fract_z
Si Si1 0.387051 0.148720 0.060792
Si Si2 0.274611 0.837130 0.127944
Si Si3 0.672228 0.916136 0.327711
Si Si4 0.015149 0.345964 0.153386
Si Si5 0.500000 0.394885 0.000000
Si Si6 0.719389 0.511244 0.550658
Si Si7 0.391884 0.174501 0.688811
O O1 0.292612 0.140862 0.369468
O O2 0.455937 0.281184 0.958213
O O3 0.345672 0.160859 0.957049
O O4 0.452387 0.007635 0.934288
O O5 0.252634 0.927443 0.326425
O O6 0.185367 0.731844 0.291453
O O7 0.269035 0.892610 0.953359
O O8 0.388431 0.784866 0.938853
O O9 0.589821 0.811538 0.554079
O O10 0.739850 0.957357 0.353003
O O11 0.592341 0.028287 0.417346
O O12 0.000000 0.297016 0.000000
O O13 0.597852 0.490783 0.781394
O O14 0.500000 0.245174 0.500000
#
# Coordination Sequence:
#
# PCOD9129193 Si02
#       7
#     4   4   4   4   2   4   4
#     4  11  21  41  69 105 137 174 235 292 341 422
#     4  11  24  38  63 103 136 169 230 292 343 418
#     4  12  21  42  69  95 138 172 223 290 350 402
#     4  11  19  40  68  97 133 177 221 291 345 404
#     4  12  24  44  76 102 136 196 234 282 364 410
#     4  11  25  41  68 105 139 177 232 300 339 417
#     4  12  23  39  70 102 127 184 231 276 354 421
#
# _framework density 24.285854
#
# number of rings (size 3 to 8) (size 9 to 14) (size 15 to 20)
#    0.000    0.615    8.462    2.308    2.154    0.000 
#    0.000    0.000   11.846    0.923    0.000    0.000 
#    0.000    0.000    0.000    0.000    0.000    0.000 
#
# Total GULP energy -72393.645505 kJ/mol
# GULP energy per Si atom -5568.741962 kJ/mol
# Density = 2.423058 g / cm^3
# Si number density = 24.285854 Si / 1000 Ang^3
#
#
#
# Elastic Constant Matrix: (Units=GPa)
#
#
# Indices 1 2 3 4 5 6 
#
# 1 161.8464 28.6100 50.7531 0.0000 17.8348 0.0000
# 2 28.6100 36.1264 13.0158 0.0000 1.2062 0.0000
# 3 50.7531 13.0158 129.3492 0.0000 -1.9887 0.0000
# 4 0.0000 0.0000 0.0000 6.5879 0.0000 -3.5843
# 5 17.8348 1.2062 -1.9887 0.0000 54.2302 0.0000
# 6 0.0000 0.0000 0.0000 -3.5843 0.0000 34.1493
#
#
#
# Elastic Compliance Matrix: (Units=1/GPa)
#
#
# Indices 1 2 3 4 5 6 
#
# 1 0.008312 -0.005502 -0.002750 0.000000 -0.002712 0.000000
# 2 -0.005502 0.032393 -0.001085 0.000000 0.001049 0.000000
# 3 -0.002750 -0.001085 0.008938 0.000000 0.001256 0.000000
# 4 0.000000 0.000000 0.000000 0.160986 0.000000 0.016897
# 5 -0.002712 0.001049 0.001256 0.000000 0.019355 0.000000
# 6 0.000000 0.000000 0.000000 0.016897 0.000000 0.031057
#
#
# Mechanical properties :
#
#
# Convention : Reuss Voigt Hill
#
# Bulk Modulus (GPa) = 32.28725 56.89775 44.59250
# Shear Modulus (GPa) = 17.23917 34.65637 25.94777
#
# Velocity S-wave (km/s) = 2.66718 3.78169 3.27223
# Velocity P-wave (km/s) = 4.77584 6.52284 5.71647
#
# Compressibility (1/GPa) = 0.03097197
#
# Stress axis : x y z
#
# Youngs Moduli (GPa) = 120.30275 30.87046 111.87737
#
# Poissons Ratio (x) = 0.16984 0.30762
# Poissons Ratio (y) = 0.66187 0.12136
# Poissons Ratio (z) = 0.33079 0.03349
#
# Static dielectric constant tensor:
#      x y z
#    x 1.887320 0.000000 -0.031940 
#    y 0.000000 2.130150 0.000000 
#    z -0.031940 0.000000 2.121280 
# 
# From -- ./inp_files/29401.got.cif
#   From: 2010.05.17/outbox.cif.g08.bks.cpg/sg5_15_cif.got.tgz:29401.got - 2010.06.03 18:56:24.
