data_PCOD9129079
_publ_section_title
;
Structure prediction by ZEFSAII (Michael W. Deem and Ramdas Pophale) SiO2 
 PCOD9129079
Probable space group: C 2
;
_chemical_formula_sum "Si O2"
_cell_formula_units_Z 20
_cell_length_a 18.297306
_cell_length_b 5.061368
_cell_length_c 11.212378
_cell_angle_alpha 90.000000
_cell_angle_beta 127.004589
_cell_angle_gamma 90.000000
_cell_volume 829.230370
_symmetry_space_group_name_H-M "C 2"
_symmetry_group_IT_number 5
_symmetry_cell_setting 'monoclinic'
loop_
_space_group_symop_operation_xyz
x,y,z
-x,y,-z
1/2+x,1/2+y,z
1/2-x,1/2+y,-z
loop_
_atom_site_type_symbol
_atom_site_label
_atom_site_fract_x
_atom_site_fract_y
_atom_site_fract_z
Si Si1 0.207753 0.292460 0.517238
Si Si2 0.410344 0.155420 0.162820
Si Si3 0.440145 0.470023 0.545504
Si Si4 0.585884 0.660480 0.997199
Si Si5 0.783560 0.637429 0.258531
O O1 0.225861 0.561405 0.463402
O O2 0.106777 0.170846 0.409734
O O3 0.219737 0.370128 0.667308
O O4 0.494247 0.263572 0.324829
O O5 0.393860 0.385822 0.050365
O O6 0.324406 0.112178 0.166469
O O7 0.431585 0.886423 0.116683
O O8 0.500000 0.605358 0.500000
O O9 0.356725 0.319059 0.399512
O O10 0.500000 0.632291 0.000000
O O11 0.680183 0.739849 0.155450
#
# Coordination Sequence:
#
# PCOD9129079 Si02
#       5
#     4   4   4   4   4
#     4  12  27  44  73 113 155 196 248 315 378 439
#     4  11  28  49  76 106 151 199 247 311 370 454
#     4  10  26  48  78 113 147 198 257 312 370 454
#     4  12  29  48  74 111 153 194 252 310 383 441
#     4  11  27  49  79 108 150 203 255 302 380 454
#
# _framework density 24.118751
#
# number of rings (size 3 to 8) (size 9 to 14) (size 15 to 20)
#    0.000    0.800    2.000    1.800   14.000    2.400 
#    0.000    0.000    0.000    0.000    0.000    0.000 
#    0.000    0.000    0.000    0.000    0.000    0.000 
#
# Total GULP energy -56033.127071 kJ/mol
# GULP energy per Si atom -5603.312707 kJ/mol
# Density = 2.406386 g / cm^3
# Si number density = 24.118751 Si / 1000 Ang^3
#
#
#
# Elastic Constant Matrix: (Units=GPa)
#
#
# Indices 1 2 3 4 5 6 
#
# 1 216.0119 74.6404 41.7446 0.0001 5.5998 0.0001
# 2 74.6404 116.0301 2.5837 0.0005 -4.0130 0.0011
# 3 41.7446 2.5837 81.0563 0.0000 36.1301 0.0001
# 4 0.0001 0.0005 0.0000 36.3001 0.0001 -3.1234
# 5 5.5998 -4.0130 36.1301 0.0001 34.1650 0.0000
# 6 0.0001 0.0011 0.0001 -3.1234 0.0000 -2.2512
#
#
#
# Elastic Compliance Matrix: (Units=1/GPa)
#
#
# Indices 1 2 3 4 5 6 
#
# 1 0.007001 -0.004256 -0.005175 0.000000 0.003825 -0.000002
# 2 -0.004256 0.011323 0.001754 0.000000 0.000173 0.000005
# 3 -0.005175 0.001754 0.027385 0.000000 -0.027906 0.000002
# 4 0.000000 0.000000 0.000000 0.024610 0.000000 -0.034145
# 5 0.003825 0.000173 -0.027906 0.000000 0.058174 0.000000
# 6 -0.000002 0.000005 0.000002 -0.034145 0.000000 -0.396832
#
#
# Mechanical properties :
#
#
# Convention : Reuss Voigt Hill
#
# Bulk Modulus (GPa) = 32.94308 72.33730 52.64019
# Shear Modulus (GPa) = -20.58750 33.25140 6.33195
#
# Velocity S-wave (km/s) = -2.92479 3.71705 1.62204
# Velocity P-wave (km/s) = 1.51078 6.96270 5.03794
#
# Compressibility (1/GPa) = 0.03035539
#
# Stress axis : x y z
#
# Youngs Moduli (GPa) = 142.83905 88.31411 36.51608
#
# Poissons Ratio (x) = 0.37587 0.18897
# Poissons Ratio (y) = 0.60793 -0.06405
# Poissons Ratio (z) = 0.73917 -0.15490
#
# Static dielectric constant tensor:
#      x y z
#    x 1.929830 0.000000 -0.002960 
#    y 0.000000 1.909760 0.000000 
#    z -0.002960 0.000000 2.004270 
# 
# From -- ./inp_files/43829.got.cif
#   From: 2010.05.17/outbox.cif.g08.bks.cpg/sg5_22_cif.got.tgz:43829.got - 2010.06.03 18:56:24.
