data_PCOD9129565
_publ_section_title
;
Structure prediction by ZEFSAII (Michael W. Deem and Ramdas Pophale) SiO2 
 PCOD9129565
Probable space group: C 2
;
_chemical_formula_sum "Si O2"
_cell_formula_units_Z 18
_cell_length_a 12.966978
_cell_length_b 11.697676
_cell_length_c 5.175720
_cell_angle_alpha 90.000000
_cell_angle_beta 114.714640
_cell_angle_gamma 90.000000
_cell_volume 713.159906
_symmetry_space_group_name_H-M "C 2"
_symmetry_group_IT_number 5
_symmetry_cell_setting 'monoclinic'
loop_
_space_group_symop_operation_xyz
x,y,z
-x,y,-z
1/2+x,1/2+y,z
1/2-x,1/2+y,-z
loop_
_atom_site_type_symbol
_atom_site_label
_atom_site_fract_x
_atom_site_fract_y
_atom_site_fract_z
Si Si1 0.565491 0.570660 0.316469
Si Si2 0.500000 0.905840 0.000000
Si Si3 0.349509 0.329623 0.603494
Si Si4 0.325093 0.084254 0.724683
Si Si5 0.711167 0.890926 0.957400
O O1 0.500000 0.609811 0.500000
O O2 0.560668 0.431627 0.304516
O O3 0.699858 0.595947 0.470248
O O4 0.500000 0.613522 0.000000
O O5 0.582977 0.988033 0.255660
O O6 0.586307 0.846010 0.897102
O O7 0.383856 0.204103 0.728088
O O8 0.292849 0.336187 0.261360
O O9 0.258364 0.364399 0.728630
O O10 0.295415 0.027559 0.976532
#
# Coordination Sequence:
#
# PCOD9129565 Si02
#       5
#     4   2   4   4   4
#     4  11  24  44  64  93 134 170 208 265 316 380
#     4   8  20  48  64  94 128 168 208 282 296 384
#     4  11  22  43  68  92 129 167 218 254 323 376
#     4   9  22  45  64  99 124 172 212 265 315 379
#     4   9  22  41  65  94 129 160 210 268 310 372
#
# _framework density 25.23978
#
# number of rings (size 3 to 8) (size 9 to 14) (size 15 to 20)
#    1.333    0.889    0.000    2.667    1.556    6.222 
#    6.000    0.000    0.000    0.000    0.000    0.000 
#    0.000    0.000    0.000    0.000    0.000    0.000 
#
# Total GULP energy -50191.972564 kJ/mol
# GULP energy per Si atom -5576.885840 kJ/mol
# Density = 2.518233 g / cm^3
# Si number density = 25.239780 Si / 1000 Ang^3
#
#
#
# Elastic Constant Matrix: (Units=GPa)
#
#
# Indices 1 2 3 4 5 6 
#
# 1 99.0883 -13.3542 61.0086 0.0000 -2.6042 0.0000
# 2 -13.3542 99.0409 11.7489 0.0000 -12.6782 0.0000
# 3 61.0086 11.7489 124.7876 0.0000 12.7836 0.0000
# 4 0.0000 0.0000 0.0000 1.3359 0.0000 -6.1184
# 5 -2.6042 -12.6782 12.7836 0.0000 41.4818 0.0000
# 6 0.0000 0.0000 0.0000 -6.1184 0.0000 15.8500
#
#
#
# Elastic Compliance Matrix: (Units=1/GPa)
#
#
# Indices 1 2 3 4 5 6 
#
# 1 0.016119 0.003835 -0.008741 0.000000 0.004878 0.000000
# 2 0.003835 0.011649 -0.003471 0.000000 0.004871 0.000000
# 3 -0.008741 -0.003471 0.013195 0.000000 -0.005676 0.000000
# 4 0.000000 0.000000 0.000000 -0.974771 0.000000 -0.376280
# 5 0.004878 0.004871 -0.005676 0.000000 0.027651 0.000000
# 6 0.000000 0.000000 0.000000 -0.376280 0.000000 -0.082160
#
#
# Mechanical properties :
#
#
# Convention : Reuss Voigt Hill
#
# Bulk Modulus (GPa) = 41.30629 49.08038 45.19334
# Shear Modulus (GPa) = -5.18946 29.30111 12.05583
#
# Velocity S-wave (km/s) = -1.43545 3.41091 2.18790
# Velocity P-wave (km/s) = 3.69509 5.91610 4.93224
#
# Compressibility (1/GPa) = 0.02420939
#
# Stress axis : x y z
#
# Youngs Moduli (GPa) = 62.03830 85.84353 75.78343
#
# Poissons Ratio (x) = -0.32919 0.66245
# Poissons Ratio (y) = -0.23790 0.26301
# Poissons Ratio (z) = 0.54230 0.29793
#
# Static dielectric constant tensor:
#      x y z
#    x 1.974410 0.000000 -0.002660 
#    y 0.000000 2.106370 0.000000 
#    z -0.002660 0.000000 2.054480 
# 
# From -- ./inp_files/4592.got.cif
#   From: 2010.05.17/outbox.cif.g08.bks.cpg/sg5_3_cif.got.tgz:4592.got - 2010.06.03 18:56:24.
