data_PCOD9129897
_publ_section_title
;
Structure prediction by ZEFSAII (Michael W. Deem and Ramdas Pophale) SiO2 
 PCOD9129897
Probable space group: C 2
;
_chemical_formula_sum "Si O2"
_cell_formula_units_Z 18
_cell_length_a 8.562617
_cell_length_b 17.950280
_cell_length_c 5.219050
_cell_angle_alpha 90.000000
_cell_angle_beta 102.698366
_cell_angle_gamma 90.000000
_cell_volume 782.554597
_symmetry_space_group_name_H-M "C 2"
_symmetry_group_IT_number 5
_symmetry_cell_setting 'monoclinic'
loop_
_space_group_symop_operation_xyz
x,y,z
-x,y,-z
1/2+x,1/2+y,z
1/2-x,1/2+y,-z
loop_
_atom_site_type_symbol
_atom_site_label
_atom_site_fract_x
_atom_site_fract_y
_atom_site_fract_z
Si Si1 0.334934 0.090520 0.276299
Si Si2 0.000000 0.481500 0.000000
Si Si3 0.852696 0.359730 0.586173
Si Si4 0.387278 0.258196 0.209077
Si Si5 0.106482 0.966698 0.291888
O O1 0.500000 0.088443 0.500000
O O2 0.315014 0.174581 0.175434
O O3 0.192212 0.046879 0.362548
O O4 0.362815 0.036095 0.047248
O O5 0.933918 0.429279 0.756227
O O6 0.755044 0.313925 0.763723
O O7 0.733448 0.398598 0.340037
O O8 0.000000 0.317857 0.500000
O O9 0.500000 0.260183 0.500000
O O10 0.500000 0.270890 0.000000
O O11 0.000000 0.951234 0.500000
O O12 0.000000 0.966721 0.000000
#
# Coordination Sequence:
#
# PCOD9129897 Si02
#       5
#     4   2   4   4   4
#     4  11  23  47  75 102 142 202 245 291 367 450
#     4  12  20  44  82  96 142 190 256 288 354 442
#     4  12  27  45  75 110 147 198 247 303 370 441
#     4  11  28  48  74 106 153 194 243 303 372 435
#     4  12  26  43  73 111 148 183 248 311 361 427
#
# _framework density 23.00159
#
# number of rings (size 3 to 8) (size 9 to 14) (size 15 to 20)
#    0.000    0.444    5.556    2.000    3.111    4.444 
#    2.000    0.000    0.000    0.000    0.000    0.000 
#    0.000    0.000    0.000    0.000    0.000    0.000 
#
# Total GULP energy -50349.240298 kJ/mol
# GULP energy per Si atom -5594.360033 kJ/mol
# Density = 2.294924 g / cm^3
# Si number density = 23.001590 Si / 1000 Ang^3
#
#
#
# Elastic Constant Matrix: (Units=GPa)
#
#
# Indices 1 2 3 4 5 6 
#
# 1 146.5964 71.0264 51.4696 0.0000 -25.3544 0.0000
# 2 71.0264 144.1290 28.5943 0.0000 -16.8640 0.0000
# 3 51.4696 28.5943 128.6492 0.0000 -4.5529 0.0000
# 4 0.0000 0.0000 0.0000 13.9706 0.0000 -18.9382
# 5 -25.3544 -16.8640 -4.5529 0.0000 43.2081 0.0000
# 6 0.0000 0.0000 0.0000 -18.9382 0.0000 34.7462
#
#
#
# Elastic Compliance Matrix: (Units=1/GPa)
#
#
# Indices 1 2 3 4 5 6 
#
# 1 0.010697 -0.004128 -0.003209 0.000000 0.004327 0.000000
# 2 -0.004128 0.009173 -0.000347 0.000000 0.001121 0.000000
# 3 -0.003209 -0.000347 0.009097 0.000000 -0.001060 0.000000
# 4 0.000000 0.000000 0.000000 0.274084 0.000000 0.149387
# 5 0.004327 0.001121 -0.001060 0.000000 0.026009 0.000000
# 6 0.000000 0.000000 0.000000 0.149387 0.000000 0.110203
#
#
# Mechanical properties :
#
#
# Convention : Reuss Voigt Hill
#
# Bulk Modulus (GPa) = 73.54654 80.17281 76.85967
# Shear Modulus (GPa) = 10.88938 36.27061 23.57999
#
# Velocity S-wave (km/s) = 2.17818 3.97530 3.20526
# Velocity P-wave (km/s) = 6.19435 7.48342 6.86919
#
# Compressibility (1/GPa) = 0.01359683
#
# Stress axis : x y z
#
# Youngs Moduli (GPa) = 93.48699 109.01834 109.93194
#
# Poissons Ratio (x) = 0.45007 0.35274
# Poissons Ratio (y) = 0.38595 0.03820
# Poissons Ratio (z) = 0.29998 0.03788
#
# Static dielectric constant tensor:
#      x y z
#    x 1.934480 0.000000 -0.041190 
#    y 0.000000 1.843320 0.000000 
#    z -0.041190 0.000000 1.900470 
# 
# From -- ./inp_files/2113.got.cif
#   From: 2010.05.17/outbox.cif.g08.bks.cpg/sg5_2_cif.got.tgz:2113.got - 2010.06.03 18:56:24.
