data_PCOD9129527
_publ_section_title
;
Structure prediction by ZEFSAII (Michael W. Deem and Ramdas Pophale) SiO2 
 PCOD9129527
Probable space group: C 2
;
_chemical_formula_sum "Si O2"
_cell_formula_units_Z 24
_cell_length_a 12.223134
_cell_length_b 8.716369
_cell_length_c 11.657101
_cell_angle_alpha 90.000000
_cell_angle_beta 113.849970
_cell_angle_gamma 90.000000
_cell_volume 1135.908729
_symmetry_space_group_name_H-M "C 2"
_symmetry_group_IT_number 5
_symmetry_cell_setting 'monoclinic'
loop_
_space_group_symop_operation_xyz
x,y,z
-x,y,-z
1/2+x,1/2+y,z
1/2-x,1/2+y,-z
loop_
_atom_site_type_symbol
_atom_site_label
_atom_site_fract_x
_atom_site_fract_y
_atom_site_fract_z
Si Si1 0.235147 0.403080 0.863470
Si Si2 0.007529 0.531129 0.636227
Si Si3 0.295985 0.539227 0.128509
Si Si4 0.186594 0.353861 0.295327
Si Si5 0.921703 0.028353 0.780383
Si Si6 0.908055 0.861292 0.548212
O O1 0.216589 0.221522 0.862570
O O2 0.362101 0.435728 0.857892
O O3 0.134712 0.484129 0.742433
O O4 0.231248 0.478231 0.987104
O O5 0.907102 0.451898 0.671037
O O6 0.979181 0.712557 0.623996
O O7 0.000000 0.481596 0.500000
O O8 0.243009 0.451095 0.215660
O O9 0.436811 0.508698 0.171115
O O10 0.117930 0.204034 0.221781
O O11 0.294221 0.309329 0.426616
O O12 0.870881 0.966280 0.637901
O O13 0.000000 0.944313 0.500000
#
# Coordination Sequence:
#
# PCOD9129527 Si02
#       6
#     4   4   4   4   4   4
#     4  12  27  49  74 104 146 192 240 301 360 429
#     4  11  25  45  73 107 147 189 238 300 361 423
#     4  12  28  49  73 107 145 191 245 295 360 434
#     4  12  24  46  73 107 148 189 238 300 358 428
#     4  12  25  47  72 106 146 189 242 296 360 424
#     4  11  22  41  72 106 145 185 238 294 354 429
#
# _framework density 21.128457999999998
#
# number of rings (size 3 to 8) (size 9 to 14) (size 15 to 20)
#    0.000    0.333    3.333    6.500    2.333    2.667 
#    3.000    0.000    0.000    0.000    0.000    0.000 
#    0.000    0.000    0.000    0.000    0.000    0.000 
#
# Total GULP energy -67194.060208 kJ/mol
# GULP energy per Si atom -5599.505017 kJ/mol
# Density = 2.108037 g / cm^3
# Si number density = 21.128458 Si / 1000 Ang^3
#
#
#
# Elastic Constant Matrix: (Units=GPa)
#
#
# Indices 1 2 3 4 5 6 
#
# 1 142.9900 48.6849 43.7083 0.0000 -18.0654 0.0000
# 2 48.6849 92.1694 55.4334 0.0000 -12.6801 0.0000
# 3 43.7083 55.4334 124.9997 0.0000 -4.5785 0.0000
# 4 0.0000 0.0000 0.0000 30.9780 0.0000 -7.9028
# 5 -18.0654 -12.6801 -4.5785 0.0000 35.2557 0.0000
# 6 0.0000 0.0000 0.0000 -7.9028 0.0000 35.9919
#
#
#
# Elastic Compliance Matrix: (Units=1/GPa)
#
#
# Indices 1 2 3 4 5 6 
#
# 1 0.009025 -0.003408 -0.001527 0.000000 0.003200 0.000000
# 2 -0.003408 0.016826 -0.006142 0.000000 0.003508 0.000000
# 3 -0.001527 -0.006142 0.011201 0.000000 -0.001537 0.000000
# 4 0.000000 0.000000 0.000000 0.034196 0.000000 0.007509
# 5 0.003200 0.003508 -0.001537 0.000000 0.031066 0.000000
# 6 0.000000 0.000000 0.000000 0.007509 0.000000 0.029433
#
#
# Mechanical properties :
#
#
# Convention : Reuss Voigt Hill
#
# Bulk Modulus (GPa) = 67.12092 72.86802 69.99447
# Shear Modulus (GPa) = 31.47261 34.60063 33.03662
#
# Velocity S-wave (km/s) = 3.86370 4.05116 3.95854
# Velocity P-wave (km/s) = 7.19314 7.51302 7.35482
#
# Compressibility (1/GPa) = 0.01489848
#
# Stress axis : x y z
#
# Youngs Moduli (GPa) = 110.80199 59.43080 89.27548
#
# Poissons Ratio (x) = 0.20257 0.13632
# Poissons Ratio (y) = 0.37767 0.54829
# Poissons Ratio (z) = 0.16920 0.36500
#
# Static dielectric constant tensor:
#      x y z
#    x 1.764530 0.000000 0.014030 
#    y 0.000000 1.733220 0.000000 
#    z 0.014030 0.000000 1.762060 
# 
# From -- ./inp_files/38410.got.cif
#   From: 2010.05.17/outbox.cif.g08.bks.cpg/sg5_20_cif.got.tgz:38410.got - 2010.06.03 18:56:24.
