data_PCOD9129825
_publ_section_title
;
Structure prediction by ZEFSAII (Michael W. Deem and Ramdas Pophale) SiO2 
 PCOD9129825
Probable space group: C 2
;
_chemical_formula_sum "Si O2"
_cell_formula_units_Z 26
_cell_length_a 8.117051
_cell_length_b 19.293947
_cell_length_c 8.847368
_cell_angle_alpha 90.000000
_cell_angle_beta 125.777866
_cell_angle_gamma 90.000000
_cell_volume 1124.111597
_symmetry_space_group_name_H-M "C 2"
_symmetry_group_IT_number 5
_symmetry_cell_setting 'monoclinic'
loop_
_space_group_symop_operation_xyz
x,y,z
-x,y,-z
1/2+x,1/2+y,z
1/2-x,1/2+y,-z
loop_
_atom_site_type_symbol
_atom_site_label
_atom_site_fract_x
_atom_site_fract_y
_atom_site_fract_z
Si Si1 0.042001 0.612050 0.343880
Si Si2 0.918711 0.014937 0.607983
Si Si3 0.328095 0.261221 0.650393
Si Si4 0.529327 0.762834 0.766344
Si Si5 0.051022 0.893436 0.849984
Si Si6 0.346471 0.611735 0.051589
Si Si7 0.500000 0.879567 0.000000
O O1 0.000000 0.627571 0.500000
O O2 0.220075 0.556879 0.455443
O O3 0.092257 0.683998 0.288495
O O4 0.861871 0.587679 0.137405
O O5 0.000000 0.980932 0.500000
O O6 0.078389 0.070304 0.761732
O O7 0.897559 0.953418 0.714407
O O8 0.184250 0.279278 0.714377
O O9 0.497916 0.320432 0.740634
O O10 0.187777 0.252469 0.428235
O O11 0.618195 0.693639 0.893944
O O12 0.496335 0.827247 0.856846
O O13 0.280187 0.915255 0.917993
O O14 0.000000 0.884850 0.000000
O O15 0.500000 0.594696 0.000000
#
# Coordination Sequence:
#
# PCOD9129825 Si02
#       7
#     4   4   4   4   4   4   2
#     4  12  26  46  82 112 152 213 264 326 399 462
#     4  12  29  51  72 112 154 204 262 323 397 473
#     4  11  25  46  74 112 155 199 262 331 387 468
#     4  11  23  44  76 112 152 197 256 330 395 459
#     4  12  29  52  76 112 162 212 264 330 396 478
#     4  12  23  45  74 110 152 199 260 326 387 471
#     4  12  26  46  78 114 146 208 266 312 408 458
#
# _framework density 23.129375
#
# number of rings (size 3 to 8) (size 9 to 14) (size 15 to 20)
#    0.000    0.308    5.385    2.308    4.308    3.077 
#    2.769    0.000    0.000    0.000    0.000    0.000 
#    0.000    0.000    0.000    0.000    0.000    0.000 
#
# Total GULP energy -72604.461022 kJ/mol
# GULP energy per Si atom -5584.958540 kJ/mol
# Density = 2.307673 g / cm^3
# Si number density = 23.129375 Si / 1000 Ang^3
#
#
#
# Elastic Constant Matrix: (Units=GPa)
#
#
# Indices 1 2 3 4 5 6 
#
# 1 61.4797 7.6776 32.6183 0.0000 10.1941 0.0000
# 2 7.6776 84.5968 34.4220 0.0000 21.1529 0.0000
# 3 32.6183 34.4220 152.9601 0.0000 28.9010 0.0000
# 4 0.0000 0.0000 0.0000 49.3109 0.0000 11.9950
# 5 10.1941 21.1529 28.9010 0.0000 37.1381 0.0000
# 6 0.0000 0.0000 0.0000 11.9950 0.0000 54.8742
#
#
#
# Elastic Compliance Matrix: (Units=1/GPa)
#
#
# Indices 1 2 3 4 5 6 
#
# 1 0.018526 0.000404 -0.003561 0.000000 -0.002544 0.000000
# 2 0.000404 0.014279 -0.002042 0.000000 -0.006655 0.000000
# 3 -0.003561 -0.002042 0.008619 0.000000 -0.004567 0.000000
# 4 0.000000 0.000000 0.000000 0.021418 0.000000 -0.004682
# 5 -0.002544 -0.006655 -0.004567 0.000000 0.034969 0.000000
# 6 0.000000 0.000000 0.000000 -0.004682 0.000000 0.019247
#
#
# Mechanical properties :
#
#
# Convention : Reuss Voigt Hill
#
# Bulk Modulus (GPa) = 32.23075 49.83027 41.03051
# Shear Modulus (GPa) = 36.28456 43.21923 39.75189
#
# Velocity S-wave (km/s) = 3.96506 4.32740 4.15019
# Velocity P-wave (km/s) = 5.90995 6.82345 6.38306
#
# Compressibility (1/GPa) = 0.03102628
#
# Stress axis : x y z
#
# Youngs Moduli (GPa) = 53.97771 70.03302 116.01647
#
# Poissons Ratio (x) = -0.02827 0.41311
# Poissons Ratio (y) = -0.02179 0.23691
# Poissons Ratio (z) = 0.19220 0.14301
#
# Static dielectric constant tensor:
#      x y z
#    x 1.982980 0.000000 0.129510 
#    y 0.000000 1.856590 0.000000 
#    z 0.129510 0.000000 0.980620 
# 
# From -- ./inp_files/17055.got.cif
#   From: 2010.05.17/outbox.cif.g08.bks.cpg/sg5_9_cif.got.tgz:17055.got - 2010.06.03 18:56:24.
