data_PCOD9129386
_publ_section_title
;
Structure prediction by ZEFSAII (Michael W. Deem and Ramdas Pophale) SiO2 
 PCOD9129386
Probable space group: C 2
;
_chemical_formula_sum "Si O2"
_cell_formula_units_Z 28
_cell_length_a 18.386464
_cell_length_b 8.620418
_cell_length_c 14.176380
_cell_angle_alpha 90.000000
_cell_angle_beta 29.343874
_cell_angle_gamma 90.000000
_cell_volume 1101.114195
_symmetry_space_group_name_H-M "C 2"
_symmetry_group_IT_number 5
_symmetry_cell_setting 'monoclinic'
loop_
_space_group_symop_operation_xyz
x,y,z
-x,y,-z
1/2+x,1/2+y,z
1/2-x,1/2+y,-z
loop_
_atom_site_type_symbol
_atom_site_label
_atom_site_fract_x
_atom_site_fract_y
_atom_site_fract_z
Si Si1 0.132976 0.590470 0.399822
Si Si2 0.506412 0.733703 0.886249
Si Si3 0.325250 0.341779 0.514711
Si Si4 0.136557 0.149583 0.219605
Si Si5 0.882184 0.917815 0.239617
Si Si6 0.227658 0.800708 0.113245
Si Si7 0.795788 0.163086 0.640491
O O1 0.076093 0.715481 0.541895
O O2 0.247879 0.490449 0.328630
O O3 0.196164 0.693038 0.241441
O O4 0.000000 0.500959 0.500000
O O5 0.672821 0.753795 0.663079
O O6 0.486059 0.545359 0.916807
O O7 0.500000 0.790252 0.000000
O O8 0.400425 0.834879 0.942416
O O9 0.375650 0.405687 0.358962
O O10 0.288742 0.480421 0.626695
O O11 0.194322 0.189560 0.258792
O O12 0.962455 0.201548 0.409862
O O13 0.139960 0.961519 0.207866
O O14 0.248221 0.215015 0.013907
O O15 0.850488 0.743298 0.238942
#
# Coordination Sequence:
#
# PCOD9129386 Si02
#       7
#     4   4   4   4   4   4   4
#     4  11  24  42  70 101 141 189 239 300 365 438
#     4  11  22  44  68  95 138 187 229 295 357 424
#     4  11  21  43  68  96 137 189 238 285 361 428
#     4  11  26  42  74 100 146 186 232 307 359 436
#     4  11  24  40  71 102 135 189 237 291 355 431
#     4  12  24  45  70 102 142 189 238 294 380 425
#     4  11  23  46  67 106 139 181 239 294 350 431
#
# _framework density 25.428787
#
# number of rings (size 3 to 8) (size 9 to 14) (size 15 to 20)
#    0.000    0.857    4.286    4.286    4.000    1.143 
#    0.000    5.000    0.000    0.000    0.000    0.000 
#    0.000    0.000    0.000    0.000    0.000    0.000 
#
# Total GULP energy -78115.431604 kJ/mol
# GULP energy per Si atom -5579.673686 kJ/mol
# Density = 2.537091 g / cm^3
# Si number density = 25.428787 Si / 1000 Ang^3
#
#
#
# Elastic Constant Matrix: (Units=GPa)
#
#
# Indices 1 2 3 4 5 6 
#
# 1 138.5314 21.6928 34.7956 0.0000 21.2796 0.0000
# 2 21.6928 77.0942 14.5683 0.0000 4.6917 0.0000
# 3 34.7956 14.5683 76.0791 0.0000 34.2841 0.0000
# 4 0.0000 0.0000 0.0000 17.5993 0.0000 9.6615
# 5 21.2796 4.6917 34.2841 0.0000 53.3560 0.0000
# 6 0.0000 0.0000 0.0000 9.6615 0.0000 40.8401
#
#
#
# Elastic Compliance Matrix: (Units=1/GPa)
#
#
# Indices 1 2 3 4 5 6 
#
# 1 0.008429 -0.001739 -0.002922 0.000000 -0.001331 0.000000
# 2 -0.001739 0.013834 -0.002278 0.000000 0.000940 0.000000
# 3 -0.002922 -0.002278 0.020130 0.000000 -0.011569 0.000000
# 4 0.000000 0.000000 0.000000 0.065301 0.000000 -0.015448
# 5 -0.001331 0.000940 -0.011569 0.000000 0.026624 0.000000
# 6 0.000000 0.000000 0.000000 -0.015448 0.000000 0.028140
#
#
# Mechanical properties :
#
#
# Convention : Reuss Voigt Hill
#
# Bulk Modulus (GPa) = 35.06814 48.20200 41.63507
# Shear Modulus (GPa) = 26.90465 37.06895 31.98680
#
# Velocity S-wave (km/s) = 3.25628 3.82220 3.55053
# Velocity P-wave (km/s) = 5.28758 6.20288 5.76343
#
# Compressibility (1/GPa) = 0.02851591
#
# Stress axis : x y z
#
# Youngs Moduli (GPa) = 118.63316 72.28820 49.67599
#
# Poissons Ratio (x) = 0.12568 0.14518
# Poissons Ratio (y) = 0.20625 0.11314
# Poissons Ratio (z) = 0.34670 0.16465
#
# Static dielectric constant tensor:
#      x y z
#    x 2.101370 0.000000 -0.057060 
#    y 0.000000 2.101190 0.000000 
#    z -0.057060 0.000000 2.076210 
# 
# From -- ./inp_files/56876.got.cif
#   From: 2010.05.17/outbox.cif.g08.bks.cpg/sg5_29_cif.got.tgz:56876.got - 2010.06.03 18:56:24.
