data_PCOD9129383
_publ_section_title
;
Structure prediction by ZEFSAII (Michael W. Deem and Ramdas Pophale) SiO2 
 PCOD9129383
Probable space group: C 2
;
_chemical_formula_sum "Si O2"
_cell_formula_units_Z 28
_cell_length_a 19.406553
_cell_length_b 8.387735
_cell_length_c 14.346987
_cell_angle_alpha 90.000000
_cell_angle_beta 147.702026
_cell_angle_gamma 90.000000
_cell_volume 1247.835218
_symmetry_space_group_name_H-M "C 2"
_symmetry_group_IT_number 5
_symmetry_cell_setting 'monoclinic'
loop_
_space_group_symop_operation_xyz
x,y,z
-x,y,-z
1/2+x,1/2+y,z
1/2-x,1/2+y,-z
loop_
_atom_site_type_symbol
_atom_site_label
_atom_site_fract_x
_atom_site_fract_y
_atom_site_fract_z
Si Si1 0.919437 0.035840 0.615934
Si Si2 0.000000 0.303351 0.000000
Si Si3 0.737592 0.183866 0.773411
Si Si4 0.163703 0.363659 0.369249
Si Si5 0.846815 0.841616 0.142286
Si Si6 0.142589 0.367809 0.758607
Si Si7 0.938337 0.587921 0.594932
Si Si8 0.500000 0.604791 0.500000
O O1 0.876625 0.199444 0.621021
O O2 0.935138 0.036474 0.520670
O O3 0.815761 0.898783 0.524849
O O4 0.067511 0.983482 0.803810
O O5 0.885760 0.207929 0.919120
O O6 0.919616 0.381212 0.821619
O O7 0.685349 0.320460 0.784485
O O8 0.651061 0.175568 0.581816
O O9 0.717867 0.010175 0.795354
O O10 0.130882 0.511496 0.397775
O O11 0.940070 0.690957 0.233921
O O12 0.713826 0.832377 0.936168
O O13 0.119361 0.208524 0.676118
O O14 0.000788 0.438159 0.612640
#
# Coordination Sequence:
#
# PCOD9129383 Si02
#       8
#     4   2   4   4   4   4   4   2
#     4  12  27  46  73 105 146 193 243 300 375 428
#     4  12  26  40  70 108 142 188 246 310 360 434
#     4  11  23  44  69  99 143 193 243 294 373 432
#     4  12  26  48  71 105 149 197 242 304 368 445
#     4  11  25  39  72 103 138 184 246 300 356 435
#     4  11  21  43  67 102 137 189 238 303 355 432
#     4  11  23  46  69  98 145 194 241 299 370 428
#     4  12  26  42  70 106 140 188 242 306 352 432
#
# _framework density 22.438859999999998
#
# number of rings (size 3 to 8) (size 9 to 14) (size 15 to 20)
#    0.000    0.571    2.857    5.571    8.000    1.143 
#    0.000    1.429    0.000    0.857    0.000    0.000 
#    0.000    0.000    0.000    0.000    0.000    0.000 
#
# Total GULP energy -78082.358908 kJ/mol
# GULP energy per Si atom -5577.311351 kJ/mol
# Density = 2.238779 g / cm^3
# Si number density = 22.438860 Si / 1000 Ang^3
#
#
#
# Elastic Constant Matrix: (Units=GPa)
#
#
# Indices 1 2 3 4 5 6 
#
# 1 148.0087 46.4044 38.0991 0.0000 11.2498 0.0000
# 2 46.4044 82.2704 24.5873 0.0000 -3.3212 0.0000
# 3 38.0991 24.5873 119.0308 0.0000 -5.6680 0.0000
# 4 0.0000 0.0000 0.0000 13.6591 0.0000 0.1953
# 5 11.2498 -3.3212 -5.6680 0.0000 47.8467 0.0000
# 6 0.0000 0.0000 0.0000 0.1953 0.0000 51.7073
#
#
#
# Elastic Compliance Matrix: (Units=1/GPa)
#
#
# Indices 1 2 3 4 5 6 
#
# 1 0.008899 -0.004516 -0.002042 0.000000 -0.002648 0.000000
# 2 -0.004516 0.015263 -0.001615 0.000000 0.001930 0.000000
# 3 -0.002042 -0.001615 0.009459 0.000000 0.001488 0.000000
# 4 0.000000 0.000000 0.000000 0.073215 0.000000 -0.000277
# 5 -0.002648 0.001930 0.001488 0.000000 0.021833 0.000000
# 6 0.000000 0.000000 0.000000 -0.000277 0.000000 0.019341
#
#
# Mechanical properties :
#
#
# Convention : Reuss Voigt Hill
#
# Bulk Modulus (GPa) = 57.88700 63.05463 60.47081
# Shear Modulus (GPa) = 29.39193 38.65723 34.02458
#
# Velocity S-wave (km/s) = 3.62314 4.15514 3.89822
# Velocity P-wave (km/s) = 6.58456 7.15415 6.87526
#
# Compressibility (1/GPa) = 0.01727504
#
# Stress axis : x y z
#
# Youngs Moduli (GPa) = 112.37100 65.51753 105.71723
#
# Poissons Ratio (x) = 0.29589 0.21583
# Poissons Ratio (y) = 0.50750 0.17077
# Poissons Ratio (z) = 0.22942 0.10583
#
# Static dielectric constant tensor:
#      x y z
#    x 1.891020 0.000000 -0.026040 
#    y 0.000000 1.895710 0.000000 
#    z -0.026040 0.000000 1.820500 
# 
# From -- ./inp_files/56859.got.cif
#   From: 2010.05.17/outbox.cif.g08.bks.cpg/sg5_29_cif.got.tgz:56859.got - 2010.06.03 18:56:24.
