data_PCOD9129217
_publ_section_title
;
Structure prediction by ZEFSAII (Michael W. Deem and Ramdas Pophale) SiO2 
 PCOD9129217
Probable space group: C 2
;
_chemical_formula_sum "Si O2"
_cell_formula_units_Z 32
_cell_length_a 20.434082
_cell_length_b 15.021657
_cell_length_c 9.211340
_cell_angle_alpha 90.000000
_cell_angle_beta 143.911481
_cell_angle_gamma 90.000000
_cell_volume 1665.468694
_symmetry_space_group_name_H-M "C 2"
_symmetry_group_IT_number 5
_symmetry_cell_setting 'monoclinic'
loop_
_space_group_symop_operation_xyz
x,y,z
-x,y,-z
1/2+x,1/2+y,z
1/2-x,1/2+y,-z
loop_
_atom_site_type_symbol
_atom_site_label
_atom_site_fract_x
_atom_site_fract_y
_atom_site_fract_z
Si Si1 0.332093 0.343510 0.752673
Si Si2 0.962024 0.792066 0.703138
Si Si3 0.400338 0.454859 0.432981
Si Si4 0.316697 0.684130 0.473146
Si Si5 0.465364 0.605090 0.175856
Si Si6 0.741123 0.545855 0.388009
Si Si7 0.088044 0.609308 0.539649
Si Si8 0.206065 0.112689 0.886889
O O1 0.398839 0.296173 0.742290
O O2 0.225742 0.282442 0.578772
O O3 0.294280 0.443599 0.648807
O O4 0.416435 0.334355 0.042085
O O5 0.886150 0.857778 0.470592
O O6 0.965535 0.695993 0.634196
O O7 0.500000 0.444743 0.500000
O O8 0.453020 0.520569 0.649301
O O9 0.302973 0.508237 0.177494
O O10 0.448781 0.676282 0.729790
O O11 0.255100 0.610812 0.465226
O O12 0.292535 0.662692 0.261872
O O13 0.405394 0.629107 0.219430
O O14 0.364945 0.582530 0.891224
O O15 0.850376 0.554296 0.480102
O O16 0.000000 0.570245 0.500000
O O17 0.191265 0.635036 0.827890
#
# Coordination Sequence:
#
# PCOD9129217 Si02
#       8
#     4   4   4   4   4   4   4   4
#     4  11  23  36  62  96 123 160 217 264 315 378
#     4  11  21  37  61  95 122 158 214 272 313 365
#     4   9  16  31  58  90 113 145 201 264 297 357
#     4  11  20  36  60  93 124 160 202 268 319 367
#     4   9  18  35  62  88 120 157 201 256 320 364
#     4  11  22  40  64  91 126 169 208 266 319 375
#     4  11  23  42  60  87 132 175 205 256 328 386
#     4   9  20  36  58  90 122 163 206 251 318 376
#
# _framework density 19.213811
#
# number of rings (size 3 to 8) (size 9 to 14) (size 15 to 20)
#    0.000    1.750    2.500    4.125    1.750    0.000 
#    0.000    1.250    2.750    4.500    0.000    0.000 
#    0.000    0.000    0.000    0.000    0.000    0.000 
#
# Total GULP energy -89091.717156 kJ/mol
# GULP energy per Si atom -5568.232322 kJ/mol
# Density = 1.917008 g / cm^3
# Si number density = 19.213811 Si / 1000 Ang^3
#
#
#
# Elastic Constant Matrix: (Units=GPa)
#
#
# Indices 1 2 3 4 5 6 
#
# 1 101.7045 25.7365 16.3973 0.0000 3.9801 0.0000
# 2 25.7365 59.9742 30.0981 0.0000 -1.4344 0.0000
# 3 16.3973 30.0981 35.2707 0.0000 -0.8533 0.0000
# 4 0.0000 0.0000 0.0000 21.4473 0.0000 1.9997
# 5 3.9801 -1.4344 -0.8533 0.0000 30.8885 0.0000
# 6 0.0000 0.0000 0.0000 1.9997 0.0000 26.0425
#
#
#
# Elastic Compliance Matrix: (Units=1/GPa)
#
#
# Indices 1 2 3 4 5 6 
#
# 1 0.011190 -0.003867 -0.001943 0.000000 -0.001675 0.000000
# 2 -0.003867 0.030513 -0.024210 0.000000 0.001246 0.000000
# 3 -0.001943 -0.024210 0.049927 0.000000 0.000505 0.000000
# 4 0.000000 0.000000 0.000000 0.046962 0.000000 -0.003606
# 5 -0.001675 0.001246 0.000505 0.000000 0.032662 0.000000
# 6 0.000000 0.000000 0.000000 -0.003606 0.000000 0.038676
#
#
# Mechanical properties :
#
#
# Convention : Reuss Voigt Hill
#
# Bulk Modulus (GPa) = 31.65549 37.93481 34.79515
# Shear Modulus (GPa) = 17.82531 23.99017 20.90774
#
# Velocity S-wave (km/s) = 3.04918 3.53737 3.30231
# Velocity P-wave (km/s) = 5.37660 6.03907 5.71744
#
# Compressibility (1/GPa) = 0.03159010
#
# Stress axis : x y z
#
# Youngs Moduli (GPa) = 89.36782 32.77293 20.02908
#
# Poissons Ratio (x) = 0.12673 0.03891
# Poissons Ratio (y) = 0.34557 0.48491
# Poissons Ratio (z) = 0.17363 0.79344
#
# Static dielectric constant tensor:
#      x y z
#    x 1.756700 0.000000 -0.018200 
#    y 0.000000 1.695620 0.000000 
#    z -0.018200 0.000000 1.695170 
# 
# From -- ./inp_files/29862.got.cif
#   From: 2010.05.17/outbox.cif.g08.bks.cpg/sg5_15_cif.got.tgz:29862.got - 2010.06.03 18:56:24.
