data_PCOD9129618
_publ_section_title
;
Structure prediction by ZEFSAII (Michael W. Deem and Ramdas Pophale) SiO2 
 PCOD9129618
Probable space group: C 2
;
_chemical_formula_sum "Si O2"
_cell_formula_units_Z 26
_cell_length_a 13.952981
_cell_length_b 11.924258
_cell_length_c 8.303031
_cell_angle_alpha 90.000000
_cell_angle_beta 116.873604
_cell_angle_gamma 90.000000
_cell_volume 1232.261100
_symmetry_space_group_name_H-M "C 2"
_symmetry_group_IT_number 5
_symmetry_cell_setting 'monoclinic'
loop_
_space_group_symop_operation_xyz
x,y,z
-x,y,-z
1/2+x,1/2+y,z
1/2-x,1/2+y,-z
loop_
_atom_site_type_symbol
_atom_site_label
_atom_site_fract_x
_atom_site_fract_y
_atom_site_fract_z
Si Si1 0.444390 0.315160 0.298645
Si Si2 0.500000 0.829077 0.500000
Si Si3 0.907833 0.651522 0.798688
Si Si4 0.287012 0.732463 0.858171
Si Si5 0.121974 0.983064 0.029433
Si Si6 0.426255 0.904165 0.782914
Si Si7 0.779580 0.296201 0.211466
O O1 0.500000 0.361507 0.500000
O O2 0.535437 0.238850 0.280447
O O3 0.341799 0.236177 0.260680
O O4 0.395664 0.415474 0.152244
O O5 0.489715 0.890588 0.663688
O O6 0.385354 0.770960 0.393505
O O7 0.875600 0.527156 0.721331
O O8 0.807826 0.703998 0.813393
O O9 0.000000 0.636247 0.000000
O O10 0.336692 0.609857 0.925621
O O11 0.343116 0.803566 0.758604
O O12 0.307558 0.793442 0.044439
O O13 0.213356 0.910841 0.191727
O O14 0.000000 0.978992 0.000000
O O15 0.500000 0.902556 0.000000
#
# Coordination Sequence:
#
# PCOD9129618 Si02
#       7
#     4   2   4   4   4   4   4
#     4  11  25  44  71 111 144 193 252 308 369 455
#     4  12  28  46  68 104 152 188 254 302 374 448
#     4  11  22  45  73  99 138 188 246 302 370 449
#     4  11  25  44  73 102 146 191 240 299 382 439
#     4  11  23  46  73  98 145 188 237 300 375 436
#     4  11  26  46  71 103 141 192 247 303 375 448
#     4  11  24  45  67 102 140 193 233 306 363 447
#
# _framework density 21.099423999999999
#
# number of rings (size 3 to 8) (size 9 to 14) (size 15 to 20)
#    0.000    0.923    6.154    0.462    9.692    0.000 
#    1.385    0.000    0.000    0.000    0.000    0.000 
#    0.000    0.000    0.000    0.000    0.000    0.000 
#
# Total GULP energy -72431.884343 kJ/mol
# GULP energy per Si atom -5571.683411 kJ/mol
# Density = 2.105140 g / cm^3
# Si number density = 21.099424 Si / 1000 Ang^3
#
#
#
# Elastic Constant Matrix: (Units=GPa)
#
#
# Indices 1 2 3 4 5 6 
#
# 1 105.9118 53.7304 33.8287 0.0000 -1.2202 0.0000
# 2 53.7304 120.6627 14.5791 0.0000 -4.5995 0.0000
# 3 33.8287 14.5791 82.8218 0.0000 9.6649 0.0000
# 4 0.0000 0.0000 0.0000 -3.8408 0.0000 -3.3629
# 5 -1.2202 -4.5995 9.6649 0.0000 44.9996 0.0000
# 6 0.0000 0.0000 0.0000 -3.3629 0.0000 -2.0984
#
#
#
# Elastic Compliance Matrix: (Units=1/GPa)
#
#
# Indices 1 2 3 4 5 6 
#
# 1 0.013772 -0.005527 -0.004749 0.000000 0.000828 0.000000
# 2 -0.005527 0.010751 0.000261 0.000000 0.000893 0.000000
# 3 -0.004749 0.000261 0.014339 0.000000 -0.003182 0.000000
# 4 0.000000 0.000000 0.000000 0.645794 0.000000 -1.034934
# 5 0.000828 0.000893 -0.003182 0.000000 0.023020 0.000000
# 6 0.000000 0.000000 0.000000 -1.034934 0.000000 1.182010
#
#
# Mechanical properties :
#
#
# Convention : Reuss Voigt Hill
#
# Bulk Modulus (GPa) = 53.10121 57.07472 55.08797
# Shear Modulus (GPa) = 2.60961 21.62930 12.11945
#
# Velocity S-wave (km/s) = 1.11333 3.20521 2.39926
# Velocity P-wave (km/s) = 5.18406 6.38803 5.81728
#
# Compressibility (1/GPa) = 0.01883196
#
# Stress axis : x y z
#
# Youngs Moduli (GPa) = 72.60941 93.01129 69.73866
#
# Poissons Ratio (x) = 0.51411 0.33119
# Poissons Ratio (y) = 0.40134 -0.01819
# Poissons Ratio (z) = 0.34482 -0.02427
#
# Static dielectric constant tensor:
#      x y z
#    x 1.790390 0.000000 -0.005700 
#    y 0.000000 1.825120 0.000000 
#    z -0.005700 0.000000 1.813510 
# 
# From -- ./inp_files/23715.got.cif
#   From: 2010.05.17/outbox.cif.g08.bks.cpg/sg5_12_cif.got.tgz:23715.got - 2010.06.03 18:56:24.
