data_PCOD9129029
_publ_section_title
;
Structure prediction by ZEFSAII (Michael W. Deem and Ramdas Pophale) SiO2 
 PCOD9129029
Probable space group: C 2
;
_chemical_formula_sum "Si O2"
_cell_formula_units_Z 18
_cell_length_a 16.084235
_cell_length_b 4.761445
_cell_length_c 21.778491
_cell_angle_alpha 90.000000
_cell_angle_beta 24.416092
_cell_angle_gamma 90.000000
_cell_volume 689.438626
_symmetry_space_group_name_H-M "C 2"
_symmetry_group_IT_number 5
_symmetry_cell_setting 'monoclinic'
loop_
_space_group_symop_operation_xyz
x,y,z
-x,y,-z
1/2+x,1/2+y,z
1/2-x,1/2+y,-z
loop_
_atom_site_type_symbol
_atom_site_label
_atom_site_fract_x
_atom_site_fract_y
_atom_site_fract_z
Si Si1 0.588399 0.607370 0.732996
Si Si2 0.500000 0.315814 0.000000
Si Si3 0.904918 0.551708 0.189070
Si Si4 0.048982 0.415520 0.296402
Si Si5 0.528741 0.410527 0.576247
O O1 0.604449 0.296079 0.751822
O O2 0.481718 0.732346 0.743800
O O3 0.807552 0.754572 0.575184
O O4 0.484488 0.784817 0.857210
O O5 0.487635 0.147624 0.944962
O O6 0.714587 0.462547 0.850348
O O7 0.686814 0.444839 0.311267
O O8 0.967554 0.725450 0.363525
O O9 0.942507 0.228517 0.420827
#
# Coordination Sequence:
#
# PCOD9129029 Si02
#       5
#     4   2   4   4   4
#     4  12  24  42  69 103 129 170 228 281 334 391
#     4  10  26  46  62  92 132 182 224 262 344 394
#     4  11  25  41  66  95 135 175 220 279 327 403
#     4  11  24  43  70  95 136 177 218 278 331 407
#     4  11  23  43  67  99 135 173 215 272 347 401
#
# _framework density 26.108197000000001
#
# number of rings (size 3 to 8) (size 9 to 14) (size 15 to 20)
#    0.000    0.889    0.000    7.333    0.000   13.333 
#    0.000    0.000    0.000    0.000    0.000    0.000 
#    0.000    0.000    0.000    0.000    0.000    0.000 
#
# Total GULP energy -50185.362843 kJ/mol
# GULP energy per Si atom -5576.151427 kJ/mol
# Density = 2.604877 g / cm^3
# Si number density = 26.108197 Si / 1000 Ang^3
#
#
#
# Elastic Constant Matrix: (Units=GPa)
#
#
# Indices 1 2 3 4 5 6 
#
# 1 109.8412 42.4361 14.5292 -0.0277 19.4902 -0.0132
# 2 42.4361 144.4155 20.1801 -0.0439 -5.8885 -0.0258
# 3 14.5292 20.1801 79.7234 -0.0121 -1.5016 -0.0101
# 4 -0.0277 -0.0439 -0.0121 15.2675 -0.0019 9.9926
# 5 19.4902 -5.8885 -1.5016 -0.0019 27.9896 -0.0153
# 6 -0.0132 -0.0258 -0.0101 9.9926 -0.0153 42.3427
#
#
#
# Elastic Compliance Matrix: (Units=1/GPa)
#
#
# Indices 1 2 3 4 5 6 
#
# 1 0.012490 -0.003854 -0.001481 0.000013 -0.009588 -0.000005
# 2 -0.003854 0.008424 -0.001347 0.000016 0.004384 0.000001
# 3 -0.001481 -0.001347 0.013182 0.000003 0.001455 0.000002
# 4 0.000013 0.000016 0.000003 0.077464 -0.000010 -0.018281
# 5 -0.009588 0.004384 0.001455 -0.000010 0.043404 0.000018
# 6 -0.000005 0.000001 0.000002 -0.018281 0.000018 0.027931
#
#
# Mechanical properties :
#
#
# Convention : Reuss Voigt Hill
#
# Bulk Modulus (GPa) = 48.23824 54.25231 51.24527
# Shear Modulus (GPa) = 24.60984 34.24227 29.42605
#
# Velocity S-wave (km/s) = 3.07353 3.62547 3.36084
# Velocity P-wave (km/s) = 5.57780 6.19276 5.89330
#
# Compressibility (1/GPa) = 0.02073044
#
# Stress axis : x y z
#
# Youngs Moduli (GPa) = 80.06244 118.70807 75.86219
#
# Poissons Ratio (x) = 0.45752 0.11237
# Poissons Ratio (y) = 0.30857 0.10221
# Poissons Ratio (z) = 0.11859 0.15994
#
# Static dielectric constant tensor:
#      x y z
#    x 2.256010 -0.000020 0.014320 
#    y -0.000020 1.976310 0.000020 
#    z 0.014320 0.000020 2.087460 
# 
# From -- ./inp_files/66393.got.cif
#   From: 2010.05.17/outbox.cif.g08.bks.cpg/sg5_34_cif.got.tgz:66393.got - 2010.06.03 18:56:24.
