data_PCOD9129775
_publ_section_title
;
Structure prediction by ZEFSAII (Michael W. Deem and Ramdas Pophale) SiO2 
 PCOD9129775
Probable space group: C 2
;
_chemical_formula_sum "Si O2"
_cell_formula_units_Z 22
_cell_length_a 16.064927
_cell_length_b 10.063765
_cell_length_c 13.677174
_cell_angle_alpha 90.000000
_cell_angle_beta 152.131830
_cell_angle_gamma 90.000000
_cell_volume 1033.618686
_symmetry_space_group_name_H-M "C 2"
_symmetry_group_IT_number 5
_symmetry_cell_setting 'monoclinic'
loop_
_space_group_symop_operation_xyz
x,y,z
-x,y,-z
1/2+x,1/2+y,z
1/2-x,1/2+y,-z
loop_
_atom_site_type_symbol
_atom_site_label
_atom_site_fract_x
_atom_site_fract_y
_atom_site_fract_z
Si Si1 0.904624 0.505630 0.097977
Si Si2 0.494102 0.525661 0.380140
Si Si3 0.685578 0.795013 0.587827
Si Si4 0.574691 0.097137 0.473328
Si Si5 0.000000 0.659246 0.000000
Si Si6 0.273705 0.823950 0.582301
O O1 0.948973 0.583008 0.245680
O O2 0.977010 0.574596 0.074279
O O3 0.022405 0.370641 0.219591
O O4 0.693878 0.490469 0.863857
O O5 0.500000 0.486473 0.500000
O O6 0.533222 0.683574 0.419235
O O7 0.655154 0.446636 0.496835
O O8 0.787927 0.792801 0.591122
O O9 0.630595 0.945064 0.548839
O O10 0.822788 0.745534 0.810420
O O11 0.500000 0.146192 0.500000
O O12 0.732751 0.196233 0.605406
#
# Coordination Sequence:
#
# PCOD9129775 Si02
#       6
#     4   4   4   4   2   4
#     4  11  24  43  75 104 134 190 240 277 347 421
#     4  12  23  42  74 101 137 188 240 285 334 428
#     4  11  23  43  72 102 142 182 233 291 342 421
#     4  11  25  43  67 108 150 177 225 301 361 406
#     4  12  20  44  74 104 126 190 242 280 338 422
#     4  11  23  46  65 103 143 184 226 291 350 412
#
# _framework density 21.284445000000002
#
# number of rings (size 3 to 8) (size 9 to 14) (size 15 to 20)
#    0.000    0.727    5.455    2.182    0.000    4.364 
#    0.000    6.364    0.000    0.000    0.000    0.000 
#    0.000    0.000    0.000    0.000    0.000    0.000 
#
# Total GULP energy -61411.037147 kJ/mol
# GULP energy per Si atom -5582.821559 kJ/mol
# Density = 2.123600 g / cm^3
# Si number density = 21.284445 Si / 1000 Ang^3
#
#
#
# Elastic Constant Matrix: (Units=GPa)
#
#
# Indices 1 2 3 4 5 6 
#
# 1 118.0102 18.3219 22.2430 0.0000 -15.9567 0.0000
# 2 18.3219 107.2727 36.5858 0.0000 11.2895 0.0000
# 3 22.2430 36.5858 133.3704 0.0000 7.4714 0.0000
# 4 0.0000 0.0000 0.0000 49.9762 0.0000 21.4634
# 5 -15.9567 11.2895 7.4714 0.0000 42.3778 0.0000
# 6 0.0000 0.0000 0.0000 21.4634 0.0000 44.2752
#
#
#
# Elastic Compliance Matrix: (Units=1/GPa)
#
#
# Indices 1 2 3 4 5 6 
#
# 1 0.009564 -0.001608 -0.001393 0.000000 0.004275 0.000000
# 2 -0.001608 0.010774 -0.002518 0.000000 -0.003032 0.000000
# 3 -0.001393 -0.002518 0.008497 0.000000 -0.001352 0.000000
# 4 0.000000 0.000000 0.000000 0.025271 0.000000 -0.012251
# 5 0.004275 -0.003032 -0.001352 0.000000 0.026253 0.000000
# 6 0.000000 0.000000 0.000000 -0.012251 0.000000 0.028525
#
#
# Mechanical properties :
#
#
# Convention : Reuss Voigt Hill
#
# Bulk Modulus (GPa) = 56.18957 56.99496 56.59226
# Shear Modulus (GPa) = 39.72831 46.09269 42.91050
#
# Velocity S-wave (km/s) = 4.32504 4.65860 4.49492
# Velocity P-wave (km/s) = 7.16923 7.46811 7.32020
#
# Compressibility (1/GPa) = 0.01779690
#
# Stress axis : x y z
#
# Youngs Moduli (GPa) = 104.55583 92.81228 117.69345
#
# Poissons Ratio (x) = 0.14927 0.16400
# Poissons Ratio (y) = 0.16815 0.29630
# Poissons Ratio (z) = 0.14569 0.23366
#
# Static dielectric constant tensor:
#      x y z
#    x 1.807660 0.000000 0.009690 
#    y 0.000000 1.776280 0.000000 
#    z 0.009690 0.000000 1.739210 
# 
# From -- ./inp_files/26422.got.cif
#   From: 2010.05.17/outbox.cif.g08.bks.cpg/sg5_14_cif.got.tgz:26422.got - 2010.06.03 18:56:24.
