data_PCOD9129379
_publ_section_title
;
Structure prediction by ZEFSAII (Michael W. Deem and Ramdas Pophale) SiO2 
 PCOD9129379
Probable space group: C 2
;
_chemical_formula_sum "Si O2"
_cell_formula_units_Z 28
_cell_length_a 17.458490
_cell_length_b 8.959932
_cell_length_c 7.896240
_cell_angle_alpha 90.000000
_cell_angle_beta 96.126220
_cell_angle_gamma 90.000000
_cell_volume 1228.130336
_symmetry_space_group_name_H-M "C 2"
_symmetry_group_IT_number 5
_symmetry_cell_setting 'monoclinic'
loop_
_space_group_symop_operation_xyz
x,y,z
-x,y,-z
1/2+x,1/2+y,z
1/2-x,1/2+y,-z
loop_
_atom_site_type_symbol
_atom_site_label
_atom_site_fract_x
_atom_site_fract_y
_atom_site_fract_z
Si Si1 0.584608 0.442930 0.806135
Si Si2 0.341571 0.837851 0.522672
Si Si3 0.229128 0.087381 0.649728
Si Si4 0.500000 0.256938 0.500000
Si Si5 0.613175 0.918319 0.845633
Si Si6 0.655859 0.178433 0.046727
Si Si7 0.000000 0.189904 0.000000
Si Si8 0.048865 0.528260 0.283328
O O1 0.656805 0.518643 0.730214
O O2 0.536521 0.351620 0.657010
O O3 0.525290 0.566982 0.864035
O O4 0.623669 0.326947 0.950136
O O5 0.301369 0.678818 0.519042
O O6 0.358813 0.851453 0.326206
O O7 0.285260 0.959478 0.592145
O O8 0.419450 0.869446 0.645193
O O9 0.277454 0.187818 0.796382
O O10 0.563396 0.146520 0.435557
O O11 0.573300 0.803837 0.974352
O O12 0.540229 0.015168 0.770953
O O13 0.675515 0.038072 0.927947
O O14 0.586518 0.101589 0.131443
#
# Coordination Sequence:
#
# PCOD9129379 Si02
#       8
#     4   4   4   2   4   4   2   4
#     4  12  27  48  71 109 144 179 243 303 354 422
#     4  11  25  47  67 102 143 187 244 281 351 431
#     4  11  29  47  69 103 144 197 234 289 353 424
#     4  12  24  42  76 104 138 186 230 302 362 416
#     4  12  22  46  73 103 142 182 240 293 357 425
#     4  11  25  45  73  99 142 193 234 282 357 438
#     4  12  26  44  70 112 144 176 234 306 362 404
#     4  11  21  42  76 103 135 187 236 291 354 423
#
# _framework density 22.79888
#
# number of rings (size 3 to 8) (size 9 to 14) (size 15 to 20)
#    0.000    0.571    5.714    0.857    8.000    1.143 
#    2.571    0.000    0.000    0.000    0.000    0.000 
#    0.000    0.000    0.000    0.000    0.000    0.000 
#
# Total GULP energy -78014.906265 kJ/mol
# GULP energy per Si atom -5572.493305 kJ/mol
# Density = 2.274699 g / cm^3
# Si number density = 22.798880 Si / 1000 Ang^3
#
#
#
# Elastic Constant Matrix: (Units=GPa)
#
#
# Indices 1 2 3 4 5 6 
#
# 1 63.3221 6.5821 28.1305 0.0000 3.8949 0.0000
# 2 6.5821 104.4413 51.1613 0.0000 13.4357 0.0000
# 3 28.1305 51.1613 96.3401 0.0000 -3.1923 0.0000
# 4 0.0000 0.0000 0.0000 31.7959 0.0000 6.1585
# 5 3.8949 13.4357 -3.1923 0.0000 31.3739 0.0000
# 6 0.0000 0.0000 0.0000 6.1585 0.0000 24.0423
#
#
#
# Elastic Compliance Matrix: (Units=1/GPa)
#
#
# Indices 1 2 3 4 5 6 
#
# 1 0.018965 0.002899 -0.007221 0.000000 -0.004331 0.000000
# 2 0.002899 0.014739 -0.008925 0.000000 -0.007580 0.000000
# 3 -0.007221 -0.008925 0.017443 0.000000 0.006493 0.000000
# 4 0.000000 0.000000 0.000000 0.033092 0.000000 -0.008477
# 5 -0.004331 -0.007580 0.006493 0.000000 0.036318 0.000000
# 6 0.000000 0.000000 0.000000 -0.008477 0.000000 0.043765
#
#
# Mechanical properties :
#
#
# Convention : Reuss Voigt Hill
#
# Bulk Modulus (GPa) = 40.56124 48.42792 44.49458
# Shear Modulus (GPa) = 25.12146 29.32439 27.22292
#
# Velocity S-wave (km/s) = 3.32305 3.59028 3.45925
# Velocity P-wave (km/s) = 5.70553 6.20277 5.95934
#
# Compressibility (1/GPa) = 0.02465408
#
# Stress axis : x y z
#
# Youngs Moduli (GPa) = 52.72865 67.84701 57.32985
#
# Poissons Ratio (x) = -0.19669 0.41396
# Poissons Ratio (y) = -0.15286 0.51166
# Poissons Ratio (z) = 0.38073 0.60552
#
# Static dielectric constant tensor:
#      x y z
#    x 1.878250 0.000000 -0.031260 
#    y 0.000000 1.934160 0.000000 
#    z -0.031260 0.000000 1.933140 
# 
# From -- ./inp_files/26817.got.cif
#   From: 2010.05.17/outbox.cif.g08.bks.cpg/sg5_14_cif.got.tgz:26817.got - 2010.06.03 18:56:24.
