data_PCOD9129734
_publ_section_title
;
Structure prediction by ZEFSAII (Michael W. Deem and Ramdas Pophale) SiO2 
 PCOD9129734
Probable space group: C 2
;
_chemical_formula_sum "Si O2"
_cell_formula_units_Z 24
_cell_length_a 23.710617
_cell_length_b 11.619483
_cell_length_c 9.042767
_cell_angle_alpha 90.000000
_cell_angle_beta 153.599539
_cell_angle_gamma 90.000000
_cell_volume 1107.750261
_symmetry_space_group_name_H-M "C 2"
_symmetry_group_IT_number 5
_symmetry_cell_setting 'monoclinic'
loop_
_space_group_symop_operation_xyz
x,y,z
-x,y,-z
1/2+x,1/2+y,z
1/2-x,1/2+y,-z
loop_
_atom_site_type_symbol
_atom_site_label
_atom_site_fract_x
_atom_site_fract_y
_atom_site_fract_z
Si Si1 0.026957 0.125000 0.734515
Si Si2 0.464588 0.853546 0.748757
Si Si3 0.336538 0.389859 0.976897
Si Si4 0.949645 0.765781 0.717329
Si Si5 0.185741 0.945698 0.750764
Si Si6 0.570786 0.057474 0.531532
O O1 0.029752 0.237388 0.841495
O O2 0.000000 0.158795 0.500000
O O3 0.902911 0.053666 0.491199
O O4 0.136337 0.026481 0.994780
O O5 0.309839 0.852069 0.382635
O O6 0.502205 0.956846 0.726912
O O7 0.500000 0.876521 0.000000
O O8 0.430941 0.318029 0.094814
O O9 0.364666 0.382396 0.218434
O O10 0.835178 0.857561 0.431142
O O11 0.899687 0.651051 0.522063
O O12 0.000000 0.747717 0.000000
O O13 0.316787 0.993973 0.117612
O O14 0.500000 0.117598 0.500000
#
# Coordination Sequence:
#
# PCOD9129734 Si02
#       6
#     4   4   4   4   4   4
#     4   9  19  40  67  94 124 176 228 274 331 406
#     4  11  24  42  61 100 139 169 217 286 345 397
#     4   9  21  44  66  92 131 178 229 273 329 420
#     4  11  23  42  67  99 133 173 222 286 348 393
#     4   9  21  40  69  91 126 177 230 271 328 419
#     4  11  24  40  66  96 130 173 228 271 333 415
#
# _framework density 21.665531999999999
#
# number of rings (size 3 to 8) (size 9 to 14) (size 15 to 20)
#    0.000    2.000    0.000    3.500    7.000    4.000 
#   15.000    0.000    0.000    0.000    0.000    0.000 
#    0.000    0.000    0.000    0.000    0.000    0.000 
#
# Total GULP energy -66930.298042 kJ/mol
# GULP energy per Si atom -5577.524837 kJ/mol
# Density = 2.161622 g / cm^3
# Si number density = 21.665532 Si / 1000 Ang^3
#
#
#
# Elastic Constant Matrix: (Units=GPa)
#
#
# Indices 1 2 3 4 5 6 
#
# 1 62.2466 27.2857 22.8979 0.0000 -9.5374 0.0000
# 2 27.2857 99.5750 29.1712 0.0000 -19.9471 0.0000
# 3 22.8979 29.1712 76.0813 0.0000 -20.5138 0.0000
# 4 0.0000 0.0000 0.0000 12.0669 0.0000 -6.5071
# 5 -9.5374 -19.9471 -20.5138 0.0000 25.2204 0.0000
# 6 0.0000 0.0000 0.0000 -6.5071 0.0000 2.1781
#
#
#
# Elastic Compliance Matrix: (Units=1/GPa)
#
#
# Indices 1 2 3 4 5 6 
#
# 1 0.019439 -0.003947 -0.004095 0.000000 0.000899 0.000000
# 2 -0.003947 0.013151 -0.001860 0.000000 0.007395 0.000000
# 3 -0.004095 -0.001860 0.018286 0.000000 0.011853 0.000000
# 4 0.000000 0.000000 0.000000 -0.135625 0.000000 -0.405183
# 5 0.000899 0.007395 0.011853 0.000000 0.055481 0.000000
# 6 0.000000 0.000000 0.000000 -0.405183 0.000000 -0.751376
#
#
# Mechanical properties :
#
#
# Convention : Reuss Voigt Hill
#
# Bulk Modulus (GPa) = 32.18436 44.06803 38.12619
# Shear Modulus (GPa) = -6.66238 18.46296 5.90029
#
# Velocity S-wave (km/s) = -1.75550 2.92238 1.65205
# Velocity P-wave (km/s) = 3.28303 5.63661 4.61247
#
# Compressibility (1/GPa) = 0.03107100
#
# Stress axis : x y z
#
# Youngs Moduli (GPa) = 51.44196 76.04150 54.68805
#
# Poissons Ratio (x) = 0.30015 0.22394
# Poissons Ratio (y) = 0.20305 0.10174
# Poissons Ratio (z) = 0.21065 0.14146
#
# Static dielectric constant tensor:
#      x y z
#    x 1.836950 0.000000 0.067700 
#    y 0.000000 1.838570 0.000000 
#    z 0.067700 0.000000 1.812380 
# 
# From -- ./inp_files/30964.got.cif
#   From: 2010.05.17/outbox.cif.g08.bks.cpg/sg5_16_cif.got.tgz:30964.got - 2010.06.03 18:56:24.
