data_PCOD9129909
_publ_section_title
;
Structure prediction by ZEFSAII (Michael W. Deem and Ramdas Pophale) SiO2 
 PCOD9129909
Probable space group: C 2
;
_chemical_formula_sum "Si O2"
_cell_formula_units_Z 20
_cell_length_a 12.758312
_cell_length_b 13.125603
_cell_length_c 5.625675
_cell_angle_alpha 90.000000
_cell_angle_beta 108.754385
_cell_angle_gamma 90.000000
_cell_volume 892.059398
_symmetry_space_group_name_H-M "C 2"
_symmetry_group_IT_number 5
_symmetry_cell_setting 'monoclinic'
loop_
_space_group_symop_operation_xyz
x,y,z
-x,y,-z
1/2+x,1/2+y,z
1/2-x,1/2+y,-z
loop_
_atom_site_type_symbol
_atom_site_label
_atom_site_fract_x
_atom_site_fract_y
_atom_site_fract_z
Si Si1 0.777558 0.479430 0.947100
Si Si2 0.616493 0.347644 0.495591
Si Si3 0.891422 0.053469 0.784612
Si Si4 0.760021 0.181808 0.321058
Si Si5 0.064608 0.310694 0.799723
O O1 0.702351 0.396542 0.749059
O O2 0.801931 0.579012 0.806328
O O3 0.704663 0.522500 0.107112
O O4 0.882081 0.421871 0.126338
O O5 0.500000 0.301753 0.500000
O O6 0.579368 0.448702 0.327652
O O7 0.682686 0.266903 0.383284
O O8 0.848468 0.138225 0.574024
O O9 0.000000 0.085422 0.000000
O O10 0.832704 0.233050 0.165705
O O11 0.000000 0.308817 0.500000
O O12 0.000000 0.294395 0.000000
#
# Coordination Sequence:
#
# PCOD9129909 Si02
#       5
#     4   4   4   4   4
#     4  11  26  48  72 107 154 195 254 319 373 456
#     4  11  23  48  75 109 152 199 250 318 383 448
#     4  11  24  45  77 108 147 200 258 314 376 448
#     4  11  28  45  76 112 149 197 260 314 374 459
#     4  12  29  52  79 110 157 204 251 317 387 446
#
# _framework density 22.420031999999999
#
# number of rings (size 3 to 8) (size 9 to 14) (size 15 to 20)
#    0.000    0.800    4.000    1.200   11.200    0.000 
#    3.600    0.000    0.000    0.000    0.000    0.000 
#    0.000    0.000    0.000    0.000    0.000    0.000 
#
# Total GULP energy -55946.896987 kJ/mol
# GULP energy per Si atom -5594.689699 kJ/mol
# Density = 2.236900 g / cm^3
# Si number density = 22.420032 Si / 1000 Ang^3
#
#
#
# Elastic Constant Matrix: (Units=GPa)
#
#
# Indices 1 2 3 4 5 6 
#
# 1 121.9310 83.0950 42.0199 0.0000 -34.6560 0.0000
# 2 83.0950 140.6568 58.0016 0.0000 -6.6989 0.0000
# 3 42.0199 58.0016 88.9911 0.0000 -17.3842 0.0000
# 4 0.0000 0.0000 0.0000 48.0069 0.0000 -9.2988
# 5 -34.6560 -6.6989 -17.3842 0.0000 38.6200 0.0000
# 6 0.0000 0.0000 0.0000 -9.2988 0.0000 26.1524
#
#
#
# Elastic Compliance Matrix: (Units=1/GPa)
#
#
# Indices 1 2 3 4 5 6 
#
# 1 0.020845 -0.012067 0.001389 0.000000 0.017238 0.000000
# 2 -0.012067 0.016765 -0.007430 0.000000 -0.011265 0.000000
# 3 0.001389 -0.007430 0.016902 0.000000 0.007566 0.000000
# 4 0.000000 0.000000 0.000000 0.022371 0.000000 0.007954
# 5 0.017238 -0.011265 0.007566 0.000000 0.042814 0.000000
# 6 0.000000 0.000000 0.000000 0.007954 0.000000 0.041066
#
#
# Mechanical properties :
#
#
# Convention : Reuss Voigt Hill
#
# Bulk Modulus (GPa) = 54.65143 79.75688 67.20415
# Shear Modulus (GPa) = 24.62116 33.78670 29.20393
#
# Velocity S-wave (km/s) = 3.31747 3.88620 3.61305
# Velocity P-wave (km/s) = 6.25326 7.46913 6.88808
#
# Compressibility (1/GPa) = 0.01829778
#
# Stress axis : x y z
#
# Youngs Moduli (GPa) = 47.97208 59.64644 59.16545
#
# Poissons Ratio (x) = 0.71973 -0.08220
# Poissons Ratio (y) = 0.57886 0.43960
# Poissons Ratio (z) = -0.06665 0.44318
#
# Static dielectric constant tensor:
#      x y z
#    x 1.806590 0.000000 -0.007860 
#    y 0.000000 1.824910 0.000000 
#    z -0.007860 0.000000 1.878520 
# 
# From -- ./inp_files/4701.got.cif
#   From: 2010.05.17/outbox.cif.g08.bks.cpg/sg5_3_cif.got.tgz:4701.got - 2010.06.03 18:56:24.
