data_PCOD9129833
_publ_section_title
;
Structure prediction by ZEFSAII (Michael W. Deem and Ramdas Pophale) SiO2 
 PCOD9129833
Probable space group: C 2
;
_chemical_formula_sum "Si O2"
_cell_formula_units_Z 26
_cell_length_a 11.552419
_cell_length_b 18.176994
_cell_length_c 8.696367
_cell_angle_alpha 90.000000
_cell_angle_beta 138.798166
_cell_angle_gamma 90.000000
_cell_volume 1202.899789
_symmetry_space_group_name_H-M "C 2"
_symmetry_group_IT_number 5
_symmetry_cell_setting 'monoclinic'
loop_
_space_group_symop_operation_xyz
x,y,z
-x,y,-z
1/2+x,1/2+y,z
1/2-x,1/2+y,-z
loop_
_atom_site_type_symbol
_atom_site_label
_atom_site_fract_x
_atom_site_fract_y
_atom_site_fract_z
Si Si1 0.152867 0.691680 0.048203
Si Si2 0.456419 0.905364 0.282979
Si Si3 0.500000 0.641479 0.500000
Si Si4 0.407880 0.638905 0.741523
Si Si5 0.759434 0.307198 0.609001
Si Si6 0.533404 0.077238 0.359556
Si Si7 0.647729 0.324506 0.848114
O O1 0.311571 0.678583 0.322403
O O2 0.217750 0.748219 0.986621
O O3 0.000000 0.724763 0.000000
O O4 0.066791 0.623633 0.870897
O O5 0.500000 0.881855 0.500000
O O6 0.592340 0.860850 0.311233
O O7 0.483392 0.992368 0.297447
O O8 0.254783 0.886944 0.042893
O O9 0.520547 0.616904 0.701256
O O10 0.333422 0.723582 0.669872
O O11 0.240447 0.586797 0.553460
O O12 0.500000 0.627581 0.000000
O O13 0.714503 0.325840 0.740650
O O14 0.563108 0.320435 0.343424
O O15 0.500000 0.106086 0.500000
#
# Coordination Sequence:
#
# PCOD9129833 Si02
#       7
#     4   4   2   4   4   4   4
#     4  12  24  42  72 106 142 174 236 294 345 420
#     4  11  27  44  68  99 142 184 231 284 352 421
#     4  12  24  40  66 114 130 182 232 280 362 410
#     4  12  24  44  76 105 144 184 242 302 350 428
#     4  11  23  45  69 102 135 180 235 288 351 418
#     4  11  24  49  67  99 143 190 230 294 359 418
#     4  11  24  42  71 100 133 186 226 287 353 414
#
# _framework density 21.614436000000001
#
# number of rings (size 3 to 8) (size 9 to 14) (size 15 to 20)
#    0.000    0.615    3.077    5.077    6.462    1.231 
#    8.308    0.000    0.000    0.000    0.000    0.000 
#    0.000    0.000    0.000    0.000    0.000    0.000 
#
# Total GULP energy -72517.325136 kJ/mol
# GULP energy per Si atom -5578.255780 kJ/mol
# Density = 2.156524 g / cm^3
# Si number density = 21.614436 Si / 1000 Ang^3
#
#
#
# Elastic Constant Matrix: (Units=GPa)
#
#
# Indices 1 2 3 4 5 6 
#
# 1 91.9808 -1.1042 28.7539 0.0000 -8.5640 0.0000
# 2 -1.1042 55.9568 39.5969 0.0000 -4.7133 0.0000
# 3 28.7539 39.5969 156.4050 0.0000 -5.9372 0.0000
# 4 0.0000 0.0000 0.0000 13.0627 0.0000 4.5707
# 5 -8.5640 -4.7133 -5.9372 0.0000 34.2923 0.0000
# 6 0.0000 0.0000 0.0000 4.5707 0.0000 21.2960
#
#
#
# Elastic Compliance Matrix: (Units=1/GPa)
#
#
# Indices 1 2 3 4 5 6 
#
# 1 0.012013 0.002393 -0.002706 0.000000 0.002860 0.000000
# 2 0.002393 0.022392 -0.006009 0.000000 0.002635 0.000000
# 3 -0.002706 -0.006009 0.008411 0.000000 -0.000045 0.000000
# 4 0.000000 0.000000 0.000000 0.082770 0.000000 -0.017765
# 5 0.002860 0.002635 -0.000045 0.000000 0.030230 0.000000
# 6 0.000000 0.000000 0.000000 -0.017765 0.000000 0.050770
#
#
# Mechanical properties :
#
#
# Convention : Reuss Voigt Hill
#
# Bulk Modulus (GPa) = 33.14373 48.75956 40.95164
# Shear Modulus (GPa) = 21.80684 29.53659 25.67172
#
# Velocity S-wave (km/s) = 3.17977 3.70066 3.45006
# Velocity P-wave (km/s) = 5.37109 6.39278 5.90407
#
# Compressibility (1/GPa) = 0.03017162
#
# Stress axis : x y z
#
# Youngs Moduli (GPa) = 83.24555 44.65857 118.89786
#
# Poissons Ratio (x) = -0.10685 0.32169
# Poissons Ratio (y) = -0.19917 0.71444
# Poissons Ratio (z) = 0.22523 0.26835
#
# Static dielectric constant tensor:
#      x y z
#    x 1.893700 0.000000 -0.009040 
#    y 0.000000 1.761290 0.000000 
#    z -0.009040 0.000000 2.108130 
# 
# From -- ./inp_files/22030.got.cif
#   From: 2010.05.17/outbox.cif.g08.bks.cpg/sg5_12_cif.got.tgz:22030.got - 2010.06.03 18:56:24.
