data_PCOD9129531
_publ_section_title
;
Structure prediction by ZEFSAII (Michael W. Deem and Ramdas Pophale) SiO2 
 PCOD9129531
Probable space group: C 2
;
_chemical_formula_sum "Si O2"
_cell_formula_units_Z 16
_cell_length_a 19.623140
_cell_length_b 4.969707
_cell_length_c 9.682021
_cell_angle_alpha 90.000000
_cell_angle_beta 141.079186
_cell_angle_gamma 90.000000
_cell_volume 593.191410
_symmetry_space_group_name_H-M "C 2"
_symmetry_group_IT_number 5
_symmetry_cell_setting 'monoclinic'
loop_
_space_group_symop_operation_xyz
x,y,z
-x,y,-z
1/2+x,1/2+y,z
1/2-x,1/2+y,-z
loop_
_atom_site_type_symbol
_atom_site_label
_atom_site_fract_x
_atom_site_fract_y
_atom_site_fract_z
Si Si1 0.789730 0.665830 0.058199
Si Si2 0.614006 0.843149 0.105046
Si Si3 0.745599 0.875487 0.700389
Si Si4 0.503673 0.844752 0.659966
O O1 0.755554 0.417504 0.130625
O O2 0.918857 0.608065 0.241260
O O3 0.726567 0.426662 0.867539
O O4 0.699182 0.623284 0.290779
O O5 0.675585 0.126747 0.202877
O O6 0.500000 0.876841 0.000000
O O7 0.572497 0.717220 0.891908
O O8 0.617391 0.871741 0.474434
O O9 0.500000 0.723192 0.500000
#
# Coordination Sequence:
#
# PCOD9129531 Si02
#       4
#     4   4   4   4
#     4  11  22  42  62  99 148 174 215 278 339 400
#     4  11  27  49  69  98 139 181 230 283 332 402
#     4  11  25  44  71 100 138 179 228 279 340 402
#     4  11  25  42  71 106 134 181 221 280 341 406
#
# _framework density 26.972742
#
# number of rings (size 3 to 8) (size 9 to 14) (size 15 to 20)
#    0.000    1.000    2.500    3.750    0.000    8.000 
#    0.000    0.000    0.000    0.000    0.000    0.000 
#    0.000    0.000    0.000    0.000    0.000    0.000 
#
# Total GULP energy -44571.725516 kJ/mol
# GULP energy per Si atom -5571.465690 kJ/mol
# Density = 2.691135 g / cm^3
# Si number density = 26.972742 Si / 1000 Ang^3
#
#
#
# Elastic Constant Matrix: (Units=GPa)
#
#
# Indices 1 2 3 4 5 6 
#
# 1 125.8309 72.2845 62.6438 0.0000 69.3450 0.0000
# 2 72.2845 232.1245 33.1253 0.0000 49.0673 0.0000
# 3 62.6438 33.1253 164.4821 0.0000 53.5453 0.0000
# 4 0.0000 0.0000 0.0000 31.0218 0.0000 21.0202
# 5 69.3450 49.0673 53.5453 0.0000 85.7234 0.0000
# 6 0.0000 0.0000 0.0000 21.0202 0.0000 28.9887
#
#
#
# Elastic Compliance Matrix: (Units=1/GPa)
#
#
# Indices 1 2 3 4 5 6 
#
# 1 0.016183 -0.002557 -0.002339 0.000000 -0.010167 0.000000
# 2 -0.002557 0.005306 0.000277 0.000000 -0.001142 0.000000
# 3 -0.002339 0.000277 0.007971 0.000000 -0.003246 0.000000
# 4 0.000000 0.000000 0.000000 0.063373 0.000000 -0.045953
# 5 -0.010167 -0.001142 -0.003246 0.000000 0.022571 0.000000
# 6 0.000000 0.000000 0.000000 -0.045953 0.000000 0.067817
#
#
# Mechanical properties :
#
#
# Convention : Reuss Voigt Hill
#
# Bulk Modulus (GPa) = 49.44811 95.39384 72.42098
# Shear Modulus (GPa) = 25.10046 52.77237 38.93641
#
# Velocity S-wave (km/s) = 3.05386 4.42804 3.80353
# Velocity P-wave (km/s) = 5.55042 7.84773 6.79684
#
# Compressibility (1/GPa) = 0.02022322
#
# Stress axis : x y z
#
# Youngs Moduli (GPa) = 61.79264 188.46418 125.45091
#
# Poissons Ratio (x) = 0.48183 0.29341
# Poissons Ratio (y) = 0.15798 -0.03473
# Poissons Ratio (z) = 0.14452 -0.05218
#
# Static dielectric constant tensor:
#      x y z
#    x 2.403710 0.000000 -0.140760 
#    y 0.000000 2.129320 0.000000 
#    z -0.140760 0.000000 2.074440 
# 
# From -- ./inp_files/37749.got.cif
#   From: 2010.05.17/outbox.cif.g08.bks.cpg/sg5_19_cif.got.tgz:37749.got - 2010.06.03 18:56:24.
