data_PCOD9129629
_publ_section_title
;
Structure prediction by ZEFSAII (Michael W. Deem and Ramdas Pophale) SiO2 
 PCOD9129629
Probable space group: C 2
;
_chemical_formula_sum "Si O2"
_cell_formula_units_Z 28
_cell_length_a 12.742784
_cell_length_b 7.309860
_cell_length_c 14.879899
_cell_angle_alpha 90.000000
_cell_angle_beta 62.387832
_cell_angle_gamma 90.000000
_cell_volume 1228.170421
_symmetry_space_group_name_H-M "C 2"
_symmetry_group_IT_number 5
_symmetry_cell_setting 'monoclinic'
loop_
_space_group_symop_operation_xyz
x,y,z
-x,y,-z
1/2+x,1/2+y,z
1/2-x,1/2+y,-z
loop_
_atom_site_type_symbol
_atom_site_label
_atom_site_fract_x
_atom_site_fract_y
_atom_site_fract_z
Si Si1 0.735705 0.928620 0.126963
Si Si2 0.144445 0.654062 0.611406
Si Si3 0.011818 0.294306 0.720349
Si Si4 0.575293 0.918601 0.887987
Si Si5 0.059254 0.813780 0.828790
Si Si6 0.302030 0.348551 0.897946
Si Si7 0.906029 0.018712 0.459875
O O1 0.628722 0.818272 0.214410
O O2 0.856836 0.912335 0.133906
O O3 0.699474 0.140325 0.135619
O O4 0.753339 0.859057 0.018492
O O5 0.062546 0.475536 0.650560
O O6 0.132942 0.755613 0.711916
O O7 0.277221 0.591247 0.538920
O O8 0.102915 0.802956 0.555894
O O9 0.065761 0.306314 0.799783
O O10 0.053223 0.123806 0.645889
O O11 0.708874 0.947218 0.869755
O O12 0.522482 0.118642 0.887484
O O13 0.500000 0.835458 0.000000
O O14 0.937626 0.912245 0.849485
O O15 0.000000 0.057333 0.500000
#
# Coordination Sequence:
#
# PCOD9129629 Si02
#       7
#     4   4   4   4   4   4   4
#     4  12  24  44  69 102 150 193 244 303 359 433
#     4  11  25  50  75 108 146 187 248 308 375 447
#     4  11  25  50  75 114 153 193 249 312 375 441
#     4  11  22  46  70 100 154 193 239 307 355 435
#     4  11  25  45  68 104 147 188 247 307 360 433
#     4  12  24  42  69 100 143 201 242 291 361 432
#     4  12  27  50  81 108 145 195 245 314 386 439
#
# _framework density 22.798138999999999
#
# number of rings (size 3 to 8) (size 9 to 14) (size 15 to 20)
#    0.000    0.571    5.714    3.000    2.000    6.286 
#    2.571    0.000    0.000    0.000    0.000    0.000 
#    0.000    0.000    0.000    0.000    0.000    0.000 
#
# Total GULP energy -78454.485286 kJ/mol
# GULP energy per Si atom -5603.891806 kJ/mol
# Density = 2.274625 g / cm^3
# Si number density = 22.798139 Si / 1000 Ang^3
#
#
#
# Elastic Constant Matrix: (Units=GPa)
#
#
# Indices 1 2 3 4 5 6 
#
# 1 169.4994 37.3766 40.2049 0.0000 -2.1635 0.0000
# 2 37.3766 80.4630 26.4321 0.0000 -5.9077 0.0000
# 3 40.2049 26.4321 124.0171 0.0000 -16.2841 0.0000
# 4 0.0000 0.0000 0.0000 39.6501 0.0000 -1.9664
# 5 -2.1635 -5.9077 -16.2841 0.0000 29.8124 0.0000
# 6 0.0000 0.0000 0.0000 -1.9664 0.0000 27.1652
#
#
#
# Elastic Compliance Matrix: (Units=1/GPa)
#
#
# Indices 1 2 3 4 5 6 
#
# 1 0.006907 -0.002692 -0.001799 0.000000 -0.001015 0.000000
# 2 -0.002692 0.014451 -0.002000 0.000000 0.001576 0.000000
# 3 -0.001799 -0.002000 0.009699 0.000000 0.004771 0.000000
# 4 0.000000 0.000000 0.000000 0.025311 0.000000 0.001832
# 5 -0.001015 0.001576 0.004771 0.000000 0.036388 0.000000
# 6 0.000000 0.000000 0.000000 0.001832 0.000000 0.036944
#
#
# Mechanical properties :
#
#
# Convention : Reuss Voigt Hill
#
# Bulk Modulus (GPa) = 55.32360 64.66739 59.99550
# Shear Modulus (GPa) = 33.62273 37.32326 35.47299
#
# Velocity S-wave (km/s) = 3.84448 4.05052 3.94885
# Velocity P-wave (km/s) = 6.63522 7.09242 6.86762
#
# Compressibility (1/GPa) = 0.01807547
#
# Stress axis : x y z
#
# Youngs Moduli (GPa) = 144.77963 69.19728 103.09995
#
# Poissons Ratio (x) = 0.18629 0.18544
# Poissons Ratio (y) = 0.38976 0.20624
# Poissons Ratio (z) = 0.26041 0.13842
#
# Static dielectric constant tensor:
#      x y z
#    x 1.824710 0.000000 -0.003830 
#    y 0.000000 1.865190 0.000000 
#    z -0.003830 0.000000 1.824410 
# 
# From -- ./inp_files/52387.got.cif
#   From: 2010.05.17/outbox.cif.g08.bks.cpg/sg5_27_cif.got.tgz:52387.got - 2010.06.03 18:56:24.
