data_PCOD9129785
_publ_section_title
;
Structure prediction by ZEFSAII (Michael W. Deem and Ramdas Pophale) SiO2 
 PCOD9129785
Probable space group: C 2
;
_chemical_formula_sum "Si O2"
_cell_formula_units_Z 30
_cell_length_a 10.939408
_cell_length_b 8.594845
_cell_length_c 14.902765
_cell_angle_alpha 90.000000
_cell_angle_beta 69.154688
_cell_angle_gamma 90.000000
_cell_volume 1309.479583
_symmetry_space_group_name_H-M "C 2"
_symmetry_group_IT_number 5
_symmetry_cell_setting 'monoclinic'
loop_
_space_group_symop_operation_xyz
x,y,z
-x,y,-z
1/2+x,1/2+y,z
1/2-x,1/2+y,-z
loop_
_atom_site_type_symbol
_atom_site_label
_atom_site_fract_x
_atom_site_fract_y
_atom_site_fract_z
Si Si1 0.000000 0.585830 0.500000
Si Si2 0.607336 0.413519 0.244535
Si Si3 0.409259 0.161559 0.346388
Si Si4 0.389704 0.337689 0.952479
Si Si5 0.898234 0.110913 0.394558
Si Si6 0.615546 0.853410 0.749350
Si Si7 0.403777 0.961121 0.939410
Si Si8 0.305953 0.851298 0.566620
O O1 0.086397 0.677336 0.546913
O O2 0.091314 0.470902 0.419222
O O3 0.537656 0.248733 0.281899
O O4 0.579889 0.435527 0.146225
O O5 0.537608 0.533573 0.331795
O O6 0.760457 0.396379 0.221952
O O7 0.281792 0.250979 0.343850
O O8 0.393989 0.986441 0.323027
O O9 0.392708 0.150194 0.932191
O O10 0.500000 0.366447 0.000000
O O11 0.241746 0.389282 0.016068
O O12 0.860800 0.194938 0.310791
O O13 0.878169 0.236952 0.478232
O O14 0.802057 0.970072 0.444916
O O15 0.482772 0.874778 0.839493
O O16 0.500000 0.937454 0.000000
#
# Coordination Sequence:
#
# PCOD9129785 Si02
#       8
#     2   4   4   4   4   4   4   4
#     4  12  22  40  68  90 134 178 228 276 356 400
#     4  11  26  45  71 104 140 182 242 295 350 428
#     4  11  25  44  63  98 137 180 230 299 339 420
#     4  11  26  48  72 109 143 190 233 301 361 438
#     4  11  24  44  68 101 137 186 234 293 348 421
#     4  12  24  45  72 102 139 185 238 290 359 423
#     4  11  25  47  74 103 148 186 235 294 371 434
#     4  11  23  44  62  95 137 177 236 279 353 410
#
# _framework density 22.909863999999999
#
# number of rings (size 3 to 8) (size 9 to 14) (size 15 to 20)
#    0.000    0.800    5.333    0.800    3.733    1.600 
#    4.800    0.000    0.000    0.000    0.000    0.000 
#    0.000    0.000    0.000    0.000    0.000    0.000 
#
# Total GULP energy -83683.359880 kJ/mol
# GULP energy per Si atom -5578.890659 kJ/mol
# Density = 2.285772 g / cm^3
# Si number density = 22.909864 Si / 1000 Ang^3
#
#
#
# Elastic Constant Matrix: (Units=GPa)
#
#
# Indices 1 2 3 4 5 6 
#
# 1 140.0208 41.9202 47.2193 0.0000 -11.0503 0.0000
# 2 41.9202 97.4129 33.2075 0.0000 -6.5053 0.0000
# 3 47.2193 33.2075 80.3540 0.0000 -13.7322 0.0000
# 4 0.0000 0.0000 0.0000 23.8286 0.0000 -7.0316
# 5 -11.0503 -6.5053 -13.7322 0.0000 39.1456 0.0000
# 6 0.0000 0.0000 0.0000 -7.0316 0.0000 33.6261
#
#
#
# Elastic Compliance Matrix: (Units=1/GPa)
#
#
# Indices 1 2 3 4 5 6 
#
# 1 0.009428 -0.002517 -0.004379 0.000000 0.000707 0.000000
# 2 -0.002517 0.012624 -0.003724 0.000000 0.000081 0.000000
# 3 -0.004379 -0.003724 0.017276 0.000000 0.004205 0.000000
# 4 0.000000 0.000000 0.000000 0.044726 0.000000 0.009353
# 5 0.000707 0.000081 0.004205 0.000000 0.027234 0.000000
# 6 0.000000 0.000000 0.000000 0.009353 0.000000 0.031695
#
#
# Mechanical properties :
#
#
# Convention : Reuss Voigt Hill
#
# Bulk Modulus (GPa) = 55.28811 62.49799 58.89305
# Shear Modulus (GPa) = 29.36825 32.34945 30.85885
#
# Velocity S-wave (km/s) = 3.58425 3.76178 3.67409
# Velocity P-wave (km/s) = 6.42763 6.79758 6.61519
#
# Compressibility (1/GPa) = 0.01808707
#
# Stress axis : x y z
#
# Youngs Moduli (GPa) = 106.06719 79.21626 57.88381
#
# Poissons Ratio (x) = 0.19940 0.25349
# Poissons Ratio (y) = 0.26699 0.21555
# Poissons Ratio (z) = 0.46449 0.29500
#
# Static dielectric constant tensor:
#      x y z
#    x 1.852890 0.000000 -0.017400 
#    y 0.000000 1.864200 0.000000 
#    z -0.017400 0.000000 1.894290 
# 
# From -- ./inp_files/52424.got.cif
#   From: 2010.05.17/outbox.cif.g08.bks.cpg/sg5_27_cif.got.tgz:52424.got - 2010.06.03 18:56:24.
