data_PCOD9129221
_publ_section_title
;
Structure prediction by ZEFSAII (Michael W. Deem and Ramdas Pophale) SiO2 
 PCOD9129221
Probable space group: C 2
;
_chemical_formula_sum "Si O2"
_cell_formula_units_Z 28
_cell_length_a 26.098475
_cell_length_b 11.524813
_cell_length_c 5.121818
_cell_angle_alpha 90.000000
_cell_angle_beta 68.695580
_cell_angle_gamma 90.000000
_cell_volume 1435.265029
_symmetry_space_group_name_H-M "C 2"
_symmetry_group_IT_number 5
_symmetry_cell_setting 'monoclinic'
loop_
_space_group_symop_operation_xyz
x,y,z
-x,y,-z
1/2+x,1/2+y,z
1/2-x,1/2+y,-z
loop_
_atom_site_type_symbol
_atom_site_label
_atom_site_fract_x
_atom_site_fract_y
_atom_site_fract_z
Si Si1 0.137627 0.996980 0.200863
Si Si2 0.964431 0.084385 0.306577
Si Si3 0.821117 0.400610 0.030956
Si Si4 0.692139 0.054265 0.452809
Si Si5 0.882545 0.207394 0.139439
Si Si6 0.781028 0.141586 0.607280
Si Si7 0.205746 0.778334 0.132421
O O1 0.160576 0.868910 0.115265
O O2 0.085374 0.005149 0.492549
O O3 0.188654 0.058331 0.249545
O O4 0.122133 0.081408 0.990346
O O5 0.935435 0.196224 0.224219
O O6 0.000000 0.111539 0.500000
O O7 0.000000 0.033239 0.000000
O O8 0.830854 0.492484 0.246322
O O9 0.870424 0.306472 0.951402
O O10 0.760445 0.338734 0.158730
O O11 0.818495 0.470541 0.767923
O O12 0.756309 0.069697 0.413213
O O13 0.679120 0.184776 0.379687
O O14 0.829240 0.223862 0.419998
O O15 0.732632 0.208065 0.842563
#
# Coordination Sequence:
#
# PCOD9129221 Si02
#       7
#     4   4   4   4   4   4   4
#     4  11  23  40  64  95 129 179 216 261 335 388
#     4  11  24  45  68  99 131 155 218 292 343 385
#     4  12  24  37  58  85 132 175 220 253 305 396
#     4  12  24  38  52  83 131 181 209 255 303 363
#     4  11  23  38  65  92 127 170 217 263 334 383
#     4  11  20  37  53  89 129 176 214 247 305 378
#     4  12  22  37  58  89 135 178 222 251 310 397
#
# _framework density 19.508590999999999
#
# number of rings (size 3 to 8) (size 9 to 14) (size 15 to 20)
#    0.000    0.571    7.143    1.714    2.000    2.286 
#    0.000    0.000    0.000    0.000    0.000    4.000 
#    0.000    0.000    0.000    0.000    0.000    0.000 
#
# Total GULP energy -78073.070714 kJ/mol
# GULP energy per Si atom -5576.647908 kJ/mol
# Density = 1.946419 g / cm^3
# Si number density = 19.508591 Si / 1000 Ang^3
#
#
#
# Elastic Constant Matrix: (Units=GPa)
#
#
# Indices 1 2 3 4 5 6 
#
# 1 108.3379 51.0400 48.2759 0.0000 16.1074 0.0000
# 2 51.0400 77.3224 33.9540 0.0000 14.0711 0.0000
# 3 48.2759 33.9540 112.2982 0.0000 13.9832 0.0000
# 4 0.0000 0.0000 0.0000 26.3756 0.0000 12.3271
# 5 16.1074 14.0711 13.9832 0.0000 40.3379 0.0000
# 6 0.0000 0.0000 0.0000 12.3271 0.0000 16.7797
#
#
#
# Elastic Compliance Matrix: (Units=1/GPa)
#
#
# Indices 1 2 3 4 5 6 
#
# 1 0.014887 -0.007812 -0.003801 0.000000 -0.001902 0.000000
# 2 -0.007812 0.019592 -0.002198 0.000000 -0.002953 0.000000
# 3 -0.003801 -0.002198 0.011412 0.000000 -0.001671 0.000000
# 4 0.000000 0.000000 0.000000 0.057738 0.000000 -0.042417
# 5 -0.001902 -0.002953 -0.001671 0.000000 0.027160 0.000000
# 6 0.000000 0.000000 0.000000 -0.042417 0.000000 0.090757
#
#
# Mechanical properties :
#
#
# Convention : Reuss Voigt Hill
#
# Bulk Modulus (GPa) = 54.73649 62.72203 58.72926
# Shear Modulus (GPa) = 19.58821 27.67788 23.63304
#
# Velocity S-wave (km/s) = 3.17216 3.77072 3.48432
# Velocity P-wave (km/s) = 6.44479 7.15392 6.80859
#
# Compressibility (1/GPa) = 0.01826935
#
# Stress axis : x y z
#
# Youngs Moduli (GPa) = 67.17193 51.04188 87.63041
#
# Poissons Ratio (x) = 0.39872 0.33309
# Poissons Ratio (y) = 0.52472 0.19260
# Poissons Ratio (z) = 0.25533 0.11218
#
# Static dielectric constant tensor:
#      x y z
#    x 1.706060 0.000000 0.018750 
#    y 0.000000 1.775400 0.000000 
#    z 0.018750 0.000000 1.785650 
# 
# From -- ./inp_files/10844.got.cif
#   From: 2010.05.17/outbox.cif.g08.bks.cpg/sg5_6_cif.got.tgz:10844.got - 2010.06.03 18:56:24.
