data_PCOD9129810
_publ_section_title
;
Structure prediction by ZEFSAII (Michael W. Deem and Ramdas Pophale) SiO2 
 PCOD9129810
Probable space group: C 2
;
_chemical_formula_sum "Si O2"
_cell_formula_units_Z 24
_cell_length_a 12.160318
_cell_length_b 9.061692
_cell_length_c 17.075101
_cell_angle_alpha 90.000000
_cell_angle_beta 31.973424
_cell_angle_gamma 90.000000
_cell_volume 996.333369
_symmetry_space_group_name_H-M "C 2"
_symmetry_group_IT_number 5
_symmetry_cell_setting 'monoclinic'
loop_
_space_group_symop_operation_xyz
x,y,z
-x,y,-z
1/2+x,1/2+y,z
1/2-x,1/2+y,-z
loop_
_atom_site_type_symbol
_atom_site_label
_atom_site_fract_x
_atom_site_fract_y
_atom_site_fract_z
Si Si1 0.511852 0.636110 0.293867
Si Si2 0.000000 0.375106 0.500000
Si Si3 0.425359 0.653751 0.160670
Si Si4 0.080893 0.827626 0.804566
Si Si5 0.000000 0.644225 0.000000
Si Si6 0.160589 0.723110 0.186101
Si Si7 0.630648 0.971551 0.579976
O O1 0.457338 0.656247 0.234094
O O2 0.437633 0.802420 0.364534
O O3 0.368690 0.525679 0.432432
O O4 0.756885 0.592289 0.155628
O O5 0.191757 0.276703 0.357779
O O6 0.072252 0.484216 0.524116
O O7 0.382810 0.480928 0.172860
O O8 0.249269 0.745770 0.220444
O O9 0.638141 0.688675 0.987623
O O10 0.974426 0.726918 0.932555
O O11 0.956793 0.840046 0.798243
O O12 0.005224 0.583650 0.286483
#
# Coordination Sequence:
#
# PCOD9129810 Si02
#       7
#     4   2   4   4   2   4   4
#     4  12  25  47  77 108 151 198 254 320 388 455
#     4  12  22  42  74  98 144 196 250 302 380 452
#     4  11  23  44  72 107 145 198 249 315 379 459
#     4  12  23  44  75 105 141 195 257 310 372 468
#     4  12  24  46  76 110 148 196 258 318 380 470
#     4  11  24  42  76 106 144 196 255 306 386 457
#     4  12  24  44  75 108 145 198 253 314 381 467
#
# _framework density 24.088322000000002
#
# number of rings (size 3 to 8) (size 9 to 14) (size 15 to 20)
#    0.000    0.333    6.667    3.000    0.000    0.000 
#    0.000    3.333   11.000    1.000    0.000    0.000 
#    0.000    0.000    0.000    0.000    0.000    0.000 
#
# Total GULP energy -66857.253641 kJ/mol
# GULP energy per Si atom -5571.437803 kJ/mol
# Density = 2.403350 g / cm^3
# Si number density = 24.088322 Si / 1000 Ang^3
#
#
#
# Elastic Constant Matrix: (Units=GPa)
#
#
# Indices 1 2 3 4 5 6 
#
# 1 127.0874 25.3900 25.1964 0.0000 -11.9648 0.0000
# 2 25.3900 46.1584 29.7981 -0.0001 -10.2588 0.0000
# 3 25.1964 29.7981 144.1905 -0.0003 -35.1020 0.0002
# 4 0.0000 -0.0001 -0.0003 21.7201 0.0000 -5.5887
# 5 -11.9648 -10.2588 -35.1020 0.0000 38.2453 0.0000
# 6 0.0000 0.0000 0.0002 -5.5887 0.0000 26.0823
#
#
#
# Elastic Compliance Matrix: (Units=1/GPa)
#
#
# Indices 1 2 3 4 5 6 
#
# 1 0.008939 -0.004412 -0.000332 0.000000 0.001309 0.000000
# 2 -0.004412 0.027369 -0.004422 0.000000 0.001903 0.000000
# 3 -0.000332 -0.004422 0.009778 0.000000 0.007684 0.000000
# 4 0.000000 0.000000 0.000000 0.048727 0.000000 0.010441
# 5 0.001309 0.001903 0.007684 0.000000 0.034119 0.000000
# 6 0.000000 0.000000 0.000000 0.010441 0.000000 0.040577
#
#
# Mechanical properties :
#
#
# Convention : Reuss Voigt Hill
#
# Bulk Modulus (GPa) = 36.03025 53.13393 44.58209
# Shear Modulus (GPa) = 25.36891 33.01299 29.19095
#
# Velocity S-wave (km/s) = 3.24877 3.70604 3.48491
# Velocity P-wave (km/s) = 5.39098 6.35758 5.89413
#
# Compressibility (1/GPa) = 0.02775446
#
# Stress axis : x y z
#
# Youngs Moduli (GPa) = 111.86908 36.53784 102.27358
#
# Poissons Ratio (x) = 0.16121 0.03392
# Poissons Ratio (y) = 0.49357 0.45224
# Poissons Ratio (z) = 0.03711 0.16156
#
# Static dielectric constant tensor:
#      x y z
#    x 1.979040 0.000000 -0.061130 
#    y 0.000000 1.969410 0.000000 
#    z -0.061130 0.000000 2.047740 
# 
# From -- ./inp_files/60454.got.cif
#   From: 2010.05.17/outbox.cif.g08.bks.cpg/sg5_31_cif.got.tgz:60454.got - 2010.06.03 18:56:24.
