data_PCOD9129173
_publ_section_title
;
Structure prediction by ZEFSAII (Michael W. Deem and Ramdas Pophale) SiO2 
 PCOD9129173
Probable space group: C 2
;
_chemical_formula_sum "Si O2"
_cell_formula_units_Z 28
_cell_length_a 13.903224
_cell_length_b 10.094708
_cell_length_c 16.909542
_cell_angle_alpha 90.000000
_cell_angle_beta 34.734939
_cell_angle_gamma 90.000000
_cell_volume 1352.224832
_symmetry_space_group_name_H-M "C 2"
_symmetry_group_IT_number 5
_symmetry_cell_setting 'monoclinic'
loop_
_space_group_symop_operation_xyz
x,y,z
-x,y,-z
1/2+x,1/2+y,z
1/2-x,1/2+y,-z
loop_
_atom_site_type_symbol
_atom_site_label
_atom_site_fract_x
_atom_site_fract_y
_atom_site_fract_z
Si Si1 0.080963 0.375000 0.023263
Si Si2 0.448758 0.269695 0.756488
Si Si3 0.958202 0.157955 0.821999
Si Si4 0.611653 0.455738 0.990661
Si Si5 0.104958 0.522982 0.313736
Si Si6 0.238281 0.973743 0.615581
Si Si7 0.405712 0.166472 0.955160
O O1 0.282376 0.362024 0.874991
O O2 0.030482 0.290813 0.134010
O O3 0.021378 0.526414 0.069908
O O4 0.000000 0.315685 0.000000
O O5 0.616203 0.355430 0.665176
O O6 0.423605 0.173753 0.848732
O O7 0.427909 0.176575 0.692674
O O8 0.789581 0.168514 0.885001
O O9 0.130186 0.106219 0.668486
O O10 0.906723 0.041277 0.918804
O O11 0.793565 0.456337 0.826949
O O12 0.500000 0.524933 0.000000
O O13 0.534099 0.310695 0.058523
O O14 0.209507 0.495352 0.325517
O O15 0.918793 0.465203 0.452035
#
# Coordination Sequence:
#
# PCOD9129173 Si02
#       7
#     4   4   4   4   4   4   4
#     4  11  21  34  60  96 127 160 214 279 336 385
#     4  11  22  42  63  95 132 167 221 278 318 407
#     4  11  19  36  61  82 120 164 205 265 318 377
#     4  12  20  37  63  89 119 165 218 267 322 393
#     4  11  24  39  69  94 126 179 220 261 342 402
#     4  11  23  43  62  97 131 172 221 272 324 410
#     4  11  21  34  60  93 126 161 210 275 335 379
#
# _framework density 20.706614999999999
#
# number of rings (size 3 to 8) (size 9 to 14) (size 15 to 20)
#    0.000    0.857    7.143    2.571    0.000    1.143 
#    0.000    0.000    0.000    0.000    0.000    0.000 
#    0.000    0.000    0.000    0.000    0.000    0.000 
#
# Total GULP energy -77939.817921 kJ/mol
# GULP energy per Si atom -5567.129852 kJ/mol
# Density = 2.065949 g / cm^3
# Si number density = 20.706615 Si / 1000 Ang^3
#
#
#
# Elastic Constant Matrix: (Units=GPa)
#
#
# Indices 1 2 3 4 5 6 
#
# 1 75.7844 23.4553 7.5476 0.0000 -7.8034 -0.0001
# 2 23.4553 138.2332 9.0067 0.0000 1.9810 -0.0001
# 3 7.5476 9.0067 75.8434 0.0000 -20.1009 -0.0002
# 4 0.0000 0.0000 0.0000 15.8756 0.0000 -16.1831
# 5 -7.8034 1.9810 -20.1009 0.0000 31.8803 0.0001
# 6 -0.0001 -0.0001 -0.0002 -16.1831 0.0001 -8.5994
#
#
#
# Elastic Compliance Matrix: (Units=1/GPa)
#
#
# Indices 1 2 3 4 5 6 
#
# 1 0.014345 -0.002472 -0.000195 0.000000 0.003542 0.000000
# 2 -0.002472 0.007755 -0.001156 0.000000 -0.001816 0.000000
# 3 -0.000195 -0.001156 0.016026 0.000000 0.010129 0.000000
# 4 0.000000 0.000000 0.000000 0.021584 0.000000 -0.040619
# 5 0.003542 -0.001816 0.010129 0.000000 0.038733 0.000000
# 6 0.000000 0.000000 0.000000 -0.040619 0.000000 -0.039847
#
#
# Mechanical properties :
#
#
# Convention : Reuss Voigt Hill
#
# Bulk Modulus (GPa) = 32.80981 41.09780 36.95380
# Shear Modulus (GPa) = 65.44271 24.48806 44.96539
#
# Velocity S-wave (km/s) = 5.62791 3.44266 4.66504
# Velocity P-wave (km/s) = 7.62303 5.97438 6.84850
#
# Compressibility (1/GPa) = 0.03047869
#
# Stress axis : x y z
#
# Youngs Moduli (GPa) = 69.71294 128.94976 62.39766
#
# Poissons Ratio (x) = 0.31876 0.01219
# Poissons Ratio (y) = 0.17233 0.07215
# Poissons Ratio (z) = 0.01362 0.14909
#
# Static dielectric constant tensor:
#      x y z
#    x 1.848360 0.000000 -0.015960 
#    y 0.000000 1.784550 0.000000 
#    z -0.015960 0.000000 1.764890 
# 
# From -- ./inp_files/61440.got.cif
#   From: 2010.05.17/outbox.cif.g08.bks.cpg/sg5_31_cif.got.tgz:61440.got - 2010.06.03 18:56:24.
