data_PCOD9129989
_publ_section_title
;
Structure prediction by ZEFSAII (Michael W. Deem and Ramdas Pophale) SiO2 
 PCOD9129989
Probable space group: C 2
;
_chemical_formula_sum "Si O2"
_cell_formula_units_Z 30
_cell_length_a 8.040357
_cell_length_b 15.236130
_cell_length_c 12.048070
_cell_angle_alpha 90.000000
_cell_angle_beta 71.490615
_cell_angle_gamma 90.000000
_cell_volume 1399.588158
_symmetry_space_group_name_H-M "C 2"
_symmetry_group_IT_number 5
_symmetry_cell_setting 'monoclinic'
loop_
_space_group_symop_operation_xyz
x,y,z
-x,y,-z
1/2+x,1/2+y,z
1/2-x,1/2+y,-z
loop_
_atom_site_type_symbol
_atom_site_label
_atom_site_fract_x
_atom_site_fract_y
_atom_site_fract_z
Si Si1 0.509803 0.936490 0.130493
Si Si2 0.702099 0.081514 0.690023
Si Si3 0.805638 0.473501 0.522011
Si Si4 0.613617 0.743364 0.864478
Si Si5 0.000000 0.844325 0.500000
Si Si6 0.056555 0.069458 0.737812
Si Si7 0.399713 0.416682 0.128247
Si Si8 0.504599 0.263226 0.738403
O O1 0.445687 0.837644 0.170417
O O2 0.392688 0.009388 0.213618
O O3 0.500000 0.945652 0.000000
O O4 0.707591 0.944424 0.130713
O O5 0.906006 0.079025 0.678531
O O6 0.619124 0.176423 0.724218
O O7 0.673346 0.050927 0.571221
O O8 0.666307 0.405334 0.498404
O O9 0.721617 0.520058 0.647354
O O10 0.000000 0.434963 0.500000
O O11 0.590979 0.662895 0.785316
O O12 0.820859 0.750994 0.840999
O O13 0.500000 0.728403 0.000000
O O14 0.034608 0.787674 0.381755
O O15 0.998887 0.001407 0.845882
O O16 0.397569 0.344263 0.224559
O O17 0.500000 0.380693 0.000000
#
# Coordination Sequence:
#
# PCOD9129989 Si02
#       8
#     4   4   4   4   2   4   4   4
#     4  11  24  44  71 104 141 190 240 296 367 439
#     4  12  26  45  69 103 143 191 240 302 366 431
#     4  12  24  47  75 102 142 192 243 299 367 440
#     4  11  24  44  69 105 144 188 238 299 358 432
#     4  12  26  52  74 110 148 190 252 310 366 442
#     4  12  24  45  70 105 145 186 242 298 365 434
#     4  12  23  43  71 104 143 189 239 297 365 432
#     4  12  27  45  72 108 147 193 242 307 365 437
#
# _framework density 21.434875000000002
#
# number of rings (size 3 to 8) (size 9 to 14) (size 15 to 20)
#    0.000    0.267    2.667    7.600    2.800    1.600 
#    2.400    0.000    0.000    0.000    0.000    0.000 
#    0.000    0.000    0.000    0.000    0.000    0.000 
#
# Total GULP energy -83969.189336 kJ/mol
# GULP energy per Si atom -5597.945956 kJ/mol
# Density = 2.138609 g / cm^3
# Si number density = 21.434875 Si / 1000 Ang^3
#
#
#
# Elastic Constant Matrix: (Units=GPa)
#
#
# Indices 1 2 3 4 5 6 
#
# 1 127.7391 17.0383 24.6800 0.0000 -3.1135 0.0000
# 2 17.0383 128.8222 42.6994 0.0000 5.1495 0.0000
# 3 24.6800 42.6994 105.8762 0.0000 4.1290 0.0000
# 4 0.0000 0.0000 0.0000 20.9453 0.0000 4.5023
# 5 -3.1135 5.1495 4.1290 0.0000 35.7397 0.0000
# 6 0.0000 0.0000 0.0000 4.5023 0.0000 26.8144
#
#
#
# Elastic Compliance Matrix: (Units=1/GPa)
#
#
# Indices 1 2 3 4 5 6 
#
# 1 0.008263 -0.000556 -0.001741 0.000000 0.001001 0.000000
# 2 -0.000556 0.009025 -0.003473 0.000000 -0.000948 0.000000
# 3 -0.001741 -0.003473 0.011289 0.000000 -0.000955 0.000000
# 4 0.000000 0.000000 0.000000 0.049531 0.000000 -0.008317
# 5 0.001001 -0.000948 -0.000955 0.000000 0.028314 0.000000
# 6 0.000000 0.000000 0.000000 -0.008317 0.000000 0.038690
#
#
# Mechanical properties :
#
#
# Convention : Reuss Voigt Hill
#
# Bulk Modulus (GPa) = 58.69569 59.03032 58.86300
# Shear Modulus (GPa) = 30.80104 35.23456 33.01780
#
# Velocity S-wave (km/s) = 3.79484 4.05877 3.92902
# Velocity P-wave (km/s) = 6.82962 7.04017 6.93570
#
# Compressibility (1/GPa) = 0.01703703
#
# Stress axis : x y z
#
# Youngs Moduli (GPa) = 121.01576 110.79957 88.58268
#
# Poissons Ratio (x) = 0.06159 0.15423
# Poissons Ratio (y) = 0.06727 0.30768
# Poissons Ratio (z) = 0.21070 0.38485
#
# Static dielectric constant tensor:
#      x y z
#    x 1.775350 0.000000 -0.011860 
#    y 0.000000 1.748990 0.000000 
#    z -0.011860 0.000000 1.803140 
# 
# From -- ./inp_files/36364.got.cif
#   From: 2010.05.17/outbox.cif.g08.bks.cpg/sg5_19_cif.got.tgz:36364.got - 2010.06.03 18:56:24.
