data_PCOD9129658
_publ_section_title
;
Structure prediction by ZEFSAII (Michael W. Deem and Ramdas Pophale) SiO2 
 PCOD9129658
Probable space group: C 2
;
_chemical_formula_sum "Si O2"
_cell_formula_units_Z 32
_cell_length_a 26.481817
_cell_length_b 5.115189
_cell_length_c 11.587965
_cell_angle_alpha 90.000000
_cell_angle_beta 113.870916
_cell_angle_gamma 90.000000
_cell_volume 1435.427004
_symmetry_space_group_name_H-M "C 2"
_symmetry_group_IT_number 5
_symmetry_cell_setting 'monoclinic'
loop_
_space_group_symop_operation_xyz
x,y,z
-x,y,-z
1/2+x,1/2+y,z
1/2-x,1/2+y,-z
loop_
_atom_site_type_symbol
_atom_site_label
_atom_site_fract_x
_atom_site_fract_y
_atom_site_fract_z
Si Si1 0.919924 0.952060 0.641112
Si Si2 0.566060 0.547853 0.074645
Si Si3 0.270556 0.907013 0.703186
Si Si4 0.307086 0.647087 0.532074
Si Si5 0.327044 0.033322 0.344130
Si Si6 0.445755 0.973842 0.525161
Si Si7 0.868224 0.551593 0.953163
Si Si8 0.214239 0.384414 0.932701
O O1 0.925697 0.011000 0.780781
O O2 0.948370 0.686924 0.629226
O O3 0.854509 0.934629 0.556083
O O4 0.939418 0.191788 0.579254
O O5 0.592538 0.818797 0.055317
O O6 0.598096 0.317996 0.034599
O O7 0.500000 0.540522 0.000000
O O8 0.304155 0.684976 0.665952
O O9 0.214820 0.779291 0.701180
O O10 0.312175 0.052691 0.824112
O O11 0.251058 0.071315 0.575317
O O12 0.322861 0.885643 0.462786
O O13 0.393056 0.059202 0.397423
O O14 0.302866 0.858861 0.216874
O O15 0.500000 0.978643 0.500000
O O16 0.841060 0.478532 0.051122
O O17 0.259892 0.615259 0.993873
#
# Coordination Sequence:
#
# PCOD9129658 Si02
#       8
#     4   4   4   4   4   4   4   4
#     4  11  24  45  69 101 136 176 225 291 343 405
#     4  12  28  49  72 101 137 182 242 294 347 410
#     4  12  22  38  68 103 139 171 223 279 353 414
#     4  11  23  36  67 104 138 172 215 281 352 411
#     4  11  25  41  64 100 135 181 223 281 340 413
#     4  11  25  45  70 100 137 182 231 278 345 409
#     4  12  27  45  73 102 137 187 235 288 353 411
#     4  12  26  45  67  99 145 187 231 283 342 422
#
# _framework density 22.293019000000001
#
# number of rings (size 3 to 8) (size 9 to 14) (size 15 to 20)
#    0.000    0.500    5.000    3.000    5.250    2.000 
#    0.000    0.000    0.000    0.000    0.000    0.000 
#    0.000    0.000    0.000    0.000    0.000    0.000 
#
# Total GULP energy -89387.538794 kJ/mol
# GULP energy per Si atom -5586.721175 kJ/mol
# Density = 2.224228 g / cm^3
# Si number density = 22.293019 Si / 1000 Ang^3
#
#
#
# Elastic Constant Matrix: (Units=GPa)
#
#
# Indices 1 2 3 4 5 6 
#
# 1 136.7981 16.2499 21.5297 0.0000 17.9660 0.0000
# 2 16.2499 57.3506 6.2263 0.0000 7.0995 0.0000
# 3 21.5297 6.2263 63.6532 0.0000 15.3240 0.0000
# 4 0.0000 0.0000 0.0000 17.6262 0.0000 -5.0755
# 5 17.9660 7.0995 15.3240 0.0000 30.4167 0.0000
# 6 0.0000 0.0000 0.0000 -5.0755 0.0000 33.3301
#
#
#
# Elastic Compliance Matrix: (Units=1/GPa)
#
#
# Indices 1 2 3 4 5 6 
#
# 1 0.008262 -0.001705 -0.001762 0.000000 -0.003594 0.000000
# 2 -0.001705 0.018348 -0.000489 0.000000 -0.003029 0.000000
# 3 -0.001762 -0.000489 0.018295 0.000000 -0.008062 0.000000
# 4 0.000000 0.000000 0.000000 0.059336 0.000000 0.009036
# 5 -0.003594 -0.003029 -0.008062 0.000000 0.039768 0.000000
# 6 0.000000 0.000000 0.000000 0.009036 0.000000 0.031379
#
#
# Mechanical properties :
#
#
# Convention : Reuss Voigt Hill
#
# Bulk Modulus (GPa) = 27.03244 38.42374 32.72809
# Shear Modulus (GPa) = 25.55845 30.52767 28.04306
#
# Velocity S-wave (km/s) = 3.38964 3.70453 3.55058
# Velocity P-wave (km/s) = 5.24136 5.96416 5.61441
#
# Compressibility (1/GPa) = 0.03699259
#
# Stress axis : x y z
#
# Youngs Moduli (GPa) = 121.03667 54.50273 54.66008
#
# Poissons Ratio (x) = 0.09291 0.09634
# Poissons Ratio (y) = 0.20633 0.02672
# Poissons Ratio (z) = 0.21332 0.02664
#
# Static dielectric constant tensor:
#      x y z
#    x 1.917530 0.000000 -0.035770 
#    y 0.000000 1.904500 0.000000 
#    z -0.035770 0.000000 1.833140 
# 
# From -- ./inp_files/47042.got.cif
#   From: 2010.05.17/outbox.cif.g08.bks.cpg/sg5_24_cif.got.tgz:47042.got - 2010.06.03 18:56:24.
