data_PCOD9129182
_publ_section_title
;
Structure prediction by ZEFSAII (Michael W. Deem and Ramdas Pophale) SiO2 
 PCOD9129182
Probable space group: C 2
;
_chemical_formula_sum "Si O2"
_cell_formula_units_Z 28
_cell_length_a 12.166740
_cell_length_b 13.600126
_cell_length_c 8.921194
_cell_angle_alpha 90.000000
_cell_angle_beta 115.126333
_cell_angle_gamma 90.000000
_cell_volume 1336.497153
_symmetry_space_group_name_H-M "C 2"
_symmetry_group_IT_number 5
_symmetry_cell_setting 'monoclinic'
loop_
_space_group_symop_operation_xyz
x,y,z
-x,y,-z
1/2+x,1/2+y,z
1/2-x,1/2+y,-z
loop_
_atom_site_type_symbol
_atom_site_label
_atom_site_fract_x
_atom_site_fract_y
_atom_site_fract_z
Si Si1 0.739543 0.363590 0.818578
Si Si2 0.114260 0.251251 0.859056
Si Si3 0.015270 0.567031 0.832016
Si Si4 0.291232 0.545328 0.001483
Si Si5 0.895735 0.375151 0.628186
Si Si6 0.730163 0.380044 0.258813
Si Si7 0.005883 0.778544 0.187260
O O1 0.782221 0.358256 0.673580
O O2 0.618368 0.307730 0.802667
O O3 0.853110 0.318949 0.978580
O O4 0.718901 0.475587 0.859187
O O5 0.223332 0.285801 0.811070
O O6 0.989459 0.285110 0.708829
O O7 0.123440 0.138226 0.916099
O O8 0.157466 0.585904 0.890849
O O9 0.967946 0.471469 0.723046
O O10 0.953487 0.668481 0.749440
O O11 0.000000 0.551631 0.000000
O O12 0.309137 0.468019 0.875629
O O13 0.842684 0.397056 0.434015
O O14 0.612182 0.353603 0.285178
O O15 0.000000 0.782053 0.000000
#
# Coordination Sequence:
#
# PCOD9129182 Si02
#       7
#     4   4   4   4   4   4   4
#     4  11  22  41  65  95 131 179 225 273 331 413
#     4  11  21  42  69 100 127 176 232 278 330 402
#     4  11  19  37  72  96 125 177 233 269 319 421
#     4  11  21  40  69  97 124 176 240 265 331 408
#     4  12  24  42  66 103 142 168 219 289 351 387
#     4  11  25  43  68 100 139 179 220 290 342 393
#     4  11  21  43  68  94 127 178 232 274 323 406
#
# _framework density 20.950288
#
# number of rings (size 3 to 8) (size 9 to 14) (size 15 to 20)
#    0.000    0.857    8.571    1.714    0.000    0.571 
#    7.714    1.429    3.143    0.000    0.000    0.000 
#    0.000    0.000    0.000    0.000    0.000    0.000 
#
# Total GULP energy -78125.051396 kJ/mol
# GULP energy per Si atom -5580.360814 kJ/mol
# Density = 2.090260 g / cm^3
# Si number density = 20.950288 Si / 1000 Ang^3
#
#
#
# Elastic Constant Matrix: (Units=GPa)
#
#
# Indices 1 2 3 4 5 6 
#
# 1 99.2493 36.8941 24.0370 0.0000 1.3302 0.0000
# 2 36.8941 138.7899 30.9841 0.0000 13.0380 0.0000
# 3 24.0370 30.9841 60.7798 0.0000 9.4235 0.0000
# 4 0.0000 0.0000 0.0000 5.1338 0.0000 -8.5895
# 5 1.3302 13.0380 9.4235 0.0000 24.6879 0.0000
# 6 0.0000 0.0000 0.0000 -8.5895 0.0000 -2.4379
#
#
#
# Elastic Compliance Matrix: (Units=1/GPa)
#
#
# Indices 1 2 3 4 5 6 
#
# 1 0.011893 -0.002525 -0.003745 0.000000 0.002122 0.000000
# 2 -0.002525 0.008864 -0.002993 0.000000 -0.003403 0.000000
# 3 -0.003745 -0.002993 0.020390 0.000000 -0.006001 0.000000
# 4 0.000000 0.000000 0.000000 0.028250 0.000000 -0.099536
# 5 0.002122 -0.003403 -0.006001 0.000000 0.044479 0.000000
# 6 0.000000 0.000000 0.000000 -0.099536 0.000000 -0.059491
#
#
# Mechanical properties :
#
#
# Convention : Reuss Voigt Hill
#
# Bulk Modulus (GPa) = 44.20566 53.62769 48.91668
# Shear Modulus (GPa) = 62.14963 19.27035 40.70999
#
# Velocity S-wave (km/s) = 5.45249 3.03613 4.41292
# Velocity P-wave (km/s) = 7.79652 6.15987 7.02601
#
# Compressibility (1/GPa) = 0.02262154
#
# Stress axis : x y z
#
# Youngs Moduli (GPa) = 84.08481 112.81576 49.04374
#
# Poissons Ratio (x) = 0.28482 0.18368
# Poissons Ratio (y) = 0.21228 0.14677
# Poissons Ratio (z) = 0.31492 0.33762
#
# Static dielectric constant tensor:
#      x y z
#    x 1.812960 0.000000 -0.013580 
#    y 0.000000 1.762770 0.000000 
#    z -0.013580 0.000000 1.779050 
# 
# From -- ./inp_files/20417.got.cif
#   From: 2010.05.17/outbox.cif.g08.bks.cpg/sg5_11_cif.got.tgz:20417.got - 2010.06.03 18:56:24.
