data_PCOD9129207
_publ_section_title
;
Structure prediction by ZEFSAII (Michael W. Deem and Ramdas Pophale) SiO2 
 PCOD9129207
Probable space group: C 2
;
_chemical_formula_sum "Si O2"
_cell_formula_units_Z 24
_cell_length_a 7.395994
_cell_length_b 11.910116
_cell_length_c 14.766899
_cell_angle_alpha 90.000000
_cell_angle_beta 46.231694
_cell_angle_gamma 90.000000
_cell_volume 939.344818
_symmetry_space_group_name_H-M "C 2"
_symmetry_group_IT_number 5
_symmetry_cell_setting 'monoclinic'
loop_
_space_group_symop_operation_xyz
x,y,z
-x,y,-z
1/2+x,1/2+y,z
1/2-x,1/2+y,-z
loop_
_atom_site_type_symbol
_atom_site_label
_atom_site_fract_x
_atom_site_fract_y
_atom_site_fract_z
Si Si1 0.084472 0.035360 0.837367
Si Si2 0.383993 0.016175 0.424569
Si Si3 0.500000 0.220577 0.500000
Si Si4 0.000000 0.326753 0.500000
Si Si5 0.835093 0.664342 0.280117
Si Si6 0.790151 0.277415 0.228445
Si Si7 0.402408 0.998015 0.912567
O O1 0.310666 0.002737 0.691578
O O2 0.037032 0.167035 0.836629
O O3 0.229032 0.013059 0.882312
O O4 0.808583 0.984127 0.937149
O O5 0.345030 0.130894 0.493444
O O6 0.287067 0.053181 0.359996
O O7 0.312885 0.908912 0.508190
O O8 0.674704 0.284821 0.369236
O O9 0.881968 0.249949 0.619426
O O10 0.068980 0.735935 0.238685
O O11 0.921182 0.609109 0.156031
O O12 0.934510 0.387447 0.151783
#
# Coordination Sequence:
#
# PCOD9129207 Si02
#       7
#     4   4   2   2   4   4   4
#     4   8  17  32  50  76  99 129 173 197 239 302
#     4   8  17  33  49  69 100 132 161 202 245 287
#     4   7  14  29  48  72  96 127 168 195 236 300
#     4  11  20  33  52  74 104 129 160 211 250 286
#     4   9  21  33  48  78  99 129 172 197 244 305
#     4   9  17  31  53  73 100 135 160 204 253 282
#     4   9  17  32  52  74 102 130 164 207 242 291
#
# _framework density 25.549721000000002
#
# number of rings (size 3 to 8) (size 9 to 14) (size 15 to 20)
#    0.000    4.000    0.000    0.000    0.000    8.667 
#    0.000    0.000    0.000   16.000    0.000    0.000 
#    0.000    0.000    0.000    0.000    0.000    0.000 
#
# Total GULP energy -66890.210260 kJ/mol
# GULP energy per Si atom -5574.184188 kJ/mol
# Density = 2.549157 g / cm^3
# Si number density = 25.549721 Si / 1000 Ang^3
#
#
#
# Elastic Constant Matrix: (Units=GPa)
#
#
# Indices 1 2 3 4 5 6 
#
# 1 58.2977 35.9349 32.0973 0.0001 6.5106 -0.0004
# 2 35.9349 144.2893 73.1101 -0.0003 -22.5770 -0.0002
# 3 32.0973 73.1101 112.1528 -0.0010 -15.9654 0.0002
# 4 0.0001 -0.0003 -0.0010 29.7460 0.0002 2.2676
# 5 6.5106 -22.5770 -15.9654 0.0002 22.3701 0.0003
# 6 -0.0004 -0.0002 0.0002 2.2676 0.0003 24.2045
#
#
#
# Elastic Compliance Matrix: (Units=1/GPa)
#
#
# Indices 1 2 3 4 5 6 
#
# 1 0.026513 -0.006451 -0.006019 0.000000 -0.018523 0.000001
# 2 -0.006451 0.012773 -0.004873 0.000000 0.011291 0.000000
# 3 -0.006019 -0.004873 0.014876 0.000000 0.007451 0.000000
# 4 0.000000 0.000000 0.000000 0.033860 0.000000 -0.003172
# 5 -0.018523 0.011291 0.007451 0.000000 0.066807 -0.000001
# 6 0.000001 0.000000 0.000000 -0.003172 -0.000001 0.041612
#
#
# Mechanical properties :
#
#
# Convention : Reuss Voigt Hill
#
# Bulk Modulus (GPa) = 51.34709 66.33607 58.84158
# Shear Modulus (GPa) = 21.04219 26.83728 23.93973
#
# Velocity S-wave (km/s) = 2.87292 3.24449 3.06434
# Velocity P-wave (km/s) = 5.58081 6.32894 5.96661
#
# Compressibility (1/GPa) = 0.01947530
#
# Stress axis : x y z
#
# Youngs Moduli (GPa) = 37.71800 78.29072 67.22192
#
# Poissons Ratio (x) = 0.50509 0.40461
# Poissons Ratio (y) = 0.24333 0.32755
# Poissons Ratio (z) = 0.22702 0.38149
#
# Static dielectric constant tensor:
#      x y z
#    x 2.103870 0.000000 -0.024230 
#    y 0.000000 1.999430 0.000000 
#    z -0.024230 0.000000 2.108400 
# 
# From -- ./inp_files/48437.got.cif
#   From: 2010.05.17/outbox.cif.g08.bks.cpg/sg5_25_cif.got.tgz:48437.got - 2010.06.03 18:56:24.
