data_PCOD9129298
_publ_section_title
;
Structure prediction by ZEFSAII (Michael W. Deem and Ramdas Pophale) SiO2 
 PCOD9129298
Probable space group: C 2
;
_chemical_formula_sum "Si O2"
_cell_formula_units_Z 32
_cell_length_a 20.048646
_cell_length_b 11.193961
_cell_length_c 19.371054
_cell_angle_alpha 90.000000
_cell_angle_beta 22.445016
_cell_angle_gamma 90.000000
_cell_volume 1659.794061
_symmetry_space_group_name_H-M "C 2"
_symmetry_group_IT_number 5
_symmetry_cell_setting 'monoclinic'
loop_
_space_group_symop_operation_xyz
x,y,z
-x,y,-z
1/2+x,1/2+y,z
1/2-x,1/2+y,-z
loop_
_atom_site_type_symbol
_atom_site_label
_atom_site_fract_x
_atom_site_fract_y
_atom_site_fract_z
Si Si1 0.204482 0.433610 0.222619
Si Si2 0.744833 0.963426 0.550780
Si Si3 0.800453 0.409689 0.608653
Si Si4 0.080881 0.322750 0.111170
Si Si5 0.971851 0.057959 0.870743
Si Si6 0.882928 0.981399 0.797399
Si Si7 0.221936 0.731407 0.946321
Si Si8 0.674797 0.235853 0.625166
O O1 0.218726 0.425134 0.291060
O O2 0.279999 0.311808 0.118961
O O3 0.999248 0.445356 0.400616
O O4 0.322877 0.529655 0.069650
O O5 0.560779 0.927270 0.759344
O O6 0.773201 0.848013 0.473154
O O7 0.729326 0.104629 0.545197
O O8 0.927444 0.963952 0.416606
O O9 0.650882 0.493161 0.719309
O O10 0.763837 0.277370 0.612335
O O11 0.008569 0.199348 0.151931
O O12 0.139251 0.291798 0.133797
O O13 0.258593 0.368954 0.907007
O O14 0.912454 0.006979 0.852244
O O15 0.786983 0.100485 0.865926
O O16 0.033112 0.731016 0.163218
#
# Coordination Sequence:
#
# PCOD9129298 Si02
#       8
#     4   4   4   4   4   4   4   4
#     4  11  22  39  64  82 120 159 203 265 291 357
#     4  12  23  37  59  87 127 165 190 256 297 370
#     4  11  23  39  60  91 114 160 211 250 304 353
#     4  11  22  35  57  88 125 157 198 243 310 363
#     4  11  22  36  57  88 123 159 201 254 297 365
#     4  11  21  37  56  87 125 160 193 245 310 366
#     4  11  21  38  58  87 123 157 200 250 303 361
#     4  12  23  37  61  90 124 159 207 244 313 361
#
# _framework density 19.279501
#
# number of rings (size 3 to 8) (size 9 to 14) (size 15 to 20)
#    0.000    0.750    6.250    3.375    0.000    1.000 
#    0.000    0.000    0.000    3.000    0.000    3.500 
#    0.000    0.000    0.000    0.000    0.000    0.000 
#
# Total GULP energy -89224.655933 kJ/mol
# GULP energy per Si atom -5576.540996 kJ/mol
# Density = 1.923562 g / cm^3
# Si number density = 19.279501 Si / 1000 Ang^3
#
#
#
# Elastic Constant Matrix: (Units=GPa)
#
#
# Indices 1 2 3 4 5 6 
#
# 1 30.4741 21.2869 19.4087 0.0006 -0.9075 0.0000
# 2 21.2869 130.4955 36.8284 -0.0034 -8.1467 0.0006
# 3 19.4087 36.8284 112.6099 -0.0028 -15.1279 0.0006
# 4 0.0006 -0.0034 -0.0028 36.5680 -0.0001 -2.9096
# 5 -0.9075 -8.1467 -15.1279 -0.0001 22.1270 0.0002
# 6 0.0000 0.0006 0.0006 -2.9096 0.0002 15.6553
#
#
#
# Elastic Compliance Matrix: (Units=1/GPa)
#
#
# Indices 1 2 3 4 5 6 
#
# 1 0.039962 -0.005154 -0.005767 -0.000002 -0.004201 0.000000
# 2 -0.005154 0.009143 -0.001848 0.000001 0.001892 0.000000
# 3 -0.005767 -0.001848 0.011403 0.000001 0.006879 0.000000
# 4 -0.000002 0.000001 0.000001 0.027757 0.000001 0.005159
# 5 -0.004201 0.001892 0.006879 0.000001 0.050421 -0.000001
# 6 0.000000 0.000000 0.000000 0.005159 -0.000001 0.064835
#
#
# Mechanical properties :
#
#
# Convention : Reuss Voigt Hill
#
# Bulk Modulus (GPa) = 28.59425 47.62529 38.10977
# Shear Modulus (GPa) = 20.77150 27.94041 24.35596
#
# Velocity S-wave (km/s) = 3.28592 3.81100 3.55816
# Velocity P-wave (km/s) = 5.40925 6.64238 6.05727
#
# Compressibility (1/GPa) = 0.03497207
#
# Stress axis : x y z
#
# Youngs Moduli (GPa) = 25.02357 109.36857 87.69963
#
# Poissons Ratio (x) = 0.56365 0.50572
# Poissons Ratio (y) = 0.12896 0.16206
# Poissons Ratio (z) = 0.14430 0.20210
#
# Static dielectric constant tensor:
#      x y z
#    x 1.677020 0.000000 0.000870 
#    y 0.000000 1.680310 0.000000 
#    z 0.000870 0.000000 1.725930 
# 
# From -- ./inp_files/67131.got.cif
#   From: 2010.05.17/outbox.cif.g08.bks.cpg/sg5_34_cif.got.tgz:67131.got - 2010.06.03 18:56:24.
