data_PCOD9129506
_publ_section_title
;
Structure prediction by ZEFSAII (Michael W. Deem and Ramdas Pophale) SiO2 
 PCOD9129506
Probable space group: C 2
;
_chemical_formula_sum "Si O2"
_cell_formula_units_Z 24
_cell_length_a 11.317843
_cell_length_b 9.319747
_cell_length_c 10.801604
_cell_angle_alpha 90.000000
_cell_angle_beta 89.837212
_cell_angle_gamma 90.000000
_cell_volume 1139.342471
_symmetry_space_group_name_H-M "C 2"
_symmetry_group_IT_number 5
_symmetry_cell_setting 'monoclinic'
loop_
_space_group_symop_operation_xyz
x,y,z
-x,y,-z
1/2+x,1/2+y,z
1/2-x,1/2+y,-z
loop_
_atom_site_type_symbol
_atom_site_label
_atom_site_fract_x
_atom_site_fract_y
_atom_site_fract_z
Si Si1 0.171396 0.292760 0.104396
Si Si2 0.764345 0.031879 0.283630
Si Si3 0.192697 0.596848 0.735814
Si Si4 0.538962 0.213179 0.363227
Si Si5 0.123878 0.016393 0.459578
Si Si6 0.602608 0.797648 0.823134
O O1 0.240818 0.416273 0.177818
O O2 0.235911 0.146265 0.143724
O O3 0.037487 0.297081 0.155321
O O4 0.163459 0.309222 0.957804
O O5 0.642902 0.116309 0.310135
O O6 0.857395 0.150695 0.239440
O O7 0.809956 0.971064 0.414579
O O8 0.285554 0.607438 0.622477
O O9 0.145404 0.434837 0.745436
O O10 0.077733 0.695302 0.718136
O O11 0.500000 0.162000 0.500000
O O12 0.585140 0.375264 0.382575
O O13 0.000000 0.089096 0.500000
#
# Coordination Sequence:
#
# PCOD9129506 Si02
#       6
#     4   4   4   4   4   4
#     4  11  25  43  67  94 131 176 223 277 321 378
#     4  12  23  43  69  97 134 171 218 272 331 387
#     4  12  23  44  70  94 136 175 215 272 331 388
#     4  11  22  41  66  99 131 170 211 261 334 398
#     4  11  24  41  66  99 134 166 214 267 330 395
#     4  11  25  45  65  96 129 176 230 266 322 389
#
# _framework density 21.064781
#
# number of rings (size 3 to 8) (size 9 to 14) (size 15 to 20)
#    0.000    0.667    5.000    4.000    0.000    0.000 
#    0.000    0.000    0.000    0.000    0.000    0.000 
#    0.000    0.000    0.000    0.000    0.000    0.000 
#
# Total GULP energy -67116.983649 kJ/mol
# GULP energy per Si atom -5593.081971 kJ/mol
# Density = 2.101684 g / cm^3
# Si number density = 21.064781 Si / 1000 Ang^3
#
#
#
# Elastic Constant Matrix: (Units=GPa)
#
#
# Indices 1 2 3 4 5 6 
#
# 1 98.5549 20.6756 21.9838 0.0000 13.7053 0.0000
# 2 20.6756 70.8073 3.8276 0.0000 6.8662 0.0000
# 3 21.9838 3.8276 51.1798 0.0000 16.6333 0.0000
# 4 0.0000 0.0000 0.0000 26.2223 0.0000 7.4262
# 5 13.7053 6.8662 16.6333 0.0000 41.6946 0.0000
# 6 0.0000 0.0000 0.0000 7.4262 0.0000 20.0046
#
#
#
# Elastic Compliance Matrix: (Units=1/GPa)
#
#
# Indices 1 2 3 4 5 6 
#
# 1 0.012010 -0.003106 -0.004377 0.000000 -0.001690 0.000000
# 2 -0.003106 0.015161 0.000781 0.000000 -0.001787 0.000000
# 3 -0.004377 0.000781 0.024053 0.000000 -0.008286 0.000000
# 4 0.000000 0.000000 0.000000 0.042616 0.000000 -0.015820
# 5 -0.001690 -0.001787 -0.008286 0.000000 0.028139 0.000000
# 6 0.000000 0.000000 0.000000 -0.015820 0.000000 0.055861
#
#
# Mechanical properties :
#
#
# Convention : Reuss Voigt Hill
#
# Bulk Modulus (GPa) = 26.44113 34.83512 30.63812
# Shear Modulus (GPa) = 24.52772 29.18798 26.85785
#
# Velocity S-wave (km/s) = 3.41603 3.72644 3.57460
# Velocity P-wave (km/s) = 5.30457 5.92353 5.62258
#
# Compressibility (1/GPa) = 0.03781987
#
# Stress axis : x y z
#
# Youngs Moduli (GPa) = 83.26622 65.95890 41.57406
#
# Poissons Ratio (x) = 0.20489 0.18197
# Poissons Ratio (y) = 0.25865 -0.03248
# Poissons Ratio (z) = 0.36447 -0.05154
#
# Static dielectric constant tensor:
#      x y z
#    x 1.756810 0.000000 0.019370 
#    y 0.000000 1.757740 0.000000 
#    z 0.019370 0.000000 1.745040 
# 
# From -- ./inp_files/38357.got.cif
#   From: 2010.05.17/outbox.cif.g08.bks.cpg/sg5_20_cif.got.tgz:38357.got - 2010.06.03 18:56:24.
