data_PCOD9129148
_publ_section_title
;
Structure prediction by ZEFSAII (Michael W. Deem and Ramdas Pophale) SiO2 
 PCOD9129148
Probable space group: C 2
;
_chemical_formula_sum "Si O2"
_cell_formula_units_Z 26
_cell_length_a 18.599537
_cell_length_b 8.795439
_cell_length_c 8.716480
_cell_angle_alpha 90.000000
_cell_angle_beta 134.994805
_cell_angle_gamma 90.000000
_cell_volume 1008.382194
_symmetry_space_group_name_H-M "C 2"
_symmetry_group_IT_number 5
_symmetry_cell_setting 'monoclinic'
loop_
_space_group_symop_operation_xyz
x,y,z
-x,y,-z
1/2+x,1/2+y,z
1/2-x,1/2+y,-z
loop_
_atom_site_type_symbol
_atom_site_label
_atom_site_fract_x
_atom_site_fract_y
_atom_site_fract_z
Si Si1 0.000000 0.078200 0.000000
Si Si2 0.857155 0.152277 0.052503
Si Si3 0.149051 0.828207 0.801380
Si Si4 0.860683 0.995434 0.515646
Si Si5 0.371243 0.983120 0.774621
Si Si6 0.436803 0.805161 0.586057
Si Si7 0.996111 0.597437 0.246871
O O1 0.943026 0.993594 0.774163
O O2 0.097221 0.144938 0.050413
O O3 0.952736 0.233931 0.279809
O O4 0.838342 0.981802 0.081740
O O5 0.756191 0.247179 0.929583
O O6 0.072177 0.718149 0.772393
O O7 0.414853 0.007802 0.011190
O O8 0.748042 0.967020 0.403692
O O9 0.860247 0.167742 0.443331
O O10 0.888943 0.883111 0.422056
O O11 0.414187 0.128696 0.742059
O O12 0.415806 0.845685 0.736571
O O13 0.443258 0.980854 0.548261
#
# Coordination Sequence:
#
# PCOD9129148 Si02
#       7
#     2   4   4   4   4   4   4
#     4  10  28  50  74 114 154 222 286 340 382 494
#     4  11  25  48  81 118 163 213 274 340 422 493
#     4  12  26  47  80 132 171 217 263 351 431 499
#     4  11  24  44  81 122 166 217 278 339 417 492
#     4   9  20  44  85 117 155 215 283 338 413 496
#     4   9  21  43  79 113 151 215 275 340 392 486
#     4   9  21  45  83 120 164 207 273 354 420 494
#
# _framework density 25.783874000000001
#
# number of rings (size 3 to 8) (size 9 to 14) (size 15 to 20)
#    0.923    0.923    0.000    2.769   12.923    3.692 
#   11.077    3.077    3.385    0.000    0.000    0.000 
#    0.000    0.000    0.000    0.000    0.000    0.000 
#
# Total GULP energy -72533.960534 kJ/mol
# GULP energy per Si atom -5579.535426 kJ/mol
# Density = 2.572519 g / cm^3
# Si number density = 25.783874 Si / 1000 Ang^3
#
#
#
# Elastic Constant Matrix: (Units=GPa)
#
#
# Indices 1 2 3 4 5 6 
#
# 1 199.5048 78.8262 57.7872 0.0000 24.1992 0.0000
# 2 78.8262 132.2430 23.8998 0.0000 25.6526 0.0000
# 3 57.7872 23.8998 77.2298 0.0000 19.4241 0.0000
# 4 0.0000 0.0000 0.0000 34.2456 0.0000 5.0117
# 5 24.1992 25.6526 19.4241 0.0000 49.8076 0.0000
# 6 0.0000 0.0000 0.0000 5.0117 0.0000 73.6300
#
#
#
# Elastic Compliance Matrix: (Units=1/GPa)
#
#
# Indices 1 2 3 4 5 6 
#
# 1 0.007904 -0.003856 -0.004717 0.000000 -0.000015 0.000000
# 2 -0.003856 0.010483 0.000585 0.000000 -0.003754 0.000000
# 3 -0.004717 0.000585 0.017514 0.000000 -0.004840 0.000000
# 4 0.000000 0.000000 0.000000 0.029495 0.000000 -0.002008
# 5 -0.000015 -0.003754 -0.004840 0.000000 0.023905 0.000000
# 6 0.000000 0.000000 0.000000 -0.002008 0.000000 0.013718
#
#
# Mechanical properties :
#
#
# Convention : Reuss Voigt Hill
#
# Bulk Modulus (GPa) = 50.18792 81.11155 65.64973
# Shear Modulus (GPa) = 39.79739 48.10093 43.94916
#
# Velocity S-wave (km/s) = 3.93300 4.32388 4.13306
# Velocity P-wave (km/s) = 6.33496 7.51362 6.94932
#
# Compressibility (1/GPa) = 0.01992511
#
# Stress axis : x y z
#
# Youngs Moduli (GPa) = 126.51637 95.39546 57.09655
#
# Poissons Ratio (x) = 0.36785 0.26934
# Poissons Ratio (y) = 0.48785 -0.03342
# Poissons Ratio (z) = 0.59681 -0.05584
#
# Static dielectric constant tensor:
#      x y z
#    x 2.070580 0.000000 -0.114510 
#    y 0.000000 2.175060 0.000000 
#    z -0.114510 0.000000 2.041770 
# 
# From -- ./inp_files/55590.got.cif
#   From: 2010.05.17/outbox.cif.g08.bks.cpg/sg5_28_cif.got.tgz:55590.got - 2010.06.03 18:56:24.
