data_PCOD9129558
_publ_section_title
;
Structure prediction by ZEFSAII (Michael W. Deem and Ramdas Pophale) SiO2 
 PCOD9129558
Probable space group: C 2
;
_chemical_formula_sum "Si O2"
_cell_formula_units_Z 22
_cell_length_a 23.311099
_cell_length_b 4.999846
_cell_length_c 8.726224
_cell_angle_alpha 90.000000
_cell_angle_beta 110.100394
_cell_angle_gamma 90.000000
_cell_volume 955.110948
_symmetry_space_group_name_H-M "C 2"
_symmetry_group_IT_number 5
_symmetry_cell_setting 'monoclinic'
loop_
_space_group_symop_operation_xyz
x,y,z
-x,y,-z
1/2+x,1/2+y,z
1/2-x,1/2+y,-z
loop_
_atom_site_type_symbol
_atom_site_label
_atom_site_fract_x
_atom_site_fract_y
_atom_site_fract_z
Si Si1 0.709458 0.305210 0.956021
Si Si2 0.116669 0.142194 0.061092
Si Si3 0.073960 0.439778 0.304513
Si Si4 0.500000 0.292352 0.000000
Si Si5 0.104535 0.793128 0.615507
Si Si6 0.552556 0.813057 0.720470
O O1 0.667622 0.263827 0.767529
O O2 0.761556 0.524968 0.967387
O O3 0.670604 0.450584 0.054814
O O4 0.118235 0.274061 0.230656
O O5 0.098633 0.344316 0.908044
O O6 0.054661 0.971932 0.992059
O O7 0.106095 0.648115 0.450587
O O8 0.019026 0.250313 0.318820
O O9 0.031663 0.613214 0.154601
O O10 0.054701 0.605607 0.650503
O O11 0.084321 0.095487 0.637690
#
# Coordination Sequence:
#
# PCOD9129558 Si02
#       6
#     4   4   4   2   4   4
#     4  11  25  49  78 100 139 195 260 308 357 420
#     4  11  24  41  72 107 145 194 242 288 371 440
#     4  12  24  39  69 110 155 191 233 295 365 452
#     4  12  22  40  70 106 156 192 224 288 378 456
#     4  11  27  42  71 106 147 188 250 294 361 425
#     4  11  22  43  64 107 152 194 221 289 368 454
#
# _framework density 23.033975999999999
#
# number of rings (size 3 to 8) (size 9 to 14) (size 15 to 20)
#    0.000    0.727    3.636    4.909    5.091    2.909 
#    0.000    0.000    4.000    0.000    0.000    0.000 
#    0.000    0.000    0.000    0.000    0.000    0.000 
#
# Total GULP energy -61419.701918 kJ/mol
# GULP energy per Si atom -5583.609265 kJ/mol
# Density = 2.298155 g / cm^3
# Si number density = 23.033976 Si / 1000 Ang^3
#
#
#
# Elastic Constant Matrix: (Units=GPa)
#
#
# Indices 1 2 3 4 5 6 
#
# 1 78.7278 12.3254 44.5942 0.0000 9.6228 0.0000
# 2 12.3254 74.6796 33.6632 0.0000 11.7718 0.0000
# 3 44.5942 33.6632 157.6583 0.0000 18.2947 0.0000
# 4 0.0000 0.0000 0.0000 51.3539 0.0000 4.1603
# 5 9.6228 11.7718 18.2947 0.0000 24.9046 0.0000
# 6 0.0000 0.0000 0.0000 4.1603 0.0000 27.5866
#
#
#
# Elastic Compliance Matrix: (Units=1/GPa)
#
#
# Indices 1 2 3 4 5 6 
#
# 1 0.015333 -0.000300 -0.003937 0.000000 -0.002890 0.000000
# 2 -0.000300 0.015444 -0.002601 0.000000 -0.005273 0.000000
# 3 -0.003937 -0.002601 0.008409 0.000000 -0.003427 0.000000
# 4 0.000000 0.000000 0.000000 0.019714 0.000000 -0.002973
# 5 -0.002890 -0.005273 -0.003427 0.000000 0.046280 0.000000
# 6 0.000000 0.000000 0.000000 -0.002973 0.000000 0.036698
#
#
# Mechanical properties :
#
#
# Convention : Reuss Voigt Hill
#
# Bulk Modulus (GPa) = 39.20156 54.69236 46.94696
# Shear Modulus (GPa) = 30.47731 35.46788 32.97260
#
# Velocity S-wave (km/s) = 3.64145 3.92829 3.78759
# Velocity P-wave (km/s) = 5.89374 6.66116 6.28917
#
# Compressibility (1/GPa) = 0.02550919
#
# Stress axis : x y z
#
# Youngs Moduli (GPa) = 65.22083 64.75160 118.91317
#
# Poissons Ratio (x) = 0.01943 0.46821
# Poissons Ratio (y) = 0.01957 0.30926
# Poissons Ratio (z) = 0.25680 0.16840
#
# Static dielectric constant tensor:
#      x y z
#    x 1.968930 0.000000 -0.235840 
#    y 0.000000 1.947520 0.000000 
#    z -0.235840 0.000000 2.213450 
# 
# From -- ./inp_files/30336.got.cif
#   From: 2010.05.17/outbox.cif.g08.bks.cpg/sg5_16_cif.got.tgz:30336.got - 2010.06.03 18:56:24.
