data_PCOD9129241
_publ_section_title
;
Structure prediction by ZEFSAII (Michael W. Deem and Ramdas Pophale) SiO2 
 PCOD9129241
Probable space group: C 2
;
_chemical_formula_sum "Si O2"
_cell_formula_units_Z 26
_cell_length_a 17.950359
_cell_length_b 8.820397
_cell_length_c 8.596664
_cell_angle_alpha 90.000000
_cell_angle_beta 126.389763
_cell_angle_gamma 90.000000
_cell_volume 1095.688245
_symmetry_space_group_name_H-M "C 2"
_symmetry_group_IT_number 5
_symmetry_cell_setting 'monoclinic'
loop_
_space_group_symop_operation_xyz
x,y,z
-x,y,-z
1/2+x,1/2+y,z
1/2-x,1/2+y,-z
loop_
_atom_site_type_symbol
_atom_site_label
_atom_site_fract_x
_atom_site_fract_y
_atom_site_fract_z
Si Si1 0.500000 0.591440 0.500000
Si Si2 0.980316 0.720277 0.797910
Si Si3 0.202361 0.939174 0.757817
Si Si4 0.469481 0.571258 0.128214
Si Si5 0.334459 0.129456 0.125686
Si Si6 0.725657 0.487823 0.246904
Si Si7 0.773881 0.743429 0.508167
O O1 0.596854 0.498238 0.615291
O O2 0.490510 0.661851 0.313491
O O3 0.877385 0.677595 0.626370
O O4 0.059518 0.651207 0.789113
O O5 0.983217 0.904876 0.796714
O O6 0.000000 0.677742 0.000000
O O7 0.202528 0.794643 0.872605
O O8 0.234986 0.871564 0.634632
O O9 0.274276 0.060070 0.912318
O O10 0.500000 0.639993 0.000000
O O11 0.362272 0.523547 0.971596
O O12 0.313630 0.027074 0.250456
O O13 0.711381 0.606819 0.371223
O O14 0.734129 0.324304 0.335961
#
# Coordination Sequence:
#
# PCOD9129241 Si02
#       7
#     2   4   4   4   4   4   4
#     4  12  18  38  68  98 132 186 234 282 344 418
#     4  11  21  39  68  96 134 185 241 275 342 426
#     4  11  22  37  66 101 136 177 237 282 353 407
#     4  11  20  39  67 101 130 181 239 287 326 423
#     4  11  23  40  67 101 142 178 232 295 341 414
#     4  11  23  41  66 106 143 175 237 294 351 411
#     4  11  24  40  68 100 134 186 232 293 346 423
#
# _framework density 23.729376999999999
#
# number of rings (size 3 to 8) (size 9 to 14) (size 15 to 20)
#    0.000    0.923    7.692    0.000    2.154    1.846 
#    0.000    0.000    6.769    6.462    0.000    2.154 
#    0.000    0.000    0.000    0.000    0.000    0.000 
#
# Total GULP energy -72664.715548 kJ/mol
# GULP energy per Si atom -5589.593504 kJ/mol
# Density = 2.367537 g / cm^3
# Si number density = 23.729377 Si / 1000 Ang^3
#
#
#
# Elastic Constant Matrix: (Units=GPa)
#
#
# Indices 1 2 3 4 5 6 
#
# 1 89.1421 33.8686 28.6444 0.0000 -29.7646 0.0000
# 2 33.8686 37.5651 42.5314 0.0000 -9.3883 0.0000
# 3 28.6444 42.5314 160.9334 0.0000 -18.9061 0.0000
# 4 0.0000 0.0000 0.0000 35.2948 0.0000 -5.7301
# 5 -29.7646 -9.3883 -18.9061 0.0000 43.8254 0.0000
# 6 0.0000 0.0000 0.0000 -5.7301 0.0000 17.2763
#
#
#
# Elastic Compliance Matrix: (Units=1/GPa)
#
#
# Indices 1 2 3 4 5 6 
#
# 1 0.021779 -0.019800 0.002734 0.000000 0.011729 0.000000
# 2 -0.019800 0.056669 -0.012225 0.000000 -0.006582 0.000000
# 3 0.002734 -0.012225 0.009342 0.000000 0.003268 0.000000
# 4 0.000000 0.000000 0.000000 0.029945 0.000000 0.009932
# 5 0.011729 -0.006582 0.003268 0.000000 0.030784 0.000000
# 6 0.000000 0.000000 0.000000 0.009932 0.000000 0.061177
#
#
# Mechanical properties :
#
#
# Convention : Reuss Voigt Hill
#
# Bulk Modulus (GPa) = 34.23812 55.30326 44.77069
# Shear Modulus (GPa) = 17.98479 31.45238 24.71859
#
# Velocity S-wave (km/s) = 2.75601 3.64464 3.23102
# Velocity P-wave (km/s) = 4.95856 6.40840 5.72953
#
# Compressibility (1/GPa) = 0.02920722
#
# Stress axis : x y z
#
# Youngs Moduli (GPa) = 45.91675 17.64645 107.04421
#
# Poissons Ratio (x) = 0.34940 -0.29269
# Poissons Ratio (y) = 0.90914 1.30866
# Poissons Ratio (z) = -0.12555 0.21573
#
# Static dielectric constant tensor:
#      x y z
#    x 1.944490 0.000000 -0.059700 
#    y 0.000000 1.875040 0.000000 
#    z -0.059700 0.000000 1.933330 
# 
# From -- ./inp_files/29021.got.cif
#   From: 2010.05.17/outbox.cif.g08.bks.cpg/sg5_15_cif.got.tgz:29021.got - 2010.06.03 18:56:24.
