data_PCOD9129000
_publ_section_title
;
Structure prediction by ZEFSAII (Michael W. Deem and Ramdas Pophale) SiO2 
 PCOD9129000
Probable space group: C 2
;
_chemical_formula_sum "Si O2"
_cell_formula_units_Z 28
_cell_length_a 22.066840
_cell_length_b 5.445535
_cell_length_c 12.608218
_cell_angle_alpha 90.000000
_cell_angle_beta 54.810223
_cell_angle_gamma 90.000000
_cell_volume 1238.192402
_symmetry_space_group_name_H-M "C 2"
_symmetry_group_IT_number 5
_symmetry_cell_setting 'monoclinic'
loop_
_space_group_symop_operation_xyz
x,y,z
-x,y,-z
1/2+x,1/2+y,z
1/2-x,1/2+y,-z
loop_
_atom_site_type_symbol
_atom_site_label
_atom_site_fract_x
_atom_site_fract_y
_atom_site_fract_z
Si Si1 0.706529 0.202910 0.071010
Si Si2 0.758013 0.445751 0.429667
Si Si3 0.534195 0.561945 0.615001
Si Si4 0.500000 0.940945 0.500000
Si Si5 0.417248 0.812892 0.235408
Si Si6 0.140873 0.790418 0.370167
Si Si7 0.000000 0.010637 0.000000
Si Si8 0.455681 0.193925 0.842133
O O1 0.680943 0.267547 0.217199
O O2 0.630423 0.142734 0.085487
O O3 0.744145 0.453812 0.987357
O O4 0.740904 0.725048 0.483600
O O5 0.842612 0.462912 0.304778
O O6 0.704184 0.327371 0.395262
O O7 0.487604 0.790410 0.621222
O O8 0.585204 0.623003 0.664169
O O9 0.585121 0.508516 0.461671
O O10 0.483794 0.341616 0.708986
O O11 0.578563 0.077349 0.441641
O O12 0.433478 0.674687 0.111136
O O13 0.489405 0.971049 0.189996
O O14 0.030268 0.861573 0.069006
#
# Coordination Sequence:
#
# PCOD9129000 Si02
#       8
#     4   4   4   2   4   4   2   4
#     4  12  32  51  75 111 157 207 253 314 380 466
#     4  12  27  48  76 118 157 193 249 322 393 450
#     4  11  22  43  74 107 142 190 256 313 377 452
#     4  12  24  42  76 108 144 200 250 316 378 450
#     4  11  24  45  73 106 148 197 249 316 377 458
#     4  12  27  47  75 111 151 203 253 318 384 454
#     4  10  26  42  78 104 140 204 260 312 378 456
#     4  11  25  49  74 109 149 195 264 313 378 458
#
# _framework density 22.613609
#
# number of rings (size 3 to 8) (size 9 to 14) (size 15 to 20)
#    0.000    0.571    1.429    6.000   12.000    1.143 
#    0.000    0.000    0.000    0.000    0.000    0.000 
#    0.000    0.000    0.000    0.000    0.000    0.000 
#
# Total GULP energy -78134.418229 kJ/mol
# GULP energy per Si atom -5581.029874 kJ/mol
# Density = 2.256214 g / cm^3
# Si number density = 22.613609 Si / 1000 Ang^3
#
#
#
# Elastic Constant Matrix: (Units=GPa)
#
#
# Indices 1 2 3 4 5 6 
#
# 1 101.0350 3.8462 20.5521 -0.0023 -13.7827 0.0050
# 2 3.8462 75.8204 33.0694 -0.0056 -1.4588 0.0093
# 3 20.5521 33.0694 118.1107 0.0004 3.7680 0.0007
# 4 -0.0023 -0.0056 0.0004 20.2570 0.0010 -0.2784
# 5 -13.7827 -1.4588 3.7680 0.0010 35.9507 -0.0012
# 6 0.0050 0.0093 0.0007 -0.2784 -0.0012 23.6241
#
#
#
# Elastic Compliance Matrix: (Units=1/GPa)
#
#
# Indices 1 2 3 4 5 6 
#
# 1 0.010928 0.000481 -0.002178 0.000001 0.004437 -0.000002
# 2 0.000481 0.015085 -0.004347 0.000004 0.001252 -0.000006
# 3 -0.002178 -0.004347 0.010129 -0.000002 -0.002073 0.000002
# 4 0.000001 0.000004 -0.000002 0.049374 -0.000001 0.000582
# 5 0.004437 0.001252 -0.002073 -0.000001 0.029785 0.000000
# 6 -0.000002 -0.000006 0.000002 0.000582 0.000000 0.042336
#
#
# Mechanical properties :
#
#
# Convention : Reuss Voigt Hill
#
# Bulk Modulus (GPa) = 41.57449 45.54461 43.55955
# Shear Modulus (GPa) = 28.13066 31.79959 29.96513
#
# Velocity S-wave (km/s) = 3.53082 3.75402 3.64413
# Velocity P-wave (km/s) = 5.92004 6.24294 6.08363
#
# Compressibility (1/GPa) = 0.02405321
#
# Stress axis : x y z
#
# Youngs Moduli (GPa) = 91.51217 66.29190 98.72809
#
# Poissons Ratio (x) = -0.03188 0.21499
# Poissons Ratio (y) = -0.04400 0.42919
# Poissons Ratio (z) = 0.19928 0.28818
#
# Static dielectric constant tensor:
#      x y z
#    x 1.855830 0.000000 0.008910 
#    y 0.000000 1.933470 0.000000 
#    z 0.008910 0.000000 1.872420 
# 
# From -- ./inp_files/45610.got.cif
#   From: 2010.05.17/outbox.cif.g08.bks.cpg/sg5_23_cif.got.tgz:45610.got - 2010.06.03 18:56:24.
