data_PCOD9129086
_publ_section_title
;
Structure prediction by ZEFSAII (Michael W. Deem and Ramdas Pophale) SiO2 
 PCOD9129086
Probable space group: C 2
;
_chemical_formula_sum "Si O2"
_cell_formula_units_Z 22
_cell_length_a 17.520146
_cell_length_b 7.734156
_cell_length_c 10.762839
_cell_angle_alpha 90.000000
_cell_angle_beta 35.959864
_cell_angle_gamma 90.000000
_cell_volume 856.400946
_symmetry_space_group_name_H-M "C 2"
_symmetry_group_IT_number 5
_symmetry_cell_setting 'monoclinic'
loop_
_space_group_symop_operation_xyz
x,y,z
-x,y,-z
1/2+x,1/2+y,z
1/2-x,1/2+y,-z
loop_
_atom_site_type_symbol
_atom_site_label
_atom_site_fract_x
_atom_site_fract_y
_atom_site_fract_z
Si Si1 0.957875 0.270690 0.803081
Si Si2 0.863962 0.781248 0.230547
Si Si3 0.500000 0.621048 0.000000
Si Si4 0.170545 0.779295 0.208409
Si Si5 0.583184 0.135739 0.577093
Si Si6 0.121328 0.139410 0.409482
O O1 0.041298 0.109753 0.642189
O O2 0.948874 0.242837 0.960435
O O3 0.040263 0.441061 0.665205
O O4 0.808433 0.272077 0.957896
O O5 0.751863 0.728101 0.282832
O O6 0.847302 0.717981 0.394064
O O7 0.000000 0.703974 0.000000
O O8 0.888787 0.986463 0.190003
O O9 0.054203 0.731848 0.269626
O O10 0.152462 0.968600 0.292009
O O11 0.156082 0.655261 0.348593
O O12 0.000000 0.236547 0.500000
#
# Coordination Sequence:
#
# PCOD9129086 Si02
#       6
#     4   4   2   4   4   4
#     4  12  30  45  84 115 162 215 269 330 413 483
#     4  10  26  48  85 112 166 214 270 340 396 479
#     4  10  28  48  74 122 156 216 272 332 402 474
#     4  11  28  52  79 117 164 210 269 340 401 486
#     4  11  26  49  79 118 157 214 272 325 402 492
#     4  12  28  51  81 120 163 212 273 330 412 478
#
# _framework density 25.688903
#
# number of rings (size 3 to 8) (size 9 to 14) (size 15 to 20)
#    0.545    0.364    1.818    2.182   16.545    0.000 
#    0.000    0.000    0.000    0.000    0.000    0.000 
#    0.000    0.000    0.000    0.000    0.000    0.000 
#
# Total GULP energy -61542.651518 kJ/mol
# GULP energy per Si atom -5594.786502 kJ/mol
# Density = 2.563043 g / cm^3
# Si number density = 25.688903 Si / 1000 Ang^3
#
#
#
# Elastic Constant Matrix: (Units=GPa)
#
#
# Indices 1 2 3 4 5 6 
#
# 1 168.3993 54.7257 11.0158 0.0000 -19.2557 0.0000
# 2 54.7257 139.6432 32.5843 0.0000 -2.0395 0.0000
# 3 11.0158 32.5843 112.7223 0.0000 -27.6188 0.0000
# 4 0.0000 0.0000 0.0000 35.2727 0.0000 5.2175
# 5 -19.2557 -2.0395 -27.6188 0.0000 45.2315 0.0000
# 6 0.0000 0.0000 0.0000 5.2175 0.0000 45.0504
#
#
#
# Elastic Compliance Matrix: (Units=1/GPa)
#
#
# Indices 1 2 3 4 5 6 
#
# 1 0.007269 -0.003041 0.001051 0.000000 0.003599 0.000000
# 2 -0.003041 0.009006 -0.002968 0.000000 -0.002701 0.000000
# 3 0.001051 -0.002968 0.011411 0.000000 0.007281 0.000000
# 4 0.000000 0.000000 0.000000 0.028845 0.000000 -0.003341
# 5 0.003599 -0.002701 0.007281 0.000000 0.027965 0.000000
# 6 0.000000 0.000000 0.000000 -0.003341 0.000000 0.022584
#
#
# Mechanical properties :
#
#
# Convention : Reuss Voigt Hill
#
# Bulk Modulus (GPa) = 56.27908 68.60180 62.44044
# Shear Modulus (GPa) = 40.67680 46.60684 43.64182
#
# Velocity S-wave (km/s) = 3.98356 4.26406 4.12619
# Velocity P-wave (km/s) = 6.56611 7.14183 6.86001
#
# Compressibility (1/GPa) = 0.01776859
#
# Stress axis : x y z
#
# Youngs Moduli (GPa) = 137.56132 111.03536 87.63834
#
# Poissons Ratio (x) = 0.33771 -0.09207
# Poissons Ratio (y) = 0.41839 0.26010
# Poissons Ratio (z) = -0.14452 0.32954
#
# Static dielectric constant tensor:
#      x y z
#    x 2.111800 0.000000 0.063820 
#    y 0.000000 2.008690 0.000000 
#    z 0.063820 0.000000 2.177970 
# 
# From -- ./inp_files/46213.got.cif
#   From: 2010.05.17/outbox.cif.g08.bks.cpg/sg5_24_cif.got.tgz:46213.got - 2010.06.03 18:56:24.
