data_PCOD9129363
_publ_section_title
;
Structure prediction by ZEFSAII (Michael W. Deem and Ramdas Pophale) SiO2 
 PCOD9129363
Probable space group: C 2
;
_chemical_formula_sum "Si O2"
_cell_formula_units_Z 26
_cell_length_a 6.562430
_cell_length_b 23.822511
_cell_length_c 9.366595
_cell_angle_alpha 90.000000
_cell_angle_beta 76.350166
_cell_angle_gamma 90.000000
_cell_volume 1422.955256
_symmetry_space_group_name_H-M "C 2"
_symmetry_group_IT_number 5
_symmetry_cell_setting 'monoclinic'
loop_
_space_group_symop_operation_xyz
x,y,z
-x,y,-z
1/2+x,1/2+y,z
1/2-x,1/2+y,-z
loop_
_atom_site_type_symbol
_atom_site_label
_atom_site_fract_x
_atom_site_fract_y
_atom_site_fract_z
Si Si1 0.000000 0.276150 0.500000
Si Si2 0.593017 0.107988 0.825499
Si Si3 0.329467 0.329321 0.648810
Si Si4 0.072928 0.718352 0.647603
Si Si5 0.446005 0.532365 0.843291
Si Si6 0.364009 0.929388 0.156907
Si Si7 0.399275 0.007509 0.672870
O O1 0.883314 0.312635 0.398940
O O2 0.812333 0.239219 0.595864
O O3 0.559586 0.168314 0.760973
O O4 0.833691 0.087187 0.797259
O O5 0.479888 0.062000 0.745506
O O6 0.500000 0.105459 0.000000
O O7 0.500000 0.345898 0.500000
O O8 0.428262 0.272985 0.702012
O O9 0.280115 0.379704 0.761680
O O10 0.000000 0.699880 0.500000
O O11 0.276678 0.482365 0.866576
O O12 0.648762 0.512684 0.721880
O O13 0.500000 0.542404 0.000000
O O14 0.516603 0.953503 0.254747
O O15 0.500000 0.910621 0.000000
O O16 0.500000 0.007114 0.500000
#
# Coordination Sequence:
#
# PCOD9129363 Si02
#       7
#     2   4   4   4   4   4   4
#     4   8  18  40  60  84 116 158 196 246 298 350
#     4  11  22  39  61  88 123 157 199 251 301 361
#     4   9  21  39  61  87 121 157 204 248 294 356
#     4   9  20  40  62  86 119 154 203 252 296 353
#     4  11  21  42  60  84 124 164 192 241 315 354
#     4  11  23  39  60  91 124 158 198 248 300 365
#     4  11  24  38  62  94 119 154 203 247 298 365
#
# _framework density 18.271830999999999
#
# number of rings (size 3 to 8) (size 9 to 14) (size 15 to 20)
#    0.000    2.154    3.077    1.385    3.231    6.769 
#    2.769    0.000    0.000    0.000    0.000    0.000 
#    0.000    0.000    0.000    0.000    0.000    0.000 
#
# Total GULP energy -72546.438164 kJ/mol
# GULP energy per Si atom -5580.495243 kJ/mol
# Density = 1.823024 g / cm^3
# Si number density = 18.271831 Si / 1000 Ang^3
#
#
#
# Elastic Constant Matrix: (Units=GPa)
#
#
# Indices 1 2 3 4 5 6 
#
# 1 99.7662 23.8772 24.1270 0.0000 -4.4627 0.0000
# 2 23.8772 108.8717 49.8604 0.0000 2.2371 0.0000
# 3 24.1270 49.8604 107.1813 0.0000 -8.3075 0.0000
# 4 0.0000 0.0000 0.0000 10.4373 0.0000 4.5805
# 5 -4.4627 2.2371 -8.3075 0.0000 21.2281 0.0000
# 6 0.0000 0.0000 0.0000 4.5805 0.0000 11.6843
#
#
#
# Elastic Compliance Matrix: (Units=1/GPa)
#
#
# Indices 1 2 3 4 5 6 
#
# 1 0.010886 -0.001742 -0.001494 0.000000 0.001888 0.000000
# 2 -0.001742 0.012202 -0.005582 0.000000 -0.003837 0.000000
# 3 -0.001494 -0.005582 0.012668 0.000000 0.005232 0.000000
# 4 0.000000 0.000000 0.000000 0.115719 0.000000 -0.045365
# 5 0.001888 -0.003837 0.005232 0.000000 0.049956 0.000000
# 6 0.000000 0.000000 0.000000 -0.045365 0.000000 0.103369
#
#
# Mechanical properties :
#
#
# Convention : Reuss Voigt Hill
#
# Bulk Modulus (GPa) = 55.18298 56.83870 56.01084
# Shear Modulus (GPa) = 15.22178 23.20024 19.21101
#
# Velocity S-wave (km/s) = 2.88943 3.56719 3.24605
# Velocity P-wave (km/s) = 6.43416 6.93839 6.69103
#
# Compressibility (1/GPa) = 0.01812153
#
# Stress axis : x y z
#
# Youngs Moduli (GPa) = 91.86053 81.95181 78.93710
#
# Poissons Ratio (x) = 0.14277 0.11791
# Poissons Ratio (y) = 0.16004 0.44060
# Poissons Ratio (z) = 0.13722 0.45743
#
# Static dielectric constant tensor:
#      x y z
#    x 1.659640 0.000000 0.005890 
#    y 0.000000 1.615860 0.000000 
#    z 0.005890 0.000000 1.610380 
# 
# From -- ./inp_files/13009.got.cif
#   From: 2010.05.17/outbox.cif.g08.bks.cpg/sg5_7_cif.got.tgz:13009.got - 2010.06.03 18:56:24.
