data_PCOD9129556
_publ_section_title
;
Structure prediction by ZEFSAII (Michael W. Deem and Ramdas Pophale) SiO2 
 PCOD9129556
Probable space group: C 2
;
_chemical_formula_sum "Si O2"
_cell_formula_units_Z 30
_cell_length_a 13.469928
_cell_length_b 11.591905
_cell_length_c 9.494752
_cell_angle_alpha 90.000000
_cell_angle_beta 106.215134
_cell_angle_gamma 90.000000
_cell_volume 1423.555628
_symmetry_space_group_name_H-M "C 2"
_symmetry_group_IT_number 5
_symmetry_cell_setting 'monoclinic'
loop_
_space_group_symop_operation_xyz
x,y,z
-x,y,-z
1/2+x,1/2+y,z
1/2-x,1/2+y,-z
loop_
_atom_site_type_symbol
_atom_site_label
_atom_site_fract_x
_atom_site_fract_y
_atom_site_fract_z
Si Si1 0.954166 0.592480 0.170645
Si Si2 0.401055 0.481676 0.364138
Si Si3 0.702776 0.262724 0.052143
Si Si4 0.348230 0.211316 0.379736
Si Si5 0.691308 0.130957 0.320839
Si Si6 0.644735 0.703473 0.120907
Si Si7 0.000000 0.395793 0.000000
Si Si8 0.089669 0.976932 0.962071
O O1 0.916563 0.622195 0.313797
O O2 0.079159 0.586579 0.222962
O O3 0.892109 0.691052 0.058163
O O4 0.931856 0.475055 0.076893
O O5 0.500000 0.516970 0.500000
O O6 0.388164 0.342695 0.377211
O O7 0.291014 0.545071 0.356072
O O8 0.423993 0.504241 0.207485
O O9 0.713081 0.233405 0.219065
O O10 0.803705 0.221086 0.011289
O O11 0.688912 0.396151 0.011855
O O12 0.333922 0.176744 0.534610
O O13 0.235426 0.205480 0.267224
O O14 0.567768 0.807280 0.118010
O O15 0.597306 0.578449 0.079976
O O16 0.000000 0.901325 0.000000
#
# Coordination Sequence:
#
# PCOD9129556 Si02
#       8
#     4   4   4   4   4   4   2   4
#     4  11  22  42  75  99 132 176 237 287 336 407
#     4  12  27  46  69 101 147 185 228 296 348 418
#     4  11  24  41  74 104 126 183 238 283 337 414
#     4  11  27  43  70 102 141 180 242 279 352 413
#     4  12  24  45  70 105 136 182 228 289 352 406
#     4  11  25  44  66 103 140 184 227 292 346 412
#     4  12  24  42  72  96 144 176 232 292 350 404
#     4  12  25  45  72 100 141 178 240 286 347 416
#
# _framework density 21.073990999999999
#
# number of rings (size 3 to 8) (size 9 to 14) (size 15 to 20)
#    0.000    0.533    6.000    2.800    7.467    0.000 
#    0.000    0.000    0.000    0.000    0.000    0.000 
#    0.000    0.000    0.000    0.000    0.000    0.000 
#
# Total GULP energy -83643.408109 kJ/mol
# GULP energy per Si atom -5576.227207 kJ/mol
# Density = 2.102603 g / cm^3
# Si number density = 21.073991 Si / 1000 Ang^3
#
#
#
# Elastic Constant Matrix: (Units=GPa)
#
#
# Indices 1 2 3 4 5 6 
#
# 1 87.9465 17.9774 28.6495 0.0000 7.0849 0.0000
# 2 17.9774 82.8779 30.6908 0.0000 2.1842 0.0000
# 3 28.6495 30.6908 124.6702 0.0000 -22.2736 0.0000
# 4 0.0000 0.0000 0.0000 90.1221 0.0000 107.4338
# 5 7.0849 2.1842 -22.2736 0.0000 45.5524 0.0000
# 6 0.0000 0.0000 0.0000 107.4338 0.0000 184.9269
#
#
#
# Elastic Compliance Matrix: (Units=1/GPa)
#
#
# Indices 1 2 3 4 5 6 
#
# 1 0.013027 -0.001529 -0.003250 0.000000 -0.003542 0.000000
# 2 -0.001529 0.013710 -0.003395 0.000000 -0.002080 0.000000
# 3 -0.003250 -0.003395 0.010654 0.000000 0.005878 0.000000
# 4 0.000000 0.000000 0.000000 0.036091 0.000000 -0.020967
# 5 -0.003542 -0.002080 0.005878 0.000000 0.025477 0.000000
# 6 0.000000 0.000000 0.000000 -0.020967 0.000000 0.017588
#
#
# Mechanical properties :
#
#
# Convention : Reuss Voigt Hill
#
# Bulk Modulus (GPa) = 47.52304 50.01443 48.76874
# Shear Modulus (GPa) = 35.73735 78.66541 57.20138
#
# Velocity S-wave (km/s) = 4.12248 6.11631 5.21556
# Velocity P-wave (km/s) = 6.72750 8.58273 7.71112
#
# Compressibility (1/GPa) = 0.02104242
#
# Stress axis : x y z
#
# Youngs Moduli (GPa) = 76.76263 72.94117 93.86156
#
# Poissons Ratio (x) = 0.11152 0.30506
# Poissons Ratio (y) = 0.11736 0.31868
# Poissons Ratio (z) = 0.24949 0.24765
#
# Static dielectric constant tensor:
#      x y z
#    x 1.460920 0.000000 0.018420 
#    y 0.000000 1.780380 0.000000 
#    z 0.018420 0.000000 1.729050 
# 
# From -- ./inp_files/23924.got.cif
#   From: 2010.05.17/outbox.cif.g08.bks.cpg/sg5_12_cif.got.tgz:23924.got - 2010.06.03 18:56:24.
