data_PCOD9129138
_publ_section_title
;
Structure prediction by ZEFSAII (Michael W. Deem and Ramdas Pophale) SiO2 
 PCOD9129138
Probable space group: C 2
;
_chemical_formula_sum "Si O2"
_cell_formula_units_Z 20
_cell_length_a 8.090270
_cell_length_b 11.109007
_cell_length_c 10.977400
_cell_angle_alpha 90.000000
_cell_angle_beta 117.819679
_cell_angle_gamma 90.000000
_cell_volume 872.562737
_symmetry_space_group_name_H-M "C 2"
_symmetry_group_IT_number 5
_symmetry_cell_setting 'monoclinic'
loop_
_space_group_symop_operation_xyz
x,y,z
-x,y,-z
1/2+x,1/2+y,z
1/2-x,1/2+y,-z
loop_
_atom_site_type_symbol
_atom_site_label
_atom_site_fract_x
_atom_site_fract_y
_atom_site_fract_z
Si Si1 0.500000 0.926440 0.000000
Si Si2 0.000000 0.730508 0.500000
Si Si3 0.797585 0.060236 0.735777
Si Si4 0.666147 0.300703 0.312652
Si Si5 0.778970 0.722884 0.059772
Si Si6 0.216901 0.089852 0.790035
O O1 0.650562 0.837920 0.994516
O O2 0.619241 0.989793 0.150031
O O3 0.844138 0.644527 0.386894
O O4 0.896077 0.807631 0.568176
O O5 0.798463 0.126191 0.867725
O O6 0.005312 0.054762 0.749051
O O7 0.738682 0.920416 0.707270
O O8 0.473874 0.273382 0.174929
O O9 0.780077 0.178856 0.323330
O O10 0.785433 0.658582 0.934309
#
# Coordination Sequence:
#
# PCOD9129138 Si02
#       6
#     2   2   4   4   4   4
#     4  12  22  38  64 102 144 156 200 260 322 404
#     4  10  28  48  60  94 124 178 226 272 316 358
#     4  11  25  44  67  92 132 171 218 269 317 379
#     4  11  25  44  68  93 130 170 223 265 318 382
#     4  11  23  40  64 103 135 166 201 262 333 389
#     4  12  24  38  69 103 127 171 209 256 333 389
#
# _framework density 22.920987
#
# number of rings (size 3 to 8) (size 9 to 14) (size 15 to 20)
#    0.000    0.800    6.000    0.000    2.800    5.600 
#    0.000    0.000    0.000    0.000    0.000    0.000 
#    0.000    0.000    0.000    0.000    0.000    0.000 
#
# Total GULP energy -55850.079199 kJ/mol
# GULP energy per Si atom -5585.007920 kJ/mol
# Density = 2.286882 g / cm^3
# Si number density = 22.920987 Si / 1000 Ang^3
#
#
#
# Elastic Constant Matrix: (Units=GPa)
#
#
# Indices 1 2 3 4 5 6 
#
# 1 61.9412 23.4255 12.3689 0.0000 -8.5562 0.0000
# 2 23.4255 103.8829 13.6506 0.0000 -14.9407 0.0000
# 3 12.3689 13.6506 65.6953 0.0000 -18.1230 0.0000
# 4 0.0000 0.0000 0.0000 22.8658 0.0000 -8.4694
# 5 -8.5562 -14.9407 -18.1230 0.0000 38.3685 0.0000
# 6 0.0000 0.0000 0.0000 -8.4694 0.0000 79.6245
#
#
#
# Elastic Compliance Matrix: (Units=1/GPa)
#
#
# Indices 1 2 3 4 5 6 
#
# 1 0.018163 -0.003571 -0.002235 0.000000 0.001604 0.000000
# 2 -0.003571 0.010979 -0.000747 0.000000 0.003126 0.000000
# 3 -0.002235 -0.000747 0.017914 0.000000 0.007673 0.000000
# 4 0.000000 0.000000 0.000000 0.045527 0.000000 0.004843
# 5 0.001604 0.003126 0.007673 0.000000 0.031262 0.000000
# 6 0.000000 0.000000 0.000000 0.004843 0.000000 0.013074
#
#
# Mechanical properties :
#
#
# Convention : Reuss Voigt Hill
#
# Bulk Modulus (GPa) = 29.45461 36.71216 33.08338
# Shear Modulus (GPa) = 30.98996 40.31004 35.65000
#
# Velocity S-wave (km/s) = 3.68099 4.19818 3.94806
# Velocity P-wave (km/s) = 5.56279 6.28897 5.93700
#
# Compressibility (1/GPa) = 0.03395055
#
# Stress axis : x y z
#
# Youngs Moduli (GPa) = 55.05746 91.08059 55.82131
#
# Poissons Ratio (x) = 0.32528 0.12477
# Poissons Ratio (y) = 0.19663 0.04167
# Poissons Ratio (z) = 0.12306 0.06799
#
# Static dielectric constant tensor:
#      x y z
#    x 1.892150 0.000000 0.001930 
#    y 0.000000 1.965280 0.000000 
#    z 0.001930 0.000000 1.815930 
# 
# From -- ./inp_files/34962.got.cif
#   From: 2010.05.17/outbox.cif.g08.bks.cpg/sg5_18_cif.got.tgz:34962.got - 2010.06.03 18:56:24.
