data_PCOD9129635
_publ_section_title
;
Structure prediction by ZEFSAII (Michael W. Deem and Ramdas Pophale) SiO2 
 PCOD9129635
Probable space group: C 2
;
_chemical_formula_sum "Si O2"
_cell_formula_units_Z 16
_cell_length_a 14.762915
_cell_length_b 6.765783
_cell_length_c 7.174293
_cell_angle_alpha 90.000000
_cell_angle_beta 127.178206
_cell_angle_gamma 90.000000
_cell_volume 570.948224
_symmetry_space_group_name_H-M "C 2"
_symmetry_group_IT_number 5
_symmetry_cell_setting 'monoclinic'
loop_
_space_group_symop_operation_xyz
x,y,z
-x,y,-z
1/2+x,1/2+y,z
1/2-x,1/2+y,-z
loop_
_atom_site_type_symbol
_atom_site_label
_atom_site_fract_x
_atom_site_fract_y
_atom_site_fract_z
Si Si1 0.483837 0.151450 0.668734
Si Si2 0.334411 0.819559 0.293540
Si Si3 0.666067 0.061672 0.196152
Si Si4 0.121217 0.128264 0.052194
O O1 0.500000 0.276985 0.500000
O O2 0.580973 0.959679 0.492689
O O3 0.603329 0.109935 0.919761
O O4 0.843318 0.327505 0.792052
O O5 0.218706 0.959500 0.151795
O O6 0.294531 0.626842 0.354685
O O7 0.380354 0.721924 0.159420
O O8 0.599677 0.191076 0.265416
O O9 0.000000 0.073702 0.000000
#
# Coordination Sequence:
#
# PCOD9129635 Si02
#       4
#     4   4   4   4
#     4  11  22  46  74 103 151 195 250 320 373 452
#     4  12  26  47  78 110 150 211 251 314 406 443
#     4  11  25  46  72 109 155 193 255 323 368 468
#     4  12  24  46  77 108 153 196 258 318 372 471
#
# _framework density 28.023557
#
# number of rings (size 3 to 8) (size 9 to 14) (size 15 to 20)
#    0.000    0.500    7.500    0.000    7.000    0.000 
#    0.000    2.500    5.500    0.000    0.000    0.000 
#    0.000    0.000    0.000    0.000    0.000    0.000 
#
# Total GULP energy -44617.162575 kJ/mol
# GULP energy per Si atom -5577.145322 kJ/mol
# Density = 2.795977 g / cm^3
# Si number density = 28.023557 Si / 1000 Ang^3
#
#
#
# Elastic Constant Matrix: (Units=GPa)
#
#
# Indices 1 2 3 4 5 6 
#
# 1 204.9488 54.9588 47.6424 0.0000 -13.7346 0.0000
# 2 54.9588 114.2043 44.8118 0.0000 16.4233 0.0000
# 3 47.6424 44.8118 130.3829 0.0000 -15.3513 0.0000
# 4 0.0000 0.0000 0.0000 44.8867 0.0000 13.9017
# 5 -13.7346 16.4233 -15.3513 0.0000 56.2931 0.0000
# 6 0.0000 0.0000 0.0000 13.9017 0.0000 34.0782
#
#
#
# Elastic Compliance Matrix: (Units=1/GPa)
#
#
# Indices 1 2 3 4 5 6 
#
# 1 0.005991 -0.002779 -0.000998 0.000000 0.002000 0.000000
# 2 -0.002779 0.012380 -0.003869 0.000000 -0.005345 0.000000
# 3 -0.000998 -0.003869 0.009783 0.000000 0.003553 0.000000
# 4 0.000000 0.000000 0.000000 0.025500 0.000000 -0.010402
# 5 0.002000 -0.005345 0.003553 0.000000 0.020780 0.000000
# 6 0.000000 0.000000 0.000000 -0.010402 0.000000 0.033588
#
#
# Mechanical properties :
#
#
# Convention : Reuss Voigt Hill
#
# Bulk Modulus (GPa) = 77.75376 82.70688 80.23032
# Shear Modulus (GPa) = 39.18472 47.19312 43.18892
#
# Velocity S-wave (km/s) = 3.74341 4.10817 3.93003
# Velocity P-wave (km/s) = 6.81838 7.21666 7.02034
#
# Compressibility (1/GPa) = 0.01286111
#
# Stress axis : x y z
#
# Youngs Moduli (GPa) = 166.93041 80.77441 102.22212
#
# Poissons Ratio (x) = 0.22444 0.10207
# Poissons Ratio (y) = 0.46384 0.39549
# Poissons Ratio (z) = 0.16668 0.31251
#
# Static dielectric constant tensor:
#      x y z
#    x 2.353500 0.000000 -0.102290 
#    y 0.000000 2.233190 0.000000 
#    z -0.102290 0.000000 2.229460 
# 
# From -- ./inp_files/18119.got.cif
#   From: 2010.05.17/outbox.cif.g08.bks.cpg/sg5_10_cif.got.tgz:18119.got - 2010.06.03 18:56:24.
