data_PCOD9129315
_publ_section_title
;
Structure prediction by ZEFSAII (Michael W. Deem and Ramdas Pophale) SiO2 
 PCOD9129315
Probable space group: C 2
;
_chemical_formula_sum "Si O2"
_cell_formula_units_Z 26
_cell_length_a 22.941224
_cell_length_b 5.336251
_cell_length_c 13.071794
_cell_angle_alpha 90.000000
_cell_angle_beta 130.858803
_cell_angle_gamma 90.000000
_cell_volume 1210.308098
_symmetry_space_group_name_H-M "C 2"
_symmetry_group_IT_number 5
_symmetry_cell_setting 'monoclinic'
loop_
_space_group_symop_operation_xyz
x,y,z
-x,y,-z
1/2+x,1/2+y,z
1/2-x,1/2+y,-z
loop_
_atom_site_type_symbol
_atom_site_label
_atom_site_fract_x
_atom_site_fract_y
_atom_site_fract_z
Si Si1 0.000000 0.055110 0.500000
Si Si2 0.287490 0.216212 0.943424
Si Si3 0.784392 0.210177 0.807054
Si Si4 0.895480 0.642280 0.406883
Si Si5 0.378076 0.894351 0.186286
Si Si6 0.543913 0.837152 0.351586
Si Si7 0.299042 0.735427 0.588250
O O1 0.037388 0.153267 0.439264
O O2 0.068687 0.870106 0.612419
O O3 0.305924 0.468594 0.901140
O O4 0.200895 0.236594 0.891044
O O5 0.294339 0.971973 0.878114
O O6 0.344693 0.152471 0.101590
O O7 0.693988 0.172683 0.682501
O O8 0.816825 0.217113 0.729803
O O9 0.907573 0.420594 0.337472
O O10 0.934038 0.590489 0.560506
O O11 0.455448 0.836468 0.210392
O O12 0.617521 0.767141 0.369266
O O13 0.253276 0.483615 0.498007
#
# Coordination Sequence:
#
# PCOD9129315 Si02
#       7
#     2   4   4   4   4   4   4
#     4  12  20  36  64 102 142 170 210 292 378 410
#     4  11  25  43  70  97 138 190 226 293 334 420
#     4  11  24  44  67  96 139 183 238 275 344 410
#     4  11  21  38  62  99 139 168 215 294 354 416
#     4  11  22  44  65 102 137 177 237 277 364 412
#     4  12  24  40  66 106 138 178 227 293 356 419
#     4  12  26  45  71 104 143 187 236 286 355 424
#
# _framework density 21.482133000000001
#
# number of rings (size 3 to 8) (size 9 to 14) (size 15 to 20)
#    0.000    0.615    4.615    4.615    4.308    1.231 
#    0.000    0.769    0.000    3.692    0.000    0.000 
#    0.000    0.000    0.000    0.000    0.000    0.000 
#
# Total GULP energy -72436.013864 kJ/mol
# GULP energy per Si atom -5572.001066 kJ/mol
# Density = 2.143324 g / cm^3
# Si number density = 21.482133 Si / 1000 Ang^3
#
#
#
# Elastic Constant Matrix: (Units=GPa)
#
#
# Indices 1 2 3 4 5 6 
#
# 1 214.4103 51.9009 53.1240 0.0000 -7.6663 0.0000
# 2 51.9009 134.0397 30.6893 0.0003 -20.3431 0.0000
# 3 53.1240 30.6893 78.0237 0.0000 -15.6937 0.0000
# 4 0.0000 0.0003 0.0000 -139.9641 0.0000 16.5931
# 5 -7.6663 -20.3431 -15.6937 0.0000 32.8066 0.0000
# 6 0.0000 0.0000 0.0000 16.5931 0.0000 25.6873
#
#
#
# Elastic Compliance Matrix: (Units=1/GPa)
#
#
# Indices 1 2 3 4 5 6 
#
# 1 0.005924 -0.001669 -0.003659 0.000000 -0.001401 0.000000
# 2 -0.001669 0.009151 -0.001549 0.000000 0.004543 0.000000
# 3 -0.003659 -0.001549 0.017208 0.000000 0.006416 0.000000
# 4 0.000000 0.000000 0.000000 -0.006636 0.000000 0.004287
# 5 -0.001401 0.004543 0.006416 0.000000 0.036041 0.000000
# 6 0.000000 0.000000 0.000000 0.004287 0.000000 0.036161
#
#
# Mechanical properties :
#
#
# Convention : Reuss Voigt Hill
#
# Bulk Modulus (GPa) = 53.96996 77.54466 65.75731
# Shear Modulus (GPa) = 42.45250 3.08994 22.77122
#
# Velocity S-wave (km/s) = 4.45024 1.20062 3.25931
# Velocity P-wave (km/s) = 7.18220 6.17233 6.69633
#
# Compressibility (1/GPa) = 0.01852882
#
# Stress axis : x y z
#
# Youngs Moduli (GPa) = 168.79245 109.27902 58.11282
#
# Poissons Ratio (x) = 0.18236 0.21264
# Poissons Ratio (y) = 0.28168 0.09003
# Poissons Ratio (z) = 0.61763 0.16930
#
# Static dielectric constant tensor:
#      x y z
#    x 1.852050 0.000000 0.084350 
#    y 0.000000 2.037440 0.000000 
#    z 0.084350 0.000000 1.887760 
# 
# From -- ./inp_files/45542.got.cif
#   From: 2010.05.17/outbox.cif.g08.bks.cpg/sg5_23_cif.got.tgz:45542.got - 2010.06.03 18:56:24.
