data_PCOD9129233
_publ_section_title
;
Structure prediction by ZEFSAII (Michael W. Deem and Ramdas Pophale) SiO2 
 PCOD9129233
Probable space group: C 2
;
_chemical_formula_sum "Si O2"
_cell_formula_units_Z 30
_cell_length_a 16.374746
_cell_length_b 17.201758
_cell_length_c 12.866502
_cell_angle_alpha 90.000000
_cell_angle_beta 153.620795
_cell_angle_gamma 90.000000
_cell_volume 1610.252727
_symmetry_space_group_name_H-M "C 2"
_symmetry_group_IT_number 5
_symmetry_cell_setting 'monoclinic'
loop_
_space_group_symop_operation_xyz
x,y,z
-x,y,-z
1/2+x,1/2+y,z
1/2-x,1/2+y,-z
loop_
_atom_site_type_symbol
_atom_site_label
_atom_site_fract_x
_atom_site_fract_y
_atom_site_fract_z
Si Si1 0.500000 0.500000 0.000000
Si Si2 0.562555 0.274509 0.451636
Si Si3 0.599439 0.879458 0.215328
Si Si4 0.083907 0.060011 0.705316
Si Si5 0.167429 0.470582 0.758544
Si Si6 0.568398 0.112057 0.785596
Si Si7 0.216306 0.024168 0.460033
Si Si8 0.745583 0.394039 0.929379
O O1 0.654143 0.459635 0.107362
O O2 0.621298 0.533946 0.236681
O O3 0.500000 0.269389 0.500000
O O4 0.765947 0.310017 0.667320
O O5 0.517978 0.192662 0.348867
O O6 0.424063 0.338101 0.248526
O O7 0.717128 0.939343 0.420770
O O8 0.500000 0.917050 0.000000
O O9 0.418121 0.854083 0.071039
O O10 0.000000 0.084810 0.500000
O O11 0.171382 0.973078 0.789797
O O12 0.248245 0.113742 0.935442
O O13 0.929144 0.052863 0.619082
O O14 0.128707 0.558796 0.754905
O O15 0.000000 0.444329 0.500000
O O16 0.183922 0.423309 0.881094
O O17 0.408556 0.068771 0.667263
#
# Coordination Sequence:
#
# PCOD9129233 Si02
#       8
#     2   4   4   4   4   4   4   4
#     4  12  20  36  60  98 130 162 224 262 326 380
#     4  12  25  41  61  94 141 172 207 275 343 394
#     4  12  22  40  66 100 127 170 226 273 328 390
#     4  11  22  42  70  97 127 169 229 280 325 390
#     4  11  20  38  62  90 125 168 218 269 313 384
#     4  11  25  41  60  99 135 171 214 268 338 398
#     4  12  23  37  70  99 130 176 228 275 321 394
#     4  11  21  39  62  95 126 168 218 267 331 383
#
# _framework density 18.630614999999999
#
# number of rings (size 3 to 8) (size 9 to 14) (size 15 to 20)
#    0.000    0.533    9.333    1.600    0.000    1.067 
#    1.200    0.667    0.000    8.000    0.000    0.000 
#    0.000    0.000    0.000    0.000    0.000    0.000 
#
# Total GULP energy -83559.321689 kJ/mol
# GULP energy per Si atom -5570.621446 kJ/mol
# Density = 1.858821 g / cm^3
# Si number density = 18.630615 Si / 1000 Ang^3
#
#
#
# Elastic Constant Matrix: (Units=GPa)
#
#
# Indices 1 2 3 4 5 6 
#
# 1 82.7688 15.1332 38.9550 0.0000 9.5844 0.0000
# 2 15.1332 64.6017 11.2394 0.0000 -1.1862 0.0000
# 3 38.9550 11.2394 114.8096 0.0000 -3.7289 0.0000
# 4 0.0000 0.0000 0.0000 11.6353 0.0000 9.9119
# 5 9.5844 -1.1862 -3.7289 0.0000 49.8984 0.0000
# 6 0.0000 0.0000 0.0000 9.9119 0.0000 -0.3521
#
#
#
# Elastic Compliance Matrix: (Units=1/GPa)
#
#
# Indices 1 2 3 4 5 6 
#
# 1 0.015360 -0.002782 -0.005050 0.000000 -0.003394 0.000000
# 2 -0.002782 0.016255 -0.000619 0.000000 0.000875 0.000000
# 3 -0.005050 -0.000619 0.010541 0.000000 0.001743 0.000000
# 4 0.000000 0.000000 0.000000 0.003440 0.000000 0.096851
# 5 -0.003394 0.000875 0.001743 0.000000 0.020844 0.000000
# 6 0.000000 0.000000 0.000000 0.096851 0.000000 -0.113690
#
#
# Mechanical properties :
#
#
# Convention : Reuss Voigt Hill
#
# Bulk Modulus (GPa) = 39.59675 43.64835 41.62255
# Shear Modulus (GPa) = -227.98292 25.35981 -101.31156
#
# Velocity S-wave (km/s) = -11.07410 3.69343 -7.38222
# Velocity P-wave (km/s) = 11.92537 6.45506 7.09037
#
# Compressibility (1/GPa) = 0.02525460
#
# Stress axis : x y z
#
# Youngs Moduli (GPa) = 65.10394 61.51991 94.87132
#
# Poissons Ratio (x) = 0.17115 0.47906
# Poissons Ratio (y) = 0.18112 0.05872
# Poissons Ratio (z) = 0.32875 0.03808
#
# Static dielectric constant tensor:
#      x y z
#    x 1.660050 0.000000 -0.014860 
#    y 0.000000 1.668480 0.000000 
#    z -0.014860 0.000000 1.712800 
# 
# From -- ./inp_files/43316.got.cif
#   From: 2010.05.17/outbox.cif.g08.bks.cpg/sg5_22_cif.got.tgz:43316.got - 2010.06.03 18:56:24.
