data_PCOD9129065
_publ_section_title
;
Structure prediction by ZEFSAII (Michael W. Deem and Ramdas Pophale) SiO2 
 PCOD9129065
Probable space group: C 2
;
_chemical_formula_sum "Si O2"
_cell_formula_units_Z 22
_cell_length_a 10.721561
_cell_length_b 8.233317
_cell_length_c 13.607507
_cell_angle_alpha 90.000000
_cell_angle_beta 125.818348
_cell_angle_gamma 90.000000
_cell_volume 974.016052
_symmetry_space_group_name_H-M "C 2"
_symmetry_group_IT_number 5
_symmetry_cell_setting 'monoclinic'
loop_
_space_group_symop_operation_xyz
x,y,z
-x,y,-z
1/2+x,1/2+y,z
1/2-x,1/2+y,-z
loop_
_atom_site_type_symbol
_atom_site_label
_atom_site_fract_x
_atom_site_fract_y
_atom_site_fract_z
Si Si1 0.659884 0.212600 0.188977
Si Si2 0.000000 0.675916 0.500000
Si Si3 0.182089 0.046901 0.306399
Si Si4 0.560219 0.493807 0.631704
Si Si5 0.033957 0.270806 0.909635
Si Si6 0.662400 0.104948 0.959873
O O1 0.708458 0.390796 0.248355
O O2 0.484336 0.203210 0.146573
O O3 0.771973 0.071780 0.281070
O O4 0.663994 0.164253 0.075363
O O5 0.842532 0.577959 0.436769
O O6 0.041357 0.800651 0.606985
O O7 0.047695 0.031773 0.325903
O O8 0.113251 0.195412 0.209959
O O9 0.500000 0.563454 0.500000
O O10 0.119869 0.424365 0.903653
O O11 0.162776 0.135756 0.989082
O O12 0.000000 0.343639 0.000000
#
# Coordination Sequence:
#
# PCOD9129065 Si02
#       6
#     4   2   4   4   4   4
#     4  11  24  46  73 103 142 184 233 293 357 414
#     4  10  28  44  70 102 136 190 248 288 352 406
#     4  12  27  46  74 105 140 190 241 291 356 423
#     4  10  26  48  70  99 145 182 239 297 352 409
#     4  12  26  45  72 107 149 184 235 287 359 429
#     4  11  25  46  72 107 145 185 232 293 360 428
#
# _framework density 22.586895999999999
#
# number of rings (size 3 to 8) (size 9 to 14) (size 15 to 20)
#    0.545    0.364    3.636    2.182    8.909    0.000 
#    0.000    0.000    0.000    0.000    0.000    0.000 
#    0.000    0.000    0.000    0.000    0.000    0.000 
#
# Total GULP energy -61254.880361 kJ/mol
# GULP energy per Si atom -5568.625487 kJ/mol
# Density = 2.253549 g / cm^3
# Si number density = 22.586896 Si / 1000 Ang^3
#
#
#
# Elastic Constant Matrix: (Units=GPa)
#
#
# Indices 1 2 3 4 5 6 
#
# 1 43.4720 2.6196 35.3269 0.0000 13.5425 0.0000
# 2 2.6196 108.2945 38.5072 0.0000 13.1281 0.0000
# 3 35.3269 38.5072 98.7338 0.0000 27.3472 0.0000
# 4 0.0000 0.0000 0.0000 -17.3339 0.0000 27.8586
# 5 13.5425 13.1281 27.3472 0.0000 52.5497 0.0000
# 6 0.0000 0.0000 0.0000 27.8586 0.0000 17.9220
#
#
#
# Elastic Compliance Matrix: (Units=1/GPa)
#
#
# Indices 1 2 3 4 5 6 
#
# 1 0.034327 0.004188 -0.013058 0.000000 -0.003097 0.000000
# 2 0.004188 0.011247 -0.005618 0.000000 -0.000966 0.000000
# 3 -0.013058 -0.005618 0.018310 0.000000 -0.004760 0.000000
# 4 0.000000 0.000000 0.000000 -0.016491 0.000000 0.025635
# 5 -0.003097 -0.000966 -0.004760 0.000000 0.022546 0.000000
# 6 0.000000 0.000000 0.000000 0.025635 0.000000 0.015950
#
#
# Mechanical properties :
#
#
# Convention : Reuss Voigt Hill
#
# Bulk Modulus (GPa) = 28.64542 44.82308 36.73425
# Shear Modulus (GPa) = 39.52576 22.23067 30.87822
#
# Velocity S-wave (km/s) = 4.18777 3.14065 3.70142
# Velocity P-wave (km/s) = 6.00775 5.74799 5.87930
#
# Compressibility (1/GPa) = 0.03490959
#
# Stress axis : x y z
#
# Youngs Moduli (GPa) = 29.13162 88.90991 54.61612
#
# Poissons Ratio (x) = -0.37237 0.71316
# Poissons Ratio (y) = -0.12201 0.30681
# Poissons Ratio (z) = 0.38039 0.49946
#
# Static dielectric constant tensor:
#      x y z
#    x 1.953880 0.000000 -0.078650 
#    y 0.000000 1.898000 0.000000 
#    z -0.078650 0.000000 1.941480 
# 
# From -- ./inp_files/52178.got.cif
#   From: 2010.05.17/outbox.cif.g08.bks.cpg/sg5_27_cif.got.tgz:52178.got - 2010.06.03 18:56:24.
