data_PCOD9129041
_publ_section_title
;
Structure prediction by ZEFSAII (Michael W. Deem and Ramdas Pophale) SiO2 
 PCOD9129041
Probable space group: C 2
;
_chemical_formula_sum "Si O2"
_cell_formula_units_Z 16
_cell_length_a 5.042728
_cell_length_b 20.725441
_cell_length_c 8.269201
_cell_angle_alpha 90.000000
_cell_angle_beta 54.957963
_cell_angle_gamma 90.000000
_cell_volume 707.577650
_symmetry_space_group_name_H-M "C 2"
_symmetry_group_IT_number 5
_symmetry_cell_setting 'monoclinic'
loop_
_space_group_symop_operation_xyz
x,y,z
-x,y,-z
1/2+x,1/2+y,z
1/2-x,1/2+y,-z
loop_
_atom_site_type_symbol
_atom_site_label
_atom_site_fract_x
_atom_site_fract_y
_atom_site_fract_z
Si Si1 0.675113 0.420720 0.708831
Si Si2 0.602924 0.834116 0.782821
Si Si3 0.631644 0.155005 0.130110
Si Si4 0.000000 0.029812 0.000000
Si Si5 0.500000 0.224078 0.500000
O O1 0.415531 0.380130 0.698942
O O2 0.000000 0.440064 0.500000
O O3 0.820632 0.373783 0.795458
O O4 0.505754 0.482868 0.844938
O O5 0.703760 0.772450 0.641862
O O6 0.500000 0.817069 0.000000
O O7 0.691040 0.077571 0.117074
O O8 0.459418 0.182124 0.350664
O O9 0.500000 0.172244 0.000000
O O10 0.000000 0.179019 0.000000
#
# Coordination Sequence:
#
# PCOD9129041 Si02
#       5
#     4   4   4   2   2
#     4  12  24  44  72 106 141 186 233 300 369 429
#     4  12  25  44  71 108 143 185 233 305 364 428
#     4  10  27  48  71 107 140 205 239 303 350 429
#     4  10  26  46  74 102 150 180 254 294 366 424
#     4  12  26  50  74 106 154 188 258 280 384 432
#
# _framework density 22.612359000000001
#
# number of rings (size 3 to 8) (size 9 to 14) (size 15 to 20)
#    0.750    0.000    5.000    0.750    5.250    7.000 
#    0.000    0.000    0.000    0.000    0.000    0.000 
#    0.000    0.000    0.000    0.000    0.000    0.000 
#
# Total GULP energy -44698.005231 kJ/mol
# GULP energy per Si atom -5587.250654 kJ/mol
# Density = 2.256089 g / cm^3
# Si number density = 22.612359 Si / 1000 Ang^3
#
#
#
# Elastic Constant Matrix: (Units=GPa)
#
#
# Indices 1 2 3 4 5 6 
#
# 1 144.4436 44.5439 39.8864 0.0000 21.2630 0.0000
# 2 44.5439 146.3112 84.0848 0.0000 14.6291 0.0000
# 3 39.8864 84.0848 182.3066 0.0000 26.8117 0.0000
# 4 0.0000 0.0000 0.0000 -46.4363 0.0000 124.2067
# 5 21.2630 14.6291 26.8117 0.0000 40.8606 0.0000
# 6 0.0000 0.0000 0.0000 124.2067 0.0000 -139.8385
#
#
#
# Elastic Compliance Matrix: (Units=1/GPa)
#
#
# Indices 1 2 3 4 5 6 
#
# 1 0.008105 -0.001902 -0.000416 0.000000 -0.003264 0.000000
# 2 -0.001902 0.009758 -0.004113 0.000000 0.000195 0.000000
# 3 -0.000416 -0.004113 0.007997 0.000000 -0.003558 0.000000
# 4 0.000000 0.000000 0.000000 0.015653 0.000000 0.013903
# 5 -0.003264 0.000195 -0.003558 0.000000 0.028437 0.000000
# 6 0.000000 0.000000 0.000000 0.013903 0.000000 0.005198
#
#
# Mechanical properties :
#
#
# Convention : Reuss Voigt Hill
#
# Bulk Modulus (GPa) = 76.94000 90.01018 83.47509
# Shear Modulus (GPa) = 54.14615 -8.77975 22.68320
#
# Velocity S-wave (km/s) = 4.89871 -1.97260 3.17066
# Velocity P-wave (km/s) = 8.12994 5.89101 7.09929
#
# Compressibility (1/GPa) = 0.01299714
#
# Stress axis : x y z
#
# Youngs Moduli (GPa) = 123.38046 102.47739 125.05109
#
# Poissons Ratio (x) = 0.19493 0.05201
# Poissons Ratio (y) = 0.23469 0.51437
# Poissons Ratio (z) = 0.05132 0.42152
#
# Static dielectric constant tensor:
#      x y z
#    x 1.813260 0.000000 -0.030250 
#    y 0.000000 1.857580 0.000000 
#    z -0.030250 0.000000 2.222970 
# 
# From -- ./inp_files/12382.got.cif
#   From: 2010.05.17/outbox.cif.g08.bks.cpg/sg5_7_cif.got.tgz:12382.got - 2010.06.03 18:56:24.
