data_PCOD9129277
_publ_section_title
;
Structure prediction by ZEFSAII (Michael W. Deem and Ramdas Pophale) SiO2 
 PCOD9129277
Probable space group: C 2
;
_chemical_formula_sum "Si O2"
_cell_formula_units_Z 16
_cell_length_a 6.040592
_cell_length_b 12.768244
_cell_length_c 12.652442
_cell_angle_alpha 90.000000
_cell_angle_beta 133.751201
_cell_angle_gamma 90.000000
_cell_volume 704.907917
_symmetry_space_group_name_H-M "C 2"
_symmetry_group_IT_number 5
_symmetry_cell_setting 'monoclinic'
loop_
_space_group_symop_operation_xyz
x,y,z
-x,y,-z
1/2+x,1/2+y,z
1/2-x,1/2+y,-z
loop_
_atom_site_type_symbol
_atom_site_label
_atom_site_fract_x
_atom_site_fract_y
_atom_site_fract_z
Si Si1 0.245961 0.988180 0.826622
Si Si2 0.587590 0.912361 0.648419
Si Si3 0.322562 0.117831 0.648129
Si Si4 0.758048 0.786235 0.323569
O O1 0.262529 0.881742 0.764387
O O2 0.910003 0.972103 0.764343
O O3 0.293477 0.084559 0.761236
O O4 0.500000 0.993044 0.000000
O O5 0.500000 0.885766 0.500000
O O6 0.554171 0.811004 0.712726
O O7 0.355419 0.005070 0.602149
O O8 0.604607 0.189998 0.700029
O O9 0.000000 0.161258 0.500000
O O10 0.000000 0.795393 0.500000
#
# Coordination Sequence:
#
# PCOD9129277 Si02
#       4
#     4   4   4   4
#     4  11  25  47  70 103 153 192 231 304 376 435
#     4  11  20  44  73 102 143 190 243 299 365 428
#     4  11  24  42  73 109 142 188 247 306 359 434
#     4  11  24  40  71 109 137 181 248 304 353 428
#
# _framework density 22.697998999999999
#
# number of rings (size 3 to 8) (size 9 to 14) (size 15 to 20)
#    0.000    1.000    5.000    2.250    3.500    4.000 
#    4.500    0.000    0.000    0.000    0.000    0.000 
#    0.000    0.000    0.000    0.000    0.000    0.000 
#
# Total GULP energy -44585.288279 kJ/mol
# GULP energy per Si atom -5573.161035 kJ/mol
# Density = 2.264634 g / cm^3
# Si number density = 22.697999 Si / 1000 Ang^3
#
#
#
# Elastic Constant Matrix: (Units=GPa)
#
#
# Indices 1 2 3 4 5 6 
#
# 1 150.3571 73.6235 50.7836 0.0013 9.6849 -0.0006
# 2 73.6235 170.3886 48.6922 0.0002 -12.3119 -0.0003
# 3 50.7836 48.6922 129.4584 0.0019 4.2142 -0.0001
# 4 0.0013 0.0002 0.0019 17.8391 0.0013 -15.4480
# 5 9.6849 -12.3119 4.2142 0.0013 22.4903 -0.0002
# 6 -0.0006 -0.0003 -0.0001 -15.4480 -0.0002 83.6482
#
#
#
# Elastic Compliance Matrix: (Units=1/GPa)
#
#
# Indices 1 2 3 4 5 6 
#
# 1 0.009722 -0.004034 -0.002101 0.000000 -0.006001 0.000000
# 2 -0.004034 0.008646 -0.001891 0.000000 0.006825 0.000000
# 3 -0.002101 -0.001891 0.009321 -0.000001 -0.001877 0.000000
# 4 0.000000 0.000000 -0.000001 0.066728 -0.000003 0.012323
# 5 -0.006001 0.006825 -0.001877 -0.000003 0.051136 -0.000001
# 6 0.000000 0.000000 0.000000 0.012323 -0.000001 0.014231
#
#
# Mechanical properties :
#
#
# Convention : Reuss Voigt Hill
#
# Bulk Modulus (GPa) = 85.94211 88.48917 87.21564
# Shear Modulus (GPa) = 27.82167 43.26919 35.54543
#
# Velocity S-wave (km/s) = 3.50484 4.37086 3.96159
# Velocity P-wave (km/s) = 7.37049 8.03384 7.70930
#
# Compressibility (1/GPa) = 0.01163574
#
# Stress axis : x y z
#
# Youngs Moduli (GPa) = 102.85470 115.66388 107.28143
#
# Poissons Ratio (x) = 0.46661 0.22542
# Poissons Ratio (y) = 0.41493 0.20292
# Poissons Ratio (z) = 0.21612 0.21878
#
# Static dielectric constant tensor:
#      x y z
#    x 2.096730 0.000000 0.008030 
#    y 0.000000 1.874980 0.000000 
#    z 0.008030 0.000000 1.745040 
# 
# From -- ./inp_files/11685.got.cif
#   From: 2010.05.17/outbox.cif.g08.bks.cpg/sg5_6_cif.got.tgz:11685.got - 2010.06.03 18:56:24.
