data_PCOD9129163
_publ_section_title
;
Structure prediction by ZEFSAII (Michael W. Deem and Ramdas Pophale) SiO2 
 PCOD9129163
Probable space group: C 2
;
_chemical_formula_sum "Si O2"
_cell_formula_units_Z 32
_cell_length_a 9.732562
_cell_length_b 17.490982
_cell_length_c 8.798190
_cell_angle_alpha 90.000000
_cell_angle_beta 88.664301
_cell_angle_gamma 90.000000
_cell_volume 1497.327102
_symmetry_space_group_name_H-M "C 2"
_symmetry_group_IT_number 5
_symmetry_cell_setting 'monoclinic'
loop_
_space_group_symop_operation_xyz
x,y,z
-x,y,-z
1/2+x,1/2+y,z
1/2-x,1/2+y,-z
loop_
_atom_site_type_symbol
_atom_site_label
_atom_site_fract_x
_atom_site_fract_y
_atom_site_fract_z
Si Si1 0.555795 0.891280 0.824840
Si Si2 0.204649 0.685261 0.805344
Si Si3 0.286612 0.517742 0.807967
Si Si4 0.925466 0.649429 0.650326
Si Si5 0.495559 0.399685 0.182204
Si Si6 0.213967 0.346223 0.324425
Si Si7 0.652015 0.085085 0.063903
Si Si8 0.729512 0.300621 0.335347
O O1 0.500000 0.120125 0.500000
O O2 0.660933 0.959866 0.777002
O O3 0.424160 0.887671 0.721347
O O4 0.647170 0.816031 0.785552
O O5 0.265709 0.603422 0.746605
O O6 0.281635 0.760737 0.751195
O O7 0.191070 0.667393 0.986621
O O8 0.049913 0.686666 0.745057
O O9 0.431760 0.479704 0.778165
O O10 0.262902 0.529014 0.990178
O O11 0.000000 0.394432 0.000000
O O12 0.813792 0.714477 0.624041
O O13 0.858830 0.586441 0.758179
O O14 0.345052 0.388349 0.250487
O O15 0.596353 0.339777 0.263663
O O16 0.500000 0.387970 0.000000
O O17 0.231408 0.338188 0.504436
O O18 0.500000 0.067526 0.000000
#
# Coordination Sequence:
#
# PCOD9129163 Si02
#       8
#     4   4   4   4   4   4   4   4
#     4  11  25  41  68  95 132 179 223 272 343 409
#     4   9  20  37  67  94 127 168 221 273 322 385
#     4   9  21  43  63  94 137 163 218 287 324 386
#     4  11  18  34  63 102 128 170 221 275 331 396
#     4  11  23  38  69  95 129 178 224 266 329 405
#     4  12  22  42  70 100 132 174 223 277 342 401
#     4   8  18  32  63  85 133 161 219 262 324 376
#     4  11  23  41  64  98 141 164 225 287 335 396
#
# _framework density 21.371416
#
# number of rings (size 3 to 8) (size 9 to 14) (size 15 to 20)
#    0.750    1.000    2.500    2.625    3.500    0.000 
#    0.000    4.375    2.750    3.000    0.000    0.000 
#    0.000    0.000    0.000    0.000    0.000    0.000 
#
# Total GULP energy -89227.293935 kJ/mol
# GULP energy per Si atom -5576.705871 kJ/mol
# Density = 2.132277 g / cm^3
# Si number density = 21.371416 Si / 1000 Ang^3
#
#
#
# Elastic Constant Matrix: (Units=GPa)
#
#
# Indices 1 2 3 4 5 6 
#
# 1 91.6480 43.2271 18.6815 0.0000 3.9202 0.0000
# 2 43.2271 89.7028 30.1745 0.0000 -6.6634 0.0000
# 3 18.6815 30.1745 76.6496 0.0000 1.6139 0.0000
# 4 0.0000 0.0000 0.0000 16.9801 0.0000 -6.7050
# 5 3.9202 -6.6634 1.6139 0.0000 31.0950 0.0000
# 6 0.0000 0.0000 0.0000 -6.7050 0.0000 28.1516
#
#
#
# Elastic Compliance Matrix: (Units=1/GPa)
#
#
# Indices 1 2 3 4 5 6 
#
# 1 0.014494 -0.006989 -0.000712 0.000000 -0.003288 0.000000
# 2 -0.006989 0.016509 -0.004894 0.000000 0.004673 0.000000
# 3 -0.000712 -0.004894 0.015183 0.000000 -0.001747 0.000000
# 4 0.000000 0.000000 0.000000 0.065006 0.000000 0.015483
# 5 -0.003288 0.004673 -0.001747 0.000000 0.033666 0.000000
# 6 0.000000 0.000000 0.000000 0.015483 0.000000 0.039209
#
#
# Mechanical properties :
#
#
# Convention : Reuss Voigt Hill
#
# Bulk Modulus (GPa) = 47.62811 49.12964 48.37888
# Shear Modulus (GPa) = 23.12061 26.30649 24.71355
#
# Velocity S-wave (km/s) = 3.29271 3.51225 3.40425
# Velocity P-wave (km/s) = 6.06549 6.28381 6.17562
#
# Compressibility (1/GPa) = 0.02099600
#
# Stress axis : x y z
#
# Youngs Moduli (GPa) = 68.99599 60.57158 65.86166
#
# Poissons Ratio (x) = 0.42334 0.04688
# Poissons Ratio (y) = 0.48222 0.32234
# Poissons Ratio (z) = 0.04911 0.29645
#
# Static dielectric constant tensor:
#      x y z
#    x 1.740610 0.000000 0.001190 
#    y 0.000000 1.839520 0.000000 
#    z 0.001190 0.000000 1.805500 
# 
# From -- ./inp_files/17210.got.cif
#   From: 2010.05.17/outbox.cif.g08.bks.cpg/sg5_9_cif.got.tgz:17210.got - 2010.06.03 18:56:24.
