data_PCOD9129460
_publ_section_title
;
Structure prediction by ZEFSAII (Michael W. Deem and Ramdas Pophale) SiO2 
 PCOD9129460
Probable space group: C 2
;
_chemical_formula_sum "Si O2"
_cell_formula_units_Z 26
_cell_length_a 9.842983
_cell_length_b 9.805684
_cell_length_c 27.293714
_cell_angle_alpha 90.000000
_cell_angle_beta 149.771659
_cell_angle_gamma 90.000000
_cell_volume 1326.237676
_symmetry_space_group_name_H-M "C 2"
_symmetry_group_IT_number 5
_symmetry_cell_setting 'monoclinic'
loop_
_space_group_symop_operation_xyz
x,y,z
-x,y,-z
1/2+x,1/2+y,z
1/2-x,1/2+y,-z
loop_
_atom_site_type_symbol
_atom_site_label
_atom_site_fract_x
_atom_site_fract_y
_atom_site_fract_z
Si Si1 0.218673 0.906920 0.437355
Si Si2 0.203809 0.712092 0.518480
Si Si3 0.760010 0.841412 0.728714
Si Si4 0.679139 0.172339 0.155815
Si Si5 0.923276 0.123637 0.796632
Si Si6 0.500000 0.140580 0.000000
Si Si7 0.311243 0.382699 0.223301
O O1 0.500000 0.863262 0.500000
O O2 0.119402 0.792252 0.443627
O O3 0.005217 0.931773 0.327822
O O4 0.271883 0.049858 0.481054
O O5 0.494442 0.772711 0.623995
O O6 0.000000 0.733495 0.500000
O O7 0.844420 0.761354 0.803733
O O8 0.996991 0.843218 0.762262
O O9 0.716774 0.000323 0.728942
O O10 0.508967 0.217917 0.055003
O O11 0.985192 0.172751 0.229095
O O12 0.629218 0.012596 0.152075
O O13 0.839034 0.250322 0.803122
O O14 0.211637 0.065928 0.907116
#
# Coordination Sequence:
#
# PCOD9129460 Si02
#       7
#     4   4   4   4   4   2   4
#     4  11  24  41  59  89 127 163 209 256 304 362
#     4  11  26  39  63  91 125 169 206 257 299 363
#     4  11  22  41  62  94 125 161 207 251 312 364
#     4   9  21  42  61  87 128 160 199 258 310 368
#     4   9  23  39  65  87 125 162 198 256 307 370
#     4   8  20  44  64  90 122 164 202 250 316 372
#     4  11  22  39  65  90 123 165 202 256 315 356
#
# _framework density 19.604327999999999
#
# number of rings (size 3 to 8) (size 9 to 14) (size 15 to 20)
#    0.923    0.923    3.077    0.000    4.308    4.308 
#    0.000    0.000    0.000    0.000    0.000    0.000 
#    0.000    0.000    0.000    0.000    0.000    0.000 
#
# Total GULP energy -72430.705998 kJ/mol
# GULP energy per Si atom -5571.592769 kJ/mol
# Density = 1.955971 g / cm^3
# Si number density = 19.604328 Si / 1000 Ang^3
#
#
#
# Elastic Constant Matrix: (Units=GPa)
#
#
# Indices 1 2 3 4 5 6 
#
# 1 90.1379 71.9237 11.2161 0.0000 -24.1128 0.0000
# 2 71.9237 100.7744 -2.6183 0.0000 -6.3083 0.0000
# 3 11.2161 -2.6183 36.8580 0.0001 -15.1482 0.0000
# 4 0.0000 0.0000 0.0001 18.7499 0.0000 -4.0301
# 5 -24.1128 -6.3083 -15.1482 0.0000 36.6284 0.0000
# 6 0.0000 0.0000 0.0000 -4.0301 0.0000 32.8079
#
#
#
# Elastic Compliance Matrix: (Units=1/GPa)
#
#
# Indices 1 2 3 4 5 6 
#
# 1 0.036453 -0.025085 -0.005768 0.000000 0.017292 0.000000
# 2 -0.025085 0.027383 0.005699 0.000000 -0.009441 0.000000
# 3 -0.005768 0.005699 0.033895 0.000000 0.011202 0.000000
# 4 0.000000 0.000000 0.000000 0.054780 0.000000 0.006729
# 5 0.017292 -0.009441 0.011202 0.000000 0.041691 0.000000
# 6 0.000000 0.000000 0.000000 0.006729 0.000000 0.031307
#
#
# Mechanical properties :
#
#
# Convention : Reuss Voigt Hill
#
# Bulk Modulus (GPa) = 21.08643 43.20146 32.14395
# Shear Modulus (GPa) = 17.14523 27.45383 22.29953
#
# Velocity S-wave (km/s) = 2.96051 3.74625 3.37631
# Velocity P-wave (km/s) = 4.73978 6.38725 5.62417
#
# Compressibility (1/GPa) = 0.04742386
#
# Stress axis : x y z
#
# Youngs Moduli (GPa) = 27.43234 36.51856 29.50272
#
# Poissons Ratio (x) = 0.91605 0.17017
# Poissons Ratio (y) = 0.68813 -0.16813
# Poissons Ratio (z) = 0.15823 -0.20811
#
# Static dielectric constant tensor:
#      x y z
#    x 1.682970 0.000000 -0.013340 
#    y 0.000000 1.681850 0.000000 
#    z -0.013340 0.000000 1.734320 
# 
# From -- ./inp_files/64408.got.cif
#   From: 2010.05.17/outbox.cif.g08.bks.cpg/sg5_33_cif.got.tgz:64408.got - 2010.06.03 18:56:24.
