data_PCOD9129776
_publ_section_title
;
Structure prediction by ZEFSAII (Michael W. Deem and Ramdas Pophale) SiO2 
 PCOD9129776
Probable space group: C 2
;
_chemical_formula_sum "Si O2"
_cell_formula_units_Z 28
_cell_length_a 20.072350
_cell_length_b 6.654903
_cell_length_c 9.981910
_cell_angle_alpha 90.000000
_cell_angle_beta 66.357342
_cell_angle_gamma 90.000000
_cell_volume 1221.461014
_symmetry_space_group_name_H-M "C 2"
_symmetry_group_IT_number 5
_symmetry_cell_setting 'monoclinic'
loop_
_space_group_symop_operation_xyz
x,y,z
-x,y,-z
1/2+x,1/2+y,z
1/2-x,1/2+y,-z
loop_
_atom_site_type_symbol
_atom_site_label
_atom_site_fract_x
_atom_site_fract_y
_atom_site_fract_z
Si Si1 0.246141 0.285410 0.836710
Si Si2 0.876782 0.061823 0.690273
Si Si3 0.095943 0.277799 0.074735
Si Si4 0.326787 0.049044 0.334361
Si Si5 0.500000 0.485718 0.000000
Si Si6 0.271806 0.896252 0.660351
Si Si7 0.491808 0.130059 0.213379
Si Si8 0.500000 0.292795 0.500000
O O1 0.319297 0.408951 0.805405
O O2 0.210686 0.391297 0.734831
O O3 0.263511 0.057977 0.783867
O O4 0.182637 0.300293 0.996413
O O5 0.921757 0.171454 0.770109
O O6 0.831934 0.229875 0.647793
O O7 0.928799 0.932758 0.553960
O O8 0.054496 0.488471 0.103524
O O9 0.067055 0.131711 0.981448
O O10 0.301269 0.269862 0.307753
O O11 0.413080 0.029749 0.261454
O O12 0.296575 0.010859 0.506917
O O13 0.510228 0.338523 0.865756
O O14 0.505145 0.167575 0.359702
#
# Coordination Sequence:
#
# PCOD9129776 Si02
#       8
#     4   4   4   4   2   4   4   2
#     4  11  25  47  71 105 147 189 243 309 365 439
#     4  11  29  46  70 109 145 194 245 302 374 442
#     4  12  28  47  76 110 143 199 252 300 380 455
#     4  11  23  43  72 107 139 186 248 295 375 433
#     4  12  24  52  72 110 150 188 256 302 374 448
#     4  11  24  43  74 103 142 190 242 309 368 437
#     4  12  28  46  78 109 153 200 241 314 376 440
#     4  12  28  52  74 110 156 192 254 312 378 440
#
# _framework density 22.923369000000001
#
# number of rings (size 3 to 8) (size 9 to 14) (size 15 to 20)
#    0.000    0.571    2.857    3.857   10.000    2.286 
#    0.000    0.000    0.000    0.000    0.000    0.000 
#    0.000    0.000    0.000    0.000    0.000    0.000 
#
# Total GULP energy -78444.154578 kJ/mol
# GULP energy per Si atom -5603.153898 kJ/mol
# Density = 2.287119 g / cm^3
# Si number density = 22.923369 Si / 1000 Ang^3
#
#
#
# Elastic Constant Matrix: (Units=GPa)
#
#
# Indices 1 2 3 4 5 6 
#
# 1 55.9652 32.0436 4.6004 0.0000 -2.0523 0.0000
# 2 32.0436 117.3163 29.3683 0.0000 -2.3043 0.0000
# 3 4.6004 29.3683 72.7106 0.0000 1.8468 0.0000
# 4 0.0000 0.0000 0.0000 37.0015 0.0000 7.7170
# 5 -2.0523 -2.3043 1.8468 0.0000 43.1987 0.0000
# 6 0.0000 0.0000 0.0000 7.7170 0.0000 30.9673
#
#
#
# Elastic Compliance Matrix: (Units=1/GPa)
#
#
# Indices 1 2 3 4 5 6 
#
# 1 0.021279 -0.006072 0.001090 0.000000 0.000640 0.000000
# 2 -0.006072 0.011235 -0.004166 0.000000 0.000489 0.000000
# 3 0.001090 -0.004166 0.015388 0.000000 -0.000828 0.000000
# 4 0.000000 0.000000 0.000000 0.028507 0.000000 -0.007104
# 5 0.000640 0.000489 -0.000828 0.000000 0.023241 0.000000
# 6 0.000000 0.000000 0.000000 -0.007104 0.000000 0.034062
#
#
# Mechanical properties :
#
#
# Convention : Reuss Voigt Hill
#
# Bulk Modulus (GPa) = 33.77794 42.00185 37.88990
# Shear Modulus (GPa) = 30.88746 34.23216 32.55981
#
# Velocity S-wave (km/s) = 3.67471 3.86856 3.77288
# Velocity P-wave (km/s) = 5.72466 6.19006 5.96190
#
# Compressibility (1/GPa) = 0.02960512
#
# Stress axis : x y z
#
# Youngs Moduli (GPa) = 46.99473 89.00667 64.98587
#
# Poissons Ratio (x) = 0.54049 -0.07084
# Poissons Ratio (y) = 0.28537 0.27074
# Poissons Ratio (z) = -0.05123 0.37082
#
# Static dielectric constant tensor:
#      x y z
#    x 1.841140 0.000000 0.004480 
#    y 0.000000 1.827730 0.000000 
#    z 0.004480 0.000000 1.838450 
# 
# From -- ./inp_files/45431.got.cif
#   From: 2010.05.17/outbox.cif.g08.bks.cpg/sg5_23_cif.got.tgz:45431.got - 2010.06.03 18:56:24.
