data_PCOD9129991
_publ_section_title
;
Structure prediction by ZEFSAII (Michael W. Deem and Ramdas Pophale) SiO2 
 PCOD9129991
Probable space group: C 2
;
_chemical_formula_sum "Si O2"
_cell_formula_units_Z 26
_cell_length_a 18.067673
_cell_length_b 11.732634
_cell_length_c 5.438996
_cell_angle_alpha 90.000000
_cell_angle_beta 106.869961
_cell_angle_gamma 90.000000
_cell_volume 1103.349061
_symmetry_space_group_name_H-M "C 2"
_symmetry_group_IT_number 5
_symmetry_cell_setting 'monoclinic'
loop_
_space_group_symop_operation_xyz
x,y,z
-x,y,-z
1/2+x,1/2+y,z
1/2-x,1/2+y,-z
loop_
_atom_site_type_symbol
_atom_site_label
_atom_site_fract_x
_atom_site_fract_y
_atom_site_fract_z
Si Si1 0.864021 0.759720 0.543476
Si Si2 0.257916 0.916665 0.415896
Si Si3 0.765077 0.121912 0.832161
Si Si4 0.000000 0.303578 0.000000
Si Si5 0.000000 0.831341 0.000000
Si Si6 0.660566 0.866550 0.008246
Si Si7 0.882382 0.977623 0.217152
Si Si8 0.500000 0.664511 0.500000
O O1 0.796324 0.804604 0.661653
O O2 0.821965 0.665164 0.328564
O O3 0.871808 0.871942 0.385766
O O4 0.946272 0.753575 0.765129
O O5 0.314839 0.909491 0.236041
O O6 0.214145 0.038333 0.373405
O O7 0.303382 0.916974 0.711087
O O8 0.812492 0.234932 0.935371
O O9 0.800438 0.031720 0.062069
O O10 0.929745 0.376027 0.034925
O O11 0.020670 0.231109 0.266656
O O12 0.937538 0.917050 0.064464
O O13 0.930076 0.081530 0.369454
#
# Coordination Sequence:
#
# PCOD9129991 Si02
#       8
#     4   4   4   2   2   4   4   2
#     4  11  26  43  73 107 146 194 246 312 380 447
#     4  11  25  46  67 102 143 188 240 302 360 444
#     4  11  24  44  71 103 145 192 243 297 377 445
#     4  12  25  46  71 106 144 190 239 312 367 446
#     4  12  23  46  71 106 158 182 251 326 373 442
#     4  11  26  44  72 103 141 186 241 299 366 433
#     4  12  24  43  71 108 147 190 249 312 380 442
#     4  12  24  38  72 108 144 184 242 312 390 424
#
# _framework density 23.564617999999999
#
# number of rings (size 3 to 8) (size 9 to 14) (size 15 to 20)
#    0.000    0.615    4.615    3.231    2.154    3.692 
#    0.000    0.769    3.385    0.000    0.000    0.000 
#    0.000    0.000    0.000    0.000    0.000    0.000 
#
# Total GULP energy -72374.658855 kJ/mol
# GULP energy per Si atom -5567.281450 kJ/mol
# Density = 2.351098 g / cm^3
# Si number density = 23.564618 Si / 1000 Ang^3
#
#
#
# Elastic Constant Matrix: (Units=GPa)
#
#
# Indices 1 2 3 4 5 6 
#
# 1 130.3855 23.5612 78.5536 0.0000 3.8848 0.0000
# 2 23.5612 36.7919 22.0740 0.0000 0.1603 0.0000
# 3 78.5536 22.0740 137.1043 0.0000 8.3493 0.0000
# 4 0.0000 0.0000 0.0000 42.0315 0.0000 1.5248
# 5 3.8848 0.1603 8.3493 0.0000 58.1890 0.0000
# 6 0.0000 0.0000 0.0000 1.5248 0.0000 -16.1583
#
#
#
# Elastic Compliance Matrix: (Units=1/GPa)
#
#
# Indices 1 2 3 4 5 6 
#
# 1 0.012226 -0.004011 -0.006366 0.000000 0.000108 0.000000
# 2 -0.004011 0.031424 -0.002797 0.000000 0.000582 0.000000
# 3 -0.006366 -0.002797 0.011465 0.000000 -0.001212 0.000000
# 4 0.000000 0.000000 0.000000 0.023710 0.000000 0.002238
# 5 0.000108 0.000582 -0.001212 0.000000 0.017351 0.000000
# 6 0.000000 0.000000 0.000000 0.002238 0.000000 -0.061677
#
#
# Mechanical properties :
#
#
# Convention : Reuss Voigt Hill
#
# Bulk Modulus (GPa) = 34.76038 61.40660 48.08349
# Shear Modulus (GPa) = 70.98601 28.81863 49.90232
#
# Velocity S-wave (km/s) = 5.49449 3.50088 4.60682
# Velocity P-wave (km/s) = 7.41860 6.51590 6.98185
#
# Compressibility (1/GPa) = 0.02876839
#
# Stress axis : x y z
#
# Youngs Moduli (GPa) = 81.79014 31.82299 87.22050
#
# Poissons Ratio (x) = 0.12763 0.55524
# Poissons Ratio (y) = 0.32804 0.24394
# Poissons Ratio (z) = 0.52067 0.08900
#
# Static dielectric constant tensor:
#      x y z
#    x 2.023260 0.000000 -0.015620 
#    y 0.000000 1.906820 0.000000 
#    z -0.015620 0.000000 2.042980 
# 
# From -- ./inp_files/9492.got.cif
#   From: 2010.05.17/outbox.cif.g08.bks.cpg/sg5_5_cif.got.tgz:9492.got - 2010.06.03 18:56:24.
