data_PCOD9129702
_publ_section_title
;
Structure prediction by ZEFSAII (Michael W. Deem and Ramdas Pophale) SiO2 
 PCOD9129702
Probable space group: C 2
;
_chemical_formula_sum "Si O2"
_cell_formula_units_Z 12
_cell_length_a 5.002916
_cell_length_b 13.991962
_cell_length_c 8.215573
_cell_angle_alpha 90.000000
_cell_angle_beta 87.974526
_cell_angle_gamma 90.000000
_cell_volume 574.735813
_symmetry_space_group_name_H-M "C 2"
_symmetry_group_IT_number 5
_symmetry_cell_setting 'monoclinic'
loop_
_space_group_symop_operation_xyz
x,y,z
-x,y,-z
1/2+x,1/2+y,z
1/2-x,1/2+y,-z
loop_
_atom_site_type_symbol
_atom_site_label
_atom_site_fract_x
_atom_site_fract_y
_atom_site_fract_z
Si Si1 0.241164 0.546610 0.619036
Si Si2 0.614584 0.261472 0.680453
Si Si3 0.618166 0.862297 0.817788
O O1 0.500000 0.544539 0.500000
O O2 0.203767 0.651669 0.695367
O O3 0.231045 0.462728 0.750314
O O4 0.000000 0.531401 0.500000
O O5 0.500000 0.275334 0.500000
O O6 0.366458 0.289457 0.800089
O O7 0.873211 0.325806 0.710733
O O8 0.500000 0.869769 0.000000
#
# Coordination Sequence:
#
# PCOD9129702 Si02
#       3
#     4   4   4
#     4  11  23  41  66  91 119 163 213 254 297 361
#     4  11  23  43  66  90 122 165 213 253 298 364
#     4  12  25  40  63  95 130 162 197 255 318 367
#
# _framework density 20.879158
#
# number of rings (size 3 to 8) (size 9 to 14) (size 15 to 20)
#    0.000    0.667    0.000   11.000    0.000    2.667 
#    0.000    0.000    0.000    0.000    0.000    0.000 
#    0.000    0.000    0.000    0.000    0.000    0.000 
#
# Total GULP energy -33594.755633 kJ/mol
# GULP energy per Si atom -5599.125939 kJ/mol
# Density = 2.083164 g / cm^3
# Si number density = 20.879158 Si / 1000 Ang^3
#
#
#
# Elastic Constant Matrix: (Units=GPa)
#
#
# Indices 1 2 3 4 5 6 
#
# 1 166.5788 70.1764 49.6470 0.0000 -39.5078 0.0000
# 2 70.1764 170.4386 94.5495 0.0000 -31.3440 0.0000
# 3 49.6470 94.5495 108.3248 0.0000 -44.8696 0.0000
# 4 0.0000 0.0000 0.0000 11.8059 0.0000 -16.1370
# 5 -39.5078 -31.3440 -44.8696 0.0000 51.9459 0.0000
# 6 0.0000 0.0000 0.0000 -16.1370 0.0000 33.8440
#
#
#
# Elastic Compliance Matrix: (Units=1/GPa)
#
#
# Indices 1 2 3 4 5 6 
#
# 1 0.008217 -0.002986 0.001063 0.000000 0.005366 0.000000
# 2 -0.002986 0.012702 -0.011654 0.000000 -0.004673 0.000000
# 3 0.001063 -0.011654 0.025441 0.000000 0.015752 0.000000
# 4 0.000000 0.000000 0.000000 0.243210 0.000000 0.115964
# 5 0.005366 -0.004673 0.015752 0.000000 0.034118 0.000000
# 6 0.000000 0.000000 0.000000 0.115964 0.000000 0.084840
#
#
# Mechanical properties :
#
#
# Convention : Reuss Voigt Hill
#
# Bulk Modulus (GPa) = 52.06729 97.12089 74.59409
# Shear Modulus (GPa) = 11.31005 34.91712 23.11359
#
# Velocity S-wave (km/s) = 2.32995 4.09387 3.33080
# Velocity P-wave (km/s) = 5.67713 8.30440 7.11312
#
# Compressibility (1/GPa) = 0.01920592
#
# Stress axis : x y z
#
# Youngs Moduli (GPa) = 121.69901 78.72534 39.30675
#
# Poissons Ratio (x) = 0.23509 -0.04179
# Poissons Ratio (y) = 0.36342 0.45809
# Poissons Ratio (z) = -0.12938 0.91747
#
# Static dielectric constant tensor:
#      x y z
#    x 1.716160 0.000000 0.017120 
#    y 0.000000 1.772240 0.000000 
#    z 0.017120 0.000000 1.719880 
# 
# From -- ./inp_files/11369.got.cif
#   From: 2010.05.17/outbox.cif.g08.bks.cpg/sg5_6_cif.got.tgz:11369.got - 2010.06.03 18:56:24.
