data_PCOD9129384
_publ_section_title
;
Structure prediction by ZEFSAII (Michael W. Deem and Ramdas Pophale) SiO2 
 PCOD9129384
Probable space group: C 2
;
_chemical_formula_sum "Si O2"
_cell_formula_units_Z 26
_cell_length_a 10.985394
_cell_length_b 11.619717
_cell_length_c 14.566044
_cell_angle_alpha 90.000000
_cell_angle_beta 34.785821
_cell_angle_gamma 90.000000
_cell_volume 1060.758026
_symmetry_space_group_name_H-M "C 2"
_symmetry_group_IT_number 5
_symmetry_cell_setting 'monoclinic'
loop_
_space_group_symop_operation_xyz
x,y,z
-x,y,-z
1/2+x,1/2+y,z
1/2-x,1/2+y,-z
loop_
_atom_site_type_symbol
_atom_site_label
_atom_site_fract_x
_atom_site_fract_y
_atom_site_fract_z
Si Si1 0.500000 0.137411 0.500000
Si Si2 0.608441 0.491335 0.330211
Si Si3 0.491381 0.425558 0.115993
Si Si4 0.529134 0.911592 0.143750
Si Si5 0.845254 0.456766 0.445025
Si Si6 0.134437 0.247197 0.329465
Si Si7 0.899983 0.188973 0.163722
O O1 0.657568 0.216887 0.342887
O O2 0.400516 0.054295 0.484004
O O3 0.500000 0.482190 0.500000
O O4 0.842617 0.434021 0.185172
O O5 0.409519 0.442310 0.395441
O O6 0.658128 0.623439 0.267992
O O7 0.343264 0.317503 0.233070
O O8 0.397436 0.552829 0.184725
O O9 0.500000 0.409379 0.000000
O O10 0.722543 0.436132 0.018651
O O11 0.439261 0.984841 0.285716
O O12 0.529682 0.772453 0.150387
O O13 0.982110 0.342434 0.378569
O O14 0.000000 0.212419 0.500000
O O15 0.000000 0.202261 0.000000
#
# Coordination Sequence:
#
# PCOD9129384 Si02
#       7
#     2   4   4   4   4   4   4
#     4  12  24  46  82 106 146 198 250 308 366 458
#     4   9  24  41  67 102 146 187 234 310 364 436
#     4  11  22  44  71  97 142 187 241 299 363 441
#     4  11  25  46  69 105 154 190 241 314 374 441
#     4  11  21  43  70 111 138 187 249 293 373 439
#     4  11  21  43  67 103 138 186 243 296 363 439
#     4  11  26  48  72 111 147 196 250 307 373 445
#
# _framework density 24.510773
#
# number of rings (size 3 to 8) (size 9 to 14) (size 15 to 20)
#    0.000    1.231    3.846    0.923    7.538    0.000 
#    8.308    0.769    0.000    0.000    0.000    0.000 
#    0.000    0.000    0.000    0.000    0.000    0.000 
#
# Total GULP energy -72471.931414 kJ/mol
# GULP energy per Si atom -5574.763955 kJ/mol
# Density = 2.445499 g / cm^3
# Si number density = 24.510773 Si / 1000 Ang^3
#
#
#
# Elastic Constant Matrix: (Units=GPa)
#
#
# Indices 1 2 3 4 5 6 
#
# 1 66.0162 12.6304 50.5375 -0.0008 -26.1187 0.0003
# 2 12.6304 82.5769 39.1267 -0.0012 -10.6099 0.0009
# 3 50.5375 39.1267 171.1129 -0.0019 -23.0172 0.0017
# 4 -0.0008 -0.0012 -0.0019 84.3377 0.0008 -0.4338
# 5 -26.1187 -10.6099 -23.0172 0.0008 61.3181 -0.0003
# 6 0.0003 0.0009 0.0017 -0.4338 -0.0003 -6.7753
#
#
#
# Elastic Compliance Matrix: (Units=1/GPa)
#
#
# Indices 1 2 3 4 5 6 
#
# 1 0.022385 0.000214 -0.005659 0.000000 0.007448 -0.000001
# 2 0.000214 0.013675 -0.003012 0.000000 0.001327 0.000001
# 3 -0.005659 -0.003012 0.008225 0.000000 0.000156 0.000001
# 4 0.000000 0.000000 0.000000 0.011853 0.000000 -0.000759
# 5 0.007448 0.001327 0.000156 0.000000 0.019769 0.000000
# 6 -0.000001 0.000001 0.000001 -0.000759 0.000000 -0.147546
#
#
# Mechanical properties :
#
#
# Convention : Reuss Voigt Hill
#
# Bulk Modulus (GPa) = 36.53227 58.25503 47.39365
# Shear Modulus (GPa) = -109.64392 42.27018 -33.68687
#
# Velocity S-wave (km/s) = -6.69553 4.15728 -3.71127
# Velocity P-wave (km/s) = 6.69601 6.84563 1.00653
#
# Compressibility (1/GPa) = 0.02737306
#
# Stress axis : x y z
#
# Youngs Moduli (GPa) = 44.67193 73.12824 121.58127
#
# Poissons Ratio (x) = -0.01566 0.68797
# Poissons Ratio (y) = -0.00957 0.36616
# Poissons Ratio (z) = 0.25278 0.22023
#
# Static dielectric constant tensor:
#      x y z
#    x 1.968530 0.000000 -0.061920 
#    y 0.000000 2.007310 0.000000 
#    z -0.061920 0.000000 1.978440 
# 
# From -- ./inp_files/60459.got.cif
#   From: 2010.05.17/outbox.cif.g08.bks.cpg/sg5_31_cif.got.tgz:60459.got - 2010.06.03 18:56:24.
