data_PCOD9129055
_publ_section_title
;
Structure prediction by ZEFSAII (Michael W. Deem and Ramdas Pophale) SiO2 
 PCOD9129055
Probable space group: C 2
;
_chemical_formula_sum "Si O2"
_cell_formula_units_Z 20
_cell_length_a 11.895820
_cell_length_b 10.608156
_cell_length_c 11.959953
_cell_angle_alpha 90.000000
_cell_angle_beta 145.147580
_cell_angle_gamma 90.000000
_cell_volume 862.488051
_symmetry_space_group_name_H-M "C 2"
_symmetry_group_IT_number 5
_symmetry_cell_setting 'monoclinic'
loop_
_space_group_symop_operation_xyz
x,y,z
-x,y,-z
1/2+x,1/2+y,z
1/2-x,1/2+y,-z
loop_
_atom_site_type_symbol
_atom_site_label
_atom_site_fract_x
_atom_site_fract_y
_atom_site_fract_z
Si Si1 0.578018 0.933100 0.688298
Si Si2 0.948060 0.193546 0.176321
Si Si3 0.157459 0.107026 0.546052
Si Si4 0.000000 0.057904 0.000000
Si Si5 0.486496 0.197422 0.270859
Si Si6 0.000000 0.871936 0.500000
O O1 0.500000 0.917898 0.500000
O O2 0.526723 0.823634 0.735238
O O3 0.475031 0.059011 0.649072
O O4 0.811110 0.971483 0.874814
O O5 0.048550 0.153670 0.141839
O O6 0.033189 0.090135 0.330992
O O7 0.718356 0.192929 0.960434
O O8 0.334971 0.202589 0.670613
O O9 0.000000 0.167843 0.500000
O O10 0.181217 0.969583 0.622836
O O11 0.479099 0.290409 0.370494
#
# Coordination Sequence:
#
# PCOD9129055 Si02
#       6
#     4   4   4   2   4   2
#     4  11  24  44  73 105 140 186 233 292 355 416
#     4  11  26  44  72 106 140 184 240 291 347 426
#     4  10  26  47  72 102 144 187 235 291 353 414
#     4  10  26  48  66 104 142 186 236 288 352 418
#     4  11  25  46  74 106 141 194 234 287 366 411
#     4  10  26  50  72 102 148 186 238 296 340 440
#
# _framework density 23.188727
#
# number of rings (size 3 to 8) (size 9 to 14) (size 15 to 20)
#    0.600    0.800    1.000    1.800   11.200    4.000 
#    0.000    2.000    0.000    0.000    0.000    0.000 
#    0.000    0.000    0.000    0.000    0.000    0.000 
#
# Total GULP energy -55743.420543 kJ/mol
# GULP energy per Si atom -5574.342054 kJ/mol
# Density = 2.313595 g / cm^3
# Si number density = 23.188727 Si / 1000 Ang^3
#
#
#
# Elastic Constant Matrix: (Units=GPa)
#
#
# Indices 1 2 3 4 5 6 
#
# 1 81.2706 11.6950 -5.1202 0.0099 -0.1798 -0.0057
# 2 11.6950 116.8149 3.6180 0.0081 -15.9669 -0.0046
# 3 -5.1202 3.6180 56.5884 0.0097 3.2615 -0.0053
# 4 0.0099 0.0081 0.0097 914.2183 0.0128 -525.3499
# 5 -0.1798 -15.9669 3.2615 0.0128 50.3754 -0.0068
# 6 -0.0057 -0.0046 -0.0053 -525.3499 -0.0068 278.9683
#
#
#
# Elastic Compliance Matrix: (Units=1/GPa)
#
#
# Indices 1 2 3 4 5 6 
#
# 1 0.012578 -0.001362 0.001252 0.000000 -0.000468 0.000000
# 2 -0.001362 0.009127 -0.000876 0.000000 0.002945 0.000000
# 3 0.001252 -0.000876 0.017923 0.000000 -0.001434 0.000000
# 4 0.000000 0.000000 0.000000 -0.013313 0.000000 -0.025071
# 5 -0.000468 0.002945 -0.001434 0.000000 0.020875 0.000000
# 6 0.000000 0.000000 0.000000 -0.025071 0.000000 -0.043629
#
#
# Mechanical properties :
#
#
# Convention : Reuss Voigt Hill
#
# Bulk Modulus (GPa) = 26.55638 30.56217 28.55928
# Shear Modulus (GPa) = 276.44435 265.01114 270.72775
#
# Velocity S-wave (km/s) = 10.93041 10.70199 10.81680
# Velocity P-wave (km/s) = 13.06811 12.88093 12.97486
#
# Compressibility (1/GPa) = 0.03765574
#
# Stress axis : x y z
#
# Youngs Moduli (GPa) = 79.50121 109.57048 55.79286
#
# Poissons Ratio (x) = 0.14924 -0.06986
# Poissons Ratio (y) = 0.10828 0.04890
# Poissons Ratio (z) = -0.09955 0.09604
#
# Static dielectric constant tensor:
#      x y z
#    x -22.212370 -0.000020 4.099850 
#    y -0.000020 1.927590 0.000000 
#    z 4.099850 0.000000 1.270770 
# 
# From -- ./inp_files/38993.got.cif
#   From: 2010.05.17/outbox.cif.g08.bks.cpg/sg5_20_cif.got.tgz:38993.got - 2010.06.03 18:56:24.
