data_PCOD9129889
_publ_section_title
;
Structure prediction by ZEFSAII (Michael W. Deem and Ramdas Pophale) SiO2 
 PCOD9129889
Probable space group: C 2
;
_chemical_formula_sum "Si O2"
_cell_formula_units_Z 28
_cell_length_a 10.232693
_cell_length_b 9.918053
_cell_length_c 13.155959
_cell_angle_alpha 90.000000
_cell_angle_beta 68.703937
_cell_angle_gamma 90.000000
_cell_volume 1244.006131
_symmetry_space_group_name_H-M "C 2"
_symmetry_group_IT_number 5
_symmetry_cell_setting 'monoclinic'
loop_
_space_group_symop_operation_xyz
x,y,z
-x,y,-z
1/2+x,1/2+y,z
1/2-x,1/2+y,-z
loop_
_atom_site_type_symbol
_atom_site_label
_atom_site_fract_x
_atom_site_fract_y
_atom_site_fract_z
Si Si1 0.500000 0.375000 0.500000
Si Si2 0.671277 0.625499 0.072217
Si Si3 0.500000 0.792307 0.500000
Si Si4 0.256907 0.914735 0.296397
Si Si5 0.319485 0.328412 0.907883
Si Si6 0.194613 0.869994 0.618453
Si Si7 0.935304 0.161506 0.309032
Si Si8 0.109468 0.674488 0.814350
O O1 0.628171 0.450008 0.407034
O O2 0.587025 0.303633 0.566324
O O3 0.667565 0.470346 0.035127
O O4 0.542913 0.649397 0.185158
O O5 0.808717 0.650372 0.103864
O O6 0.688391 0.738075 0.980730
O O7 0.354352 0.872894 0.536590
O O8 0.504171 0.706892 0.395385
O O9 0.195832 0.881804 0.202530
O O10 0.325882 0.777938 0.314165
O O11 0.369590 0.033919 0.251883
O O12 0.454459 0.231810 0.873770
O O13 0.184744 0.786875 0.724759
O O14 0.138707 0.019328 0.652838
#
# Coordination Sequence:
#
# PCOD9129889 Si02
#       8
#     2   4   2   4   4   4   4   4
#     4  12  23  47  72 106 149 195 234 296 365 427
#     4  11  25  46  74 102 140 188 240 297 365 426
#     4  12  27  45  76 110 145 197 238 296 365 441
#     4  11  27  42  73 105 146 187 235 297 362 430
#     4  11  25  48  72 103 140 187 240 298 362 430
#     4  12  25  44  75 102 146 191 242 288 363 432
#     4  12  26  46  68 108 146 185 240 303 359 430
#     4  11  23  47  71 102 137 187 238 291 361 429
#
# _framework density 22.507930000000002
#
# number of rings (size 3 to 8) (size 9 to 14) (size 15 to 20)
#    0.000    0.571    5.714    1.714    4.000    3.429 
#    2.571    0.000    0.000    0.000    0.000    0.000 
#    0.000    0.000    0.000    0.000    0.000    0.000 
#
# Total GULP energy -78267.861019 kJ/mol
# GULP energy per Si atom -5590.561501 kJ/mol
# Density = 2.245670 g / cm^3
# Si number density = 22.507930 Si / 1000 Ang^3
#
#
#
# Elastic Constant Matrix: (Units=GPa)
#
#
# Indices 1 2 3 4 5 6 
#
# 1 92.2396 40.0582 19.4690 0.0000 -27.0305 0.0000
# 2 40.0582 122.4949 51.3497 0.0000 -25.1574 0.0000
# 3 19.4690 51.3497 124.3664 0.0000 -39.5088 0.0000
# 4 0.0000 0.0000 0.0000 12.0467 0.0000 -0.4308
# 5 -27.0305 -25.1574 -39.5088 0.0000 40.4695 0.0000
# 6 0.0000 0.0000 0.0000 -0.4308 0.0000 38.7053
#
#
#
# Elastic Compliance Matrix: (Units=1/GPa)
#
#
# Indices 1 2 3 4 5 6 
#
# 1 0.014910 -0.003848 0.002404 0.000000 0.009914 0.000000
# 2 -0.003848 0.011146 -0.003791 0.000000 0.000658 0.000000
# 3 0.002404 -0.003791 0.013033 0.000000 0.011973 0.000000
# 4 0.000000 0.000000 0.000000 0.083043 0.000000 0.000924
# 5 0.009914 0.000658 0.011973 0.000000 0.043430 0.000000
# 6 0.000000 0.000000 0.000000 0.000924 0.000000 0.025847
#
#
# Mechanical properties :
#
#
# Convention : Reuss Voigt Hill
#
# Bulk Modulus (GPa) = 34.93963 62.31719 48.62841
# Shear Modulus (GPa) = 23.64987 33.45922 28.55454
#
# Velocity S-wave (km/s) = 3.24502 3.85977 3.56567
# Velocity P-wave (km/s) = 5.44033 6.90004 6.21320
#
# Compressibility (1/GPa) = 0.02862080
#
# Stress axis : x y z
#
# Youngs Moduli (GPa) = 67.06864 89.71773 76.72745
#
# Poissons Ratio (x) = 0.34519 -0.18445
# Poissons Ratio (y) = 0.25805 0.29085
# Poissons Ratio (z) = -0.16123 0.34009
#
# Static dielectric constant tensor:
#      x y z
#    x 1.885720 0.000000 -0.000570 
#    y 0.000000 1.825310 0.000000 
#    z -0.000570 0.000000 1.909640 
# 
# From -- ./inp_files/52393.got.cif
#   From: 2010.05.17/outbox.cif.g08.bks.cpg/sg5_27_cif.got.tgz:52393.got - 2010.06.03 18:56:24.
