data_PCOD9129403
_publ_section_title
;
Structure prediction by ZEFSAII (Michael W. Deem and Ramdas Pophale) SiO2 
 PCOD9129403
Probable space group: C 2
;
_chemical_formula_sum "Si O2"
_cell_formula_units_Z 30
_cell_length_a 8.886623
_cell_length_b 16.795348
_cell_length_c 14.576123
_cell_angle_alpha 90.000000
_cell_angle_beta 41.062580
_cell_angle_gamma 90.000000
_cell_volume 1429.077489
_symmetry_space_group_name_H-M "C 2"
_symmetry_group_IT_number 5
_symmetry_cell_setting 'monoclinic'
loop_
_space_group_symop_operation_xyz
x,y,z
-x,y,-z
1/2+x,1/2+y,z
1/2-x,1/2+y,-z
loop_
_atom_site_type_symbol
_atom_site_label
_atom_site_fract_x
_atom_site_fract_y
_atom_site_fract_z
Si Si1 0.000000 0.865751 0.000000
Si Si2 0.169878 0.480861 0.800326
Si Si3 0.886694 0.137972 0.154267
Si Si4 0.435073 0.049893 0.424307
Si Si5 0.348132 0.484321 0.910752
Si Si6 0.942899 0.255624 0.771546
Si Si7 0.270662 0.892277 0.393685
Si Si8 0.044532 0.129764 0.379804
O O1 0.775376 0.811097 0.109181
O O2 0.036776 0.922472 0.071993
O O3 0.326130 0.458556 0.815309
O O4 0.135278 0.405919 0.751814
O O5 0.294037 0.551949 0.688901
O O6 0.913655 0.504092 0.943420
O O7 0.625806 0.103114 0.281878
O O8 0.940288 0.214970 0.192738
O O9 0.018548 0.065830 0.142439
O O10 0.000000 0.146331 0.000000
O O11 0.500000 0.035180 0.500000
O O12 0.203139 0.099733 0.536552
O O13 0.373795 0.964779 0.405628
O O14 0.131302 0.306347 0.627439
O O15 0.858081 0.186798 0.742063
O O16 0.000000 0.896253 0.500000
O O17 0.000000 0.166082 0.500000
#
# Coordination Sequence:
#
# PCOD9129403 Si02
#       8
#     2   4   4   4   4   4   4   4
#     4  12  26  48  70 102 148 178 228 296 360 418
#     4  11  21  44  73 102 131 186 240 281 341 425
#     4  12  26  42  74 107 142 187 238 289 355 418
#     4  12  23  45  78 104 136 187 248 286 342 433
#     4  11  23  42  75 100 136 185 239 282 341 433
#     4  12  29  45  67 109 150 177 226 309 363 403
#     4  12  25  46  71 101 145 181 233 295 358 411
#     4  12  25  45  71 105 136 188 237 291 348 421
#
# _framework density 20.992563000000001
#
# number of rings (size 3 to 8) (size 9 to 14) (size 15 to 20)
#    0.000    0.267    7.333    1.600    3.733    1.600 
#    2.400    0.000    0.000    0.000    0.000    0.000 
#    0.000    0.000    0.000    0.000    0.000    0.000 
#
# Total GULP energy -83726.164918 kJ/mol
# GULP energy per Si atom -5581.744328 kJ/mol
# Density = 2.094478 g / cm^3
# Si number density = 20.992563 Si / 1000 Ang^3
#
#
#
# Elastic Constant Matrix: (Units=GPa)
#
#
# Indices 1 2 3 4 5 6 
#
# 1 103.5379 38.4080 22.2574 0.0000 3.3212 0.0003
# 2 38.4080 96.6834 25.8171 -0.0001 -7.9654 0.0001
# 3 22.2574 25.8171 77.8806 -0.0004 -9.8674 -0.0004
# 4 0.0000 -0.0001 -0.0004 36.3399 -0.0001 -1.4538
# 5 3.3212 -7.9654 -9.8674 -0.0001 44.9852 0.0003
# 6 0.0003 0.0001 -0.0004 -1.4538 0.0003 13.1493
#
#
#
# Elastic Compliance Matrix: (Units=1/GPa)
#
#
# Indices 1 2 3 4 5 6 
#
# 1 0.011785 -0.004262 -0.002223 0.000000 -0.002112 0.000000
# 2 -0.004262 0.012954 -0.002824 0.000000 0.001989 0.000000
# 3 -0.002223 -0.002824 0.014780 0.000000 0.002906 0.000000
# 4 0.000000 0.000000 0.000000 0.027640 0.000000 0.003056
# 5 -0.002112 0.001989 0.002906 0.000000 0.023375 0.000000
# 6 0.000000 0.000000 0.000000 0.003056 0.000000 0.076388
#
#
# Mechanical properties :
#
#
# Convention : Reuss Voigt Hill
#
# Bulk Modulus (GPa) = 47.84513 50.11857 48.98185
# Shear Modulus (GPa) = 25.97306 31.66949 28.82127
#
# Velocity S-wave (km/s) = 3.52127 3.88829 3.70932
# Velocity P-wave (km/s) = 6.27483 6.63963 6.45980
#
# Compressibility (1/GPa) = 0.02090077
#
# Stress axis : x y z
#
# Youngs Moduli (GPa) = 84.85412 77.19515 67.65995
#
# Poissons Ratio (x) = 0.32901 0.15039
# Poissons Ratio (y) = 0.36166 0.19109
# Poissons Ratio (z) = 0.18861 0.21801
#
# Static dielectric constant tensor:
#      x y z
#    x 1.709360 0.000000 0.163950 
#    y 0.000000 1.706590 0.000000 
#    z 0.163950 0.000000 1.462890 
# 
# From -- ./inp_files/51377.got.cif
#   From: 2010.05.17/outbox.cif.g08.bks.cpg/sg5_26_cif.got.tgz:51377.got - 2010.06.03 18:56:24.
