data_PCOD9129548
_publ_section_title
;
Structure prediction by ZEFSAII (Michael W. Deem and Ramdas Pophale) SiO2 
 PCOD9129548
Probable space group: C 2
;
_chemical_formula_sum "Si O2"
_cell_formula_units_Z 14
_cell_length_a 5.306221
_cell_length_b 26.883603
_cell_length_c 4.840520
_cell_angle_alpha 90.000000
_cell_angle_beta 126.858964
_cell_angle_gamma 90.000000
_cell_volume 552.480505
_symmetry_space_group_name_H-M "C 2"
_symmetry_group_IT_number 5
_symmetry_cell_setting 'monoclinic'
loop_
_space_group_symop_operation_xyz
x,y,z
-x,y,-z
1/2+x,1/2+y,z
1/2-x,1/2+y,-z
loop_
_atom_site_type_symbol
_atom_site_label
_atom_site_fract_x
_atom_site_fract_y
_atom_site_fract_z
Si Si1 0.000000 0.319180 0.500000
Si Si2 0.000000 0.605302 0.000000
Si Si3 0.000000 0.531126 0.500000
Si Si4 0.000000 0.885145 0.500000
Si Si5 0.500000 0.676187 0.500000
Si Si6 0.000000 0.953329 0.000000
Si Si7 0.500000 0.247649 0.000000
O O1 0.236270 0.351910 0.474768
O O2 0.210090 0.285555 0.849387
O O3 0.683732 0.638941 0.826776
O O4 0.956209 0.568602 0.720171
O O5 0.277648 0.492071 0.703295
O O6 0.129140 0.918659 0.838842
O O7 0.808301 0.711975 0.655206
#
# Coordination Sequence:
#
# PCOD9129548 Si02
#       7
#     2   2   2   2   2   2   2
#     4  11  25  46  74 109 152 199 250 306 373 441
#     4  11  22  42  71 102 144 190 243 300 370 443
#     4  12  25  44  70 104 144 192 244 304 365 438
#     4  12  28  49  77 109 152 201 251 309 370 442
#     4   9  20  43  71 106 144 190 243 301 370 441
#     4  12  27  46  71 106 148 194 251 308 369 436
#     4   9  21  44  72 108 148 192 244 306 367 441
#
# _framework density 25.340259
#
# number of rings (size 3 to 8) (size 9 to 14) (size 15 to 20)
#    0.000    1.143    0.000    5.143    0.000    9.143 
#    0.000   21.429    0.000    0.000    0.000    0.000 
#    0.000    0.000    0.000    0.000    0.000    0.000 
#
# Total GULP energy -38985.664520 kJ/mol
# GULP energy per Si atom -5569.380646 kJ/mol
# Density = 2.528258 g / cm^3
# Si number density = 25.340259 Si / 1000 Ang^3
#
#
#
# Elastic Constant Matrix: (Units=GPa)
#
#
# Indices 1 2 3 4 5 6 
#
# 1 147.5924 87.5769 69.7957 0.0000 -5.9836 0.0000
# 2 87.5769 176.7714 90.9606 0.0000 15.5325 0.0000
# 3 69.7957 90.9606 151.6169 0.0000 25.7686 0.0000
# 4 0.0000 0.0000 0.0000 42.5330 0.0000 36.4541
# 5 -5.9836 15.5325 25.7686 0.0000 47.0129 0.0000
# 6 0.0000 0.0000 0.0000 36.4541 0.0000 -13.0535
#
#
#
# Elastic Compliance Matrix: (Units=1/GPa)
#
#
# Indices 1 2 3 4 5 6 
#
# 1 0.011004 -0.004118 -0.003379 0.000000 0.004613 0.000000
# 2 -0.004118 0.009725 -0.003642 0.000000 -0.001741 0.000000
# 3 -0.003379 -0.003642 0.011253 0.000000 -0.005395 0.000000
# 4 0.000000 0.000000 0.000000 0.006928 0.000000 0.019348
# 5 0.004613 -0.001741 -0.005395 0.000000 0.025390 0.000000
# 6 0.000000 0.000000 0.000000 0.019348 0.000000 -0.022575
#
#
# Mechanical properties :
#
#
# Convention : Reuss Voigt Hill
#
# Bulk Modulus (GPa) = 103.06851 108.07188 105.57020
# Shear Modulus (GPa) = 74.36169 30.47496 52.41832
#
# Velocity S-wave (km/s) = 5.42300 3.47166 4.55310
# Velocity P-wave (km/s) = 8.94282 7.66882 8.33021
#
# Compressibility (1/GPa) = 0.00970228
#
# Stress axis : x y z
#
# Youngs Moduli (GPa) = 90.87577 102.83226 88.86385
#
# Poissons Ratio (x) = 0.42350 0.30027
# Poissons Ratio (y) = 0.37426 0.32368
# Poissons Ratio (z) = 0.30706 0.37456
#
# Static dielectric constant tensor:
#      x y z
#    x 1.933820 0.000000 0.023640 
#    y 0.000000 2.041790 0.000000 
#    z 0.023640 0.000000 1.991490 
# 
# From -- ./inp_files/1223.got.cif
#   From: 2010.05.17/outbox.cif.g08.bks.cpg/sg5_1_cif.got.tgz:1223.got - 2010.06.03 18:56:24.
