data_PCOD9129183
_publ_section_title
;
Structure prediction by ZEFSAII (Michael W. Deem and Ramdas Pophale) SiO2 
 PCOD9129183
Probable space group: C 2
;
_chemical_formula_sum "Si O2"
_cell_formula_units_Z 30
_cell_length_a 13.448081
_cell_length_b 14.240629
_cell_length_c 7.945498
_cell_angle_alpha 90.000000
_cell_angle_beta 58.051114
_cell_angle_gamma 90.000000
_cell_volume 1291.138859
_symmetry_space_group_name_H-M "C 2"
_symmetry_group_IT_number 5
_symmetry_cell_setting 'monoclinic'
loop_
_space_group_symop_operation_xyz
x,y,z
-x,y,-z
1/2+x,1/2+y,z
1/2-x,1/2+y,-z
loop_
_atom_site_type_symbol
_atom_site_label
_atom_site_fract_x
_atom_site_fract_y
_atom_site_fract_z
Si Si1 0.684828 0.601820 0.100660
Si Si2 0.150905 0.892478 0.104202
Si Si3 0.710624 0.796727 0.734865
Si Si4 0.329949 0.803040 0.735072
Si Si5 0.446155 0.099294 0.735968
Si Si6 0.052918 0.784593 0.643504
Si Si7 0.036667 0.392707 0.707002
Si Si8 0.000000 0.159461 0.000000
O O1 0.678649 0.493030 0.160948
O O2 0.686183 0.689989 0.230995
O O3 0.108814 0.350632 0.481978
O O4 0.806252 0.607544 0.884110
O O5 0.013515 0.871439 0.213408
O O6 0.212681 0.814672 0.169266
O O7 0.216178 0.866441 0.873388
O O8 0.629041 0.885729 0.772801
O O9 0.808395 0.782796 0.503008
O O10 0.611270 0.717272 0.826562
O O11 0.431926 0.608090 0.910315
O O12 0.423026 0.826412 0.802382
O O13 0.500000 0.104584 0.500000
O O14 0.506534 0.188810 0.768720
O O15 0.487684 0.996878 0.750527
O O16 0.000000 0.790197 0.500000
#
# Coordination Sequence:
#
# PCOD9129183 Si02
#       8
#     4   4   4   4   4   4   4   2
#     4  12  23  40  70 100 135 180 223 287 344 401
#     4  11  21  43  67  91 133 177 220 278 349 397
#     4  11  22  43  67  91 130 176 227 283 323 409
#     4  11  21  42  64  95 132 174 221 283 336 396
#     4  11  19  38  69  94 126 177 224 266 342 411
#     4   9  20  39  62  91 125 166 216 274 333 395
#     4  11  22  40  66  97 131 173 227 276 335 401
#     4  12  22  40  70 102 122 170 244 276 326 406
#
# _framework density 23.235299000000001
#
# number of rings (size 3 to 8) (size 9 to 14) (size 15 to 20)
#    0.000    1.067    6.667    1.600    0.000    0.000 
#   16.800    0.000    0.000    0.000    0.000    0.000 
#    0.000    0.000    0.000    0.000    0.000    0.000 
#
# Total GULP energy -83552.941085 kJ/mol
# GULP energy per Si atom -5570.196072 kJ/mol
# Density = 2.318241 g / cm^3
# Si number density = 23.235299 Si / 1000 Ang^3
#
#
#
# Elastic Constant Matrix: (Units=GPa)
#
#
# Indices 1 2 3 4 5 6 
#
# 1 52.4046 -5.5320 17.7946 0.0000 -18.9348 0.0000
# 2 -5.5320 133.3381 34.1300 0.0000 -9.2937 0.0000
# 3 17.7946 34.1300 151.0698 0.0000 -32.9524 0.0000
# 4 0.0000 0.0000 0.0000 31.2137 0.0000 -10.8387
# 5 -18.9348 -9.2937 -32.9524 0.0000 34.4348 0.0000
# 6 0.0000 0.0000 0.0000 -10.8387 0.0000 18.8874
#
#
#
# Elastic Compliance Matrix: (Units=1/GPa)
#
#
# Indices 1 2 3 4 5 6 
#
# 1 0.024330 0.002050 -0.000367 0.000000 0.013581 0.000000
# 2 0.002050 0.008141 -0.001713 0.000000 0.001685 0.000000
# 3 -0.000367 -0.001713 0.008726 0.000000 0.007687 0.000000
# 4 0.000000 0.000000 0.000000 0.040010 0.000000 0.022960
# 5 0.013581 0.001685 0.007687 0.000000 0.044319 0.000000
# 6 0.000000 0.000000 0.000000 0.022960 0.000000 0.066121
#
#
# Mechanical properties :
#
#
# Convention : Reuss Voigt Hill
#
# Bulk Modulus (GPa) = 24.30860 47.73308 36.02084
# Shear Modulus (GPa) = 24.34044 36.26849 30.30447
#
# Velocity S-wave (km/s) = 3.24012 3.95514 3.61535
# Velocity P-wave (km/s) = 4.94798 6.43781 5.74142
#
# Compressibility (1/GPa) = 0.04113770
#
# Stress axis : x y z
#
# Youngs Moduli (GPa) = 41.10105 122.83936 114.59553
#
# Poissons Ratio (x) = -0.25180 0.04201
# Poissons Ratio (y) = -0.08425 0.19631
# Poissons Ratio (z) = 0.01507 0.21043
#
# Static dielectric constant tensor:
#      x y z
#    x 1.966820 0.000000 0.090510 
#    y 0.000000 1.941010 0.000000 
#    z 0.090510 0.000000 2.186500 
# 
# From -- ./inp_files/55975.got.cif
#   From: 2010.05.17/outbox.cif.g08.bks.cpg/sg5_28_cif.got.tgz:55975.got - 2010.06.03 18:56:24.
