data_PCOD9129554
_publ_section_title
;
Structure prediction by ZEFSAII (Michael W. Deem and Ramdas Pophale) SiO2 
 PCOD9129554
Probable space group: C 2
;
_chemical_formula_sum "Si O2"
_cell_formula_units_Z 28
_cell_length_a 25.090406
_cell_length_b 6.581543
_cell_length_c 9.262286
_cell_angle_alpha 90.000000
_cell_angle_beta 114.607765
_cell_angle_gamma 90.000000
_cell_volume 1390.603512
_symmetry_space_group_name_H-M "C 2"
_symmetry_group_IT_number 5
_symmetry_cell_setting 'monoclinic'
loop_
_space_group_symop_operation_xyz
x,y,z
-x,y,-z
1/2+x,1/2+y,z
1/2-x,1/2+y,-z
loop_
_atom_site_type_symbol
_atom_site_label
_atom_site_fract_x
_atom_site_fract_y
_atom_site_fract_z
Si Si1 0.500000 0.002330 0.000000
Si Si2 0.892173 0.329091 0.355444
Si Si3 0.180428 0.592518 0.528111
Si Si4 0.311293 0.752707 0.695753
Si Si5 0.391955 0.490415 0.576895
Si Si6 0.095963 0.219671 0.963842
Si Si7 0.485700 0.355914 0.207052
Si Si8 0.500000 0.104939 0.500000
O O1 0.505745 0.162610 0.136222
O O2 0.446668 0.857569 0.985367
O O3 0.835979 0.444011 0.357840
O O4 0.891696 0.107338 0.425445
O O5 0.898817 0.311361 0.191411
O O6 0.947578 0.452809 0.481477
O O7 0.243425 0.693818 0.622133
O O8 0.181727 0.466857 0.379710
O O9 0.130750 0.763333 0.465302
O O10 0.347390 0.599572 0.634347
O O11 0.342038 0.731514 0.885254
O O12 0.457476 0.498237 0.712639
O O13 0.066613 0.995051 0.914138
O O14 0.474681 0.253897 0.349305
#
# Coordination Sequence:
#
# PCOD9129554 Si02
#       8
#     2   4   4   4   4   4   4   2
#     4  12  24  42  64 100 138 168 222 274 342 408
#     4  11  25  43  64 100 139 174 225 273 337 399
#     4  11  23  46  70 100 125 185 234 272 332 404
#     4  11  24  44  71  95 133 172 231 284 331 396
#     4  11  22  42  72  96 130 179 226 277 323 413
#     4  12  26  44  63 103 141 172 218 290 340 395
#     4  12  24  41  69 100 134 178 221 270 349 397
#     4  12  22  44  66  96 138 180 218 272 330 420
#
# _framework density 20.135141000000001
#
# number of rings (size 3 to 8) (size 9 to 14) (size 15 to 20)
#    0.000    0.571    4.286    4.714    2.000    0.000 
#    2.571    0.000    0.000    0.000    0.000    0.000 
#    0.000    0.000    0.000    0.000    0.000    0.000 
#
# Total GULP energy -78225.134542 kJ/mol
# GULP energy per Si atom -5587.509610 kJ/mol
# Density = 2.008931 g / cm^3
# Si number density = 20.135141 Si / 1000 Ang^3
#
#
#
# Elastic Constant Matrix: (Units=GPa)
#
#
# Indices 1 2 3 4 5 6 
#
# 1 66.4862 29.6255 16.1826 0.0000 8.1100 0.0000
# 2 29.6255 109.3527 46.8548 0.0000 -2.4467 0.0000
# 3 16.1826 46.8548 84.7933 0.0000 10.6276 0.0000
# 4 0.0000 0.0000 0.0000 27.5873 0.0000 -1.5915
# 5 8.1100 -2.4467 10.6276 0.0000 27.1107 0.0000
# 6 0.0000 0.0000 0.0000 -1.5915 0.0000 38.3095
#
#
#
# Elastic Compliance Matrix: (Units=1/GPa)
#
#
# Indices 1 2 3 4 5 6 
#
# 1 0.017981 -0.005041 0.000089 0.000000 -0.005869 0.000000
# 2 -0.005041 0.013793 -0.007367 0.000000 0.005641 0.000000
# 3 0.000089 -0.007367 0.016757 0.000000 -0.007260 0.000000
# 4 0.000000 0.000000 0.000000 0.036336 0.000000 0.001509
# 5 -0.005869 0.005641 -0.007260 0.000000 0.041997 0.000000
# 6 0.000000 0.000000 0.000000 0.001509 0.000000 0.026166
#
#
# Mechanical properties :
#
#
# Convention : Reuss Voigt Hill
#
# Bulk Modulus (GPa) = 41.85028 49.55090 45.70059
# Shear Modulus (GPa) = 26.93528 29.79946 28.36737
#
# Velocity S-wave (km/s) = 3.66146 3.85122 3.75754
# Velocity P-wave (km/s) = 6.22132 6.66621 6.44761
#
# Compressibility (1/GPa) = 0.02389470
#
# Stress axis : x y z
#
# Youngs Moduli (GPa) = 55.61409 72.50049 59.67700
#
# Poissons Ratio (x) = 0.36548 -0.00534
# Poissons Ratio (y) = 0.28035 0.43961
# Poissons Ratio (z) = -0.00498 0.53408
#
# Static dielectric constant tensor:
#      x y z
#    x 1.711120 0.000000 -0.031360 
#    y 0.000000 1.733960 0.000000 
#    z -0.031360 0.000000 1.727980 
# 
# From -- ./inp_files/32213.got.cif
#   From: 2010.05.17/outbox.cif.g08.bks.cpg/sg5_17_cif.got.tgz:32213.got - 2010.06.03 18:56:24.
