data_PCOD9129680
_publ_section_title
;
Structure prediction by ZEFSAII (Michael W. Deem and Ramdas Pophale) SiO2 
 PCOD9129680
Probable space group: C 2
;
_chemical_formula_sum "Si O2"
_cell_formula_units_Z 18
_cell_length_a 16.108462
_cell_length_b 7.530538
_cell_length_c 19.894362
_cell_angle_alpha 90.000000
_cell_angle_beta 160.971530
_cell_angle_gamma 90.000000
_cell_volume 786.825154
_symmetry_space_group_name_H-M "C 2"
_symmetry_group_IT_number 5
_symmetry_cell_setting 'monoclinic'
loop_
_space_group_symop_operation_xyz
x,y,z
-x,y,-z
1/2+x,1/2+y,z
1/2-x,1/2+y,-z
loop_
_atom_site_type_symbol
_atom_site_label
_atom_site_fract_x
_atom_site_fract_y
_atom_site_fract_z
Si Si1 0.500000 0.407321 0.500000
Si Si2 0.446248 0.993593 0.281968
Si Si3 0.525284 0.735594 0.918583
Si Si4 0.695973 0.680124 0.539858
Si Si5 0.155571 0.917174 0.931705
O O1 0.585796 0.531242 0.503817
O O2 0.737936 0.292731 0.708339
O O3 0.697149 0.098692 0.448527
O O4 0.509106 0.846261 0.384612
O O5 0.212020 0.130961 0.112972
O O6 0.350935 0.890774 0.142403
O O7 0.524525 0.598770 0.854624
O O8 0.687216 0.905343 0.016866
O O9 0.946226 0.764894 0.765466
#
# Coordination Sequence:
#
# PCOD9129680 Si02
#       5
#     2   4   4   4   4
#     4  12  22  42  70 104 132 186 206 298 328 388
#     4   9  22  40  69 103 126 181 224 270 315 431
#     4   9  19  39  69  96 137 166 229 265 342 377
#     4  11  23  39  76  96 136 170 234 266 345 378
#     4   9  19  41  68  95 128 183 216 274 317 421
#
# _framework density 22.876749
#
# number of rings (size 3 to 8) (size 9 to 14) (size 15 to 20)
#    1.333    0.889    2.222    0.000    3.111    0.889 
#    0.000    1.111    9.778    0.000    0.000    0.000 
#    0.000    0.000    0.000    0.000    0.000    0.000 
#
# Total GULP energy -50157.295491 kJ/mol
# GULP energy per Si atom -5573.032832 kJ/mol
# Density = 2.282468 g / cm^3
# Si number density = 22.876749 Si / 1000 Ang^3
#
#
#
# Elastic Constant Matrix: (Units=GPa)
#
#
# Indices 1 2 3 4 5 6 
#
# 1 46.5855 36.8661 41.1920 0.0005 5.9946 0.0004
# 2 36.8661 101.8918 58.9835 0.0026 3.3645 0.0001
# 3 41.1920 58.9835 149.9073 0.0153 14.2007 0.0026
# 4 0.0005 0.0026 0.0153 55.8954 0.0018 -1.6424
# 5 5.9946 3.3645 14.2007 0.0018 31.9197 -0.0005
# 6 0.0004 0.0001 0.0026 -1.6424 -0.0005 35.2275
#
#
#
# Elastic Compliance Matrix: (Units=1/GPa)
#
#
# Indices 1 2 3 4 5 6 
#
# 1 0.033775 -0.008951 -0.005478 0.000002 -0.002962 0.000000
# 2 -0.008951 0.015108 -0.003647 0.000000 0.001711 0.000000
# 3 -0.005478 -0.003647 0.009894 -0.000002 -0.002989 -0.000001
# 4 0.000002 0.000000 -0.000002 0.017915 0.000000 0.000835
# 5 -0.002962 0.001711 -0.002989 0.000000 0.033034 0.000001
# 6 0.000000 0.000000 -0.000001 0.000835 0.000001 0.028426
#
#
# Mechanical properties :
#
#
# Convention : Reuss Voigt Hill
#
# Bulk Modulus (GPa) = 44.20054 63.60751 53.90402
# Shear Modulus (GPa) = 27.49597 35.36472 31.43034
#
# Velocity S-wave (km/s) = 3.47063 3.93603 3.71064
# Velocity P-wave (km/s) = 5.95176 6.96572 6.47861
#
# Compressibility (1/GPa) = 0.02262416
#
# Stress axis : x y z
#
# Youngs Moduli (GPa) = 29.60803 66.19194 101.07081
#
# Poissons Ratio (x) = 0.59250 0.55367
# Poissons Ratio (y) = 0.26503 0.36858
# Poissons Ratio (z) = 0.16219 0.24139
#
# Static dielectric constant tensor:
#      x y z
#    x 1.899550 0.000000 0.001340 
#    y 0.000000 1.900210 0.000000 
#    z 0.001340 0.000000 1.851780 
# 
# From -- ./inp_files/65812.got.cif
#   From: 2010.05.17/outbox.cif.g08.bks.cpg/sg5_33_cif.got.tgz:65812.got - 2010.06.03 18:56:24.
