data_PCOD9129336
_publ_section_title
;
Structure prediction by ZEFSAII (Michael W. Deem and Ramdas Pophale) SiO2 
 PCOD9129336
Probable space group: C 2
;
_chemical_formula_sum "Si O2"
_cell_formula_units_Z 26
_cell_length_a 9.093198
_cell_length_b 19.102498
_cell_length_c 8.561706
_cell_angle_alpha 90.000000
_cell_angle_beta 51.416932
_cell_angle_gamma 90.000000
_cell_volume 1162.545351
_symmetry_space_group_name_H-M "C 2"
_symmetry_group_IT_number 5
_symmetry_cell_setting 'monoclinic'
loop_
_space_group_symop_operation_xyz
x,y,z
-x,y,-z
1/2+x,1/2+y,z
1/2-x,1/2+y,-z
loop_
_atom_site_type_symbol
_atom_site_label
_atom_site_fract_x
_atom_site_fract_y
_atom_site_fract_z
Si Si1 0.703430 0.432030 0.436501
Si Si2 0.933019 0.118500 0.883496
Si Si3 0.751685 0.269263 0.965112
Si Si4 0.500000 0.872778 0.000000
Si Si5 0.705150 0.587223 0.338443
Si Si6 0.824776 0.678443 0.501675
Si Si7 0.319765 0.309205 0.328522
O O1 0.500000 0.411756 0.500000
O O2 0.867053 0.414858 0.205709
O O3 0.706060 0.516253 0.437791
O O4 0.718091 0.387829 0.586848
O O5 0.813355 0.191007 0.973950
O O6 0.810542 0.074925 0.837392
O O7 0.139971 0.142543 0.690863
O O8 0.000000 0.082567 0.000000
O O9 0.783391 0.284333 0.760134
O O10 0.873095 0.323297 0.979970
O O11 0.537539 0.290189 0.148474
O O12 0.500000 0.622166 0.500000
O O13 0.854947 0.640091 0.313103
O O14 0.774437 0.758819 0.503561
O O15 0.000000 0.671653 0.500000
#
# Coordination Sequence:
#
# PCOD9129336 Si02
#       7
#     4   4   4   2   4   4   4
#     4  11  23  46  68  93 139 181 221 281 333 401
#     4  11  21  40  65  98 136 168 226 278 334 407
#     4  11  23  39  65 105 130 171 227 280 348 396
#     4  12  24  42  66 100 128 176 230 272 340 404
#     4   9  22  44  66  88 134 183 219 271 341 401
#     4  11  22  39  64  97 131 172 218 278 340 394
#     4  11  23  41  67  96 138 173 220 289 332 399
#
# _framework density 22.364719000000001
#
# number of rings (size 3 to 8) (size 9 to 14) (size 15 to 20)
#    0.000    1.231    3.846    2.308    0.000    1.846 
#    8.308    3.077    0.000    0.000    0.000    0.000 
#    0.000    0.000    0.000    0.000    0.000    0.000 
#
# Total GULP energy -72528.894934 kJ/mol
# GULP energy per Si atom -5579.145764 kJ/mol
# Density = 2.231382 g / cm^3
# Si number density = 22.364719 Si / 1000 Ang^3
#
#
#
# Elastic Constant Matrix: (Units=GPa)
#
#
# Indices 1 2 3 4 5 6 
#
# 1 127.0474 30.8942 7.8804 0.0000 26.8252 0.0000
# 2 30.8942 80.8676 6.6754 0.0000 11.8443 0.0000
# 3 7.8804 6.6754 61.1752 0.0000 -2.5412 0.0000
# 4 0.0000 0.0000 0.0000 64.0333 0.0000 0.7048
# 5 26.8252 11.8443 -2.5412 0.0000 33.8877 0.0000
# 6 0.0000 0.0000 0.0000 0.7048 0.0000 25.9239
#
#
#
# Elastic Compliance Matrix: (Units=1/GPa)
#
#
# Indices 1 2 3 4 5 6 
#
# 1 0.010124 -0.002711 -0.001306 0.000000 -0.007165 0.000000
# 2 -0.002711 0.013920 -0.001287 0.000000 -0.002816 0.000000
# 3 -0.001306 -0.001287 0.016769 0.000000 0.002741 0.000000
# 4 0.000000 0.000000 0.000000 0.015622 0.000000 -0.000425
# 5 -0.007165 -0.002816 0.002741 0.000000 0.036371 0.000000
# 6 0.000000 0.000000 0.000000 -0.000425 0.000000 0.038586
#
#
# Mechanical properties :
#
#
# Convention : Reuss Voigt Hill
#
# Bulk Modulus (GPa) = 33.10550 39.99894 36.55222
# Shear Modulus (GPa) = 32.88034 39.67832 36.27933
#
# Velocity S-wave (km/s) = 3.83846 4.21663 4.03198
# Velocity P-wave (km/s) = 5.87195 6.45216 6.16888
#
# Compressibility (1/GPa) = 0.03020646
#
# Stress axis : x y z
#
# Youngs Moduli (GPa) = 98.77556 71.83854 59.63384
#
# Poissons Ratio (x) = 0.19472 0.07788
# Poissons Ratio (y) = 0.26773 0.07674
# Poissons Ratio (z) = 0.12900 0.09244
#
# Static dielectric constant tensor:
#      x y z
#    x 1.812670 0.000000 0.095550 
#    y 0.000000 1.816680 0.000000 
#    z 0.095550 0.000000 2.014180 
# 
# From -- ./inp_files/16742.got.cif
#   From: 2010.05.17/outbox.cif.g08.bks.cpg/sg5_9_cif.got.tgz:16742.got - 2010.06.03 18:56:24.
