data_PCOD9129828
_publ_section_title
;
Structure prediction by ZEFSAII (Michael W. Deem and Ramdas Pophale) SiO2 
 PCOD9129828
Probable space group: C 2
;
_chemical_formula_sum "Si O2"
_cell_formula_units_Z 24
_cell_length_a 18.522288
_cell_length_b 5.258509
_cell_length_c 11.217291
_cell_angle_alpha 90.000000
_cell_angle_beta 53.625271
_cell_angle_gamma 90.000000
_cell_volume 879.680530
_symmetry_space_group_name_H-M "C 2"
_symmetry_group_IT_number 5
_symmetry_cell_setting 'monoclinic'
loop_
_space_group_symop_operation_xyz
x,y,z
-x,y,-z
1/2+x,1/2+y,z
1/2-x,1/2+y,-z
loop_
_atom_site_type_symbol
_atom_site_label
_atom_site_fract_x
_atom_site_fract_y
_atom_site_fract_z
Si Si1 0.286595 0.876080 0.826064
Si Si2 0.622999 0.629399 0.069828
Si Si3 0.593715 0.047989 0.475907
Si Si4 0.954349 0.863155 0.168949
Si Si5 0.324776 0.954245 0.217283
Si Si6 0.342965 0.532676 0.459946
O O1 0.323775 0.084831 0.697847
O O2 0.234070 0.663980 0.801462
O O3 0.214246 0.971096 0.990127
O O4 0.373658 0.800838 0.816474
O O5 0.539655 0.442201 0.162963
O O6 0.639302 0.776312 0.928026
O O7 0.500000 0.038166 0.500000
O O8 0.618507 0.782525 0.515185
O O9 0.599418 0.286429 0.556894
O O10 0.085733 0.586029 0.815723
O O11 0.000000 0.935201 0.000000
O O12 0.868629 0.032903 0.294432
O O13 0.256459 0.953562 0.400850
#
# Coordination Sequence:
#
# PCOD9129828 Si02
#       6
#     4   4   4   4   4   4
#     4  11  23  44  79 115 151 207 259 327 400 475
#     4  12  24  47  80 115 155 202 263 333 399 474
#     4  11  24  46  77 117 158 206 268 329 397 478
#     4  12  29  49  75 116 156 204 268 328 402 474
#     4  11  26  50  76 109 161 211 262 325 404 486
#     4  11  27  49  77 111 157 216 266 326 402 480
#
# _framework density 27.282630000000001
#
# number of rings (size 3 to 8) (size 9 to 14) (size 15 to 20)
#    0.000    0.667    5.000    1.500    0.000   11.333 
#    0.000    0.000    0.000    0.000    0.000    0.000 
#    0.000    0.000    0.000    0.000    0.000    0.000 
#
# Total GULP energy -67060.151654 kJ/mol
# GULP energy per Si atom -5588.345971 kJ/mol
# Density = 2.722053 g / cm^3
# Si number density = 27.282630 Si / 1000 Ang^3
#
#
#
# Elastic Constant Matrix: (Units=GPa)
#
#
# Indices 1 2 3 4 5 6 
#
# 1 107.5139 36.1612 25.0960 -0.0001 -22.8242 -0.0001
# 2 36.1612 80.7140 11.1119 -0.0010 -22.1523 0.0022
# 3 25.0960 11.1119 142.5474 0.0000 -30.0786 -0.0001
# 4 -0.0001 -0.0010 0.0000 34.2570 -0.0002 -8.5336
# 5 -22.8242 -22.1523 -30.0786 -0.0002 40.3066 0.0001
# 6 -0.0001 0.0022 -0.0001 -8.5336 0.0001 38.8664
#
#
#
# Elastic Compliance Matrix: (Units=1/GPa)
#
#
# Indices 1 2 3 4 5 6 
#
# 1 0.011679 -0.004101 -0.000969 0.000000 0.003636 0.000000
# 2 -0.004101 0.016082 0.001001 0.000000 0.007264 -0.000001
# 3 -0.000969 0.001001 0.008437 0.000000 0.006297 0.000000
# 4 0.000000 0.000000 0.000000 0.030880 0.000000 0.006780
# 5 0.003636 0.007264 0.006297 0.000000 0.035560 0.000000
# 6 0.000000 -0.000001 0.000000 0.006780 0.000000 0.027218
#
#
# Mechanical properties :
#
#
# Convention : Reuss Voigt Hill
#
# Bulk Modulus (GPa) = 35.63841 52.83482 44.23662
# Shear Modulus (GPa) = 33.93360 39.91306 36.92333
#
# Velocity S-wave (km/s) = 3.53055 3.82900 3.68280
# Velocity P-wave (km/s) = 5.45076 6.24148 5.85947
#
# Compressibility (1/GPa) = 0.02805961
#
# Stress axis : x y z
#
# Youngs Moduli (GPa) = 85.62725 62.17978 118.53208
#
# Poissons Ratio (x) = 0.25499 0.11487
# Poissons Ratio (y) = 0.35114 -0.11865
# Poissons Ratio (z) = 0.08298 -0.06224
#
# Static dielectric constant tensor:
#      x y z
#    x 2.118000 0.000000 0.084620 
#    y 0.000000 2.182060 0.000000 
#    z 0.084620 0.000000 2.288380 
# 
# From -- ./inp_files/46909.got.cif
#   From: 2010.05.17/outbox.cif.g08.bks.cpg/sg5_24_cif.got.tgz:46909.got - 2010.06.03 18:56:24.
