data_PCOD9129987
_publ_section_title
;
Structure prediction by ZEFSAII (Michael W. Deem and Ramdas Pophale) SiO2 
 PCOD9129987
Probable space group: C 2
;
_chemical_formula_sum "Si O2"
_cell_formula_units_Z 26
_cell_length_a 12.097833
_cell_length_b 5.162238
_cell_length_c 17.998574
_cell_angle_alpha 90.000000
_cell_angle_beta 60.717067
_cell_angle_gamma 90.000000
_cell_volume 980.408938
_symmetry_space_group_name_H-M "C 2"
_symmetry_group_IT_number 5
_symmetry_cell_setting 'monoclinic'
loop_
_space_group_symop_operation_xyz
x,y,z
-x,y,-z
1/2+x,1/2+y,z
1/2-x,1/2+y,-z
loop_
_atom_site_type_symbol
_atom_site_label
_atom_site_fract_x
_atom_site_fract_y
_atom_site_fract_z
Si Si1 0.069116 0.586730 0.246578
Si Si2 0.844423 0.273228 0.275151
Si Si3 0.404959 0.433175 0.625062
Si Si4 0.685501 0.623027 0.488264
Si Si5 0.277666 0.179200 0.166906
Si Si6 0.000000 0.906923 0.000000
Si Si7 0.068312 0.960323 0.128586
O O1 0.065691 0.839524 0.299498
O O2 0.193149 0.419050 0.223098
O O3 0.074369 0.666268 0.157826
O O4 0.943444 0.416749 0.297372
O O5 0.706120 0.214197 0.354947
O O6 0.806487 0.481192 0.223409
O O7 0.935416 0.064489 0.206140
O O8 0.549092 0.498264 0.555214
O O9 0.830316 0.141110 0.596676
O O10 0.718083 0.902189 0.512385
O O11 0.187941 0.072127 0.132015
O O12 0.405855 0.250402 0.083164
O O13 0.922410 0.043626 0.960308
#
# Coordination Sequence:
#
# PCOD9129987 Si02
#       7
#     4   4   4   4   4   2   4
#     4  11  24  45  67 106 136 182 243 301 357 435
#     4  11  24  44  69 104 136 188 244 304 355 441
#     4  11  25  44  79 102 145 190 235 301 358 441
#     4  11  28  51  73 115 151 195 238 296 374 440
#     4  11  26  43  69 100 138 186 249 299 369 430
#     4  12  26  42  66  94 140 192 228 312 358 440
#     4  11  26  43  64 100 139 182 240 296 373 426
#
# _framework density 26.519545000000001
#
# number of rings (size 3 to 8) (size 9 to 14) (size 15 to 20)
#    0.000    0.923    3.077    1.846    4.308    5.538 
#    0.000    0.000    0.000    0.000    0.000    0.000 
#    0.000    0.000    0.000    0.000    0.000    0.000 
#
# Total GULP energy -72375.952762 kJ/mol
# GULP energy per Si atom -5567.380982 kJ/mol
# Density = 2.645919 g / cm^3
# Si number density = 26.519545 Si / 1000 Ang^3
#
#
#
# Elastic Constant Matrix: (Units=GPa)
#
#
# Indices 1 2 3 4 5 6 
#
# 1 150.6080 32.3957 37.2831 -0.0003 9.1879 0.0009
# 2 32.3957 98.0409 27.9273 0.0004 6.8878 0.0029
# 3 37.2831 27.9273 74.2851 -0.0004 -3.2786 -0.0003
# 4 -0.0003 0.0004 -0.0004 16.3605 -0.0003 8.8017
# 5 9.1879 6.8878 -3.2786 -0.0003 71.2108 -0.0002
# 6 0.0009 0.0029 -0.0003 8.8017 -0.0002 42.0323
#
#
#
# Elastic Compliance Matrix: (Units=1/GPa)
#
#
# Indices 1 2 3 4 5 6 
#
# 1 0.007883 -0.001560 -0.003415 0.000000 -0.001023 0.000000
# 2 -0.001560 0.011854 -0.003723 0.000000 -0.001117 -0.000001
# 3 -0.003415 -0.003723 0.016644 0.000000 0.001567 0.000000
# 4 0.000000 0.000000 0.000000 0.068883 0.000000 -0.014424
# 5 -0.001023 -0.001117 0.001567 0.000000 0.014355 0.000000
# 6 0.000000 -0.000001 0.000000 -0.014424 0.000000 0.026812
#
#
# Mechanical properties :
#
#
# Convention : Reuss Voigt Hill
#
# Bulk Modulus (GPa) = 52.67141 57.57182 55.12162
# Shear Modulus (GPa) = 29.38475 40.94259 35.16367
#
# Velocity S-wave (km/s) = 3.33234 3.93347 3.64531
# Velocity P-wave (km/s) = 5.89156 6.51044 6.20872
#
# Compressibility (1/GPa) = 0.01898563
#
# Stress axis : x y z
#
# Youngs Moduli (GPa) = 126.85211 84.35790 60.08004
#
# Poissons Ratio (x) = 0.13161 0.20518
# Poissons Ratio (y) = 0.19791 0.22367
# Poissons Ratio (z) = 0.43322 0.31405
#
# Static dielectric constant tensor:
#      x y z
#    x 2.153530 0.000000 0.007660 
#    y 0.000000 2.193830 0.000000 
#    z 0.007660 0.000000 2.208210 
# 
# From -- ./inp_files/68143.got.cif
#   From: 2010.05.17/outbox.cif.g08.bks.cpg/sg5_35_cif.got.tgz:68143.got - 2010.06.03 18:56:24.
