data_PCOD9129482
_publ_section_title
;
Structure prediction by ZEFSAII (Michael W. Deem and Ramdas Pophale) SiO2 
 PCOD9129482
Probable space group: C 2
;
_chemical_formula_sum "Si O2"
_cell_formula_units_Z 30
_cell_length_a 20.351138
_cell_length_b 15.293180
_cell_length_c 14.980031
_cell_angle_alpha 90.000000
_cell_angle_beta 17.596405
_cell_angle_gamma 90.000000
_cell_volume 1409.457041
_symmetry_space_group_name_H-M "C 2"
_symmetry_group_IT_number 5
_symmetry_cell_setting 'monoclinic'
loop_
_space_group_symop_operation_xyz
x,y,z
-x,y,-z
1/2+x,1/2+y,z
1/2-x,1/2+y,-z
loop_
_atom_site_type_symbol
_atom_site_label
_atom_site_fract_x
_atom_site_fract_y
_atom_site_fract_z
Si Si1 0.947922 0.012250 0.294952
Si Si2 0.276584 0.326090 0.338374
Si Si3 0.085132 0.816781 0.637509
Si Si4 0.000000 0.253704 0.000000
Si Si5 0.258916 0.122398 0.784497
Si Si6 0.821660 0.641406 0.012555
Si Si7 0.642686 0.006043 0.514698
Si Si8 0.679947 0.636198 0.390184
O O1 0.818408 0.007919 0.368202
O O2 0.804829 0.060932 0.555197
O O3 0.009588 0.914757 0.246998
O O4 0.153176 0.072527 0.004843
O O5 0.317348 0.315256 0.389655
O O6 0.107657 0.404035 0.540426
O O7 0.213758 0.232222 0.384742
O O8 0.500000 0.353733 0.000000
O O9 0.925479 0.732796 0.842643
O O10 0.288439 0.805052 0.307865
O O11 0.093038 0.194652 0.960935
O O12 0.500000 0.154621 0.500000
O O13 0.282505 0.054633 0.671764
O O14 0.945021 0.561348 0.808223
O O15 0.833573 0.632014 0.104557
O O16 0.569772 0.634767 0.316693
#
# Coordination Sequence:
#
# PCOD9129482 Si02
#       8
#     4   4   4   2   4   4   4   4
#     4  11  24  42  65  99 129 177 223 266 332 401
#     4  11  22  40  68  97 122 168 222 271 325 387
#     4  11  24  42  66  93 134 168 222 271 328 392
#     4  12  24  46  68  98 132 180 222 274 328 402
#     4  12  23  40  72  97 134 174 224 277 335 383
#     4  11  23  43  63  96 134 172 211 277 324 396
#     4  11  22  40  66  95 132 164 219 278 321 388
#     4  11  25  40  67  94 132 172 219 263 335 392
#
# _framework density 21.284791999999999
#
# number of rings (size 3 to 8) (size 9 to 14) (size 15 to 20)
#    0.000    0.800    4.000    4.000    0.000    4.267 
#    0.000    0.000    2.933    0.000    0.000    0.000 
#    0.000    0.000    0.000    0.000    0.000    0.000 
#
# Total GULP energy -83836.458030 kJ/mol
# GULP energy per Si atom -5589.097202 kJ/mol
# Density = 2.123635 g / cm^3
# Si number density = 21.284792 Si / 1000 Ang^3
#
#
#
# Elastic Constant Matrix: (Units=GPa)
#
#
# Indices 1 2 3 4 5 6 
#
# 1 45.6918 20.7468 2.4979 -0.0593 13.1504 0.0623
# 2 20.7468 109.0646 37.3181 -0.0417 12.9560 0.0414
# 3 2.4979 37.3181 94.4266 -0.1127 11.7761 0.1348
# 4 -0.0593 -0.0417 -0.1127 36.9798 0.0419 22.5681
# 5 13.1504 12.9560 11.7761 0.0419 44.3879 -0.0376
# 6 0.0623 0.0414 0.1348 22.5681 -0.0376 0.9983
#
#
#
# Elastic Compliance Matrix: (Units=1/GPa)
#
#
# Indices 1 2 3 4 5 6 
#
# 1 0.025929 -0.004832 0.002074 -0.000097 -0.006821 0.000241
# 2 -0.004832 0.011687 -0.004389 0.000019 -0.000815 -0.000042
# 3 0.002074 -0.004389 0.012603 -0.000087 -0.002677 0.000207
# 4 -0.000097 0.000019 -0.000087 -0.002112 0.000089 0.047771
# 5 -0.006821 -0.000815 -0.002677 0.000089 0.025497 -0.000226
# 6 0.000241 -0.000042 0.000207 0.047771 -0.000226 -0.078274
#
#
# Mechanical properties :
#
#
# Convention : Reuss Voigt Hill
#
# Bulk Modulus (GPa) = 27.83558 41.14539 34.49049
# Shear Modulus (GPa) = 231.49198 29.04787 130.26992
#
# Velocity S-wave (km/s) = 10.44009 3.69822 7.83174
# Velocity P-wave (km/s) = 12.58703 6.13259 9.90056
#
# Compressibility (1/GPa) = 0.03592524
#
# Stress axis : x y z
#
# Youngs Moduli (GPa) = 38.56670 85.56755 79.34366
#
# Poissons Ratio (x) = 0.41344 -0.16455
# Poissons Ratio (y) = 0.18635 0.34825
# Poissons Ratio (z) = -0.07998 0.37556
#
# Static dielectric constant tensor:
#      x y z
#    x 1.789600 0.000000 -0.011620 
#    y 0.000000 1.770050 0.000000 
#    z -0.011620 0.000000 1.817110 
# 
# From -- ./inp_files/57139.got.cif
#   From: 2010.05.17/outbox.cif.g08.bks.cpg/sg5_29_cif.got.tgz:57139.got - 2010.06.03 18:56:24.
