data_PCOD9129378
_publ_section_title
;
Structure prediction by ZEFSAII (Michael W. Deem and Ramdas Pophale) SiO2 
 PCOD9129378
Probable space group: C 2
;
_chemical_formula_sum "Si O2"
_cell_formula_units_Z 32
_cell_length_a 13.683889
_cell_length_b 11.471969
_cell_length_c 11.431377
_cell_angle_alpha 90.000000
_cell_angle_beta 68.987831
_cell_angle_gamma 90.000000
_cell_volume 1675.183452
_symmetry_space_group_name_H-M "C 2"
_symmetry_group_IT_number 5
_symmetry_cell_setting 'monoclinic'
loop_
_space_group_symop_operation_xyz
x,y,z
-x,y,-z
1/2+x,1/2+y,z
1/2-x,1/2+y,-z
loop_
_atom_site_type_symbol
_atom_site_label
_atom_site_fract_x
_atom_site_fract_y
_atom_site_fract_z
Si Si1 0.873259 0.531420 0.037855
Si Si2 0.580049 0.225978 0.626798
Si Si3 0.609391 0.284213 0.887501
Si Si4 0.235741 0.139790 0.628968
Si Si5 0.499072 0.981766 0.363978
Si Si6 0.901359 0.981176 0.478238
Si Si7 0.302082 0.902173 0.296217
Si Si8 0.293613 0.967884 0.816126
O O1 0.850383 0.666214 0.071334
O O2 0.822737 0.450414 0.158482
O O3 0.825824 0.507941 0.931391
O O4 0.000000 0.518115 0.000000
O O5 0.598691 0.248342 0.755832
O O6 0.675416 0.174029 0.506474
O O7 0.494234 0.123185 0.655246
O O8 0.559390 0.355591 0.587507
O O9 0.693544 0.385714 0.862235
O O10 0.500000 0.313704 0.000000
O O11 0.197796 0.263142 0.694460
O O12 0.148640 0.063059 0.599437
O O13 0.273611 0.063162 0.722761
O O14 0.500000 0.959252 0.500000
O O15 0.394244 0.947273 0.341623
O O16 0.597102 0.911448 0.271949
O O17 0.807118 0.950946 0.607147
O O18 0.000000 0.037831 0.500000
#
# Coordination Sequence:
#
# PCOD9129378 Si02
#       8
#     4   4   4   4   4   4   4   4
#     4  11  23  47  69  94 131 179 231 276 328 407
#     4  11  21  42  71  95 134 174 227 281 325 401
#     4  11  24  45  70  98 137 177 226 279 332 405
#     4  11  24  43  64 102 139 171 224 283 340 397
#     4  12  21  40  69  99 126 170 225 278 333 393
#     4  11  23  41  65  98 135 174 219 276 338 401
#     4  11  24  43  64  98 136 173 223 280 337 403
#     4  12  25  43  71 100 131 176 230 276 337 401
#
# _framework density 19.102385999999999
#
# number of rings (size 3 to 8) (size 9 to 14) (size 15 to 20)
#    0.000    0.750    6.250    1.125    5.250    1.500 
#    2.250    0.625    0.000    0.000    0.000    0.000 
#    0.000    0.000    0.000    0.000    0.000    0.000 
#
# Total GULP energy -89286.209010 kJ/mol
# GULP energy per Si atom -5580.388063 kJ/mol
# Density = 1.905891 g / cm^3
# Si number density = 19.102386 Si / 1000 Ang^3
#
#
#
# Elastic Constant Matrix: (Units=GPa)
#
#
# Indices 1 2 3 4 5 6 
#
# 1 129.6351 57.9728 78.9404 0.0000 20.0185 0.0000
# 2 57.9728 88.3759 47.3482 0.0000 -8.1372 0.0000
# 3 78.9404 47.3482 146.8742 0.0000 23.0138 0.0000
# 4 0.0000 0.0000 0.0000 21.1463 0.0000 -15.3600
# 5 20.0185 -8.1372 23.0138 0.0000 36.3015 0.0000
# 6 0.0000 0.0000 0.0000 -15.3600 0.0000 -2.0174
#
#
#
# Elastic Compliance Matrix: (Units=1/GPa)
#
#
# Indices 1 2 3 4 5 6 
#
# 1 0.015264 -0.008401 -0.004310 0.000000 -0.007568 0.000000
# 2 -0.008401 0.019842 -0.003669 0.000000 0.011406 0.000000
# 3 -0.004310 -0.003669 0.011174 0.000000 -0.005530 0.000000
# 4 0.000000 0.000000 0.000000 0.007242 0.000000 -0.055135
# 5 -0.007568 0.011406 -0.005530 0.000000 0.037783 0.000000
# 6 0.000000 0.000000 0.000000 -0.055135 0.000000 -0.075904
#
#
# Mechanical properties :
#
#
# Convention : Reuss Voigt Hill
#
# Bulk Modulus (GPa) = 73.95632 81.48978 77.72305
# Shear Modulus (GPa) = 94.94106 23.12765 59.03436
#
# Velocity S-wave (km/s) = 7.05755 3.48332 5.56518
# Velocity P-wave (km/s) = 10.25728 7.67659 9.05930
#
# Compressibility (1/GPa) = 0.01352149
#
# Stress axis : x y z
#
# Youngs Moduli (GPa) = 65.51436 50.39940 89.49303
#
# Poissons Ratio (x) = 0.42338 0.38571
# Poissons Ratio (y) = 0.55035 0.32831
# Poissons Ratio (z) = 0.28236 0.18489
#
# Static dielectric constant tensor:
#      x y z
#    x 1.709880 0.000000 0.023910 
#    y 0.000000 1.658820 0.000000 
#    z 0.023910 0.000000 1.737830 
# 
# From -- ./inp_files/39413.got.cif
#   From: 2010.05.17/outbox.cif.g08.bks.cpg/sg5_20_cif.got.tgz:39413.got - 2010.06.03 18:56:24.
