data_PCOD9129211
_publ_section_title
;
Structure prediction by ZEFSAII (Michael W. Deem and Ramdas Pophale) SiO2 
 PCOD9129211
Probable space group: C 2
;
_chemical_formula_sum "Si O2"
_cell_formula_units_Z 28
_cell_length_a 20.034767
_cell_length_b 6.743678
_cell_length_c 9.979522
_cell_angle_alpha 90.000000
_cell_angle_beta 119.299136
_cell_angle_gamma 90.000000
_cell_volume 1175.832664
_symmetry_space_group_name_H-M "C 2"
_symmetry_group_IT_number 5
_symmetry_cell_setting 'monoclinic'
loop_
_space_group_symop_operation_xyz
x,y,z
-x,y,-z
1/2+x,1/2+y,z
1/2-x,1/2+y,-z
loop_
_atom_site_type_symbol
_atom_site_label
_atom_site_fract_x
_atom_site_fract_y
_atom_site_fract_z
Si Si1 0.684375 0.070570 0.277520
Si Si2 0.754797 0.700937 0.219464
Si Si3 0.000000 0.183555 0.000000
Si Si4 0.476012 0.020595 0.761275
Si Si5 0.330315 0.542722 0.121049
Si Si6 0.829873 0.308608 0.363623
Si Si7 0.000000 0.388479 0.500000
Si Si8 0.082403 0.839048 0.990139
O O1 0.766473 0.178783 0.382369
O O2 0.700616 0.842671 0.254025
O O3 0.615281 0.060496 0.316498
O O4 0.648046 0.195452 0.115680
O O5 0.803781 0.536739 0.344602
O O6 0.802204 0.866980 0.187450
O O7 0.713587 0.582308 0.059991
O O8 0.003006 0.324294 0.132150
O O9 0.931563 0.023419 0.924634
O O10 0.512718 0.011100 0.649441
O O11 0.514522 0.194337 0.883235
O O12 0.324408 0.736783 0.203695
O O13 0.408124 0.459284 0.139607
O O14 0.921466 0.279465 0.470790
#
# Coordination Sequence:
#
# PCOD9129211 Si02
#       8
#     4   4   2   4   4   4   2   4
#     4  11  23  42  71 110 141 183 258 316 369 434
#     4  11  20  36  67 106 138 185 234 319 371 424
#     4  12  22  42  78 108 148 194 246 322 374 430
#     4  12  26  48  73 111 156 196 253 308 373 465
#     4  11  20  34  67 106 144 176 241 308 374 427
#     4  11  25  45  66 102 148 199 252 299 373 458
#     4  12  30  52  72 102 160 214 238 296 388 468
#     4  12  22  40  72 116 145 186 248 319 385 429
#
# _framework density 23.812911
#
# number of rings (size 3 to 8) (size 9 to 14) (size 15 to 20)
#    0.000    0.571    5.714    3.429    2.000    0.000 
#    2.571   11.429    0.000    0.000    0.000    0.000 
#    0.000    0.000    0.000    0.000    0.000    0.000 
#
# Total GULP energy -78023.737280 kJ/mol
# GULP energy per Si atom -5573.124091 kJ/mol
# Density = 2.375871 g / cm^3
# Si number density = 23.812911 Si / 1000 Ang^3
#
#
#
# Elastic Constant Matrix: (Units=GPa)
#
#
# Indices 1 2 3 4 5 6 
#
# 1 106.8931 58.9357 16.7600 0.0000 6.0320 0.0000
# 2 58.9357 158.0371 37.9639 0.0000 7.4661 0.0000
# 3 16.7600 37.9639 74.7572 0.0000 -4.2065 0.0000
# 4 0.0000 0.0000 0.0000 -7.8377 0.0000 6.1079
# 5 6.0320 7.4661 -4.2065 0.0000 43.0045 0.0000
# 6 0.0000 0.0000 0.0000 6.1079 0.0000 48.3963
#
#
#
# Elastic Compliance Matrix: (Units=1/GPa)
#
#
# Indices 1 2 3 4 5 6 
#
# 1 0.011831 -0.004232 -0.000559 0.000000 -0.000979 0.000000
# 2 -0.004232 0.008834 -0.003610 0.000000 -0.001293 0.000000
# 3 -0.000559 -0.003610 0.015460 0.000000 0.002217 0.000000
# 4 0.000000 0.000000 0.000000 -0.116163 0.000000 0.014660
# 5 -0.000979 -0.001293 0.002217 0.000000 0.023832 0.000000
# 6 0.000000 0.000000 0.000000 0.014660 0.000000 0.018813
#
#
# Mechanical properties :
#
#
# Convention : Reuss Voigt Hill
#
# Bulk Modulus (GPa) = 51.74861 63.00073 57.37467
# Shear Modulus (GPa) = -353.34166 31.78112 -160.78027
#
# Velocity S-wave (km/s) = -12.19445 3.65720 -8.22585
# Velocity P-wave (km/s) = 13.28511 6.65939 8.12855
#
# Compressibility (1/GPa) = 0.01932419
#
# Stress axis : x y z
#
# Youngs Moduli (GPa) = 84.52285 113.19814 64.68289
#
# Poissons Ratio (x) = 0.47901 0.03613
# Poissons Ratio (y) = 0.35767 0.23352
# Poissons Ratio (z) = 0.04722 0.40868
#
# Static dielectric constant tensor:
#      x y z
#    x 2.135760 0.000000 0.037780 
#    y 0.000000 1.930220 0.000000 
#    z 0.037780 0.000000 1.948490 
# 
# From -- ./inp_files/45750.got.cif
#   From: 2010.05.17/outbox.cif.g08.bks.cpg/sg5_23_cif.got.tgz:45750.got - 2010.06.03 18:56:24.
