data_PCOD9129794
_publ_section_title
;
Structure prediction by ZEFSAII (Michael W. Deem and Ramdas Pophale) SiO2 
 PCOD9129794
Probable space group: C 2
;
_chemical_formula_sum "Si O2"
_cell_formula_units_Z 24
_cell_length_a 17.248232
_cell_length_b 7.761218
_cell_length_c 14.454647
_cell_angle_alpha 90.000000
_cell_angle_beta 147.691630
_cell_angle_gamma 90.000000
_cell_volume 1034.213070
_symmetry_space_group_name_H-M "C 2"
_symmetry_group_IT_number 5
_symmetry_cell_setting 'monoclinic'
loop_
_space_group_symop_operation_xyz
x,y,z
-x,y,-z
1/2+x,1/2+y,z
1/2-x,1/2+y,-z
loop_
_atom_site_type_symbol
_atom_site_label
_atom_site_fract_x
_atom_site_fract_y
_atom_site_fract_z
Si Si1 0.686768 0.720510 0.530283
Si Si2 0.023780 0.428535 0.773679
Si Si3 0.327088 0.531888 0.308822
Si Si4 0.796259 0.730491 0.994704
Si Si5 0.068457 0.954262 0.266481
Si Si6 0.872915 0.273311 0.798137
O O1 0.573331 0.876412 0.410893
O O2 0.731300 0.670304 0.676568
O O3 0.829309 0.787279 0.623106
O O4 0.602521 0.565691 0.393006
O O5 0.158894 0.297370 0.912250
O O6 0.924216 0.395466 0.763549
O O7 0.097932 0.610617 0.839980
O O8 0.500000 0.532397 0.500000
O O9 0.265811 0.606856 0.150246
O O10 0.262478 0.352543 0.282703
O O11 0.904726 0.890421 0.080699
O O12 0.128224 0.082853 0.247108
O O13 0.000000 0.279918 0.000000
#
# Coordination Sequence:
#
# PCOD9129794 Si02
#       6
#     4   4   4   4   4   4
#     4  11  23  44  69 107 142 191 246 297 371 427
#     4  11  23  45  69 105 141 195 240 294 365 437
#     4  12  26  47  72 106 150 192 244 309 363 422
#     4  12  25  46  75 104 151 194 245 300 366 443
#     4  11  25  43  75 106 147 195 245 299 365 448
#     4  11  24  44  71 105 141 193 248 290 365 430
#
# _framework density 23.206050999999999
#
# number of rings (size 3 to 8) (size 9 to 14) (size 15 to 20)
#    0.000    0.667    3.333    6.000    2.333    0.000 
#    0.000    0.833    0.000    0.000    0.000    0.000 
#    0.000    0.000    0.000    0.000    0.000    0.000 
#
# Total GULP energy -66992.510889 kJ/mol
# GULP energy per Si atom -5582.709241 kJ/mol
# Density = 2.315323 g / cm^3
# Si number density = 23.206051 Si / 1000 Ang^3
#
#
#
# Elastic Constant Matrix: (Units=GPa)
#
#
# Indices 1 2 3 4 5 6 
#
# 1 60.3592 19.4662 13.4935 0.0000 13.5149 0.0000
# 2 19.4662 59.4660 9.8284 0.0000 13.1423 0.0000
# 3 13.4935 9.8284 77.5676 0.0000 21.3709 0.0000
# 4 0.0000 0.0000 0.0000 35.4148 0.0000 11.9453
# 5 13.5149 13.1423 21.3709 0.0000 43.9697 0.0000
# 6 0.0000 0.0000 0.0000 11.9453 0.0000 40.3059
#
#
#
# Elastic Compliance Matrix: (Units=1/GPa)
#
#
# Indices 1 2 3 4 5 6 
#
# 1 0.019460 -0.005298 -0.001735 0.000000 -0.003555 0.000000
# 2 -0.005298 0.019505 -0.000453 0.000000 -0.003982 0.000000
# 3 -0.001735 -0.000453 0.015087 0.000000 -0.006664 0.000000
# 4 0.000000 0.000000 0.000000 0.031373 0.000000 -0.009298
# 5 -0.003555 -0.003982 -0.006664 0.000000 0.028265 0.000000
# 6 0.000000 0.000000 0.000000 -0.009298 0.000000 0.027566
#
#
# Mechanical properties :
#
#
# Convention : Reuss Voigt Hill
#
# Bulk Modulus (GPa) = 25.58732 31.44099 28.51416
# Shear Modulus (GPa) = 29.54145 34.24507 31.89326
#
# Velocity S-wave (km/s) = 3.57179 3.84565 3.71125
# Velocity P-wave (km/s) = 5.29720 5.77033 5.53882
#
# Compressibility (1/GPa) = 0.03908185
#
# Stress axis : x y z
#
# Youngs Moduli (GPa) = 51.38811 51.26792 66.28114
#
# Poissons Ratio (x) = 0.27161 0.11496
# Poissons Ratio (y) = 0.27225 0.03002
# Poissons Ratio (z) = 0.08913 0.02322
#
# Static dielectric constant tensor:
#      x y z
#    x 1.889030 0.000000 0.012640 
#    y 0.000000 1.960120 0.000000 
#    z 0.012640 0.000000 1.875260 
# 
# From -- ./inp_files/55800.got.cif
#   From: 2010.05.17/outbox.cif.g08.bks.cpg/sg5_28_cif.got.tgz:55800.got - 2010.06.03 18:56:24.
