data_PCOD9129586
_publ_section_title
;
Structure prediction by ZEFSAII (Michael W. Deem and Ramdas Pophale) SiO2 
 PCOD9129586
Probable space group: C 2
;
_chemical_formula_sum "Si O2"
_cell_formula_units_Z 32
_cell_length_a 8.295697
_cell_length_b 15.327125
_cell_length_c 11.665894
_cell_angle_alpha 90.000000
_cell_angle_beta 75.832419
_cell_angle_gamma 90.000000
_cell_volume 1438.192580
_symmetry_space_group_name_H-M "C 2"
_symmetry_group_IT_number 5
_symmetry_cell_setting 'monoclinic'
loop_
_space_group_symop_operation_xyz
x,y,z
-x,y,-z
1/2+x,1/2+y,z
1/2-x,1/2+y,-z
loop_
_atom_site_type_symbol
_atom_site_label
_atom_site_fract_x
_atom_site_fract_y
_atom_site_fract_z
Si Si1 0.201070 0.035460 0.439582
Si Si2 0.105007 0.932433 0.249328
Si Si3 0.813356 0.220966 0.480779
Si Si4 0.720284 0.765267 0.767892
Si Si5 0.870848 0.346171 0.823513
Si Si6 0.197238 0.492041 0.995471
Si Si7 0.252662 0.395019 0.393469
Si Si8 0.305972 0.193616 0.002704
O O1 0.259233 0.133274 0.450787
O O2 0.000000 0.031601 0.500000
O O3 0.206997 0.000433 0.309683
O O4 0.295654 0.968803 0.506590
O O5 0.138644 0.834686 0.285619
O O6 0.909618 0.939018 0.302031
O O7 0.177457 0.942609 0.111133
O O8 0.816751 0.211980 0.341799
O O9 0.719007 0.308183 0.535775
O O10 0.000000 0.227720 0.500000
O O11 0.560099 0.825191 0.821567
O O12 0.768904 0.718746 0.877162
O O13 0.861676 0.360447 0.689247
O O14 0.800794 0.434693 0.890360
O O15 0.777587 0.262344 0.894710
O O16 0.250364 0.592953 0.980399
O O17 0.000000 0.490744 0.000000
O O18 0.500000 0.196668 0.000000
#
# Coordination Sequence:
#
# PCOD9129586 Si02
#       8
#     4   4   4   4   4   4   4   4
#     4   9  22  41  64  98 135 175 226 274 336 401
#     4  11  22  44  68  93 137 179 222 284 337 393
#     4  11  23  43  69 102 136 181 224 275 341 404
#     4  12  23  44  73  92 141 180 221 281 340 405
#     4  12  24  43  66 101 135 179 226 276 342 405
#     4  11  24  44  69  96 133 181 223 279 346 399
#     4  11  24  40  69 101 135 177 228 282 331 403
#     4  11  26  45  66 103 136 176 233 283 338 404
#
# _framework density 22.250149
#
# number of rings (size 3 to 8) (size 9 to 14) (size 15 to 20)
#    0.000    1.000    5.000    1.125    3.500    1.000 
#    2.250    0.000    5.500    0.000    0.000    0.000 
#    0.000    0.000    0.000    0.000    0.000    0.000 
#
# Total GULP energy -89304.621777 kJ/mol
# GULP energy per Si atom -5581.538861 kJ/mol
# Density = 2.219951 g / cm^3
# Si number density = 22.250149 Si / 1000 Ang^3
#
#
#
# Elastic Constant Matrix: (Units=GPa)
#
#
# Indices 1 2 3 4 5 6 
#
# 1 44.6703 2.4708 22.6000 0.0000 9.5269 0.0000
# 2 2.4708 111.5346 12.3508 0.0000 12.0758 0.0000
# 3 22.6000 12.3508 87.8244 0.0000 28.8750 0.0000
# 4 0.0000 0.0000 0.0000 25.6835 0.0000 4.8547
# 5 9.5269 12.0758 28.8750 0.0000 28.1460 0.0000
# 6 0.0000 0.0000 0.0000 4.8547 0.0000 18.5736
#
#
#
# Elastic Compliance Matrix: (Units=1/GPa)
#
#
# Indices 1 2 3 4 5 6 
#
# 1 0.025910 0.000392 -0.005710 0.000000 -0.003081 0.000000
# 2 0.000392 0.009409 -0.000080 0.000000 -0.004087 0.000000
# 3 -0.005710 -0.000080 0.018440 0.000000 -0.016950 0.000000
# 4 0.000000 0.000000 0.000000 0.040959 0.000000 -0.010706
# 5 -0.003081 -0.004087 -0.016950 0.000000 0.055715 0.000000
# 6 0.000000 0.000000 0.000000 -0.010706 0.000000 0.056638
#
#
# Mechanical properties :
#
#
# Convention : Reuss Voigt Hill
#
# Bulk Modulus (GPa) = 23.27617 35.43027 29.35322
# Shear Modulus (GPa) = 21.53428 28.25447 24.89437
#
# Velocity S-wave (km/s) = 3.11437 3.56737 3.34854
# Velocity P-wave (km/s) = 4.83903 5.73815 5.30766
#
# Compressibility (1/GPa) = 0.04296239
#
# Stress axis : x y z
#
# Youngs Moduli (GPa) = 38.59462 106.28658 54.23009
#
# Poissons Ratio (x) = -0.04165 0.30964
# Poissons Ratio (y) = -0.01512 0.00435
# Poissons Ratio (z) = 0.22037 0.00853
#
# Static dielectric constant tensor:
#      x y z
#    x 1.883750 0.000000 0.013320 
#    y 0.000000 1.823020 0.000000 
#    z 0.013320 0.000000 1.816410 
# 
# From -- ./inp_files/36430.got.cif
#   From: 2010.05.17/outbox.cif.g08.bks.cpg/sg5_19_cif.got.tgz:36430.got - 2010.06.03 18:56:24.
