data_PCOD9129722
_publ_section_title
;
Structure prediction by ZEFSAII (Michael W. Deem and Ramdas Pophale) SiO2 
 PCOD9129722
Probable space group: C 2
;
_chemical_formula_sum "Si O2"
_cell_formula_units_Z 22
_cell_length_a 4.989385
_cell_length_b 19.414423
_cell_length_c 10.565890
_cell_angle_alpha 90.000000
_cell_angle_beta 105.078538
_cell_angle_gamma 90.000000
_cell_volume 988.237701
_symmetry_space_group_name_H-M "C 2"
_symmetry_group_IT_number 5
_symmetry_cell_setting 'monoclinic'
loop_
_space_group_symop_operation_xyz
x,y,z
-x,y,-z
1/2+x,1/2+y,z
1/2-x,1/2+y,-z
loop_
_atom_site_type_symbol
_atom_site_label
_atom_site_fract_x
_atom_site_fract_y
_atom_site_fract_z
Si Si1 0.891031 0.852120 0.630349
Si Si2 0.323492 0.062443 0.704803
Si Si3 0.000000 0.470223 0.500000
Si Si4 0.909504 0.031611 0.860103
Si Si5 0.711196 0.201703 0.410743
Si Si6 0.813295 0.881330 0.086768
O O1 0.688783 0.918339 0.607400
O O2 0.742415 0.778779 0.634787
O O3 0.000000 0.853984 0.500000
O O4 0.131567 0.853959 0.765109
O O5 0.037947 0.061103 0.746839
O O6 0.398624 0.142246 0.693172
O O7 0.578478 0.029330 0.814083
O O8 0.329500 0.019128 0.574892
O O9 0.059609 0.957844 0.886122
O O10 0.000000 0.069646 0.000000
O O11 0.500000 0.207963 0.500000
O O12 0.000000 0.174452 0.500000
O O13 0.500000 0.881173 0.000000
O O14 0.000000 0.846048 0.000000
#
# Coordination Sequence:
#
# PCOD9129722 Si02
#       6
#     4   4   2   4   4   4
#     4  11  25  43  71 103 141 185 236 294 347 423
#     4  12  24  40  67 101 138 170 230 291 346 412
#     4  12  24  40  72 110 134 172 242 298 348 412
#     4  11  23  42  65  95 131 183 229 283 343 408
#     4  11  24  43  65  99 144 182 220 285 366 411
#     4  11  24  42  66  98 138 179 227 287 350 406
#
# _framework density 22.261851
#
# number of rings (size 3 to 8) (size 9 to 14) (size 15 to 20)
#    0.000    0.727    3.636    4.909    2.545    0.000 
#    0.000    2.727    0.000    0.000    0.000    0.000 
#    0.000    0.000    0.000    0.000    0.000    0.000 
#
# Total GULP energy -61444.859837 kJ/mol
# GULP energy per Si atom -5585.896349 kJ/mol
# Density = 2.221118 g / cm^3
# Si number density = 22.261851 Si / 1000 Ang^3
#
#
#
# Elastic Constant Matrix: (Units=GPa)
#
#
# Indices 1 2 3 4 5 6 
#
# 1 79.0738 -2.3260 24.5544 0.0000 15.6157 0.0000
# 2 -2.3260 91.1553 19.3438 0.0000 -7.5233 0.0000
# 3 24.5544 19.3438 133.2828 0.0000 14.0269 0.0000
# 4 0.0000 0.0000 0.0000 7.2491 0.0000 3.7630
# 5 15.6157 -7.5233 14.0269 0.0000 51.0615 0.0000
# 6 0.0000 0.0000 0.0000 3.7630 0.0000 20.5749
#
#
#
# Elastic Compliance Matrix: (Units=1/GPa)
#
#
# Indices 1 2 3 4 5 6 
#
# 1 0.014086 0.000550 -0.002296 0.000000 -0.003596 0.000000
# 2 0.000550 0.011581 -0.002002 0.000000 0.002088 0.000000
# 3 -0.002296 -0.002002 0.008417 0.000000 -0.001905 0.000000
# 4 0.000000 0.000000 0.000000 0.152418 0.000000 -0.027876
# 5 -0.003596 0.002088 -0.001905 0.000000 0.021515 0.000000
# 6 0.000000 0.000000 0.000000 -0.027876 0.000000 0.053701
#
#
# Mechanical properties :
#
#
# Convention : Reuss Voigt Hill
#
# Bulk Modulus (GPa) = 37.61168 42.96180 40.28674
# Shear Modulus (GPa) = 17.98061 33.23976 25.61019
#
# Velocity S-wave (km/s) = 2.84507 3.86829 3.39544
# Velocity P-wave (km/s) = 5.26539 6.26832 5.78862
#
# Compressibility (1/GPa) = 0.02658748
#
# Stress axis : x y z
#
# Youngs Moduli (GPa) = 70.99356 86.34468 118.80831
#
# Poissons Ratio (x) = -0.04749 0.27283
# Poissons Ratio (y) = -0.03904 0.23785
# Poissons Ratio (z) = 0.16303 0.17286
#
# Static dielectric constant tensor:
#      x y z
#    x 1.817860 0.000000 -0.010050 
#    y 0.000000 1.846640 0.000000 
#    z -0.010050 0.000000 1.941790 
# 
# From -- ./inp_files/12578.got.cif
#   From: 2010.05.17/outbox.cif.g08.bks.cpg/sg5_7_cif.got.tgz:12578.got - 2010.06.03 18:56:24.
