data_PCOD9129362
_publ_section_title
;
Structure prediction by ZEFSAII (Michael W. Deem and Ramdas Pophale) SiO2 
 PCOD9129362
Probable space group: C 2
;
_chemical_formula_sum "Si O2"
_cell_formula_units_Z 24
_cell_length_a 9.539417
_cell_length_b 18.239163
_cell_length_c 10.001521
_cell_angle_alpha 90.000000
_cell_angle_beta 135.343360
_cell_angle_gamma 90.000000
_cell_volume 1223.093078
_symmetry_space_group_name_H-M "C 2"
_symmetry_group_IT_number 5
_symmetry_cell_setting 'monoclinic'
loop_
_space_group_symop_operation_xyz
x,y,z
-x,y,-z
1/2+x,1/2+y,z
1/2-x,1/2+y,-z
loop_
_atom_site_type_symbol
_atom_site_label
_atom_site_fract_x
_atom_site_fract_y
_atom_site_fract_z
Si Si1 0.982038 0.103060 0.144136
Si Si2 0.014061 0.276764 0.850189
Si Si3 0.353389 0.359939 0.513412
Si Si4 0.403303 0.017941 0.076043
Si Si5 0.682738 0.532977 0.526195
Si Si6 0.868585 0.875913 0.041132
O O1 0.012190 0.189770 0.176139
O O2 0.129950 0.059211 0.341790
O O3 0.763870 0.080020 0.046248
O O4 0.000000 0.082597 0.000000
O O5 0.849250 0.316051 0.646101
O O6 0.225864 0.305452 0.942338
O O7 0.000000 0.297405 0.000000
O O8 0.500000 0.329193 0.500000
O O9 0.313471 0.445163 0.456522
O O10 0.475654 0.362816 0.733125
O O11 0.589059 0.050831 0.284395
O O12 0.500000 0.998120 0.000000
O O13 0.279782 0.945850 0.039388
O O14 0.500000 0.558659 0.500000
O O15 0.000000 0.887103 0.000000
#
# Coordination Sequence:
#
# PCOD9129362 Si02
#       6
#     4   4   4   4   4   4
#     4  11  26  45  65 103 140 173 225 281 333 400
#     4  11  24  46  70  96 137 184 222 271 340 407
#     4  11  21  41  75  97 126 177 234 270 326 410
#     4  12  22  43  73  95 134 185 225 272 338 403
#     4  11  22  41  72 101 125 177 232 275 328 407
#     4  12  25  42  67 104 134 170 230 285 333 387
#
# _framework density 19.622382000000002
#
# number of rings (size 3 to 8) (size 9 to 14) (size 15 to 20)
#    0.000    0.667    6.667    2.000    0.000    3.333 
#    3.000    0.000    0.000    0.000    0.000    0.000 
#    0.000    0.000    0.000    0.000    0.000    0.000 
#
# Total GULP energy -66975.765977 kJ/mol
# GULP energy per Si atom -5581.313831 kJ/mol
# Density = 1.957772 g / cm^3
# Si number density = 19.622382 Si / 1000 Ang^3
#
#
#
# Elastic Constant Matrix: (Units=GPa)
#
#
# Indices 1 2 3 4 5 6 
#
# 1 125.6476 21.0023 53.5576 0.0000 -7.7893 0.0000
# 2 21.0023 56.2602 20.5018 0.0000 1.1242 0.0000
# 3 53.5576 20.5018 160.8081 0.0000 15.4446 0.0000
# 4 0.0000 0.0000 0.0000 11.0810 0.0000 -2.7412
# 5 -7.7893 1.1242 15.4446 0.0000 35.3452 0.0000
# 6 0.0000 0.0000 0.0000 -2.7412 0.0000 24.6828
#
#
#
# Elastic Compliance Matrix: (Units=1/GPa)
#
#
# Indices 1 2 3 4 5 6 
#
# 1 0.010071 -0.002601 -0.003386 0.000000 0.003782 0.000000
# 2 -0.002601 0.019320 -0.001548 0.000000 -0.000512 0.000000
# 3 -0.003386 -0.001548 0.007944 0.000000 -0.004168 0.000000
# 4 0.000000 0.000000 0.000000 0.092794 0.000000 0.010306
# 5 0.003782 -0.000512 -0.004168 0.000000 0.030963 0.000000
# 6 0.000000 0.000000 0.000000 0.010306 0.000000 0.041659
#
#
# Mechanical properties :
#
#
# Convention : Reuss Voigt Hill
#
# Bulk Modulus (GPa) = 44.91285 59.20438 52.05861
# Shear Modulus (GPa) = 22.19836 30.73209 26.46523
#
# Velocity S-wave (km/s) = 3.36710 3.96179 3.67649
# Velocity P-wave (km/s) = 6.16885 7.15297 6.67906
#
# Compressibility (1/GPa) = 0.02226534
#
# Stress axis : x y z
#
# Youngs Moduli (GPa) = 99.29252 51.76025 125.88309
#
# Poissons Ratio (x) = 0.13465 0.42622
# Poissons Ratio (y) = 0.25830 0.19482
# Poissons Ratio (z) = 0.33619 0.08010
#
# Static dielectric constant tensor:
#      x y z
#    x 1.691920 0.000000 0.002540 
#    y 0.000000 1.688990 0.000000 
#    z 0.002540 0.000000 1.771170 
# 
# From -- ./inp_files/16686.got.cif
#   From: 2010.05.17/outbox.cif.g08.bks.cpg/sg5_9_cif.got.tgz:16686.got - 2010.06.03 18:56:24.
