data_PCOD9129488
_publ_section_title
;
Structure prediction by ZEFSAII (Michael W. Deem and Ramdas Pophale) SiO2 
 PCOD9129488
Probable space group: C 2
;
_chemical_formula_sum "Si O2"
_cell_formula_units_Z 20
_cell_length_a 9.902626
_cell_length_b 14.506176
_cell_length_c 7.465842
_cell_angle_alpha 90.000000
_cell_angle_beta 62.946203
_cell_angle_gamma 90.000000
_cell_volume 955.113504
_symmetry_space_group_name_H-M "C 2"
_symmetry_group_IT_number 5
_symmetry_cell_setting 'monoclinic'
loop_
_space_group_symop_operation_xyz
x,y,z
-x,y,-z
1/2+x,1/2+y,z
1/2-x,1/2+y,-z
loop_
_atom_site_type_symbol
_atom_site_label
_atom_site_fract_x
_atom_site_fract_y
_atom_site_fract_z
Si Si1 0.273647 0.746380 0.811956
Si Si2 0.911121 0.295502 0.387151
Si Si3 0.666474 0.053492 0.962499
Si Si4 0.672320 0.433295 0.419629
Si Si5 0.668799 0.454351 0.837037
O O1 0.309205 0.730690 0.577186
O O2 0.443698 0.750487 0.792457
O O3 0.181493 0.663299 0.948373
O O4 0.195596 0.846100 0.868892
O O5 0.801007 0.354392 0.332243
O O6 0.000000 0.349993 0.500000
O O7 0.786861 0.009736 0.750561
O O8 0.500000 0.025573 0.000000
O O9 0.709414 0.012467 0.127324
O O10 0.500000 0.399385 0.500000
O O11 0.683964 0.467143 0.616463
O O12 0.500000 0.479986 0.000000
#
# Coordination Sequence:
#
# PCOD9129488 Si02
#       5
#     4   4   4   4   4
#     4   8  19  39  63  88 134 162 210 275 315 371
#     4   7  17  36  68  84 121 171 205 256 329 365
#     4  12  25  38  68  98 128 175 219 262 326 384
#     4  11  22  40  68  92 130 173 218 262 322 383
#     4  11  22  42  65  92 132 170 216 267 323 383
#
# _framework density 20.939919
#
# number of rings (size 3 to 8) (size 9 to 14) (size 15 to 20)
#    1.200    0.800    2.000    1.800    2.800    0.000 
#    0.000    7.000    0.000    0.000    0.000    0.000 
#    0.000    0.000    0.000    0.000    0.000    0.000 
#
# Total GULP energy -55717.570827 kJ/mol
# GULP energy per Si atom -5571.757083 kJ/mol
# Density = 2.089226 g / cm^3
# Si number density = 20.939919 Si / 1000 Ang^3
#
#
#
# Elastic Constant Matrix: (Units=GPa)
#
#
# Indices 1 2 3 4 5 6 
#
# 1 126.5477 12.5530 10.5099 0.0000 5.5396 0.0000
# 2 12.5530 37.9105 4.2069 0.0000 13.0750 0.0000
# 3 10.5099 4.2069 45.5869 0.0000 15.9258 0.0000
# 4 0.0000 0.0000 0.0000 17.6979 0.0000 -6.7764
# 5 5.5396 13.0750 15.9258 0.0000 33.0413 0.0000
# 6 0.0000 0.0000 0.0000 -6.7764 0.0000 20.9483
#
#
#
# Elastic Compliance Matrix: (Units=1/GPa)
#
#
# Indices 1 2 3 4 5 6 
#
# 1 0.008304 -0.002748 -0.001869 0.000000 0.000596 0.000000
# 2 -0.002748 0.031565 0.002313 0.000000 -0.013145 0.000000
# 3 -0.001869 0.002313 0.026892 0.000000 -0.013564 0.000000
# 4 0.000000 0.000000 0.000000 0.064492 0.000000 0.020862
# 5 0.000596 -0.013145 -0.013564 0.000000 0.041904 0.000000
# 6 0.000000 0.000000 0.000000 0.020862 0.000000 0.054485
#
#
# Mechanical properties :
#
#
# Convention : Reuss Voigt Hill
#
# Bulk Modulus (GPa) = 16.08949 29.39828 22.74389
# Shear Modulus (GPa) = 19.76540 26.52252 23.14396
#
# Velocity S-wave (km/s) = 3.07565 3.56279 3.32815
# Velocity P-wave (km/s) = 4.50701 5.56727 5.06496
#
# Compressibility (1/GPa) = 0.06215237
#
# Stress axis : x y z
#
# Youngs Moduli (GPa) = 120.42593 31.68105 37.18563
#
# Poissons Ratio (x) = 0.08705 0.06950
# Poissons Ratio (y) = 0.33090 -0.08600
# Poissons Ratio (z) = 0.22508 -0.07327
#
# Static dielectric constant tensor:
#      x y z
#    x 1.779760 0.000000 -0.025970 
#    y 0.000000 1.761200 0.000000 
#    z -0.025970 0.000000 1.786910 
# 
# From -- ./inp_files/14705.got.cif
#   From: 2010.05.17/outbox.cif.g08.bks.cpg/sg5_8_cif.got.tgz:14705.got - 2010.06.03 18:56:24.
