data_PCOD9129371
_publ_section_title
;
Structure prediction by ZEFSAII (Michael W. Deem and Ramdas Pophale) SiO2 
 PCOD9129371
Probable space group: C 2
;
_chemical_formula_sum "Si O2"
_cell_formula_units_Z 28
_cell_length_a 14.274790
_cell_length_b 12.698032
_cell_length_c 7.709874
_cell_angle_alpha 90.000000
_cell_angle_beta 117.952214
_cell_angle_gamma 90.000000
_cell_volume 1234.470597
_symmetry_space_group_name_H-M "C 2"
_symmetry_group_IT_number 5
_symmetry_cell_setting 'monoclinic'
loop_
_space_group_symop_operation_xyz
x,y,z
-x,y,-z
1/2+x,1/2+y,z
1/2-x,1/2+y,-z
loop_
_atom_site_type_symbol
_atom_site_label
_atom_site_fract_x
_atom_site_fract_y
_atom_site_fract_z
Si Si1 0.608536 0.048610 0.492533
Si Si2 0.612678 0.863165 0.007161
Si Si3 0.946596 0.142963 0.138340
Si Si4 0.218729 0.567392 0.929085
Si Si5 0.713192 0.146444 0.271667
Si Si6 0.403089 0.493742 0.522649
Si Si7 0.774410 0.348398 0.530963
O O1 0.500000 0.054232 0.500000
O O2 0.689867 0.092646 0.706367
O O3 0.620671 0.109636 0.321940
O O4 0.642124 0.930004 0.477450
O O5 0.688583 0.831985 0.236630
O O6 0.500000 0.892871 0.000000
O O7 0.592575 0.762377 0.865402
O O8 0.662994 0.959195 0.943204
O O9 0.033837 0.089282 0.332830
O O10 0.845656 0.067297 0.041025
O O11 0.000000 0.151704 0.000000
O O12 0.182668 0.652070 0.043833
O O13 0.801799 0.053105 0.350403
O O14 0.765974 0.246040 0.406829
O O15 0.500000 0.442705 0.500000
O O16 0.340925 0.405060 0.575184
#
# Coordination Sequence:
#
# PCOD9129371 Si02
#       7
#     4   4   4   4   4   4   4
#     4  11  25  44  69  98 135 177 231 291 344 410
#     4  11  22  42  72 101 138 186 238 283 349 414
#     4  11  23  42  67 103 133 185 230 286 341 418
#     4  12  24  42  71 100 141 178 235 291 345 412
#     4  11  24  44  65 100 142 181 229 286 347 415
#     4  11  21  42  68  99 143 180 232 288 347 409
#     4  11  23  44  67 102 142 181 232 292 345 415
#
# _framework density 22.681788999999998
#
# number of rings (size 3 to 8) (size 9 to 14) (size 15 to 20)
#    0.000    0.857    4.286    5.143    2.000    1.143 
#    0.000    1.429    3.143    0.000    0.000    0.000 
#    0.000    0.000    0.000    0.000    0.000    0.000 
#
# Total GULP energy -78171.969038 kJ/mol
# GULP energy per Si atom -5583.712074 kJ/mol
# Density = 2.263016 g / cm^3
# Si number density = 22.681789 Si / 1000 Ang^3
#
#
#
# Elastic Constant Matrix: (Units=GPa)
#
#
# Indices 1 2 3 4 5 6 
#
# 1 105.8542 8.1190 -4.7618 0.0000 15.1774 0.0000
# 2 8.1190 49.2846 13.8011 0.0000 8.3781 0.0000
# 3 -4.7618 13.8011 53.9766 0.0000 -9.3334 0.0000
# 4 0.0000 0.0000 0.0000 23.4931 0.0000 6.2199
# 5 15.1774 8.3781 -9.3334 0.0000 31.0953 0.0000
# 6 0.0000 0.0000 0.0000 6.2199 0.0000 26.0068
#
#
#
# Elastic Compliance Matrix: (Units=1/GPa)
#
#
# Indices 1 2 3 4 5 6 
#
# 1 0.010199 -0.000999 0.000360 0.000000 -0.004601 0.000000
# 2 -0.000999 0.024007 -0.007658 0.000000 -0.008279 0.000000
# 3 0.000360 -0.007658 0.021984 0.000000 0.008486 0.000000
# 4 0.000000 0.000000 0.000000 0.045443 0.000000 -0.010868
# 5 -0.004601 -0.008279 0.008486 0.000000 0.039183 0.000000
# 6 0.000000 0.000000 0.000000 -0.010868 0.000000 0.041051
#
#
# Mechanical properties :
#
#
# Convention : Reuss Voigt Hill
#
# Bulk Modulus (GPa) = 25.25530 27.04801 26.15165
# Shear Modulus (GPa) = 23.62283 28.91617 26.26950
#
# Velocity S-wave (km/s) = 3.23071 3.57440 3.40689
# Velocity P-wave (km/s) = 5.00754 5.38386 5.19911
#
# Compressibility (1/GPa) = 0.03959565
#
# Stress axis : x y z
#
# Youngs Moduli (GPa) = 98.04432 41.65500 45.48827
#
# Poissons Ratio (x) = 0.04160 -0.01635
# Poissons Ratio (y) = 0.09792 0.34835
# Poissons Ratio (z) = -0.03525 0.31899
#
# Static dielectric constant tensor:
#      x y z
#    x 1.852260 0.000000 0.002460 
#    y 0.000000 1.874310 0.000000 
#    z 0.002460 0.000000 1.998430 
# 
# From -- ./inp_files/23725.got.cif
#   From: 2010.05.17/outbox.cif.g08.bks.cpg/sg5_12_cif.got.tgz:23725.got - 2010.06.03 18:56:24.
