data_PCOD9129311
_publ_section_title
;
Structure prediction by ZEFSAII (Michael W. Deem and Ramdas Pophale) SiO2 
 PCOD9129311
Probable space group: C 2
;
_chemical_formula_sum "Si O2"
_cell_formula_units_Z 20
_cell_length_a 19.398038
_cell_length_b 9.627620
_cell_length_c 4.902296
_cell_angle_alpha 90.000000
_cell_angle_beta 76.581893
_cell_angle_gamma 90.000000
_cell_volume 890.545984
_symmetry_space_group_name_H-M "C 2"
_symmetry_group_IT_number 5
_symmetry_cell_setting 'monoclinic'
loop_
_space_group_symop_operation_xyz
x,y,z
-x,y,-z
1/2+x,1/2+y,z
1/2-x,1/2+y,-z
loop_
_atom_site_type_symbol
_atom_site_label
_atom_site_fract_x
_atom_site_fract_y
_atom_site_fract_z
Si Si1 0.876780 0.286970 0.572031
Si Si2 0.546447 0.035363 0.228546
Si Si3 0.270939 0.381770 0.416953
Si Si4 0.837804 0.125756 0.080225
Si Si5 0.797640 0.604177 0.127418
O O1 0.932366 0.396786 0.624204
O O2 0.802731 0.369001 0.682219
O O3 0.869810 0.232950 0.270573
O O4 0.879772 0.152974 0.764197
O O5 0.500000 0.117578 0.500000
O O6 0.500000 0.012016 0.000000
O O7 0.622512 0.090278 0.051591
O O8 0.331045 0.476333 0.223378
O O9 0.242240 0.469151 0.704282
O O10 0.296806 0.223141 0.363581
O O11 0.756521 0.151905 0.059724
#
# Coordination Sequence:
#
# PCOD9129311 Si02
#       5
#     4   4   4   4   4
#     4  11  23  39  64  99 138 176 237 280 353 406
#     4  12  26  45  68  98 146 199 240 281 327 443
#     4  11  21  39  67 105 145 172 217 311 364 416
#     4  11  21  37  65 100 138 171 220 308 356 402
#     4  11  25  40  70 109 148 182 234 286 378 413
#
# _framework density 22.458131000000002
#
# number of rings (size 3 to 8) (size 9 to 14) (size 15 to 20)
#    0.000    0.800    6.000    3.600    2.800    0.000 
#    0.000    0.000    0.000    4.800    0.000    2.800 
#    0.000    0.000    0.000    0.000    0.000    0.000 
#
# Total GULP energy -55675.162442 kJ/mol
# GULP energy per Si atom -5567.516244 kJ/mol
# Density = 2.240702 g / cm^3
# Si number density = 22.458131 Si / 1000 Ang^3
#
#
#
# Elastic Constant Matrix: (Units=GPa)
#
#
# Indices 1 2 3 4 5 6 
#
# 1 100.6925 16.0450 48.1004 0.0000 -5.0409 0.0000
# 2 16.0450 69.6842 45.0590 0.0000 -4.2159 0.0000
# 3 48.1004 45.0590 154.7106 0.0000 5.5721 0.0000
# 4 0.0000 0.0000 0.0000 22.6718 0.0000 -0.7643
# 5 -5.0409 -4.2159 5.5721 0.0000 44.0485 0.0000
# 6 0.0000 0.0000 0.0000 -0.7643 0.0000 9.9034
#
#
#
# Elastic Compliance Matrix: (Units=1/GPa)
#
#
# Indices 1 2 3 4 5 6 
#
# 1 0.011811 -0.000240 -0.003667 0.000000 0.001792 0.000000
# 2 -0.000240 0.017931 -0.005232 0.000000 0.002351 0.000000
# 3 -0.003667 -0.005232 0.009203 0.000000 -0.002085 0.000000
# 4 0.000000 0.000000 0.000000 0.044223 0.000000 0.003413
# 5 0.001792 0.002351 -0.002085 0.000000 0.023396 0.000000
# 6 0.000000 0.000000 0.000000 0.003413 0.000000 0.101239
#
#
# Mechanical properties :
#
#
# Convention : Reuss Voigt Hill
#
# Bulk Modulus (GPa) = 48.38782 60.38845 54.38813
# Shear Modulus (GPa) = 21.46203 29.71692 25.58947
#
# Velocity S-wave (km/s) = 3.09471 3.64155 3.37921
# Velocity P-wave (km/s) = 5.86193 6.68048 6.28455
#
# Compressibility (1/GPa) = 0.02066636
#
# Stress axis : x y z
#
# Youngs Moduli (GPa) = 84.66846 55.76822 108.66393
#
# Poissons Ratio (x) = 0.01339 0.39843
# Poissons Ratio (y) = 0.02033 0.56858
# Poissons Ratio (z) = 0.31045 0.29181
#
# Static dielectric constant tensor:
#      x y z
#    x 1.839480 0.000000 -0.025370 
#    y 0.000000 1.969120 0.000000 
#    z -0.025370 0.000000 1.949530 
# 
# From -- ./inp_files/9259.got.cif
#   From: 2010.05.17/outbox.cif.g08.bks.cpg/sg5_5_cif.got.tgz:9259.got - 2010.06.03 18:56:24.
