data_PCOD9129713
_publ_section_title
;
Structure prediction by ZEFSAII (Michael W. Deem and Ramdas Pophale) SiO2 
 PCOD9129713
Probable space group: C 2
;
_chemical_formula_sum "Si O2"
_cell_formula_units_Z 24
_cell_length_a 13.774914
_cell_length_b 12.686589
_cell_length_c 5.558792
_cell_angle_alpha 90.000000
_cell_angle_beta 87.700073
_cell_angle_gamma 90.000000
_cell_volume 970.653449
_symmetry_space_group_name_H-M "C 2"
_symmetry_group_IT_number 5
_symmetry_cell_setting 'monoclinic'
loop_
_space_group_symop_operation_xyz
x,y,z
-x,y,-z
1/2+x,1/2+y,z
1/2-x,1/2+y,-z
loop_
_atom_site_type_symbol
_atom_site_label
_atom_site_fract_x
_atom_site_fract_y
_atom_site_fract_z
Si Si1 0.419877 0.856890 0.816084
Si Si2 0.956656 0.899974 0.756867
Si Si3 0.223724 0.396418 0.792561
Si Si4 0.392475 0.054788 0.499711
Si Si5 0.794554 0.160670 0.300313
Si Si6 0.900512 0.121591 0.777650
O O1 0.414771 0.943808 0.619593
O O2 0.447054 0.737363 0.759104
O O3 0.500000 0.892649 0.000000
O O4 0.312600 0.865301 0.939456
O O5 0.839572 0.899434 0.769047
O O6 0.000000 0.860729 0.500000
O O7 0.975324 0.025890 0.768372
O O8 0.000000 0.852513 0.000000
O O9 0.167950 0.504641 0.722467
O O10 0.194950 0.286972 0.662919
O O11 0.500000 0.106906 0.500000
O O12 0.317438 0.125005 0.659970
O O13 0.843455 0.111343 0.531867
O O14 0.837844 0.126190 0.035013
#
# Coordination Sequence:
#
# PCOD9129713 Si02
#       6
#     4   4   4   4   4   4
#     4  11  23  41  70 105 137 179 230 295 351 411
#     4  12  27  44  70 100 134 187 234 283 340 415
#     4  11  25  46  68  97 143 183 231 285 348 413
#     4  12  24  42  72 103 141 181 236 285 352 418
#     4  11  25  43  71 101 137 185 219 285 348 412
#     4  11  23  44  70 100 140 173 230 287 346 407
#
# _framework density 24.725608000000001
#
# number of rings (size 3 to 8) (size 9 to 14) (size 15 to 20)
#    0.000    0.667    5.000    2.500    2.333    2.667 
#    0.000    0.833    0.000    0.000    0.000    0.000 
#    0.000    0.000    0.000    0.000    0.000    0.000 
#
# Total GULP energy -66944.132305 kJ/mol
# GULP energy per Si atom -5578.677692 kJ/mol
# Density = 2.466933 g / cm^3
# Si number density = 24.725608 Si / 1000 Ang^3
#
#
#
# Elastic Constant Matrix: (Units=GPa)
#
#
# Indices 1 2 3 4 5 6 
#
# 1 149.4116 -4.0415 61.6639 0.0000 -19.4544 0.0000
# 2 -4.0415 61.2540 3.1044 0.0000 -15.1974 0.0000
# 3 61.6639 3.1044 147.2334 0.0000 -5.4078 0.0000
# 4 0.0000 0.0000 0.0000 12.5214 0.0000 -17.6727
# 5 -19.4544 -15.1974 -5.4078 0.0000 41.8206 0.0000
# 6 0.0000 0.0000 0.0000 -17.6727 0.0000 -19.4438
#
#
#
# Elastic Compliance Matrix: (Units=1/GPa)
#
#
# Indices 1 2 3 4 5 6 
#
# 1 0.008765 0.001820 -0.003552 0.000000 0.004280 0.000000
# 2 0.001820 0.018324 -0.000877 0.000000 0.007392 0.000000
# 3 -0.003552 -0.000877 0.008265 0.000000 -0.000903 0.000000
# 4 0.000000 0.000000 0.000000 0.034984 0.000000 -0.031798
# 5 0.004280 0.007392 -0.000903 0.000000 0.028472 0.000000
# 6 0.000000 0.000000 0.000000 -0.031798 0.000000 -0.022529
#
#
# Mechanical properties :
#
#
# Convention : Reuss Voigt Hill
#
# Bulk Modulus (GPa) = 33.18293 53.26142 43.22218
# Shear Modulus (GPa) = 54.61743 26.79110 40.70427
#
# Velocity S-wave (km/s) = 4.70504 3.29528 4.06179
# Velocity P-wave (km/s) = 6.55485 6.00552 6.28619
#
# Compressibility (1/GPa) = 0.03013597
#
# Stress axis : x y z
#
# Youngs Moduli (GPa) = 114.08379 54.57305 120.99128
#
# Poissons Ratio (x) = -0.09933 0.42980
# Poissons Ratio (y) = -0.20765 0.10613
# Poissons Ratio (z) = 0.40526 0.04787
#
# Static dielectric constant tensor:
#      x y z
#    x 2.131330 0.000000 0.021300 
#    y 0.000000 1.985380 0.000000 
#    z 0.021300 0.000000 2.103560 
# 
# From -- ./inp_files/6891.got.cif
#   From: 2010.05.17/outbox.cif.g08.bks.cpg/sg5_4_cif.got.tgz:6891.got - 2010.06.03 18:56:24.
