data_PCOD9129898
_publ_section_title
;
Structure prediction by ZEFSAII (Michael W. Deem and Ramdas Pophale) SiO2 
 PCOD9129898
Probable space group: C 2
;
_chemical_formula_sum "Si O2"
_cell_formula_units_Z 18
_cell_length_a 9.245647
_cell_length_b 19.360043
_cell_length_c 8.231474
_cell_angle_alpha 90.000000
_cell_angle_beta 33.481624
_cell_angle_gamma 90.000000
_cell_volume 812.830927
_symmetry_space_group_name_H-M "C 2"
_symmetry_group_IT_number 5
_symmetry_cell_setting 'monoclinic'
loop_
_space_group_symop_operation_xyz
x,y,z
-x,y,-z
1/2+x,1/2+y,z
1/2-x,1/2+y,-z
loop_
_atom_site_type_symbol
_atom_site_label
_atom_site_fract_x
_atom_site_fract_y
_atom_site_fract_z
Si Si1 0.480181 0.764180 0.327561
Si Si2 0.500000 0.662662 0.000000
Si Si3 0.958636 0.003195 0.350217
Si Si4 0.475005 0.346287 0.722202
Si Si5 0.941606 0.558742 0.707629
O O1 0.500000 0.742341 0.500000
O O2 0.483240 0.706425 0.182089
O O3 0.194571 0.796657 0.585445
O O4 0.699600 0.819531 0.056500
O O5 0.234374 0.618164 0.218682
O O6 0.000000 0.998142 0.500000
O O7 0.943505 0.924019 0.305838
O O8 0.718144 0.054900 0.540050
O O9 0.225657 0.031531 0.029342
O O10 0.500000 0.341026 0.500000
O O11 0.000000 0.508905 0.500000
#
# Coordination Sequence:
#
# PCOD9129898 Si02
#       5
#     4   2   4   4   4
#     4  12  27  46  77 111 143 195 251 306 369 445
#     4  12  28  50  76 106 162 198 254 300 376 444
#     4  11  25  45  75 111 148 191 250 307 377 445
#     4  11  23  47  75 107 153 191 236 317 380 434
#     4  12  25  46  71 100 146 205 238 304 368 435
#
# _framework density 22.144825999999998
#
# number of rings (size 3 to 8) (size 9 to 14) (size 15 to 20)
#    0.000    0.444    4.444    2.667    3.111    9.778 
#    4.000    0.000    0.000    0.000    0.000    0.000 
#    0.000    0.000    0.000    0.000    0.000    0.000 
#
# Total GULP energy -50110.031147 kJ/mol
# GULP energy per Si atom -5567.781239 kJ/mol
# Density = 2.209442 g / cm^3
# Si number density = 22.144826 Si / 1000 Ang^3
#
#
#
# Elastic Constant Matrix: (Units=GPa)
#
#
# Indices 1 2 3 4 5 6 
#
# 1 150.0521 74.2161 30.9680 0.0000 -6.7582 0.0000
# 2 74.2161 89.5448 13.6129 0.0000 -10.9723 0.0000
# 3 30.9680 13.6129 111.4536 -0.0001 -7.6679 0.0000
# 4 0.0000 0.0000 -0.0001 49.2560 0.0000 21.9001
# 5 -6.7582 -10.9723 -7.6679 0.0000 56.0058 0.0000
# 6 0.0000 0.0000 0.0000 21.9001 0.0000 45.1111
#
#
#
# Elastic Compliance Matrix: (Units=1/GPa)
#
#
# Indices 1 2 3 4 5 6 
#
# 1 0.011795 -0.009538 -0.002163 0.000000 -0.000741 0.000000
# 2 -0.009538 0.019331 0.000475 0.000000 0.002701 0.000000
# 3 -0.002163 0.000475 0.009594 0.000000 0.001146 0.000000
# 4 0.000000 0.000000 0.000000 0.025891 0.000000 -0.012569
# 5 -0.000741 0.002701 0.001146 0.000000 0.018452 0.000000
# 6 0.000000 0.000000 0.000000 -0.012569 0.000000 0.028269
#
#
# Mechanical properties :
#
#
# Convention : Reuss Voigt Hill
#
# Bulk Modulus (GPa) = 54.74033 65.40495 60.07264
# Shear Modulus (GPa) = 35.24253 45.55814 40.40033
#
# Velocity S-wave (km/s) = 3.99363 4.54065 4.27590
# Velocity P-wave (km/s) = 6.78516 7.55574 7.18079
#
# Compressibility (1/GPa) = 0.01826807
#
# Stress axis : x y z
#
# Youngs Moduli (GPa) = 84.78314 51.72923 104.22900
#
# Poissons Ratio (x) = 0.49338 0.22548
# Poissons Ratio (y) = 0.80864 -0.04949
# Poissons Ratio (z) = 0.18341 -0.02456
#
# Static dielectric constant tensor:
#      x y z
#    x 1.856880 0.000000 0.041130 
#    y 0.000000 1.862070 0.000000 
#    z 0.041130 0.000000 1.834450 
# 
# From -- ./inp_files/16632.got.cif
#   From: 2010.05.17/outbox.cif.g08.bks.cpg/sg5_9_cif.got.tgz:16632.got - 2010.06.03 18:56:24.
