data_PCOD9129681
_publ_section_title
;
Structure prediction by ZEFSAII (Michael W. Deem and Ramdas Pophale) SiO2 
 PCOD9129681
Probable space group: C 2
;
_chemical_formula_sum "Si O2"
_cell_formula_units_Z 32
_cell_length_a 8.651985
_cell_length_b 22.440259
_cell_length_c 15.200453
_cell_angle_alpha 90.000000
_cell_angle_beta 148.780199
_cell_angle_gamma 90.000000
_cell_volume 1529.678940
_symmetry_space_group_name_H-M "C 2"
_symmetry_group_IT_number 5
_symmetry_cell_setting 'monoclinic'
loop_
_space_group_symop_operation_xyz
x,y,z
-x,y,-z
1/2+x,1/2+y,z
1/2-x,1/2+y,-z
loop_
_atom_site_type_symbol
_atom_site_label
_atom_site_fract_x
_atom_site_fract_y
_atom_site_fract_z
Si Si1 0.804002 0.965560 0.492289
Si Si2 0.764057 0.090868 0.011433
Si Si3 0.161775 0.773556 0.334112
Si Si4 0.052901 0.584961 0.713536
Si Si5 0.690915 0.198207 0.503409
Si Si6 0.406099 0.209141 0.868149
Si Si7 0.316973 0.902318 0.330444
Si Si8 0.317445 0.472495 0.145121
O O1 0.573238 0.908905 0.382531
O O2 0.000000 0.965281 0.500000
O O3 0.025282 0.969032 0.683580
O O4 0.596240 0.024455 0.393805
O O5 0.112159 0.097528 0.157027
O O6 0.764574 0.038198 0.082228
O O7 0.584542 0.077172 0.833994
O O8 0.605210 0.149903 0.968120
O O9 0.500000 0.749404 0.500000
O O10 0.071294 0.755726 0.388635
O O11 0.999751 0.739013 0.177888
O O12 0.205086 0.840347 0.318107
O O13 0.864563 0.641171 0.586959
O O14 0.500000 0.191767 0.500000
O O15 0.046726 0.201532 0.695592
O O16 0.500000 0.246084 0.000000
O O17 0.500000 0.932094 0.500000
O O18 0.025485 0.940740 0.174200
O O19 0.000000 0.441445 0.000000
#
# Coordination Sequence:
#
# PCOD9129681 Si02
#       8
#     4   4   4   4   4   4   4   4
#     4  11  24  40  66 100 136 178 233 276 349 414
#     4  11  23  40  60  90 138 176 220 274 340 408
#     4   9  20  44  69  90 127 181 232 282 338 402
#     4  11  24  38  61  98 134 184 213 278 340 423
#     4  11  24  40  66 100 136 178 233 276 349 414
#     4  11  23  40  61  95 129 180 222 278 337 402
#     4   9  20  44  69  90 127 181 232 282 338 402
#     4  11  23  40  61  95 129 180 222 278 337 402
#
# _framework density 20.919422000000001
#
# number of rings (size 3 to 8) (size 9 to 14) (size 15 to 20)
#    0.000    1.500    2.500    1.875    7.000    0.000 
#    0.000   15.000    0.000    0.000    0.000    0.000 
#    0.000    0.000    0.000    0.000    0.000    0.000 
#
# Total GULP energy -89113.012412 kJ/mol
# GULP energy per Si atom -5569.563276 kJ/mol
# Density = 2.087181 g / cm^3
# Si number density = 20.919422 Si / 1000 Ang^3
#
#
#
# Elastic Constant Matrix: (Units=GPa)
#
#
# Indices 1 2 3 4 5 6 
#
# 1 83.6600 20.1038 28.6577 0.0001 2.1692 -0.0008
# 2 20.1038 73.2522 19.3727 -0.0002 0.9832 -0.0009
# 3 28.6577 19.3727 100.2751 0.0020 -4.8016 0.0013
# 4 0.0001 -0.0002 0.0020 23.4264 0.0006 -0.6456
# 5 2.1692 0.9832 -4.8016 0.0006 32.4344 0.0007
# 6 -0.0008 -0.0009 0.0013 -0.6456 0.0007 19.1995
#
#
#
# Elastic Compliance Matrix: (Units=1/GPa)
#
#
# Indices 1 2 3 4 5 6 
#
# 1 0.013868 -0.002869 -0.003474 0.000000 -0.001355 0.000001
# 2 -0.002869 0.015004 -0.002106 0.000000 -0.000575 0.000001
# 3 -0.003474 -0.002106 0.011468 -0.000001 0.001994 -0.000001
# 4 0.000000 0.000000 -0.000001 0.042726 -0.000001 0.001437
# 5 -0.001355 -0.000575 0.001994 -0.000001 0.031235 -0.000001
# 6 0.000001 0.000001 -0.000001 0.001437 -0.000001 0.052133
#
#
# Mechanical properties :
#
#
# Convention : Reuss Voigt Hill
#
# Bulk Modulus (GPa) = 42.66059 43.71731 43.18895
# Shear Modulus (GPa) = 26.15817 27.61561 26.88689
#
# Velocity S-wave (km/s) = 3.53997 3.63725 3.58894
# Velocity P-wave (km/s) = 6.09472 6.21150 6.15339
#
# Compressibility (1/GPa) = 0.02344084
#
# Stress axis : x y z
#
# Youngs Moduli (GPa) = 72.11013 66.65071 87.20108
#
# Poissons Ratio (x) = 0.19122 0.30292
# Poissons Ratio (y) = 0.20689 0.18366
# Poissons Ratio (z) = 0.25050 0.14038
#
# Static dielectric constant tensor:
#      x y z
#    x 1.884550 0.000010 -0.019990 
#    y 0.000010 1.836520 -0.000010 
#    z -0.019990 -0.000010 1.770070 
# 
# From -- ./inp_files/51722.got.cif
#   From: 2010.05.17/outbox.cif.g08.bks.cpg/sg5_26_cif.got.tgz:51722.got - 2010.06.03 18:56:24.
