data_PCOD9129301
_publ_section_title
;
Structure prediction by ZEFSAII (Michael W. Deem and Ramdas Pophale) SiO2 
 PCOD9129301
Probable space group: C 2
;
_chemical_formula_sum "Si O2"
_cell_formula_units_Z 14
_cell_length_a 19.820241
_cell_length_b 6.303854
_cell_length_c 18.114045
_cell_angle_alpha 90.000000
_cell_angle_beta 14.808145
_cell_angle_gamma 90.000000
_cell_volume 578.445992
_symmetry_space_group_name_H-M "C 2"
_symmetry_group_IT_number 5
_symmetry_cell_setting 'monoclinic'
loop_
_space_group_symop_operation_xyz
x,y,z
-x,y,-z
1/2+x,1/2+y,z
1/2-x,1/2+y,-z
loop_
_atom_site_type_symbol
_atom_site_label
_atom_site_fract_x
_atom_site_fract_y
_atom_site_fract_z
Si Si1 0.500000 0.736100 0.500000
Si Si2 0.037083 0.208461 0.623432
Si Si3 0.510944 0.477348 0.178847
Si Si4 0.218288 0.158537 0.824458
O O1 0.549672 0.629682 0.526078
O O2 0.260847 0.903558 0.767599
O O3 0.260937 0.386962 0.398792
O O4 0.080011 0.045872 0.644043
O O5 0.746842 0.309759 0.939840
O O6 0.632150 0.669092 0.000722
O O7 0.500000 0.240977 0.500000
O O8 0.000000 0.241256 0.000000
#
# Coordination Sequence:
#
# PCOD9129301 Si02
#       4
#     2   4   4   4
#     4   8  18  32  58  78 104 158 190 224 258 372
#     4  11  22  37  63  84 123 144 204 231 300 332
#     4  11  21  37  59  93 111 156 187 253 278 352
#     4   9  15  30  54  79  99 143 199 221 249 339
#
# _framework density 24.202780000000001
#
# number of rings (size 3 to 8) (size 9 to 14) (size 15 to 20)
#    0.857    1.143    2.857    1.714    0.000    0.000 
#    0.000    0.000    9.429    0.000    0.000    0.000 
#    0.000    0.000    0.000    0.000    0.000    0.000 
#
# Total GULP energy -39070.686068 kJ/mol
# GULP energy per Si atom -5581.526581 kJ/mol
# Density = 2.414769 g / cm^3
# Si number density = 24.202780 Si / 1000 Ang^3
#
#
#
# Elastic Constant Matrix: (Units=GPa)
#
#
# Indices 1 2 3 4 5 6 
#
# 1 232.8656 42.4052 44.1239 -0.0005 20.1721 0.0000
# 2 42.4052 33.9910 8.0576 -0.0049 11.3531 0.0005
# 3 44.1239 8.0576 96.8162 -0.0069 -4.2964 0.0018
# 4 -0.0005 -0.0049 -0.0069 1.4980 -0.0007 11.5019
# 5 20.1721 11.3531 -4.2964 -0.0007 40.2080 0.0006
# 6 0.0000 0.0005 0.0018 11.5019 0.0006 37.2072
#
#
#
# Elastic Compliance Matrix: (Units=1/GPa)
#
#
# Indices 1 2 3 4 5 6 
#
# 1 0.006035 -0.006512 -0.002272 0.000023 -0.001432 -0.000007
# 2 -0.006512 0.040479 -0.000767 -0.000092 -0.008245 0.000028
# 3 -0.002272 -0.000767 0.011543 -0.000041 0.002590 0.000012
# 4 0.000023 -0.000092 -0.000041 -0.485992 0.000000 0.150236
# 5 -0.001432 -0.008245 0.002590 0.000000 0.028194 0.000000
# 6 -0.000007 0.000028 0.000012 0.150236 0.000000 -0.019566
#
#
# Mechanical properties :
#
#
# Convention : Reuss Voigt Hill
#
# Bulk Modulus (GPa) = 25.67058 61.42734 43.54896
# Shear Modulus (GPa) = -12.91249 33.72170 10.40461
#
# Velocity S-wave (km/s) = -2.31230 3.73674 2.07564
# Velocity P-wave (km/s) = 1.87097 6.63725 4.87614
#
# Compressibility (1/GPa) = 0.03895510
#
# Stress axis : x y z
#
# Youngs Moduli (GPa) = 165.71083 24.70436 86.63252
#
# Poissons Ratio (x) = 0.16087 0.19682
# Poissons Ratio (y) = 1.07906 0.06645
# Poissons Ratio (z) = 0.37647 0.01895
#
# Static dielectric constant tensor:
#      x y z
#    x 1.927150 0.000000 0.045850 
#    y 0.000000 2.026040 0.000000 
#    z 0.045850 0.000000 1.914150 
# 
# From -- ./inp_files/111.got.cif
#   From: 2010.05.17/outbox.cif.g08.bks.cpg/sg5_1_cif.got.tgz:111.got - 2010.06.03 18:56:24.
