data_PCOD9129882
_publ_section_title
;
Structure prediction by ZEFSAII (Michael W. Deem and Ramdas Pophale) SiO2 
 PCOD9129882
Probable space group: C 2
;
_chemical_formula_sum "Si O2"
_cell_formula_units_Z 20
_cell_length_a 11.825281
_cell_length_b 17.567737
_cell_length_c 5.253715
_cell_angle_alpha 90.000000
_cell_angle_beta 127.902322
_cell_angle_gamma 90.000000
_cell_volume 861.198733
_symmetry_space_group_name_H-M "C 2"
_symmetry_group_IT_number 5
_symmetry_cell_setting 'monoclinic'
loop_
_space_group_symop_operation_xyz
x,y,z
-x,y,-z
1/2+x,1/2+y,z
1/2-x,1/2+y,-z
loop_
_atom_site_type_symbol
_atom_site_label
_atom_site_fract_x
_atom_site_fract_y
_atom_site_fract_z
Si Si1 0.347885 0.826190 0.723100
Si Si2 0.652993 0.445299 0.139214
Si Si3 0.674158 0.092000 0.742002
Si Si4 0.126458 0.795543 0.839139
Si Si5 0.741449 0.685096 0.643101
O O1 0.244584 0.891148 0.459146
O O2 0.268468 0.795680 0.865003
O O3 0.377504 0.749127 0.595744
O O4 0.500000 0.861800 0.000000
O O5 0.761291 0.507556 0.184416
O O6 0.500000 0.483050 0.000000
O O7 0.599956 0.382582 0.865894
O O8 0.500000 0.090358 0.500000
O O9 0.723453 0.135241 0.553322
O O10 0.747848 0.132150 0.090983
O O11 0.000000 0.761952 0.500000
O O12 0.141778 0.748118 0.115366
#
# Coordination Sequence:
#
# PCOD9129882 Si02
#       5
#     4   4   4   4   4
#     4  11  26  47  79 112 145 189 250 307 361 431
#     4  11  27  47  72 108 149 197 243 301 368 436
#     4  12  28  46  76 108 151 195 244 299 364 438
#     4  11  23  46  81 106 143 192 248 304 365 433
#     4  11  26  48  74 109 146 190 242 300 366 431
#
# _framework density 23.223441000000001
#
# number of rings (size 3 to 8) (size 9 to 14) (size 15 to 20)
#    0.000    0.800    4.000    1.200    8.400    3.200 
#    3.600    0.000    0.000    0.000    0.000    0.000 
#    0.000    0.000    0.000    0.000    0.000    0.000 
#
# Total GULP energy -55755.784136 kJ/mol
# GULP energy per Si atom -5575.578414 kJ/mol
# Density = 2.317058 g / cm^3
# Si number density = 23.223441 Si / 1000 Ang^3
#
#
#
# Elastic Constant Matrix: (Units=GPa)
#
#
# Indices 1 2 3 4 5 6 
#
# 1 61.3425 2.8426 25.1040 0.0000 3.9244 0.0000
# 2 2.8426 96.6448 -7.0130 0.0000 -3.2728 0.0000
# 3 25.1040 -7.0130 97.6103 0.0000 6.1477 0.0000
# 4 0.0000 0.0000 0.0000 9.5159 0.0000 -16.3316
# 5 3.9244 -3.2728 6.1477 0.0000 48.5113 0.0000
# 6 0.0000 0.0000 0.0000 -16.3316 0.0000 13.1042
#
#
#
# Elastic Compliance Matrix: (Units=1/GPa)
#
#
# Indices 1 2 3 4 5 6 
#
# 1 0.018337 -0.000914 -0.004722 0.000000 -0.000947 0.000000
# 2 -0.000914 0.010465 0.000945 0.000000 0.000660 0.000000
# 3 -0.004722 0.000945 0.011592 0.000000 -0.001023 0.000000
# 4 0.000000 0.000000 0.000000 -0.092270 0.000000 -0.114994
# 5 -0.000947 0.000660 -0.001023 0.000000 0.020865 0.000000
# 6 0.000000 0.000000 0.000000 -0.114994 0.000000 -0.067004
#
#
# Mechanical properties :
#
#
# Convention : Reuss Voigt Hill
#
# Bulk Modulus (GPa) = 32.24525 33.05166 32.64846
# Shear Modulus (GPa) = -63.86055 29.87055 -16.99500
#
# Velocity S-wave (km/s) = -5.24957 3.59029 -2.70812
# Velocity P-wave (km/s) = 4.77798 5.60801 2.07614
#
# Compressibility (1/GPa) = 0.03101232
#
# Stress axis : x y z
#
# Youngs Moduli (GPa) = 54.53349 95.55649 86.26897
#
# Poissons Ratio (x) = 0.08735 0.40738
# Poissons Ratio (y) = 0.04985 -0.08156
# Poissons Ratio (z) = 0.25752 -0.09034
#
# Static dielectric constant tensor:
#      x y z
#    x 1.947360 0.000000 -0.034170 
#    y 0.000000 1.911950 0.000000 
#    z -0.034170 0.000000 1.952470 
# 
# From -- ./inp_files/5236.got.cif
#   From: 2010.05.17/outbox.cif.g08.bks.cpg/sg5_3_cif.got.tgz:5236.got - 2010.06.03 18:56:24.
