data_PCOD9129314
_publ_section_title
;
Structure prediction by ZEFSAII (Michael W. Deem and Ramdas Pophale) SiO2 
 PCOD9129314
Probable space group: C 2
;
_chemical_formula_sum "Si O2"
_cell_formula_units_Z 24
_cell_length_a 29.289344
_cell_length_b 7.886696
_cell_length_c 4.872005
_cell_angle_alpha 90.000000
_cell_angle_beta 99.254186
_cell_angle_gamma 90.000000
_cell_volume 1110.766712
_symmetry_space_group_name_H-M "C 2"
_symmetry_group_IT_number 5
_symmetry_cell_setting 'monoclinic'
loop_
_space_group_symop_operation_xyz
x,y,z
-x,y,-z
1/2+x,1/2+y,z
1/2-x,1/2+y,-z
loop_
_atom_site_type_symbol
_atom_site_label
_atom_site_fract_x
_atom_site_fract_y
_atom_site_fract_z
Si Si1 0.804396 0.647400 0.971439
Si Si2 0.795516 0.279353 0.230645
Si Si3 0.650418 0.659337 0.213791
Si Si4 0.049797 0.109694 0.113527
Si Si5 0.450358 0.368851 0.390244
Si Si6 0.145001 0.784598 0.469526
O O1 0.756765 0.715815 0.798343
O O2 0.842341 0.660179 0.767774
O O3 0.797339 0.462526 0.092027
O O4 0.819844 0.759761 0.245866
O O5 0.821256 0.272844 0.545173
O O6 0.823511 0.159585 0.048505
O O7 0.597004 0.711705 0.119070
O O8 0.649159 0.471592 0.342708
O O9 0.049368 0.038580 0.421009
O O10 0.000000 0.189948 0.000000
O O11 0.053101 0.941981 0.920267
O O12 0.500000 0.285426 0.500000
O O13 0.405852 0.266319 0.446870
#
# Coordination Sequence:
#
# PCOD9129314 Si02
#       6
#     4   4   4   4   4   4
#     4  12  25  41  59  84 119 157 197 241 294 350
#     4  12  25  41  59  84 119 157 197 241 294 350
#     4  11  21  38  62  89 117 152 197 243 289 340
#     4   9  17  31  55  89 121 149 188 238 286 336
#     4   9  17  31  55  89 121 149 188 238 286 336
#     4  11  21  38  62  89 117 152 197 243 289 340
#
# _framework density 21.606698000000002
#
# number of rings (size 3 to 8) (size 9 to 14) (size 15 to 20)
#    0.000    1.333    0.000    9.000    0.000    0.000 
#    0.000    0.000    0.000    4.000    0.000    2.333 
#    0.000    0.000    0.000    0.000    0.000    0.000 
#
# Total GULP energy -67078.874391 kJ/mol
# GULP energy per Si atom -5589.906199 kJ/mol
# Density = 2.155752 g / cm^3
# Si number density = 21.606698 Si / 1000 Ang^3
#
#
#
# Elastic Constant Matrix: (Units=GPa)
#
#
# Indices 1 2 3 4 5 6 
#
# 1 90.8586 -5.6595 -2.9032 0.0000 13.6175 0.0000
# 2 -5.6595 46.5255 -8.6694 0.0000 6.7338 0.0000
# 3 -2.9032 -8.6694 77.4224 0.0000 5.2025 0.0000
# 4 0.0000 0.0000 0.0000 20.5708 0.0000 1.5584
# 5 13.6175 6.7338 5.2025 0.0000 45.9399 0.0000
# 6 0.0000 0.0000 0.0000 1.5584 0.0000 16.9255
#
#
#
# Elastic Compliance Matrix: (Units=1/GPa)
#
#
# Indices 1 2 3 4 5 6 
#
# 1 0.011758 0.002173 0.000947 0.000000 -0.003911 0.000000
# 2 0.002173 0.022934 0.002941 0.000000 -0.004339 0.000000
# 3 0.000947 0.002941 0.013431 0.000000 -0.002233 0.000000
# 4 0.000000 0.000000 0.000000 0.048954 0.000000 -0.004507
# 5 -0.003911 -0.004339 -0.002233 0.000000 0.023816 0.000000
# 6 0.000000 0.000000 0.000000 -0.004507 0.000000 0.059498
#
#
# Mechanical properties :
#
#
# Convention : Reuss Voigt Hill
#
# Bulk Modulus (GPa) = 16.59903 20.03801 18.31852
# Shear Modulus (GPa) = 26.54634 32.15648 29.35141
#
# Velocity S-wave (km/s) = 3.50896 3.86199 3.68970
# Velocity P-wave (km/s) = 4.91082 5.40192 5.16221
#
# Compressibility (1/GPa) = 0.06024447
#
# Stress axis : x y z
#
# Youngs Moduli (GPa) = 85.04934 43.60365 74.45444
#
# Poissons Ratio (x) = -0.09474 -0.07051
# Poissons Ratio (y) = -0.18479 -0.21897
# Poissons Ratio (z) = -0.08054 -0.12824
#
# Static dielectric constant tensor:
#      x y z
#    x 1.833690 0.000000 0.019660 
#    y 0.000000 1.796120 0.000000 
#    z 0.019660 0.000000 1.760470 
# 
# From -- ./inp_files/11068.got.cif
#   From: 2010.05.17/outbox.cif.g08.bks.cpg/sg5_6_cif.got.tgz:11068.got - 2010.06.03 18:56:24.
