data_PCOD9129417
_publ_section_title
;
Structure prediction by ZEFSAII (Michael W. Deem and Ramdas Pophale) SiO2 
 PCOD9129417
Probable space group: C 2
;
_chemical_formula_sum "Si O2"
_cell_formula_units_Z 30
_cell_length_a 11.746987
_cell_length_b 15.279833
_cell_length_c 9.196920
_cell_angle_alpha 90.000000
_cell_angle_beta 70.068497
_cell_angle_gamma 90.000000
_cell_volume 1551.893601
_symmetry_space_group_name_H-M "C 2"
_symmetry_group_IT_number 5
_symmetry_cell_setting 'monoclinic'
loop_
_space_group_symop_operation_xyz
x,y,z
-x,y,-z
1/2+x,1/2+y,z
1/2-x,1/2+y,-z
loop_
_atom_site_type_symbol
_atom_site_label
_atom_site_fract_x
_atom_site_fract_y
_atom_site_fract_z
Si Si1 0.598610 0.242310 0.217352
Si Si2 0.201446 0.279884 0.633683
Si Si3 0.888845 0.877424 0.360166
Si Si4 0.500000 0.527251 0.500000
Si Si5 0.228163 0.140869 0.372594
Si Si6 0.531627 0.877397 0.155185
Si Si7 0.482879 0.058708 0.333906
Si Si8 0.211569 0.799019 0.872426
O O1 0.717338 0.258793 0.261826
O O2 0.488955 0.300367 0.329564
O O3 0.559086 0.141915 0.244395
O O4 0.625555 0.273579 0.042865
O O5 0.274642 0.353121 0.510455
O O6 0.199135 0.196109 0.530397
O O7 0.070136 0.314192 0.732210
O O8 0.947222 0.965246 0.395869
O O9 0.845257 0.870346 0.213003
O O10 0.609430 0.585097 0.390536
O O11 0.343779 0.080223 0.354194
O O12 0.262447 0.212478 0.235749
O O13 0.662923 0.835631 0.120411
O O14 0.523710 0.969715 0.240760
O O15 0.500000 0.889482 0.000000
O O16 0.500000 0.053488 0.500000
#
# Coordination Sequence:
#
# PCOD9129417 Si02
#       8
#     4   4   4   2   4   4   4   4
#     4  12  21  46  69  97 132 176 228 277 325 406
#     4  11  21  45  71  93 133 179 228 266 334 409
#     4  11  23  40  72  97 124 179 226 272 323 390
#     4  12  24  42  68  98 140 166 234 282 324 396
#     4  11  25  42  70  99 133 184 222 277 338 399
#     4  12  28  44  66 104 140 174 219 288 348 392
#     4  12  26  43  70 102 132 175 234 285 327 400
#     4  11  26  44  71  97 137 179 222 268 349 406
#
# _framework density 19.331223999999999
#
# number of rings (size 3 to 8) (size 9 to 14) (size 15 to 20)
#    0.000    0.533    6.667    2.000    7.467    0.000 
#    0.000    0.000    2.933    0.000    0.000    0.000 
#    0.000    0.000    0.000    0.000    0.000    0.000 
#
# Total GULP energy -83915.082754 kJ/mol
# GULP energy per Si atom -5594.338850 kJ/mol
# Density = 1.928723 g / cm^3
# Si number density = 19.331224 Si / 1000 Ang^3
#
#
#
# Elastic Constant Matrix: (Units=GPa)
#
#
# Indices 1 2 3 4 5 6 
#
# 1 80.0536 7.5795 30.6094 0.0000 12.7820 0.0000
# 2 7.5795 37.1527 20.9527 0.0000 2.7934 0.0000
# 3 30.6094 20.9527 117.6989 0.0000 9.3046 0.0000
# 4 0.0000 0.0000 0.0000 15.6142 0.0000 -9.1638
# 5 12.7820 2.7934 9.3046 0.0000 31.1321 0.0000
# 6 0.0000 0.0000 0.0000 -9.1638 0.0000 33.6668
#
#
#
# Elastic Compliance Matrix: (Units=1/GPa)
#
#
# Indices 1 2 3 4 5 6 
#
# 1 0.014605 -0.000763 -0.003271 0.000000 -0.004950 0.000000
# 2 -0.000763 0.029998 -0.005074 0.000000 -0.000862 0.000000
# 3 -0.003271 -0.005074 0.010353 0.000000 -0.001296 0.000000
# 4 0.000000 0.000000 0.000000 0.076220 0.000000 0.020746
# 5 -0.004950 -0.000862 -0.001296 0.000000 0.034618 0.000000
# 6 0.000000 0.000000 0.000000 0.020746 0.000000 0.035350
#
#
# Mechanical properties :
#
#
# Convention : Reuss Voigt Hill
#
# Bulk Modulus (GPa) = 27.21790 39.24315 33.23053
# Shear Modulus (GPa) = 21.58847 27.80020 24.69433
#
# Velocity S-wave (km/s) = 3.34543 3.79634 3.57800
# Velocity P-wave (km/s) = 5.38822 6.28973 5.85635
#
# Compressibility (1/GPa) = 0.03674052
#
# Stress axis : x y z
#
# Youngs Moduli (GPa) = 68.46965 33.33592 96.59380
#
# Poissons Ratio (x) = 0.02542 0.31597
# Poissons Ratio (y) = 0.05221 0.49009
# Poissons Ratio (z) = 0.22398 0.16914
#
# Static dielectric constant tensor:
#      x y z
#    x 1.678040 0.000000 0.018520 
#    y 0.000000 1.645870 0.000000 
#    z 0.018520 0.000000 1.660100 
# 
# From -- ./inp_files/20586.got.cif
#   From: 2010.05.17/outbox.cif.g08.bks.cpg/sg5_11_cif.got.tgz:20586.got - 2010.06.03 18:56:24.
