data_PCOD9129818
_publ_section_title
;
Structure prediction by ZEFSAII (Michael W. Deem and Ramdas Pophale) SiO2 
 PCOD9129818
Probable space group: C 2
;
_chemical_formula_sum "Si O2"
_cell_formula_units_Z 26
_cell_length_a 12.179577
_cell_length_b 9.826578
_cell_length_c 12.359719
_cell_angle_alpha 90.000000
_cell_angle_beta 55.280103
_cell_angle_gamma 90.000000
_cell_volume 1215.868347
_symmetry_space_group_name_H-M "C 2"
_symmetry_group_IT_number 5
_symmetry_cell_setting 'monoclinic'
loop_
_space_group_symop_operation_xyz
x,y,z
-x,y,-z
1/2+x,1/2+y,z
1/2-x,1/2+y,-z
loop_
_atom_site_type_symbol
_atom_site_label
_atom_site_fract_x
_atom_site_fract_y
_atom_site_fract_z
Si Si1 0.500000 0.721091 0.000000
Si Si2 0.492117 0.335459 0.724175
Si Si3 0.201201 0.701192 0.470028
Si Si4 0.714269 0.954391 0.869060
Si Si5 0.351993 0.055240 0.863259
Si Si6 0.864447 0.466872 0.330121
Si Si7 0.658365 0.528513 0.781699
O O1 0.369974 0.815600 0.060341
O O2 0.465756 0.627883 0.122025
O O3 0.566618 0.282275 0.575236
O O4 0.372454 0.438059 0.768171
O O5 0.412709 0.205715 0.814462
O O6 0.599998 0.402840 0.745560
O O7 0.203202 0.588033 0.563489
O O8 0.307610 0.822558 0.400610
O O9 0.228339 0.611033 0.348591
O O10 0.662358 0.996730 0.780900
O O11 0.681332 0.041411 0.992308
O O12 0.226571 0.009677 0.860409
O O13 0.476039 0.965071 0.751844
#
# Coordination Sequence:
#
# PCOD9129818 Si02
#       7
#     2   4   4   4   4   4   4
#     4  12  22  44  70  98 136 190 234 292 370 436
#     4  11  26  44  73 108 140 193 246 302 362 452
#     4  11  23  48  70 104 141 190 243 299 370 440
#     4  12  23  47  72  99 143 191 234 305 376 435
#     4  11  24  46  71 104 143 192 241 312 367 434
#     4  11  23  44  74  98 144 188 241 300 371 442
#     4  12  24  47  74 103 145 192 246 298 372 446
#
# _framework density 21.383894000000002
#
# number of rings (size 3 to 8) (size 9 to 14) (size 15 to 20)
#    0.000    0.615    6.154    0.923    0.000    5.538 
#   16.615    1.538    0.000    0.000    0.000    0.000 
#    0.000    0.000    0.000    0.000    0.000    0.000 
#
# Total GULP energy -72525.525947 kJ/mol
# GULP energy per Si atom -5578.886611 kJ/mol
# Density = 2.133522 g / cm^3
# Si number density = 21.383894 Si / 1000 Ang^3
#
#
#
# Elastic Constant Matrix: (Units=GPa)
#
#
# Indices 1 2 3 4 5 6 
#
# 1 88.7187 26.5492 31.1768 0.0000 0.3364 0.0000
# 2 26.5492 40.6935 24.2961 0.0000 5.2667 0.0000
# 3 31.1768 24.2961 127.6402 0.0000 4.7253 0.0000
# 4 0.0000 0.0000 0.0000 42.6108 0.0000 -11.9251
# 5 0.3364 5.2667 4.7253 0.0000 32.3660 0.0000
# 6 0.0000 0.0000 0.0000 -11.9251 0.0000 17.5724
#
#
#
# Elastic Compliance Matrix: (Units=1/GPa)
#
#
# Indices 1 2 3 4 5 6 
#
# 1 0.014498 -0.008470 -0.001985 0.000000 0.001517 0.000000
# 2 -0.008470 0.033136 -0.004064 0.000000 -0.004711 0.000000
# 3 -0.001985 -0.004064 0.009117 0.000000 -0.000649 0.000000
# 4 0.000000 0.000000 0.000000 0.028970 0.000000 0.019660
# 5 0.001517 -0.004711 -0.000649 0.000000 0.031742 0.000000
# 6 0.000000 0.000000 0.000000 0.019660 0.000000 0.070249
#
#
# Mechanical properties :
#
#
# Convention : Reuss Voigt Hill
#
# Bulk Modulus (GPa) = 36.08469 46.78852 41.43661
# Shear Modulus (GPa) = 22.12499 30.17854 26.15177
#
# Velocity S-wave (km/s) = 3.22010 3.76077 3.50089
# Velocity P-wave (km/s) = 5.54407 6.38636 5.98006
#
# Compressibility (1/GPa) = 0.02771258
#
# Stress axis : x y z
#
# Youngs Moduli (GPa) = 68.97459 30.17861 109.68460
#
# Poissons Ratio (x) = 0.25561 0.21774
# Poissons Ratio (y) = 0.58421 0.44578
# Poissons Ratio (z) = 0.13693 0.12265
#
# Static dielectric constant tensor:
#      x y z
#    x 1.812510 0.000000 -0.010020 
#    y 0.000000 1.823130 0.000000 
#    z -0.010020 0.000000 1.789530 
# 
# From -- ./inp_files/38748.got.cif
#   From: 2010.05.17/outbox.cif.g08.bks.cpg/sg5_20_cif.got.tgz:38748.got - 2010.06.03 18:56:24.
