data_PCOD9129076
_publ_section_title
;
Structure prediction by ZEFSAII (Michael W. Deem and Ramdas Pophale) SiO2 
 PCOD9129076
Probable space group: C 2
;
_chemical_formula_sum "Si O2"
_cell_formula_units_Z 18
_cell_length_a 11.535890
_cell_length_b 9.538323
_cell_length_c 7.508321
_cell_angle_alpha 90.000000
_cell_angle_beta 62.543084
_cell_angle_gamma 90.000000
_cell_volume 733.102555
_symmetry_space_group_name_H-M "C 2"
_symmetry_group_IT_number 5
_symmetry_cell_setting 'monoclinic'
loop_
_space_group_symop_operation_xyz
x,y,z
-x,y,-z
1/2+x,1/2+y,z
1/2-x,1/2+y,-z
loop_
_atom_site_type_symbol
_atom_site_label
_atom_site_fract_x
_atom_site_fract_y
_atom_site_fract_z
Si Si1 0.349800 0.098740 0.468395
Si Si2 0.000000 0.071544 0.000000
Si Si3 0.250798 0.729948 0.073887
Si Si4 0.104408 0.909804 0.591160
Si Si5 0.591854 0.996365 0.094408
O O1 0.305681 0.164791 0.695772
O O2 0.366794 0.251169 0.372465
O O3 0.236658 0.000049 0.466977
O O4 0.485456 0.014970 0.329883
O O5 0.950400 0.979800 0.195384
O O6 0.893661 0.167071 0.980197
O O7 0.154298 0.648309 0.013270
O O8 0.283954 0.889185 0.992709
O O9 0.000000 0.912750 0.500000
O O10 0.500000 0.951145 0.000000
#
# Coordination Sequence:
#
# PCOD9129076 Si02
#       5
#     4   2   4   4   4
#     4  11  27  50  77 116 154 203 272 323 396 486
#     4  10  26  48  76 114 156 202 266 322 402 472
#     4  11  26  51  74 110 159 199 260 335 386 477
#     4  11  26  51  77 111 161 206 258 338 398 471
#     4  12  27  47  81 112 153 208 261 325 400 473
#
# _framework density 24.553180000000001
#
# number of rings (size 3 to 8) (size 9 to 14) (size 15 to 20)
#    0.000    0.889    1.111    3.333   14.000    1.778 
#    0.000    3.333    0.000    0.000    0.000    0.000 
#    0.000    0.000    0.000    0.000    0.000    0.000 
#
# Total GULP energy -50110.311123 kJ/mol
# GULP energy per Si atom -5567.812347 kJ/mol
# Density = 2.449730 g / cm^3
# Si number density = 24.553180 Si / 1000 Ang^3
#
#
#
# Elastic Constant Matrix: (Units=GPa)
#
#
# Indices 1 2 3 4 5 6 
#
# 1 118.2567 66.0141 27.7064 0.0000 -23.3623 0.0000
# 2 66.0141 136.5894 55.1275 0.0000 -11.3587 0.0000
# 3 27.7064 55.1275 102.2378 0.0000 -9.9126 0.0000
# 4 0.0000 0.0000 0.0000 -108.6705 0.0000 -7.0526
# 5 -23.3623 -11.3587 -9.9126 0.0000 38.5911 0.0000
# 6 0.0000 0.0000 0.0000 -7.0526 0.0000 52.9403
#
#
#
# Elastic Compliance Matrix: (Units=1/GPa)
#
#
# Indices 1 2 3 4 5 6 
#
# 1 0.012847 -0.005795 0.000238 0.000000 0.006133 0.000000
# 2 -0.005795 0.012057 -0.005052 0.000000 -0.001257 0.000000
# 3 0.000238 -0.005052 0.012625 0.000000 0.001900 0.000000
# 4 0.000000 0.000000 0.000000 -0.009123 0.000000 -0.001215
# 5 0.006133 -0.001257 0.001900 0.000000 0.029743 0.000000
# 6 0.000000 0.000000 0.000000 -0.001215 0.000000 0.018727
#
#
# Mechanical properties :
#
#
# Convention : Reuss Voigt Hill
#
# Bulk Modulus (GPa) = 61.31428 72.75333 67.03381
# Shear Modulus (GPa) = 48.29444 10.45459 29.37451
#
# Velocity S-wave (km/s) = 4.43982 2.06572 3.46260
# Velocity P-wave (km/s) = 7.16303 5.94851 6.58383
#
# Compressibility (1/GPa) = 0.01630941
#
# Stress axis : x y z
#
# Youngs Moduli (GPa) = 77.83978 82.94253 79.20661
#
# Poissons Ratio (x) = 0.48065 -0.01883
# Poissons Ratio (y) = 0.45108 0.40019
# Poissons Ratio (z) = -0.01851 0.41906
#
# Static dielectric constant tensor:
#      x y z
#    x 2.068120 0.000000 0.167030 
#    y 0.000000 1.959320 0.000000 
#    z 0.167030 0.000000 2.299860 
# 
# From -- ./inp_files/18208.got.cif
#   From: 2010.05.17/outbox.cif.g08.bks.cpg/sg5_10_cif.got.tgz:18208.got - 2010.06.03 18:56:24.
