data_PCOD9129540
_publ_section_title
;
Structure prediction by ZEFSAII (Michael W. Deem and Ramdas Pophale) SiO2 
 PCOD9129540
Probable space group: C 2
;
_chemical_formula_sum "Si O2"
_cell_formula_units_Z 32
_cell_length_a 9.531750
_cell_length_b 17.245686
_cell_length_c 8.294784
_cell_angle_alpha 90.000000
_cell_angle_beta 111.266435
_cell_angle_gamma 90.000000
_cell_volume 1270.659866
_symmetry_space_group_name_H-M "C 2"
_symmetry_group_IT_number 5
_symmetry_cell_setting 'monoclinic'
loop_
_space_group_symop_operation_xyz
x,y,z
-x,y,-z
1/2+x,1/2+y,z
1/2-x,1/2+y,-z
loop_
_atom_site_type_symbol
_atom_site_label
_atom_site_fract_x
_atom_site_fract_y
_atom_site_fract_z
Si Si1 0.065817 0.248930 0.848358
Si Si2 0.845845 0.123804 0.619523
Si Si3 0.888198 0.973696 0.810816
Si Si4 0.408168 0.191205 0.292759
Si Si5 0.579666 0.366214 0.706673
Si Si6 0.309688 0.153270 0.791699
Si Si7 0.850099 0.484904 0.842241
Si Si8 0.449269 0.919241 0.301670
O O1 0.966256 0.190911 0.698344
O O2 0.049869 0.338539 0.794717
O O3 0.232173 0.217915 0.870165
O O4 0.000000 0.238425 0.000000
O O5 0.728157 0.135650 0.718537
O O6 0.775752 0.139327 0.415376
O O7 0.902844 0.036525 0.672562
O O8 0.952012 0.890763 0.779157
O O9 0.714272 0.958461 0.780324
O O10 0.000000 0.000065 0.000000
O O11 0.500000 0.191933 0.500000
O O12 0.358360 0.279900 0.249708
O O13 0.520625 0.169827 0.196352
O O14 0.500000 0.373108 0.500000
O O15 0.715120 0.425420 0.790404
O O16 0.000000 0.395575 0.500000
O O17 0.302187 0.069924 0.873278
O O18 0.921129 0.480902 0.693404
O O19 0.500000 0.961783 0.000000
#
# Coordination Sequence:
#
# PCOD9129540 Si02
#       8
#     4   4   4   4   4   4   4   4
#     4  12  27  45  69 104 143 184 234 295 355 414
#     4  11  22  43  71 102 138 184 235 288 348 425
#     4  12  26  43  67 104 144 181 227 290 357 419
#     4   9  21  40  68  99 130 170 231 292 343 407
#     4  11  22  42  68  97 132 180 233 285 342 419
#     4  11  23  44  71 101 136 187 239 287 346 424
#     4  12  26  44  67 101 143 183 227 289 357 417
#     4  12  25  47  75 104 137 185 238 290 351 429
#
# _framework density 25.183765000000001
#
# number of rings (size 3 to 8) (size 9 to 14) (size 15 to 20)
#    0.000    0.750    0.000    7.875    0.000    6.000 
#    0.000    1.875    0.000    0.000    0.000    0.000 
#    0.000    0.000    0.000    0.000    0.000    0.000 
#
# Total GULP energy -89644.555507 kJ/mol
# GULP energy per Si atom -5602.784719 kJ/mol
# Density = 2.512645 g / cm^3
# Si number density = 25.183765 Si / 1000 Ang^3
#
#
#
# Elastic Constant Matrix: (Units=GPa)
#
#
# Indices 1 2 3 4 5 6 
#
# 1 101.9973 21.2109 22.3699 0.0000 -9.1626 0.0000
# 2 21.2109 109.1838 27.1305 0.0000 2.7881 0.0000
# 3 22.3699 27.1305 101.0790 0.0000 -0.1195 0.0000
# 4 0.0000 0.0000 0.0000 20.7833 0.0000 -1.1582
# 5 -9.1626 2.7881 -0.1195 0.0000 43.1264 0.0000
# 6 0.0000 0.0000 0.0000 -1.1582 0.0000 20.2300
#
#
#
# Elastic Compliance Matrix: (Units=1/GPa)
#
#
# Indices 1 2 3 4 5 6 
#
# 1 0.010793 -0.001677 -0.001936 0.000000 0.002396 0.000000
# 2 -0.001677 0.010092 -0.002339 0.000000 -0.001015 0.000000
# 3 -0.001936 -0.002339 0.010949 0.000000 -0.000230 0.000000
# 4 0.000000 0.000000 0.000000 0.048270 0.000000 0.002764
# 5 0.002396 -0.001015 -0.000230 0.000000 0.023762 0.000000
# 6 0.000000 0.000000 0.000000 0.002764 0.000000 0.049590
#
#
# Mechanical properties :
#
#
# Convention : Reuss Voigt Hill
#
# Bulk Modulus (GPa) = 50.17335 50.40918 50.29127
# Shear Modulus (GPa) = 29.06964 32.93119 31.00042
#
# Velocity S-wave (km/s) = 3.40119 3.62005 3.51232
# Velocity P-wave (km/s) = 5.94897 6.12642 6.03835
#
# Compressibility (1/GPa) = 0.01993090
#
# Stress axis : x y z
#
# Youngs Moduli (GPa) = 92.65567 99.09126 91.33162
#
# Poissons Ratio (x) = 0.16616 0.17678
# Poissons Ratio (y) = 0.15537 0.21361
# Poissons Ratio (z) = 0.17935 0.23175
#
# Static dielectric constant tensor:
#      x y z
#    x 2.084340 0.000000 -0.133120 
#    y 0.000000 1.873620 0.000000 
#    z -0.133120 0.000000 2.222950 
# 
# From -- ./inp_files/20673.got.cif
#   From: 2010.05.17/outbox.cif.g08.bks.cpg/sg5_11_cif.got.tgz:20673.got - 2010.06.03 18:56:24.
