data_PCOD9129306
_publ_section_title
;
Structure prediction by ZEFSAII (Michael W. Deem and Ramdas Pophale) SiO2 
 PCOD9129306
Probable space group: C 2
;
_chemical_formula_sum "Si O2"
_cell_formula_units_Z 24
_cell_length_a 15.278540
_cell_length_b 8.074768
_cell_length_c 15.171073
_cell_angle_alpha 90.000000
_cell_angle_beta 38.099648
_cell_angle_gamma 90.000000
_cell_volume 1154.875636
_symmetry_space_group_name_H-M "C 2"
_symmetry_group_IT_number 5
_symmetry_cell_setting 'monoclinic'
loop_
_space_group_symop_operation_xyz
x,y,z
-x,y,-z
1/2+x,1/2+y,z
1/2-x,1/2+y,-z
loop_
_atom_site_type_symbol
_atom_site_label
_atom_site_fract_x
_atom_site_fract_y
_atom_site_fract_z
Si Si1 0.619311 0.916450 0.188996
Si Si2 0.809167 0.802436 0.886863
Si Si3 0.155688 0.909103 0.842391
Si Si4 0.152782 0.313599 0.841284
Si Si5 0.820571 0.305832 0.380425
Si Si6 0.389429 0.420183 0.314405
O O1 0.717639 0.860161 0.192645
O O2 0.452379 0.886443 0.328187
O O3 0.648798 0.110643 0.152138
O O4 0.675684 0.823940 0.057025
O O5 0.768174 0.864933 0.822249
O O6 0.941818 0.899536 0.821324
O O7 0.171802 0.851754 0.729063
O O8 0.153416 0.111320 0.841792
O O9 0.000000 0.856613 0.000000
O O10 0.180212 0.369291 0.719825
O O11 0.000000 0.366644 0.000000
O O12 0.677525 0.334458 0.547529
O O13 0.851071 0.111741 0.351298
#
# Coordination Sequence:
#
# PCOD9129306 Si02
#       6
#     4   4   4   4   4   4
#     4  11  21  37  62  90 117 153 199 242 289 345
#     4  11  21  37  62  90 117 153 199 242 289 345
#     4   9  18  36  61  85 114 157 197 230 285 361
#     4   9  18  36  61  85 114 157 197 230 285 361
#     4  11  23  41  61  86 121 156 195 242 294 349
#     4  11  23  41  61  86 121 156 195 242 294 349
#
# _framework density 20.781459000000002
#
# number of rings (size 3 to 8) (size 9 to 14) (size 15 to 20)
#    0.000    1.667    3.333    2.000    0.000    1.333 
#    0.000   15.000    0.000    0.000    0.000    0.000 
#    0.000    0.000    0.000    0.000    0.000    0.000 
#
# Total GULP energy -67052.295037 kJ/mol
# GULP energy per Si atom -5587.691253 kJ/mol
# Density = 2.073416 g / cm^3
# Si number density = 20.781459 Si / 1000 Ang^3
#
#
#
# Elastic Constant Matrix: (Units=GPa)
#
#
# Indices 1 2 3 4 5 6 
#
# 1 112.7788 -2.4397 1.8869 0.0000 23.0650 0.0000
# 2 -2.4397 28.8564 -6.6072 0.0000 3.8558 0.0000
# 3 1.8869 -6.6072 55.4365 0.0000 16.7295 0.0000
# 4 0.0000 0.0000 0.0000 30.8831 0.0000 -6.3656
# 5 23.0650 3.8558 16.7295 0.0000 33.9563 0.0000
# 6 0.0000 0.0000 0.0000 -6.3656 0.0000 16.8662
#
#
#
# Elastic Compliance Matrix: (Units=1/GPa)
#
#
# Indices 1 2 3 4 5 6 
#
# 1 0.010695 0.002692 0.002633 0.000000 -0.008867 0.000000
# 2 0.002692 0.037873 0.007367 0.000000 -0.009759 0.000000
# 3 0.002633 0.007367 0.023046 0.000000 -0.013979 0.000000
# 4 0.000000 0.000000 0.000000 0.035112 0.000000 0.013252
# 5 -0.008867 -0.009759 -0.013979 0.000000 0.043468 0.000000
# 6 0.000000 0.000000 0.000000 0.013252 0.000000 0.064292
#
#
# Mechanical properties :
#
#
# Convention : Reuss Voigt Hill
#
# Bulk Modulus (GPa) = 10.30965 20.30573 15.30769
# Shear Modulus (GPa) = 22.58021 29.95656 26.26838
#
# Velocity S-wave (km/s) = 3.29987 3.80083 3.55918
# Velocity P-wave (km/s) = 4.41482 5.39018 4.92670
#
# Compressibility (1/GPa) = 0.09699653
#
# Stress axis : x y z
#
# Youngs Moduli (GPa) = 93.50559 26.40414 43.39222
#
# Poissons Ratio (x) = -0.07108 -0.11424
# Poissons Ratio (y) = -0.25170 -0.31968
# Poissons Ratio (z) = -0.24617 -0.19453
#
# Static dielectric constant tensor:
#      x y z
#    x 1.749820 0.000000 0.024790 
#    y 0.000000 1.753380 0.000000 
#    z 0.024790 0.000000 1.700620 
# 
# From -- ./inp_files/22789.got.cif
#   From: 2010.05.17/outbox.cif.g08.bks.cpg/sg5_12_cif.got.tgz:22789.got - 2010.06.03 18:56:24.
