data_PCOD9129673
_publ_section_title
;
Structure prediction by ZEFSAII (Michael W. Deem and Ramdas Pophale) SiO2 
 PCOD9129673
Probable space group: C 2
;
_chemical_formula_sum "Si O2"
_cell_formula_units_Z 26
_cell_length_a 13.753032
_cell_length_b 23.483018
_cell_length_c 9.828924
_cell_angle_alpha 90.000000
_cell_angle_beta 26.078021
_cell_angle_gamma 90.000000
_cell_volume 1395.438621
_symmetry_space_group_name_H-M "C 2"
_symmetry_group_IT_number 5
_symmetry_cell_setting 'monoclinic'
loop_
_space_group_symop_operation_xyz
x,y,z
-x,y,-z
1/2+x,1/2+y,z
1/2-x,1/2+y,-z
loop_
_atom_site_type_symbol
_atom_site_label
_atom_site_fract_x
_atom_site_fract_y
_atom_site_fract_z
Si Si1 0.809849 0.569890 0.852232
Si Si2 0.500000 0.301350 0.500000
Si Si3 0.444599 0.655221 0.407160
Si Si4 0.468812 0.477949 0.196464
Si Si5 0.026776 0.262036 0.128567
Si Si6 0.786121 0.372853 0.352450
Si Si7 0.395924 0.064622 0.258709
O O1 0.000000 0.577506 0.500000
O O2 0.921127 0.574102 0.859113
O O3 0.628891 0.619986 0.088741
O O4 0.687238 0.508815 0.983803
O O5 0.618999 0.339797 0.462923
O O6 0.291004 0.266766 0.821247
O O7 0.500000 0.656674 0.500000
O O8 0.431004 0.716454 0.353181
O O9 0.222410 0.619666 0.656795
O O10 0.359076 0.422660 0.401256
O O11 0.288577 0.527338 0.437361
O O12 0.500000 0.465183 0.000000
O O13 0.900565 0.322998 0.300302
O O14 0.000000 0.246844 0.000000
O O15 0.000000 0.395051 0.000000
O O16 0.500000 0.032393 0.000000
#
# Coordination Sequence:
#
# PCOD9129673 Si02
#       7
#     4   2   4   4   4   4   4
#     4  11  24  40  62  91 124 166 206 254 317 372
#     4   8  18  40  60  88 112 164 214 252 300 382
#     4  11  24  40  61  96 127 162 208 260 312 374
#     4  11  23  39  61  91 125 160 212 260 312 372
#     4   9  21  39  63  89 123 163 212 253 308 368
#     4   9  20  41  63  89 120 162 211 257 306 368
#     4  11  23  42  60  89 127 162 205 257 313 377
#
# _framework density 18.632134000000001
#
# number of rings (size 3 to 8) (size 9 to 14) (size 15 to 20)
#    0.000    2.154    3.077    0.462    3.231    4.923 
#    2.769    0.000    0.000    0.000    0.000    0.000 
#    0.000    0.000    0.000    0.000    0.000    0.000 
#
# Total GULP energy -72394.801173 kJ/mol
# GULP energy per Si atom -5568.830859 kJ/mol
# Density = 1.858973 g / cm^3
# Si number density = 18.632134 Si / 1000 Ang^3
#
#
#
# Elastic Constant Matrix: (Units=GPa)
#
#
# Indices 1 2 3 4 5 6 
#
# 1 83.1112 32.0692 30.2649 -0.0025 -4.5472 -0.0003
# 2 32.0692 107.1596 39.8603 -0.0021 8.6158 0.0004
# 3 30.2649 39.8603 101.9478 0.0024 1.0056 -0.0007
# 4 -0.0025 -0.0021 0.0024 69.9948 0.0006 -12.7214
# 5 -4.5472 8.6158 1.0056 0.0006 36.0436 0.0032
# 6 -0.0003 0.0004 -0.0007 -12.7214 0.0032 28.3881
#
#
#
# Elastic Compliance Matrix: (Units=1/GPa)
#
#
# Indices 1 2 3 4 5 6 
#
# 1 0.014621 -0.003479 -0.003007 0.000001 0.002760 0.000000
# 2 -0.003479 0.011976 -0.003618 0.000000 -0.003201 0.000000
# 3 -0.003007 -0.003618 0.012115 -0.000001 0.000147 0.000000
# 4 0.000001 0.000000 -0.000001 0.015554 -0.000001 0.006970
# 5 0.002760 -0.003201 0.000147 -0.000001 0.028853 -0.000004
# 6 0.000000 0.000000 0.000000 0.006970 -0.000004 0.038349
#
#
# Mechanical properties :
#
#
# Convention : Reuss Voigt Hill
#
# Bulk Modulus (GPa) = 54.04548 55.17860 54.61204
# Shear Modulus (GPa) = 33.81938 39.55357 36.68648
#
# Velocity S-wave (km/s) = 4.26503 4.61246 4.44214
# Velocity P-wave (km/s) = 7.30230 7.61875 7.46220
#
# Compressibility (1/GPa) = 0.01850293
#
# Stress axis : x y z
#
# Youngs Moduli (GPa) = 68.39707 83.49942 82.54232
#
# Poissons Ratio (x) = 0.29046 0.24824
# Poissons Ratio (y) = 0.23793 0.29866
# Poissons Ratio (z) = 0.20570 0.30212
#
# Static dielectric constant tensor:
#      x y z
#    x 1.623020 0.000000 -0.002400 
#    y 0.000000 1.655750 0.000000 
#    z -0.002400 0.000000 1.658080 
# 
# From -- ./inp_files/17469.got.cif
#   From: 2010.05.17/outbox.cif.g08.bks.cpg/sg5_9_cif.got.tgz:17469.got - 2010.06.03 18:56:24.
