data_PCOD9129690
_publ_section_title
;
Structure prediction by ZEFSAII (Michael W. Deem and Ramdas Pophale) SiO2 
 PCOD9129690
Probable space group: C 2
;
_chemical_formula_sum "Si O2"
_cell_formula_units_Z 24
_cell_length_a 14.925851
_cell_length_b 13.953587
_cell_length_c 6.089255
_cell_angle_alpha 90.000000
_cell_angle_beta 50.641330
_cell_angle_gamma 90.000000
_cell_volume 980.564234
_symmetry_space_group_name_H-M "C 2"
_symmetry_group_IT_number 5
_symmetry_cell_setting 'monoclinic'
loop_
_space_group_symop_operation_xyz
x,y,z
-x,y,-z
1/2+x,1/2+y,z
1/2-x,1/2+y,-z
loop_
_atom_site_type_symbol
_atom_site_label
_atom_site_fract_x
_atom_site_fract_y
_atom_site_fract_z
Si Si1 0.102481 0.054900 0.000338
Si Si2 0.617717 0.184326 0.735612
Si Si3 0.830795 0.318476 0.518722
Si Si4 0.500000 0.688228 0.500000
Si Si5 0.334341 0.381550 0.852175
Si Si6 0.000000 0.706321 0.500000
Si Si7 0.783718 0.497663 0.350970
O O1 0.095370 0.125461 0.219703
O O2 0.083886 0.949686 0.129648
O O3 0.000000 0.083489 0.000000
O O4 0.211186 0.042272 0.669261
O O5 0.726404 0.255948 0.571219
O O6 0.568482 0.148134 0.578411
O O7 0.648779 0.091634 0.833704
O O8 0.500000 0.236107 0.000000
O O9 0.936228 0.251827 0.418481
O O10 0.858397 0.409830 0.327443
O O11 0.778471 0.358548 0.828118
O O12 0.398362 0.281931 0.718649
O O13 0.297978 0.445521 0.699713
#
# Coordination Sequence:
#
# PCOD9129690 Si02
#       7
#     4   4   4   2   4   2   4
#     4  11  23  40  69 102 137 180 240 291 346 418
#     4  12  26  45  72 110 143 184 244 301 365 427
#     4  11  26  46  69 104 143 192 240 293 360 440
#     4  12  27  45  70 104 146 194 238 292 364 432
#     4  11  23  42  71 101 140 186 240 292 355 423
#     4  12  23  39  76 102 138 188 236 300 356 420
#     4  11  26  45  70 102 147 187 240 295 359 429
#
# _framework density 24.475704
#
# number of rings (size 3 to 8) (size 9 to 14) (size 15 to 20)
#    0.000    0.667    3.333    4.500    4.667    6.000 
#    0.000    0.000    0.000    0.000    0.000    0.000 
#    0.000    0.000    0.000    0.000    0.000    0.000 
#
# Total GULP energy -67026.765824 kJ/mol
# GULP energy per Si atom -5585.563819 kJ/mol
# Density = 2.442000 g / cm^3
# Si number density = 24.475704 Si / 1000 Ang^3
#
#
#
# Elastic Constant Matrix: (Units=GPa)
#
#
# Indices 1 2 3 4 5 6 
#
# 1 107.8771 35.9982 13.9688 0.0000 8.1349 0.0000
# 2 35.9982 108.8946 10.7551 0.0000 -2.5460 0.0000
# 3 13.9688 10.7551 47.9907 0.0000 4.4540 0.0000
# 4 0.0000 0.0000 0.0000 21.3746 0.0000 4.0011
# 5 8.1349 -2.5460 4.4540 0.0000 28.4529 0.0000
# 6 0.0000 0.0000 0.0000 4.0011 0.0000 53.5709
#
#
#
# Elastic Compliance Matrix: (Units=1/GPa)
#
#
# Indices 1 2 3 4 5 6 
#
# 1 0.010939 -0.003480 -0.002116 0.000000 -0.003108 0.000000
# 2 -0.003480 0.010538 -0.001551 0.000000 0.002181 0.000000
# 3 -0.002116 -0.001551 0.022078 0.000000 -0.002990 0.000000
# 4 0.000000 0.000000 0.000000 0.047448 0.000000 -0.003544
# 5 -0.003108 0.002181 -0.002990 0.000000 0.036698 0.000000
# 6 0.000000 0.000000 0.000000 -0.003544 0.000000 0.018932
#
#
# Mechanical properties :
#
#
# Convention : Reuss Voigt Hill
#
# Bulk Modulus (GPa) = 34.17436 42.91187 38.54311
# Shear Modulus (GPa) = 29.29457 34.28238 31.78848
#
# Velocity S-wave (km/s) = 3.46335 3.74661 3.60776
# Velocity P-wave (km/s) = 5.47594 6.02384 5.75641
#
# Compressibility (1/GPa) = 0.02926171
#
# Stress axis : x y z
#
# Youngs Moduli (GPa) = 91.41259 94.89652 45.29331
#
# Poissons Ratio (x) = 0.33024 0.09583
# Poissons Ratio (y) = 0.31812 0.07025
# Poissons Ratio (z) = 0.19341 0.14719
#
# Static dielectric constant tensor:
#      x y z
#    x 1.956460 0.000000 0.011440 
#    y 0.000000 1.926130 0.000000 
#    z 0.011440 0.000000 2.216360 
# 
# From -- ./inp_files/6822.got.cif
#   From: 2010.05.17/outbox.cif.g08.bks.cpg/sg5_4_cif.got.tgz:6822.got - 2010.06.03 18:56:24.
