data_PCOD9129205
_publ_section_title
;
Structure prediction by ZEFSAII (Michael W. Deem and Ramdas Pophale) SiO2 
 PCOD9129205
Probable space group: C 2
;
_chemical_formula_sum "Si O2"
_cell_formula_units_Z 32
_cell_length_a 15.926012
_cell_length_b 19.927644
_cell_length_c 16.102706
_cell_angle_alpha 90.000000
_cell_angle_beta 162.411042
_cell_angle_gamma 90.000000
_cell_volume 1544.317053
_symmetry_space_group_name_H-M "C 2"
_symmetry_group_IT_number 5
_symmetry_cell_setting 'monoclinic'
loop_
_space_group_symop_operation_xyz
x,y,z
-x,y,-z
1/2+x,1/2+y,z
1/2-x,1/2+y,-z
loop_
_atom_site_type_symbol
_atom_site_label
_atom_site_fract_x
_atom_site_fract_y
_atom_site_fract_z
Si Si1 0.133136 0.543460 0.036995
Si Si2 0.306972 0.469209 0.897704
Si Si3 0.751042 0.325574 0.574671
Si Si4 0.983383 0.696763 0.574585
Si Si5 0.260455 0.427414 0.574063
Si Si6 0.481355 0.616195 0.120415
Si Si7 0.304108 0.561680 0.506288
Si Si8 0.315100 0.884026 0.905870
O O1 0.975297 0.575208 0.808663
O O2 0.455201 0.560684 0.335005
O O3 0.127184 0.462380 0.022577
O O4 0.000000 0.560691 0.000000
O O5 0.986677 0.447627 0.595726
O O6 0.500000 0.458513 0.000000
O O7 0.447425 0.428159 0.104495
O O8 0.350181 0.546436 0.966050
O O9 0.666528 0.248862 0.505782
O O10 0.766943 0.357890 0.499210
O O11 0.511971 0.367756 0.399992
O O12 0.049271 0.338968 0.895379
O O13 0.776215 0.635150 0.358105
O O14 0.000000 0.731849 0.500000
O O15 0.260938 0.671181 0.880951
O O16 0.265037 0.488537 0.511901
O O17 0.580441 0.607235 0.309516
O O18 0.500000 0.866944 0.000000
#
# Coordination Sequence:
#
# PCOD9129205 Si02
#       8
#     4   4   4   4   4   4   4   4
#     4  11  20  32  54  85 120 154 194 240 298 365
#     4  11  22  38  61  87 115 149 189 256 311 355
#     4  12  23  37  56  83 124 162 201 240 285 350
#     4  12  24  40  58  86 122 166 210 242 279 354
#     4  11  21  36  57  86 117 151 192 241 306 368
#     4  11  24  39  61  83 118 162 209 249 295 350
#     4  11  20  37  56  84 118 157 201 249 306 353
#     4  11  20  33  52  80 119 163 193 227 281 349
#
# _framework density 20.721132999999998
#
# number of rings (size 3 to 8) (size 9 to 14) (size 15 to 20)
#    0.000    0.750    2.500    8.250    0.000    2.000 
#    0.000    0.000    0.000    0.000    0.000   13.125 
#    0.000    0.000    0.000    0.000    0.000    0.000 
#
# Total GULP energy -89335.836240 kJ/mol
# GULP energy per Si atom -5583.489765 kJ/mol
# Density = 2.067397 g / cm^3
# Si number density = 20.721133 Si / 1000 Ang^3
#
#
#
# Elastic Constant Matrix: (Units=GPa)
#
#
# Indices 1 2 3 4 5 6 
#
# 1 65.2456 20.4329 -2.5311 0.0058 11.4885 0.0015
# 2 20.4329 52.4851 15.0743 0.0006 -8.9792 0.0005
# 3 -2.5311 15.0743 87.6759 0.0035 0.9476 0.0035
# 4 0.0058 0.0006 0.0035 12.2900 0.0012 4.2137
# 5 11.4885 -8.9792 0.9476 0.0012 41.8042 0.0008
# 6 0.0015 0.0005 0.0035 4.2137 0.0008 23.4493
#
#
#
# Elastic Compliance Matrix: (Units=1/GPa)
#
#
# Indices 1 2 3 4 5 6 
#
# 1 0.019771 -0.009654 0.002312 -0.000009 -0.007560 0.000000
# 2 -0.009654 0.025594 -0.004768 0.000004 0.008259 0.000000
# 3 0.002312 -0.004768 0.012313 -0.000004 -0.001939 -0.000001
# 4 -0.000009 0.000004 -0.000004 0.086709 0.000001 -0.015581
# 5 -0.007560 0.008259 -0.001939 0.000001 0.027816 -0.000001
# 6 0.000000 0.000000 -0.000001 -0.015581 -0.000001 0.045445
#
#
# Mechanical properties :
#
#
# Convention : Reuss Voigt Hill
#
# Bulk Modulus (GPa) = 29.88889 30.15098 30.01993
# Shear Modulus (GPa) = 19.76112 27.00406 23.38259
#
# Velocity S-wave (km/s) = 3.09151 3.61392 3.36287
# Velocity P-wave (km/s) = 5.21525 5.65653 5.44037
#
# Compressibility (1/GPa) = 0.03345725
#
# Stress axis : x y z
#
# Youngs Moduli (GPa) = 50.57919 39.07160 81.21375
#
# Poissons Ratio (x) = 0.37721 -0.18780
# Poissons Ratio (y) = 0.48831 0.38726
# Poissons Ratio (z) = -0.11696 0.18631
#
# Static dielectric constant tensor:
#      x y z
#    x 1.797120 0.000000 -0.003030 
#    y 0.000000 1.739190 0.000000 
#    z -0.003030 0.000000 1.715870 
# 
# From -- ./inp_files/55025.got.cif
#   From: 2010.05.17/outbox.cif.g08.bks.cpg/sg5_28_cif.got.tgz:55025.got - 2010.06.03 18:56:24.
