data_PCOD9129871
_publ_section_title
;
Structure prediction by ZEFSAII (Michael W. Deem and Ramdas Pophale) SiO2 
 PCOD9129871
Probable space group: C 2
;
_chemical_formula_sum "Si O2"
_cell_formula_units_Z 22
_cell_length_a 7.877748
_cell_length_b 16.928973
_cell_length_c 7.235764
_cell_angle_alpha 90.000000
_cell_angle_beta 78.039138
_cell_angle_gamma 90.000000
_cell_volume 944.027043
_symmetry_space_group_name_H-M "C 2"
_symmetry_group_IT_number 5
_symmetry_cell_setting 'monoclinic'
loop_
_space_group_symop_operation_xyz
x,y,z
-x,y,-z
1/2+x,1/2+y,z
1/2-x,1/2+y,-z
loop_
_atom_site_type_symbol
_atom_site_label
_atom_site_fract_x
_atom_site_fract_y
_atom_site_fract_z
Si Si1 0.931572 0.893190 0.209665
Si Si2 0.246140 0.933137 0.407232
Si Si3 0.346040 0.773396 0.293109
Si Si4 0.279070 0.741617 0.877272
Si Si5 0.103527 0.583053 0.811902
Si Si6 0.500000 0.186422 0.500000
O O1 0.908338 0.895727 0.684253
O O2 0.819243 0.735951 0.560864
O O3 0.793062 0.939455 0.366149
O O4 0.000000 0.926583 0.000000
O O5 0.285180 0.017545 0.315618
O O6 0.382008 0.863604 0.344644
O O7 0.150796 0.807457 0.817805
O O8 0.464306 0.734934 0.733723
O O9 0.303550 0.767811 0.084035
O O10 0.202321 0.654460 0.889263
O O11 0.000244 0.629829 0.677481
O O12 0.000000 0.541326 0.000000
#
# Coordination Sequence:
#
# PCOD9129871 Si02
#       6
#     4   4   4   4   4   2
#     4  11  23  46  74 101 141 193 237 297 354 431
#     4  11  26  42  71 108 142 185 244 290 371 425
#     4  11  24  45  74 110 138 196 247 290 350 447
#     4  11  24  46  76 104 145 190 246 296 357 424
#     4  12  27  48  70 107 150 191 234 310 360 426
#     4  12  26  48  78 100 150 194 244 286 372 426
#
# _framework density 23.304416
#
# number of rings (size 3 to 8) (size 9 to 14) (size 15 to 20)
#    0.000    0.727    3.636    3.818    2.545    8.727 
#    3.273    0.000    0.000    0.000    0.000    0.000 
#    0.000    0.000    0.000    0.000    0.000    0.000 
#
# Total GULP energy -61443.917675 kJ/mol
# GULP energy per Si atom -5585.810698 kJ/mol
# Density = 2.325137 g / cm^3
# Si number density = 23.304416 Si / 1000 Ang^3
#
#
#
# Elastic Constant Matrix: (Units=GPa)
#
#
# Indices 1 2 3 4 5 6 
#
# 1 87.7301 25.5420 34.5445 0.0000 -10.7230 0.0000
# 2 25.5420 97.8188 46.9291 0.0000 -9.6809 0.0000
# 3 34.5445 46.9291 182.0755 0.0000 -32.8871 0.0000
# 4 0.0000 0.0000 0.0000 23.5539 0.0000 -8.0484
# 5 -10.7230 -9.6809 -32.8871 0.0000 41.4891 0.0000
# 6 0.0000 0.0000 0.0000 -8.0484 0.0000 -3.1390
#
#
#
# Elastic Compliance Matrix: (Units=1/GPa)
#
#
# Indices 1 2 3 4 5 6 
#
# 1 0.012913 -0.002485 -0.001531 0.000000 0.001544 0.000000
# 2 -0.002485 0.012149 -0.002642 0.000000 0.000098 0.000000
# 3 -0.001531 -0.002642 0.007330 0.000000 0.004798 0.000000
# 4 0.000000 0.000000 0.000000 0.022629 0.000000 -0.058022
# 5 0.001544 0.000098 0.004798 0.000000 0.028328 0.000000
# 6 0.000000 0.000000 0.000000 -0.058022 0.000000 -0.169803
#
#
# Mechanical properties :
#
#
# Convention : Reuss Voigt Hill
#
# Bulk Modulus (GPa) = 52.41693 64.62839 58.52266
# Shear Modulus (GPa) = -74.87518 29.75471 -22.56023
#
# Velocity S-wave (km/s) = -5.67441 3.57709 -3.11475
# Velocity P-wave (km/s) = 4.51562 6.69725 3.49731
#
# Compressibility (1/GPa) = 0.01907781
#
# Stress axis : x y z
#
# Youngs Moduli (GPa) = 77.43839 82.31046 136.41899
#
# Poissons Ratio (x) = 0.20452 0.20881
# Poissons Ratio (y) = 0.19241 0.36045
# Poissons Ratio (z) = 0.11853 0.21748
#
# Static dielectric constant tensor:
#      x y z
#    x 2.031580 0.000000 -0.019280 
#    y 0.000000 1.844470 0.000000 
#    z -0.019280 0.000000 1.890740 
# 
# From -- ./inp_files/6780.got.cif
#   From: 2010.05.17/outbox.cif.g08.bks.cpg/sg5_4_cif.got.tgz:6780.got - 2010.06.03 18:56:24.
