data_PCOD9129262
_publ_section_title
;
Structure prediction by ZEFSAII (Michael W. Deem and Ramdas Pophale) SiO2 
 PCOD9129262
Probable space group: C 2
;
_chemical_formula_sum "Si O2"
_cell_formula_units_Z 32
_cell_length_a 11.558820
_cell_length_b 14.987092
_cell_length_c 15.823513
_cell_angle_alpha 90.000000
_cell_angle_beta 29.894400
_cell_angle_gamma 90.000000
_cell_volume 1366.200491
_symmetry_space_group_name_H-M "C 2"
_symmetry_group_IT_number 5
_symmetry_cell_setting 'monoclinic'
loop_
_space_group_symop_operation_xyz
x,y,z
-x,y,-z
1/2+x,1/2+y,z
1/2-x,1/2+y,-z
loop_
_atom_site_type_symbol
_atom_site_label
_atom_site_fract_x
_atom_site_fract_y
_atom_site_fract_z
Si Si1 0.682064 0.416370 0.707715
Si Si2 0.256442 0.582899 0.206132
Si Si3 0.445775 0.439424 0.394109
Si Si4 0.846483 0.395360 0.913169
Si Si5 0.255639 0.111820 0.202168
Si Si6 0.897971 0.552777 0.283273
Si Si7 0.770523 0.301700 0.798892
Si Si8 0.684505 0.785727 0.805978
O O1 0.739512 0.507073 0.723637
O O2 0.711316 0.425394 0.589525
O O3 0.797560 0.337583 0.687836
O O4 0.410567 0.389482 0.888923
O O5 0.254328 0.682639 0.244847
O O6 0.045372 0.582981 0.271248
O O7 0.500000 0.570344 0.000000
O O8 0.620774 0.521686 0.266699
O O9 0.291747 0.480875 0.566332
O O10 0.595880 0.351145 0.319042
O O11 0.848285 0.379724 0.812032
O O12 0.927034 0.494032 0.883448
O O13 0.027460 0.323914 0.831149
O O14 0.128076 0.202993 0.254787
O O15 0.293595 0.119284 0.280169
O O16 0.500000 0.108751 0.000000
O O17 0.500000 0.292665 0.000000
O O18 0.500000 0.791555 0.000000
#
# Coordination Sequence:
#
# PCOD9129262 Si02
#       8
#     4   4   4   4   4   4   4   4
#     4  11  21  43  69  98 134 176 224 278 336 412
#     4  11  24  42  72 103 133 178 234 287 335 400
#     4  12  26  42  62  99 141 179 221 273 346 412
#     4  11  20  42  68  94 134 174 224 277 339 394
#     4  11  24  42  71  99 127 179 234 279 332 406
#     4  12  25  45  65  94 140 179 216 283 347 397
#     4   9  21  38  68 102 127 168 227 286 332 392
#     4  11  24  41  70 105 132 180 235 283 338 404
#
# _framework density 23.422623999999999
#
# number of rings (size 3 to 8) (size 9 to 14) (size 15 to 20)
#    0.000    1.000    5.000    1.875    3.500    2.500 
#    2.250    2.500    0.000    0.000    0.000    0.000 
#    0.000    0.000    0.000    0.000    0.000    0.000 
#
# Total GULP energy -89373.014733 kJ/mol
# GULP energy per Si atom -5585.813421 kJ/mol
# Density = 2.336931 g / cm^3
# Si number density = 23.422624 Si / 1000 Ang^3
#
#
#
# Elastic Constant Matrix: (Units=GPa)
#
#
# Indices 1 2 3 4 5 6 
#
# 1 96.3712 12.2147 18.8753 -0.0125 2.3349 -0.0049
# 2 12.2147 116.0812 -0.2817 0.0131 -12.9534 -0.0142
# 3 18.8753 -0.2817 60.9871 -0.0173 -0.8444 -0.0187
# 4 -0.0125 0.0131 -0.0173 -1.3718 0.0350 3.3540
# 5 2.3349 -12.9534 -0.8444 0.0350 28.6518 -0.0047
# 6 -0.0049 -0.0142 -0.0187 3.3540 -0.0047 21.6053
#
#
#
# Elastic Compliance Matrix: (Units=1/GPa)
#
#
# Indices 1 2 3 4 5 6 
#
# 1 0.011281 -0.001379 -0.003521 -0.000086 -0.001647 0.000012
# 2 -0.001379 0.009242 0.000529 0.000161 0.004306 -0.000018
# 3 -0.003521 0.000529 0.017503 -0.000087 0.001042 0.000028
# 4 -0.000086 0.000161 -0.000087 -0.528394 0.000736 0.082029
# 5 -0.001647 0.004306 0.001042 0.000736 0.037013 -0.000103
# 6 0.000012 -0.000018 0.000028 0.082029 -0.000103 0.033551
#
#
# Mechanical properties :
#
#
# Convention : Reuss Voigt Hill
#
# Bulk Modulus (GPa) = 34.14779 37.22847 35.68813
# Shear Modulus (GPa) = -12.45942 25.95247 6.74653
#
# Velocity S-wave (km/s) = -2.30888 3.33229 1.69900
# Velocity P-wave (km/s) = 2.73911 5.54385 4.37247
#
# Compressibility (1/GPa) = 0.02928447
#
# Stress axis : x y z
#
# Youngs Moduli (GPa) = 88.64629 108.20697 57.13180
#
# Poissons Ratio (x) = 0.14925 0.20114
# Poissons Ratio (y) = 0.12227 -0.03024
# Poissons Ratio (z) = 0.31208 -0.05727
#
# Static dielectric constant tensor:
#      x y z
#    x 2.072140 0.000000 0.032510 
#    y 0.000000 1.841300 0.000000 
#    z 0.032510 0.000000 1.985310 
# 
# From -- ./inp_files/60676.got.cif
#   From: 2010.05.17/outbox.cif.g08.bks.cpg/sg5_31_cif.got.tgz:60676.got - 2010.06.03 18:56:24.
