data_PCOD9129933
_publ_section_title
;
Structure prediction by ZEFSAII (Michael W. Deem and Ramdas Pophale) SiO2 
 PCOD9129933
Probable space group: C 2
;
_chemical_formula_sum "Si O2"
_cell_formula_units_Z 24
_cell_length_a 27.902087
_cell_length_b 5.201192
_cell_length_c 15.755138
_cell_angle_alpha 90.000000
_cell_angle_beta 25.714461
_cell_angle_gamma 90.000000
_cell_volume 992.059954
_symmetry_space_group_name_H-M "C 2"
_symmetry_group_IT_number 5
_symmetry_cell_setting 'monoclinic'
loop_
_space_group_symop_operation_xyz
x,y,z
-x,y,-z
1/2+x,1/2+y,z
1/2-x,1/2+y,-z
loop_
_atom_site_type_symbol
_atom_site_label
_atom_site_fract_x
_atom_site_fract_y
_atom_site_fract_z
Si Si1 0.457560 0.054250 0.764202
Si Si2 0.275762 0.902969 0.182428
Si Si3 0.667742 0.225866 0.751773
Si Si4 0.025826 0.100393 0.054963
Si Si5 0.867381 0.489065 0.376282
Si Si6 0.475803 0.527885 0.441395
O O1 0.451064 0.294059 0.711393
O O2 0.549007 0.117467 0.691138
O O3 0.500133 0.788692 0.651605
O O4 0.341804 0.026770 0.998211
O O5 0.271293 0.049866 0.279140
O O6 0.147344 0.900756 0.364326
O O7 0.366460 0.686462 0.063695
O O8 0.747461 0.466966 0.608480
O O9 0.649827 0.113247 0.687791
O O10 0.560211 0.313045 0.975635
O O11 0.921658 0.205997 0.272742
O O12 0.000000 0.209191 0.000000
O O13 0.500000 0.592576 0.500000
#
# Coordination Sequence:
#
# PCOD9129933 Si02
#       6
#     4   4   4   4   4   4
#     4  11  28  47  78 113 146 191 250 308 373 451
#     4  11  27  45  73 109 146 195 246 303 367 444
#     4  12  25  43  66 100 151 199 241 297 353 440
#     4  11  24  41  63  98 146 193 239 286 355 423
#     4  11  25  43  68 105 146 200 246 297 358 443
#     4  12  28  54  80 108 146 191 250 321 383 437
#
# _framework density 24.192084999999999
#
# number of rings (size 3 to 8) (size 9 to 14) (size 15 to 20)
#    0.000    0.667    3.333    2.500   11.667    1.333 
#    0.000    0.000    0.000    0.000    0.000    0.000 
#    0.000    0.000    0.000    0.000    0.000    0.000 
#
# Total GULP energy -66963.008127 kJ/mol
# GULP energy per Si atom -5580.250677 kJ/mol
# Density = 2.413702 g / cm^3
# Si number density = 24.192085 Si / 1000 Ang^3
#
#
#
# Elastic Constant Matrix: (Units=GPa)
#
#
# Indices 1 2 3 4 5 6 
#
# 1 83.3945 3.7694 21.2754 -0.0041 27.5541 -0.0023
# 2 3.7694 57.7669 18.3586 -0.0092 15.9827 0.0113
# 3 21.2754 18.3586 125.8892 -0.0082 18.5162 0.0016
# 4 -0.0041 -0.0092 -0.0082 19.3780 0.0031 0.7755
# 5 27.5541 15.9827 18.5162 0.0031 39.4151 0.0020
# 6 -0.0023 0.0113 0.0016 0.7755 0.0020 14.1591
#
#
#
# Elastic Compliance Matrix: (Units=1/GPa)
#
#
# Indices 1 2 3 4 5 6 
#
# 1 0.016074 0.002613 -0.001385 0.000006 -0.011646 0.000002
# 2 0.002613 0.020313 -0.002067 0.000011 -0.009093 -0.000015
# 3 -0.001385 -0.002067 0.008823 0.000003 -0.002339 0.000001
# 4 0.000006 0.000011 0.000003 0.051718 -0.000014 -0.002833
# 5 -0.011646 -0.009093 -0.002339 -0.000014 0.038299 0.000001
# 6 0.000002 -0.000015 0.000001 -0.002833 0.000001 0.070781
#
#
# Mechanical properties :
#
#
# Convention : Reuss Voigt Hill
#
# Bulk Modulus (GPa) = 22.97012 39.31749 31.14381
# Shear Modulus (GPa) = 22.50271 29.50026 26.00148
#
# Velocity S-wave (km/s) = 3.05317 3.49580 3.28196
# Velocity P-wave (km/s) = 4.68451 5.70804 5.22142
#
# Compressibility (1/GPa) = 0.04353482
#
# Stress axis : x y z
#
# Youngs Moduli (GPa) = 62.21067 49.22954 113.34189
#
# Poissons Ratio (x) = -0.12866 0.15695
# Poissons Ratio (y) = -0.16259 0.23422
# Poissons Ratio (z) = 0.08614 0.10173
#
# Static dielectric constant tensor:
#      x y z
#    x 1.914700 0.000000 -0.058430 
#    y 0.000000 2.048780 0.000000 
#    z -0.058430 0.000000 1.943000 
# 
# From -- ./inp_files/57964.got.cif
#   From: 2010.05.17/outbox.cif.g08.bks.cpg/sg5_29_cif.got.tgz:57964.got - 2010.06.03 18:56:24.
