data_PCOD9129564
_publ_section_title
;
Structure prediction by ZEFSAII (Michael W. Deem and Ramdas Pophale) SiO2 
 PCOD9129564
Probable space group: C 2
;
_chemical_formula_sum "Si O2"
_cell_formula_units_Z 24
_cell_length_a 17.798286
_cell_length_b 9.337409
_cell_length_c 15.225730
_cell_angle_alpha 90.000000
_cell_angle_beta 152.407650
_cell_angle_gamma 90.000000
_cell_volume 1172.007352
_symmetry_space_group_name_H-M "C 2"
_symmetry_group_IT_number 5
_symmetry_cell_setting 'monoclinic'
loop_
_space_group_symop_operation_xyz
x,y,z
-x,y,-z
1/2+x,1/2+y,z
1/2-x,1/2+y,-z
loop_
_atom_site_type_symbol
_atom_site_label
_atom_site_fract_x
_atom_site_fract_y
_atom_site_fract_z
Si Si1 0.358199 0.662330 0.525458
Si Si2 0.308094 0.339175 0.791818
Si Si3 0.780153 0.282275 0.105888
Si Si4 0.071657 0.519326 0.837705
Si Si5 0.117582 0.610455 0.536604
Si Si6 0.730313 0.858636 0.406401
O O1 0.271005 0.709400 0.345118
O O2 0.543474 0.710423 0.717089
O O3 0.269824 0.753831 0.509847
O O4 0.346123 0.495166 0.532333
O O5 0.236503 0.344125 0.814769
O O6 0.250000 0.485709 0.686660
O O7 0.500000 0.326265 0.000000
O O8 0.785633 0.409088 0.040587
O O9 0.643342 0.164042 0.950538
O O10 0.983207 0.561169 0.654286
O O11 0.946493 0.435664 0.771624
O O12 0.211634 0.758160 0.612921
O O13 0.000000 0.620254 0.500000
#
# Coordination Sequence:
#
# PCOD9129564 Si02
#       6
#     4   4   4   4   4   4
#     4  11  22  43  68 101 137 192 234 294 355 426
#     4  12  24  43  71 100 141 191 241 292 363 424
#     4  11  25  42  71 100 144 184 241 292 358 429
#     4  11  24  44  72 105 138 185 246 288 358 422
#     4  12  24  48  70 104 144 189 235 298 357 425
#     4  11  23  42  72  95 143 181 239 288 360 411
#
# _framework density 20.477685999999999
#
# number of rings (size 3 to 8) (size 9 to 14) (size 15 to 20)
#    0.000    0.667    6.667    1.500    2.333    4.000 
#    0.000    0.833    0.000    0.000    0.000    0.000 
#    0.000    0.000    0.000    0.000    0.000    0.000 
#
# Total GULP energy -67060.377941 kJ/mol
# GULP energy per Si atom -5588.364828 kJ/mol
# Density = 2.043108 g / cm^3
# Si number density = 20.477686 Si / 1000 Ang^3
#
#
#
# Elastic Constant Matrix: (Units=GPa)
#
#
# Indices 1 2 3 4 5 6 
#
# 1 70.6355 14.5398 5.1072 0.0000 14.0296 0.0000
# 2 14.5398 117.8634 20.3259 0.0000 -0.2436 0.0000
# 3 5.1072 20.3259 67.0076 0.0000 -2.1407 0.0000
# 4 0.0000 0.0000 0.0000 31.0856 0.0000 9.9602
# 5 14.0296 -0.2436 -2.1407 0.0000 15.3285 0.0000
# 6 0.0000 0.0000 0.0000 9.9602 0.0000 40.9346
#
#
#
# Elastic Compliance Matrix: (Units=1/GPa)
#
#
# Indices 1 2 3 4 5 6 
#
# 1 0.017979 -0.002030 -0.001287 0.000000 -0.016667 0.000000
# 2 -0.002030 0.009183 -0.002578 0.000000 0.001644 0.000000
# 3 -0.001287 -0.002578 0.015911 0.000000 0.003359 0.000000
# 4 0.000000 0.000000 0.000000 0.034889 0.000000 -0.008489
# 5 -0.016667 0.001644 0.003359 0.000000 0.080988 0.000000
# 6 0.000000 0.000000 0.000000 -0.008489 0.000000 0.026495
#
#
# Mechanical properties :
#
#
# Convention : Reuss Voigt Hill
#
# Bulk Modulus (GPa) = 31.96763 37.27248 34.62005
# Shear Modulus (GPa) = 24.07747 31.83866 27.95806
#
# Velocity S-wave (km/s) = 3.43270 3.94737 3.69900
# Velocity P-wave (km/s) = 5.59965 6.24633 5.93181
#
# Compressibility (1/GPa) = 0.03128165
#
# Stress axis : x y z
#
# Youngs Moduli (GPa) = 55.62173 108.89816 62.84902
#
# Poissons Ratio (x) = 0.22111 0.08088
# Poissons Ratio (y) = 0.11293 0.16204
# Poissons Ratio (z) = 0.07158 0.28077
#
# Static dielectric constant tensor:
#      x y z
#    x 1.758220 0.000000 0.031690 
#    y 0.000000 1.724460 0.000000 
#    z 0.031690 0.000000 1.730640 
# 
# From -- ./inp_files/32460.got.cif
#   From: 2010.05.17/outbox.cif.g08.bks.cpg/sg5_17_cif.got.tgz:32460.got - 2010.06.03 18:56:24.
