data_PCOD9129924
_publ_section_title
;
Structure prediction by ZEFSAII (Michael W. Deem and Ramdas Pophale) SiO2 
 PCOD9129924
Probable space group: C 2
;
_chemical_formula_sum "Si O2"
_cell_formula_units_Z 20
_cell_length_a 12.978196
_cell_length_b 5.234007
_cell_length_c 11.543648
_cell_angle_alpha 90.000000
_cell_angle_beta 78.484655
_cell_angle_gamma 90.000000
_cell_volume 768.352891
_symmetry_space_group_name_H-M "C 2"
_symmetry_group_IT_number 5
_symmetry_cell_setting 'monoclinic'
loop_
_space_group_symop_operation_xyz
x,y,z
-x,y,-z
1/2+x,1/2+y,z
1/2-x,1/2+y,-z
loop_
_atom_site_type_symbol
_atom_site_label
_atom_site_fract_x
_atom_site_fract_y
_atom_site_fract_z
Si Si1 0.314088 0.373820 0.989017
Si Si2 0.804889 0.498226 0.611421
Si Si3 0.144117 0.663517 0.774919
Si Si4 0.402917 0.760407 0.381055
Si Si5 0.567405 0.411679 0.271612
O O1 0.256195 0.634636 0.039786
O O2 0.366250 0.243142 0.089506
O O3 0.455466 0.282681 0.267572
O O4 0.383062 0.462188 0.864877
O O5 0.756372 0.272364 0.704394
O O6 0.883981 0.457473 0.487613
O O7 0.858290 0.719940 0.675663
O O8 0.128269 0.372018 0.738864
O O9 0.979112 0.154864 0.649620
O O10 0.195128 0.074238 0.572879
#
# Coordination Sequence:
#
# PCOD9129924 Si02
#       5
#     4   4   4   4   4
#     4  12  27  51  84 116 164 220 276 351 420 498
#     4  11  23  51  75 115 161 210 270 344 416 487
#     4  11  25  48  77 117 157 213 274 341 415 497
#     4  11  25  48  82 114 164 214 272 346 411 510
#     4  11  27  48  78 122 158 215 281 340 419 501
#
# _framework density 26.029706999999998
#
# number of rings (size 3 to 8) (size 9 to 14) (size 15 to 20)
#    0.000    0.800    4.000    1.800    5.600    2.400 
#    3.600    0.000    0.000    0.000    0.000    0.000 
#    0.000    0.000    0.000    0.000    0.000    0.000 
#
# Total GULP energy -55925.101309 kJ/mol
# GULP energy per Si atom -5592.510131 kJ/mol
# Density = 2.597046 g / cm^3
# Si number density = 26.029707 Si / 1000 Ang^3
#
#
#
# Elastic Constant Matrix: (Units=GPa)
#
#
# Indices 1 2 3 4 5 6 
#
# 1 134.6135 23.6675 32.7648 0.0000 -18.0644 0.0000
# 2 23.6675 71.1563 21.7733 0.0000 -19.0678 0.0000
# 3 32.7648 21.7733 151.1646 0.0000 -17.6099 0.0000
# 4 0.0000 0.0000 0.0000 48.5892 0.0000 -2.8415
# 5 -18.0644 -19.0678 -17.6099 0.0000 46.2410 0.0000
# 6 0.0000 0.0000 0.0000 -2.8415 0.0000 45.9457
#
#
#
# Elastic Compliance Matrix: (Units=1/GPa)
#
#
# Indices 1 2 3 4 5 6 
#
# 1 0.008339 -0.001836 -0.001310 0.000000 0.002002 0.000000
# 2 -0.001836 0.016576 -0.001336 0.000000 0.005609 0.000000
# 3 -0.001310 -0.001336 0.007291 0.000000 0.001714 0.000000
# 4 0.000000 0.000000 0.000000 0.020655 0.000000 0.001277
# 5 0.002002 0.005609 0.001714 0.000000 0.025374 0.000000
# 6 0.000000 0.000000 0.000000 0.001277 0.000000 0.021844
#
#
# Mechanical properties :
#
#
# Convention : Reuss Voigt Hill
#
# Bulk Modulus (GPa) = 43.02577 57.03837 50.03207
# Shear Modulus (GPa) = 42.81136 46.73710 44.77423
#
# Velocity S-wave (km/s) = 4.05990 4.24197 4.15193
# Velocity P-wave (km/s) = 6.20826 6.77884 6.49982
#
# Compressibility (1/GPa) = 0.02324188
#
# Stress axis : x y z
#
# Youngs Moduli (GPa) = 119.91901 60.32697 137.14912
#
# Poissons Ratio (x) = 0.11079 0.17963
# Poissons Ratio (y) = 0.22023 0.18325
# Poissons Ratio (z) = 0.15707 0.08060
#
# Static dielectric constant tensor:
#      x y z
#    x 2.032630 0.000000 0.042430 
#    y 0.000000 2.453840 0.000000 
#    z 0.042430 0.000000 2.031220 
# 
# From -- ./inp_files/41063.got.cif
#   From: 2010.05.17/outbox.cif.g08.bks.cpg/sg5_21_cif.got.tgz:41063.got - 2010.06.03 18:56:24.
