data_PCOD9129557
_publ_section_title
;
Structure prediction by ZEFSAII (Michael W. Deem and Ramdas Pophale) SiO2 
 PCOD9129557
Probable space group: C 2
;
_chemical_formula_sum "Si O2"
_cell_formula_units_Z 16
_cell_length_a 11.186032
_cell_length_b 9.170131
_cell_length_c 8.881935
_cell_angle_alpha 90.000000
_cell_angle_beta 119.578431
_cell_angle_gamma 90.000000
_cell_volume 792.353674
_symmetry_space_group_name_H-M "C 2"
_symmetry_group_IT_number 5
_symmetry_cell_setting 'monoclinic'
loop_
_space_group_symop_operation_xyz
x,y,z
-x,y,-z
1/2+x,1/2+y,z
1/2-x,1/2+y,-z
loop_
_atom_site_type_symbol
_atom_site_label
_atom_site_fract_x
_atom_site_fract_y
_atom_site_fract_z
Si Si1 0.853750 0.974220 0.965248
Si Si2 0.141835 0.976521 0.668881
Si Si3 0.401701 0.795703 0.319545
Si Si4 0.895441 0.280578 0.823038
O O1 0.721551 0.888508 0.823817
O O2 0.849458 0.136544 0.887437
O O3 0.856277 0.967427 0.147710
O O4 0.000000 0.911720 0.000000
O O5 0.267475 0.876879 0.695320
O O6 0.000000 0.931423 0.500000
O O7 0.158645 0.148255 0.644936
O O8 0.500000 0.875862 0.500000
O O9 0.508102 0.743654 0.257191
O O10 0.000000 0.365094 0.000000
#
# Coordination Sequence:
#
# PCOD9129557 Si02
#       4
#     4   4   4   4
#     4  11  22  43  63  89 128 162 199 257 305 357
#     4  11  23  41  64  92 124 161 205 252 305 361
#     4  11  25  42  63  93 123 163 207 249 305 365
#     4  11  22  43  64  86 129 161 200 258 300 358
#
# _framework density 20.193003000000001
#
# number of rings (size 3 to 8) (size 9 to 14) (size 15 to 20)
#    0.000    1.000    7.500    0.000    3.500    2.000 
#    4.500    0.000    0.000    0.000    0.000    0.000 
#    0.000    0.000    0.000    0.000    0.000    0.000 
#
# Total GULP energy -44617.984229 kJ/mol
# GULP energy per Si atom -5577.248029 kJ/mol
# Density = 2.014704 g / cm^3
# Si number density = 20.193003 Si / 1000 Ang^3
#
#
#
# Elastic Constant Matrix: (Units=GPa)
#
#
# Indices 1 2 3 4 5 6 
#
# 1 80.4217 54.1275 38.8245 0.0000 30.4662 0.0000
# 2 54.1275 71.2338 49.8014 0.0000 33.5830 0.0000
# 3 38.8245 49.8014 169.7849 0.0000 46.9220 0.0000
# 4 0.0000 0.0000 0.0000 33.1920 0.0000 13.1963
# 5 30.4662 33.5830 46.9220 0.0000 45.5877 0.0000
# 6 0.0000 0.0000 0.0000 13.1963 0.0000 24.5310
#
#
#
# Elastic Compliance Matrix: (Units=1/GPa)
#
#
# Indices 1 2 3 4 5 6 
#
# 1 0.026044 -0.017962 0.000652 0.000000 -0.004844 0.000000
# 2 -0.017962 0.034817 -0.003262 0.000000 -0.010287 0.000000
# 3 0.000652 -0.003262 0.008600 0.000000 -0.006884 0.000000
# 4 0.000000 0.000000 0.000000 0.038324 0.000000 -0.020616
# 5 -0.004844 -0.010287 -0.006884 0.000000 0.039837 0.000000
# 6 0.000000 0.000000 0.000000 -0.020616 0.000000 0.051855
#
#
# Mechanical properties :
#
#
# Convention : Reuss Voigt Hill
#
# Bulk Modulus (GPa) = 35.31419 67.43857 51.37638
# Shear Modulus (GPa) = 19.99509 32.57459 26.28484
#
# Velocity S-wave (km/s) = 3.15016 4.02078 3.61180
# Velocity P-wave (km/s) = 5.54595 7.41789 6.54915
#
# Compressibility (1/GPa) = 0.02831723
#
# Stress axis : x y z
#
# Youngs Moduli (GPa) = 38.39668 28.72146 116.27609
#
# Poissons Ratio (x) = 0.51588 -0.07579
# Poissons Ratio (y) = 0.68966 0.37933
# Poissons Ratio (z) = -0.02503 0.09370
#
# Static dielectric constant tensor:
#      x y z
#    x 1.724500 0.000000 -0.035690 
#    y 0.000000 1.714070 0.000000 
#    z -0.035690 0.000000 1.768410 
# 
# From -- ./inp_files/13820.got.cif
#   From: 2010.05.17/outbox.cif.g08.bks.cpg/sg5_7_cif.got.tgz:13820.got - 2010.06.03 18:56:24.
