data_PCOD9129689
_publ_section_title
;
Structure prediction by ZEFSAII (Michael W. Deem and Ramdas Pophale) SiO2 
 PCOD9129689
Probable space group: C 2
;
_chemical_formula_sum "Si O2"
_cell_formula_units_Z 24
_cell_length_a 11.098659
_cell_length_b 22.222042
_cell_length_c 10.998758
_cell_angle_alpha 90.000000
_cell_angle_beta 154.131486
_cell_angle_gamma 90.000000
_cell_volume 1183.561099
_symmetry_space_group_name_H-M "C 2"
_symmetry_group_IT_number 5
_symmetry_cell_setting 'monoclinic'
loop_
_space_group_symop_operation_xyz
x,y,z
-x,y,-z
1/2+x,1/2+y,z
1/2-x,1/2+y,-z
loop_
_atom_site_type_symbol
_atom_site_label
_atom_site_fract_x
_atom_site_fract_y
_atom_site_fract_z
Si Si1 0.587084 0.574230 0.217031
Si Si2 0.500000 0.754805 0.500000
Si Si3 0.435541 0.135710 0.198612
Si Si4 0.500000 0.177729 0.000000
Si Si5 0.760043 0.324576 0.504864
Si Si6 0.794525 0.933949 0.704927
Si Si7 0.790334 0.265612 0.922763
O O1 0.839739 0.612562 0.500308
O O2 0.655841 0.503791 0.280159
O O3 0.500000 0.590614 0.000000
O O4 0.310448 0.588219 0.039213
O O5 0.723838 0.715795 0.776018
O O6 0.308754 0.791601 0.419353
O O7 0.294434 0.198208 0.113082
O O8 0.568827 0.144103 0.187342
O O9 0.701240 0.392550 0.410492
O O10 0.507187 0.298040 0.352999
O O11 0.038569 0.307119 0.827704
O O12 0.500000 0.928483 0.500000
O O13 0.000000 0.914829 0.000000
O O14 0.000000 0.260815 0.000000
#
# Coordination Sequence:
#
# PCOD9129689 Si02
#       7
#     4   2   4   2   4   4   4
#     4  11  24  42  66  96 132 173 221 275 326 388
#     4  12  20  40  64 102 128 160 214 272 340 386
#     4  12  23  42  66  95 133 175 220 272 329 397
#     4  12  24  40  66  98 134 172 218 270 336 394
#     4  12  23  41  68  97 129 166 211 278 329 391
#     4  11  23  40  68 100 128 166 220 280 330 376
#     4  12  26  42  64  97 132 176 213 261 334 402
#
# _framework density 20.277787
#
# number of rings (size 3 to 8) (size 9 to 14) (size 15 to 20)
#    0.000    0.333    4.167    6.500    1.167    1.333 
#    0.000    0.000   11.000    0.000    0.000    0.000 
#    0.000    0.000    0.000    0.000    0.000    0.000 
#
# Total GULP energy -67025.795533 kJ/mol
# GULP energy per Si atom -5585.482961 kJ/mol
# Density = 2.023163 g / cm^3
# Si number density = 20.277787 Si / 1000 Ang^3
#
#
#
# Elastic Constant Matrix: (Units=GPa)
#
#
# Indices 1 2 3 4 5 6 
#
# 1 102.1854 43.0965 16.3392 -0.0001 8.7163 0.0002
# 2 43.0965 80.2536 46.1047 -0.0001 -11.3549 -0.0001
# 3 16.3392 46.1047 143.4648 0.0031 3.2322 -0.0003
# 4 -0.0001 -0.0001 0.0031 37.9944 0.0006 3.6753
# 5 8.7163 -11.3549 3.2322 0.0006 41.2063 0.0001
# 6 0.0002 -0.0001 -0.0003 3.6753 0.0001 24.2828
#
#
#
# Elastic Compliance Matrix: (Units=1/GPa)
#
#
# Indices 1 2 3 4 5 6 
#
# 1 0.013845 -0.009056 0.001458 0.000000 -0.005538 0.000000
# 2 -0.009056 0.022130 -0.006272 0.000000 0.008506 0.000000
# 3 0.001458 -0.006272 0.008882 -0.000001 -0.002734 0.000000
# 4 0.000000 0.000000 -0.000001 0.026711 0.000000 -0.004043
# 5 -0.005538 0.008506 -0.002734 0.000000 0.027998 0.000000
# 6 0.000000 0.000000 0.000000 -0.004043 0.000000 0.041793
#
#
# Mechanical properties :
#
#
# Convention : Reuss Voigt Hill
#
# Bulk Modulus (GPa) = 58.42228 59.66497 59.04362
# Shear Modulus (GPa) = 28.60342 35.38761 31.99551
#
# Velocity S-wave (km/s) = 3.75984 4.18202 3.97654
# Velocity P-wave (km/s) = 6.90812 7.26683 7.08974
#
# Compressibility (1/GPa) = 0.01711676
#
# Stress axis : x y z
#
# Youngs Moduli (GPa) = 72.22945 45.18659 112.59332
#
# Poissons Ratio (x) = 0.40921 -0.16420
# Poissons Ratio (y) = 0.65412 0.70621
# Poissons Ratio (z) = -0.10533 0.28342
#
# Static dielectric constant tensor:
#      x y z
#    x 1.775670 0.000000 -0.024850 
#    y 0.000000 1.758400 0.000000 
#    z -0.024850 0.000000 1.701550 
# 
# From -- ./inp_files/40793.got.cif
#   From: 2010.05.17/outbox.cif.g08.bks.cpg/sg5_21_cif.got.tgz:40793.got - 2010.06.03 18:56:24.
