data_PCOD9129477
_publ_section_title
;
Structure prediction by ZEFSAII (Michael W. Deem and Ramdas Pophale) SiO2 
 PCOD9129477
Probable space group: C 2
;
_chemical_formula_sum "Si O2"
_cell_formula_units_Z 18
_cell_length_a 7.536897
_cell_length_b 4.853356
_cell_length_c 21.454895
_cell_angle_alpha 90.000000
_cell_angle_beta 48.688418
_cell_angle_gamma 90.000000
_cell_volume 589.490264
_symmetry_space_group_name_H-M "C 2"
_symmetry_group_IT_number 5
_symmetry_cell_setting 'monoclinic'
loop_
_space_group_symop_operation_xyz
x,y,z
-x,y,-z
1/2+x,1/2+y,z
1/2-x,1/2+y,-z
loop_
_atom_site_type_symbol
_atom_site_label
_atom_site_fract_x
_atom_site_fract_y
_atom_site_fract_z
Si Si1 0.500000 0.794080 0.000000
Si Si2 0.168969 0.753416 0.558558
Si Si3 0.888671 0.019515 0.777965
Si Si4 0.761040 0.078408 0.673051
Si Si5 0.007166 0.953558 0.883167
O O1 0.730443 0.961264 0.964459
O O2 0.606491 0.617165 0.918689
O O3 0.262934 0.036457 0.509253
O O4 0.884256 0.777724 0.634851
O O5 0.287007 0.689725 0.597133
O O6 0.908402 0.147416 0.702880
O O7 0.631473 0.154800 0.852196
O O8 0.022693 0.102112 0.811606
O O9 0.000162 0.708401 0.747188
#
# Coordination Sequence:
#
# PCOD9129477 Si02
#       5
#     2   4   4   4   4
#     4  12  24  40  66 100 138 184 236 296 362 436
#     4  11  24  44  73 107 150 197 252 313 376 445
#     4   9  20  43  70 101 141 188 240 300 365 441
#     4   9  21  44  71 106 144 192 246 304 372 444
#     4  11  22  40  65  98 139 184 238 296 363 434
#
# _framework density 30.534859000000001
#
# number of rings (size 3 to 8) (size 9 to 14) (size 15 to 20)
#    0.000    1.778    0.000    3.333    0.000    3.556 
#    0.000   33.333    0.000    0.000    0.000    0.000 
#    0.000    0.000    0.000    0.000    0.000    0.000 
#
# Total GULP energy -50181.350090 kJ/mol
# GULP energy per Si atom -5575.705566 kJ/mol
# Density = 3.046536 g / cm^3
# Si number density = 30.534859 Si / 1000 Ang^3
#
#
#
# Elastic Constant Matrix: (Units=GPa)
#
#
# Indices 1 2 3 4 5 6 
#
# 1 222.0300 45.6076 89.7661 0.0014 17.4959 0.0017
# 2 45.6076 92.1105 33.0759 0.0033 5.9750 0.0060
# 3 89.7661 33.0759 205.4171 -0.0001 39.7149 0.0011
# 4 0.0014 0.0033 -0.0001 59.4673 0.0000 1.2926
# 5 17.4959 5.9750 39.7149 0.0000 89.3043 0.0010
# 6 0.0017 0.0060 0.0011 1.2926 0.0010 51.8227
#
#
#
# Elastic Compliance Matrix: (Units=1/GPa)
#
#
# Indices 1 2 3 4 5 6 
#
# 1 0.005827 -0.002092 -0.002205 0.000000 -0.000021 0.000000
# 2 -0.002092 0.012274 -0.001075 -0.000001 0.000067 -0.000001
# 3 -0.002205 -0.001075 0.006463 0.000000 -0.002370 0.000000
# 4 0.000000 -0.000001 0.000000 0.016825 0.000000 -0.000420
# 5 -0.000021 0.000067 -0.002370 0.000000 0.012251 0.000000
# 6 0.000000 -0.000001 0.000000 -0.000420 0.000000 0.019307
#
#
# Mechanical properties :
#
#
# Convention : Reuss Voigt Hill
#
# Bulk Modulus (GPa) = 72.36221 95.16187 83.76204
# Shear Modulus (GPa) = 56.62577 63.52605 60.07591
#
# Velocity S-wave (km/s) = 4.31102 4.56614 4.44041
# Velocity P-wave (km/s) = 6.96631 7.68324 7.33354
#
# Compressibility (1/GPa) = 0.01381937
#
# Stress axis : x y z
#
# Youngs Moduli (GPa) = 171.61823 81.47303 154.71944
#
# Poissons Ratio (x) = 0.17043 0.34123
# Poissons Ratio (y) = 0.35899 0.16634
# Poissons Ratio (z) = 0.37850 0.08759
#
# Static dielectric constant tensor:
#      x y z
#    x 2.313840 0.000000 -0.183070 
#    y 0.000000 2.423970 0.000000 
#    z -0.183070 0.000000 2.500480 
# 
# From -- ./inp_files/67827.got.cif
#   From: 2010.05.17/outbox.cif.g08.bks.cpg/sg5_34_cif.got.tgz:67827.got - 2010.06.03 18:56:24.
