data_PCOD9129201
_publ_section_title
;
Structure prediction by ZEFSAII (Michael W. Deem and Ramdas Pophale) SiO2 
 PCOD9129201
Probable space group: C 2
;
_chemical_formula_sum "Si O2"
_cell_formula_units_Z 20
_cell_length_a 14.456025
_cell_length_b 11.047114
_cell_length_c 5.435389
_cell_angle_alpha 90.000000
_cell_angle_beta 77.306662
_cell_angle_gamma 90.000000
_cell_volume 846.802998
_symmetry_space_group_name_H-M "C 2"
_symmetry_group_IT_number 5
_symmetry_cell_setting 'monoclinic'
loop_
_space_group_symop_operation_xyz
x,y,z
-x,y,-z
1/2+x,1/2+y,z
1/2-x,1/2+y,-z
loop_
_atom_site_type_symbol
_atom_site_label
_atom_site_fract_x
_atom_site_fract_y
_atom_site_fract_z
Si Si1 0.582794 0.688060 0.635451
Si Si2 0.742492 0.860779 0.391283
Si Si3 0.500000 0.901547 0.000000
Si Si4 0.857629 0.835227 0.815701
Si Si5 0.500000 0.494145 0.000000
Si Si6 0.100349 0.556681 0.302957
O O1 0.500000 0.647269 0.500000
O O2 0.679974 0.737079 0.463625
O O3 0.541046 0.810982 0.775460
O O4 0.581050 0.584177 0.843648
O O5 0.807482 0.877406 0.593938
O O6 0.675947 0.978123 0.406107
O O7 0.796511 0.849555 0.100642
O O8 0.581617 0.984209 0.062509
O O9 0.873619 0.693383 0.765462
O O10 0.953241 0.908316 0.822858
O O11 0.000000 0.555855 0.500000
#
# Coordination Sequence:
#
# PCOD9129201 Si02
#       6
#     4   4   2   4   2   4
#     4  11  24  46  85 110 156 205 264 315 386 470
#     4  12  28  53  76 125 150 206 264 328 382 458
#     4  11  19  46  78 116 143 211 262 306 372 475
#     4  12  33  51  78 117 165 200 261 326 402 450
#     4  11  31  54  74 112 161 217 252 316 406 473
#     4  12  27  50  84 108 163 208 263 316 389 476
#
# _framework density 23.618245999999999
#
# number of rings (size 3 to 8) (size 9 to 14) (size 15 to 20)
#    0.000    0.400    4.000    1.800   14.000    0.000 
#    0.000    0.000    0.000    0.000    0.000    0.000 
#    0.000    0.000    0.000    0.000    0.000    0.000 
#
# Total GULP energy -56006.310175 kJ/mol
# GULP energy per Si atom -5600.631017 kJ/mol
# Density = 2.356449 g / cm^3
# Si number density = 23.618246 Si / 1000 Ang^3
#
#
#
# Elastic Constant Matrix: (Units=GPa)
#
#
# Indices 1 2 3 4 5 6 
#
# 1 114.5222 71.2163 55.3442 0.0000 28.6022 0.0000
# 2 71.2163 191.1783 54.7167 0.0000 18.0554 0.0000
# 3 55.3442 54.7167 124.4123 0.0000 10.0049 0.0000
# 4 0.0000 0.0000 0.0000 35.0088 0.0000 4.4106
# 5 28.6022 18.0554 10.0049 0.0000 62.2417 0.0000
# 6 0.0000 0.0000 0.0000 4.4106 0.0000 20.3709
#
#
#
# Elastic Compliance Matrix: (Units=1/GPa)
#
#
# Indices 1 2 3 4 5 6 
#
# 1 0.014305 -0.003619 -0.004384 0.000000 -0.004819 0.000000
# 2 -0.003619 0.007010 -0.001462 0.000000 -0.000136 0.000000
# 3 -0.004384 -0.001462 0.010572 0.000000 0.000740 0.000000
# 4 0.000000 0.000000 0.000000 0.029365 0.000000 -0.006358
# 5 -0.004819 -0.000136 0.000740 0.000000 0.018201 0.000000
# 6 0.000000 0.000000 0.000000 -0.006358 0.000000 0.050466
#
#
# Mechanical properties :
#
#
# Convention : Reuss Voigt Hill
#
# Bulk Modulus (GPa) = 77.18602 88.07411 82.63007
# Shear Modulus (GPa) = 32.64378 40.11332 36.37855
#
# Velocity S-wave (km/s) = 3.72175 4.12564 3.92889
# Velocity P-wave (km/s) = 7.15683 7.75024 7.45944
#
# Compressibility (1/GPa) = 0.01295571
#
# Stress axis : x y z
#
# Youngs Moduli (GPa) = 69.90797 142.65194 94.59132
#
# Poissons Ratio (x) = 0.51621 0.41471
# Poissons Ratio (y) = 0.25297 0.13833
# Poissons Ratio (z) = 0.30650 0.20861
#
# Static dielectric constant tensor:
#      x y z
#    x 1.992350 0.000000 0.052370 
#    y 0.000000 1.828310 0.000000 
#    z 0.052370 0.000000 2.075090 
# 
# From -- ./inp_files/6502.got.cif
#   From: 2010.05.17/outbox.cif.g08.bks.cpg/sg5_4_cif.got.tgz:6502.got - 2010.06.03 18:56:24.
