data_PCOD9129177
_publ_section_title
;
Structure prediction by ZEFSAII (Michael W. Deem and Ramdas Pophale) SiO2 
 PCOD9129177
Probable space group: C 2
;
_chemical_formula_sum "Si O2"
_cell_formula_units_Z 28
_cell_length_a 27.469006
_cell_length_b 8.169564
_cell_length_c 8.751759
_cell_angle_alpha 90.000000
_cell_angle_beta 39.033477
_cell_angle_gamma 90.000000
_cell_volume 1236.864563
_symmetry_space_group_name_H-M "C 2"
_symmetry_group_IT_number 5
_symmetry_cell_setting 'monoclinic'
loop_
_space_group_symop_operation_xyz
x,y,z
-x,y,-z
1/2+x,1/2+y,z
1/2-x,1/2+y,-z
loop_
_atom_site_type_symbol
_atom_site_label
_atom_site_fract_x
_atom_site_fract_y
_atom_site_fract_z
Si Si1 0.316910 0.111240 0.098063
Si Si2 0.896603 0.283292 0.885478
Si Si3 0.930491 0.336180 0.451913
Si Si4 0.786967 0.523629 0.703273
Si Si5 0.680809 0.305317 0.186884
Si Si6 0.864597 0.041235 0.467742
Si Si7 0.841621 0.953152 0.184879
O O1 0.347035 0.262737 0.124944
O O2 0.223750 0.109883 0.306567
O O3 0.350045 0.165321 0.850788
O O4 0.340556 0.927873 0.079459
O O5 0.895736 0.282154 0.702228
O O6 0.979827 0.355131 0.733451
O O7 0.882362 0.100243 0.987419
O O8 0.875656 0.474367 0.511413
O O9 0.921581 0.189085 0.354599
O O10 0.775452 0.708391 0.786264
O O11 0.748910 0.494285 0.631440
O O12 0.735361 0.415998 0.947343
O O13 0.623188 0.418335 0.420915
O O14 0.868672 0.967291 0.291110
#
# Coordination Sequence:
#
# PCOD9129177 Si02
#       7
#     4   4   4   4   4   4   4
#     4  11  23  42  69 101 135 172 230 289 328 400
#     4  11  25  45  72  99 142 173 228 284 345 395
#     4  11  22  44  70 101 129 181 222 283 341 397
#     4  11  19  37  66  99 130 169 224 281 331 386
#     4  11  19  36  66  96 129 166 228 284 323 388
#     4  12  24  41  68 100 134 181 229 274 341 407
#     4  11  26  41  66 100 142 177 224 277 338 405
#
# _framework density 22.637888
#
# number of rings (size 3 to 8) (size 9 to 14) (size 15 to 20)
#    0.000    0.857    5.714    3.429    4.000    0.571 
#    2.571    1.429    0.000    0.000    0.000    0.000 
#    0.000    0.000    0.000    0.000    0.000    0.000 
#
# Total GULP energy -78123.652395 kJ/mol
# GULP energy per Si atom -5580.260885 kJ/mol
# Density = 2.258636 g / cm^3
# Si number density = 22.637888 Si / 1000 Ang^3
#
#
#
# Elastic Constant Matrix: (Units=GPa)
#
#
# Indices 1 2 3 4 5 6 
#
# 1 83.2404 -5.4979 11.4609 0.0000 -2.8598 0.0000
# 2 -5.4979 88.4154 4.6912 0.0000 1.7559 0.0000
# 3 11.4609 4.6912 20.6443 0.0000 0.7331 0.0000
# 4 0.0000 0.0000 0.0000 14.9361 0.0000 2.9682
# 5 -2.8598 1.7559 0.7331 0.0000 33.3638 0.0000
# 6 0.0000 0.0000 0.0000 2.9682 0.0000 39.3414
#
#
#
# Elastic Compliance Matrix: (Units=1/GPa)
#
#
# Indices 1 2 3 4 5 6 
#
# 1 0.013187 0.001201 -0.007637 0.000000 0.001235 0.000000
# 2 0.001201 0.011568 -0.003280 0.000000 -0.000434 0.000000
# 3 -0.007637 -0.003280 0.053484 0.000000 -0.001657 0.000000
# 4 0.000000 0.000000 0.000000 0.067971 0.000000 -0.005128
# 5 0.001235 -0.000434 -0.001657 0.000000 0.030138 0.000000
# 6 0.000000 0.000000 0.000000 -0.005128 0.000000 0.025805
#
#
# Mechanical properties :
#
#
# Convention : Reuss Voigt Hill
#
# Bulk Modulus (GPa) = 17.00540 23.73428 20.36984
# Shear Modulus (GPa) = 20.73084 29.63798 25.18441
#
# Velocity S-wave (km/s) = 3.02943 3.62224 3.33902
# Velocity P-wave (km/s) = 4.44577 5.29162 4.88703
#
# Compressibility (1/GPa) = 0.05880487
#
# Stress axis : x y z
#
# Youngs Moduli (GPa) = 75.83413 86.44875 18.69730
#
# Poissons Ratio (x) = -0.10380 0.14280
# Poissons Ratio (y) = -0.09105 0.06132
# Poissons Ratio (z) = 0.57918 0.28353
#
# Static dielectric constant tensor:
#      x y z
#    x 1.856890 0.000000 0.018150 
#    y 0.000000 1.888880 0.000000 
#    z 0.018150 0.000000 1.876730 
# 
# From -- ./inp_files/31750.got.cif
#   From: 2010.05.17/outbox.cif.g08.bks.cpg/sg5_16_cif.got.tgz:31750.got - 2010.06.03 18:56:24.
