data_PCOD9129636
_publ_section_title
;
Structure prediction by ZEFSAII (Michael W. Deem and Ramdas Pophale) SiO2 
 PCOD9129636
Probable space group: C 2
;
_chemical_formula_sum "Si O2"
_cell_formula_units_Z 30
_cell_length_a 9.300951
_cell_length_b 15.014960
_cell_length_c 10.484677
_cell_angle_alpha 90.000000
_cell_angle_beta 72.405704
_cell_angle_gamma 90.000000
_cell_volume 1395.725735
_symmetry_space_group_name_H-M "C 2"
_symmetry_group_IT_number 5
_symmetry_cell_setting 'monoclinic'
loop_
_space_group_symop_operation_xyz
x,y,z
-x,y,-z
1/2+x,1/2+y,z
1/2-x,1/2+y,-z
loop_
_atom_site_type_symbol
_atom_site_label
_atom_site_fract_x
_atom_site_fract_y
_atom_site_fract_z
Si Si1 0.000000 0.105670 0.500000
Si Si2 0.588490 0.034547 0.249921
Si Si3 0.641075 0.895861 0.600332
Si Si4 0.380770 0.377717 0.766090
Si Si5 0.671748 0.489576 0.627822
Si Si6 0.963732 0.713062 0.161862
Si Si7 0.392622 0.747090 0.728470
Si Si8 0.642954 0.876816 0.047145
O O1 0.957627 0.161180 0.637468
O O2 0.865822 0.042906 0.490128
O O3 0.448149 0.988485 0.358360
O O4 0.727100 0.051220 0.308566
O O5 0.653077 0.953047 0.149373
O O6 0.526139 0.115827 0.183911
O O7 0.763668 0.881931 0.679894
O O8 0.729812 0.904592 0.443851
O O9 0.513591 0.820170 0.642796
O O10 0.513847 0.450615 0.721123
O O11 0.453265 0.281147 0.765235
O O12 0.286574 0.386101 0.920503
O O13 0.787552 0.731833 0.237604
O O14 0.000000 0.727921 0.000000
O O15 0.388719 0.781521 0.877517
O O16 0.500000 0.898408 0.000000
#
# Coordination Sequence:
#
# PCOD9129636 Si02
#       8
#     2   4   4   4   4   4   4   4
#     4  12  28  48  74 106 152 186 250 306 362 442
#     4  11  26  43  75 101 147 197 244 299 372 437
#     4  11  24  48  74 103 144 195 242 300 373 448
#     4  12  24  45  75 104 146 190 253 302 369 443
#     4  12  27  49  71 110 144 194 249 308 370 445
#     4  12  27  44  69 110 151 186 249 313 366 434
#     4  11  26  44  75 103 146 194 240 299 374 435
#     4  11  22  46  74 107 145 198 244 298 376 444
#
# _framework density 21.494195000000001
#
# number of rings (size 3 to 8) (size 9 to 14) (size 15 to 20)
#    0.000    0.533    5.333    3.200    7.467    0.000 
#    0.000    1.333    0.000    0.000    0.000    0.000 
#    0.000    0.000    0.000    0.000    0.000    0.000 
#
# Total GULP energy -83610.135071 kJ/mol
# GULP energy per Si atom -5574.009005 kJ/mol
# Density = 2.144527 g / cm^3
# Si number density = 21.494195 Si / 1000 Ang^3
#
#
#
# Elastic Constant Matrix: (Units=GPa)
#
#
# Indices 1 2 3 4 5 6 
#
# 1 139.4485 29.3981 34.3536 0.0000 -0.7842 0.0000
# 2 29.3981 65.5803 14.8091 0.0000 0.8740 0.0000
# 3 34.3536 14.8091 87.2363 0.0000 -19.8457 0.0000
# 4 0.0000 0.0000 0.0000 201.9304 0.0000 86.8037
# 5 -0.7842 0.8740 -19.8457 0.0000 53.3608 0.0000
# 6 0.0000 0.0000 0.0000 86.8037 0.0000 66.0724
#
#
#
# Elastic Compliance Matrix: (Units=1/GPa)
#
#
# Indices 1 2 3 4 5 6 
#
# 1 0.008583 -0.003143 -0.003066 0.000000 -0.000963 0.000000
# 2 -0.003143 0.017100 -0.001900 0.000000 -0.001033 0.000000
# 3 -0.003066 -0.001900 0.014190 0.000000 0.005264 0.000000
# 4 0.000000 0.000000 0.000000 0.011378 0.000000 -0.014948
# 5 -0.000963 -0.001033 0.005264 0.000000 0.020701 0.000000
# 6 0.000000 0.000000 0.000000 -0.014948 0.000000 0.034773
#
#
# Mechanical properties :
#
#
# Convention : Reuss Voigt Hill
#
# Bulk Modulus (GPa) = 42.27120 49.93187 46.10154
# Shear Modulus (GPa) = 38.21809 78.51968 58.36889
#
# Velocity S-wave (km/s) = 4.22129 6.05062 5.21676
# Velocity P-wave (km/s) = 6.59303 8.49082 7.60139
#
# Compressibility (1/GPa) = 0.02365677
#
# Stress axis : x y z
#
# Youngs Moduli (GPa) = 116.50330 58.47900 70.47007
#
# Poissons Ratio (x) = 0.18378 0.21604
# Poissons Ratio (y) = 0.36613 0.13392
# Poissons Ratio (z) = 0.35716 0.11113
#
# Static dielectric constant tensor:
#      x y z
#    x 1.785790 0.000000 -0.028840 
#    y 0.000000 1.791550 0.000000 
#    z -0.028840 0.000000 1.833310 
# 
# From -- ./inp_files/36369.got.cif
#   From: 2010.05.17/outbox.cif.g08.bks.cpg/sg5_19_cif.got.tgz:36369.got - 2010.06.03 18:56:24.
