data_PCOD9129161
_publ_section_title
;
Structure prediction by ZEFSAII (Michael W. Deem and Ramdas Pophale) SiO2 
 PCOD9129161
Probable space group: C 2
;
_chemical_formula_sum "Si O2"
_cell_formula_units_Z 26
_cell_length_a 17.241495
_cell_length_b 6.548538
_cell_length_c 11.042079
_cell_angle_alpha 90.000000
_cell_angle_beta 64.248193
_cell_angle_gamma 90.000000
_cell_volume 1122.904519
_symmetry_space_group_name_H-M "C 2"
_symmetry_group_IT_number 5
_symmetry_cell_setting 'monoclinic'
loop_
_space_group_symop_operation_xyz
x,y,z
-x,y,-z
1/2+x,1/2+y,z
1/2-x,1/2+y,-z
loop_
_atom_site_type_symbol
_atom_site_label
_atom_site_fract_x
_atom_site_fract_y
_atom_site_fract_z
Si Si1 0.565521 0.753340 0.742480
Si Si2 0.624219 0.016572 0.504515
Si Si3 0.000000 0.021757 0.000000
Si Si4 0.811056 0.651098 0.784374
Si Si5 0.831498 0.828030 0.021137
Si Si6 0.697739 0.012097 0.782590
Si Si7 0.313582 0.370468 0.394902
O O1 0.633121 0.569489 0.676837
O O2 0.556761 0.869095 0.619268
O O3 0.607707 0.921750 0.800971
O O4 0.495427 0.654171 0.878842
O O5 0.630893 0.031671 0.354542
O O6 0.624394 0.246043 0.556608
O O7 0.717503 0.941339 0.494833
O O8 0.084507 0.885765 0.957779
O O9 0.851988 0.783188 0.866099
O O10 0.762688 0.823722 0.737230
O O11 0.740253 0.496219 0.890837
O O12 0.802205 0.604589 0.084772
O O13 0.711159 0.212891 0.694086
#
# Coordination Sequence:
#
# PCOD9129161 Si02
#       7
#     4   4   2   4   4   4   4
#     4  11  23  37  64 100 135 182 223 285 350 410
#     4  11  20  33  61 101 134 173 227 285 345 396
#     4  12  24  48  64 106 142 184 234 282 344 440
#     4  12  23  41  65 106 138 177 236 296 341 411
#     4  12  25  41  69 104 140 181 230 283 358 406
#     4  11  19  37  62 100 134 167 221 288 342 398
#     4  11  18  33  59 100 133 168 221 291 338 395
#
# _framework density 23.154240000000001
#
# number of rings (size 3 to 8) (size 9 to 14) (size 15 to 20)
#    0.000    0.615    9.231    0.923    0.000    0.615 
#    0.000    0.000    0.000    0.923    8.000    0.000 
#    0.000    0.000    0.000    0.000    0.000    0.000 
#
# Total GULP energy -72407.943486 kJ/mol
# GULP energy per Si atom -5569.841807 kJ/mol
# Density = 2.310154 g / cm^3
# Si number density = 23.154240 Si / 1000 Ang^3
#
#
#
# Elastic Constant Matrix: (Units=GPa)
#
#
# Indices 1 2 3 4 5 6 
#
# 1 40.1571 19.2338 22.2466 0.0000 14.7587 0.0000
# 2 19.2338 114.4318 46.7784 0.0000 4.0211 0.0000
# 3 22.2466 46.7784 134.7058 0.0000 25.5029 0.0000
# 4 0.0000 0.0000 0.0000 42.4046 0.0000 4.3629
# 5 14.7587 4.0211 25.5029 0.0000 27.6407 0.0000
# 6 0.0000 0.0000 0.0000 4.3629 0.0000 13.2458
#
#
#
# Elastic Compliance Matrix: (Units=1/GPa)
#
#
# Indices 1 2 3 4 5 6 
#
# 1 0.033712 -0.004769 -0.000769 0.000000 -0.016597 0.000000
# 2 -0.004769 0.010967 -0.003878 0.000000 0.004529 0.000000
# 3 -0.000769 -0.003878 0.010557 0.000000 -0.008765 0.000000
# 4 0.000000 0.000000 0.000000 0.024410 0.000000 -0.008040
# 5 -0.016597 0.004529 -0.008765 0.000000 0.052469 0.000000
# 6 0.000000 0.000000 0.000000 -0.008040 0.000000 0.078144
#
#
# Mechanical properties :
#
#
# Convention : Reuss Voigt Hill
#
# Bulk Modulus (GPa) = 27.47007 51.75692 39.61350
# Shear Modulus (GPa) = 20.72752 30.06061 25.39407
#
# Velocity S-wave (km/s) = 2.99522 3.60707 3.31529
# Velocity P-wave (km/s) = 4.88380 6.30473 5.63920
#
# Compressibility (1/GPa) = 0.03640326
#
# Stress axis : x y z
#
# Youngs Moduli (GPa) = 29.66280 91.18621 94.72472
#
# Poissons Ratio (x) = 0.43484 0.07288
# Poissons Ratio (y) = 0.14145 0.36736
# Poissons Ratio (z) = 0.02282 0.35364
#
# Static dielectric constant tensor:
#      x y z
#    x 1.833290 0.000000 0.026790 
#    y 0.000000 1.871440 0.000000 
#    z 0.026790 0.000000 2.136960 
# 
# From -- ./inp_files/45403.got.cif
#   From: 2010.05.17/outbox.cif.g08.bks.cpg/sg5_23_cif.got.tgz:45403.got - 2010.06.03 18:56:24.
