data_PCOD9129954
_publ_section_title
;
Structure prediction by ZEFSAII (Michael W. Deem and Ramdas Pophale) SiO2 
 PCOD9129954
Probable space group: C 2
;
_chemical_formula_sum "Si O2"
_cell_formula_units_Z 24
_cell_length_a 4.919028
_cell_length_b 12.792426
_cell_length_c 19.185788
_cell_angle_alpha 90.000000
_cell_angle_beta 59.685373
_cell_angle_gamma 90.000000
_cell_volume 1042.213871
_symmetry_space_group_name_H-M "C 2"
_symmetry_group_IT_number 5
_symmetry_cell_setting 'monoclinic'
loop_
_space_group_symop_operation_xyz
x,y,z
-x,y,-z
1/2+x,1/2+y,z
1/2-x,1/2+y,-z
loop_
_atom_site_type_symbol
_atom_site_label
_atom_site_fract_x
_atom_site_fract_y
_atom_site_fract_z
Si Si1 0.188998 0.489000 0.632840
Si Si2 0.727809 0.442478 0.219514
Si Si3 0.379196 0.794229 0.686565
Si Si4 0.246656 0.110032 0.585678
Si Si5 0.940607 0.270442 0.088479
Si Si6 0.263615 0.173528 0.165278
O O1 0.124696 0.476858 0.725044
O O2 0.553440 0.516133 0.575784
O O3 0.129027 0.370402 0.619161
O O4 0.943699 0.565055 0.625510
O O5 0.437165 0.363851 0.274983
O O6 0.910302 0.377830 0.136308
O O7 0.658536 0.556129 0.195175
O O8 0.450018 0.684746 0.640451
O O9 0.423334 0.755883 0.760892
O O10 0.500000 0.155046 0.500000
O O11 0.623691 0.200701 0.136965
O O12 0.203920 0.204109 0.093810
O O13 0.000000 0.290345 0.000000
#
# Coordination Sequence:
#
# PCOD9129954 Si02
#       6
#     4   4   4   4   4   4
#     4  12  24  46  72 102 137 183 241 292 347 430
#     4  11  25  44  78 102 137 189 245 291 344 427
#     4  11  24  44  74 102 135 181 246 289 347 425
#     4  12  29  46  70 104 147 184 231 301 367 418
#     4  11  26  44  67 106 145 182 232 293 355 417
#     4  11  24  42  72  99 137 185 233 288 352 417
#
# _framework density 23.027902999999998
#
# number of rings (size 3 to 8) (size 9 to 14) (size 15 to 20)
#    0.000    0.667    5.000    1.000    7.000    2.667 
#    0.000    0.000    0.000    0.000    0.000    0.000 
#    0.000    0.000    0.000    0.000    0.000    0.000 
#
# Total GULP energy -66901.740270 kJ/mol
# GULP energy per Si atom -5575.145023 kJ/mol
# Density = 2.297549 g / cm^3
# Si number density = 23.027903 Si / 1000 Ang^3
#
#
#
# Elastic Constant Matrix: (Units=GPa)
#
#
# Indices 1 2 3 4 5 6 
#
# 1 112.8338 53.1234 20.2862 0.0000 16.1255 0.0000
# 2 53.1234 120.9457 48.0452 0.0000 9.8238 0.0000
# 3 20.2862 48.0452 91.3744 0.0000 13.7213 0.0000
# 4 0.0000 0.0000 0.0000 25.4177 0.0000 -7.7349
# 5 16.1255 9.8238 13.7213 0.0000 37.9832 0.0000
# 6 0.0000 0.0000 0.0000 -7.7349 0.0000 20.6644
#
#
#
# Elastic Compliance Matrix: (Units=1/GPa)
#
#
# Indices 1 2 3 4 5 6 
#
# 1 0.011692 -0.005082 0.000660 0.000000 -0.003888 0.000000
# 2 -0.005082 0.012681 -0.005679 0.000000 0.000929 0.000000
# 3 0.000660 -0.005679 0.014385 0.000000 -0.004008 0.000000
# 4 0.000000 0.000000 0.000000 0.044400 0.000000 0.016619
# 5 -0.003888 0.000929 -0.004008 0.000000 0.029186 0.000000
# 6 0.000000 0.000000 0.000000 0.016619 0.000000 0.054613
#
#
# Mechanical properties :
#
#
# Convention : Reuss Voigt Hill
#
# Bulk Modulus (GPa) = 53.88863 63.11813 58.50338
# Shear Modulus (GPa) = 25.86056 30.39299 28.12677
#
# Velocity S-wave (km/s) = 3.35477 3.63689 3.49868
# Velocity P-wave (km/s) = 6.20147 6.71602 6.46387
#
# Compressibility (1/GPa) = 0.01855679
#
# Stress axis : x y z
#
# Youngs Moduli (GPa) = 85.52679 78.85912 69.51535
#
# Poissons Ratio (x) = 0.40077 -0.04590
# Poissons Ratio (y) = 0.43465 0.39477
# Poissons Ratio (z) = -0.05647 0.44784
#
# Static dielectric constant tensor:
#      x y z
#    x 1.913740 0.000000 -0.024700 
#    y 0.000000 1.860620 0.000000 
#    z -0.024700 0.000000 1.890660 
# 
# From -- ./inp_files/63903.got.cif
#   From: 2010.05.17/outbox.cif.g08.bks.cpg/sg5_32_cif.got.tgz:63903.got - 2010.06.03 18:56:24.
