data_PCOD9129372
_publ_section_title
;
Structure prediction by ZEFSAII (Michael W. Deem and Ramdas Pophale) SiO2 
 PCOD9129372
Probable space group: C 2
;
_chemical_formula_sum "Si O2"
_cell_formula_units_Z 24
_cell_length_a 21.299329
_cell_length_b 9.677795
_cell_length_c 5.881232
_cell_angle_alpha 90.000000
_cell_angle_beta 107.954879
_cell_angle_gamma 90.000000
_cell_volume 1153.261927
_symmetry_space_group_name_H-M "C 2"
_symmetry_group_IT_number 5
_symmetry_cell_setting 'monoclinic'
loop_
_space_group_symop_operation_xyz
x,y,z
-x,y,-z
1/2+x,1/2+y,z
1/2-x,1/2+y,-z
loop_
_atom_site_type_symbol
_atom_site_label
_atom_site_fract_x
_atom_site_fract_y
_atom_site_fract_z
Si Si1 0.204774 0.344430 0.585459
Si Si2 0.136660 0.090206 0.687321
Si Si3 0.127662 0.563210 0.212994
Si Si4 0.835861 0.797864 0.464109
Si Si5 0.000000 0.249713 0.500000
Si Si6 0.000000 0.404825 0.000000
Si Si7 0.731247 0.073309 0.938172
O O1 0.175936 0.191133 0.557567
O O2 0.152741 0.444207 0.408774
O O3 0.274678 0.353535 0.542023
O O4 0.216032 0.416778 0.841520
O O5 0.065445 0.159518 0.625238
O O6 0.131917 0.930999 0.612244
O O7 0.190152 0.092233 0.952360
O O8 0.115117 0.705627 0.330740
O O9 0.063589 0.501004 0.025416
O O10 0.190479 0.590546 0.123581
O O11 0.801167 0.687159 0.259797
O O12 0.009662 0.327289 0.260293
#
# Coordination Sequence:
#
# PCOD9129372 Si02
#       7
#     4   4   4   4   2   2   4
#     4  11  21  42  69 101 136 177 236 290 344 422
#     4  12  23  44  68 104 142 180 232 297 349 428
#     4  11  24  44  70  99 135 187 234 289 350 422
#     4  11  24  41  66 108 138 175 235 297 363 411
#     4  12  30  48  74 106 142 194 242 290 362 422
#     4  12  28  52  74 102 142 194 248 292 344 444
#     4  11  23  41  70 102 135 183 238 286 355 418
#
# _framework density 20.810535999999999
#
# number of rings (size 3 to 8) (size 9 to 14) (size 15 to 20)
#    0.000    0.667    5.000    3.000    4.667    1.333 
#    3.000    0.000    0.000    0.000    0.000    0.000 
#    0.000    0.000    0.000    0.000    0.000    0.000 
#
# Total GULP energy -66887.733270 kJ/mol
# GULP energy per Si atom -5573.977773 kJ/mol
# Density = 2.076317 g / cm^3
# Si number density = 20.810536 Si / 1000 Ang^3
#
#
#
# Elastic Constant Matrix: (Units=GPa)
#
#
# Indices 1 2 3 4 5 6 
#
# 1 100.7851 25.2559 27.7256 0.0000 26.0600 0.0000
# 2 25.2559 122.9984 42.3075 0.0000 7.3251 0.0000
# 3 27.7256 42.3075 73.9624 0.0000 10.2199 0.0000
# 4 0.0000 0.0000 0.0000 20.2820 0.0000 3.0461
# 5 26.0600 7.3251 10.2199 0.0000 30.3080 0.0000
# 6 0.0000 0.0000 0.0000 3.0461 0.0000 36.3564
#
#
#
# Elastic Compliance Matrix: (Units=1/GPa)
#
#
# Indices 1 2 3 4 5 6 
#
# 1 0.013774 -0.001152 -0.003048 0.000000 -0.010537 0.000000
# 2 -0.001152 0.010226 -0.005468 0.000000 0.000363 0.000000
# 3 -0.003048 -0.005468 0.018089 0.000000 -0.002157 0.000000
# 4 0.000000 0.000000 0.000000 0.049933 0.000000 -0.004184
# 5 -0.010537 0.000363 -0.002157 0.000000 0.042694 0.000000
# 6 0.000000 0.000000 0.000000 -0.004184 0.000000 0.027856
#
#
# Mechanical properties :
#
#
# Convention : Reuss Voigt Hill
#
# Bulk Modulus (GPa) = 43.95151 54.25821 49.10486
# Shear Modulus (GPa) = 26.38635 30.88642 28.63639
#
# Velocity S-wave (km/s) = 3.56467 3.85668 3.71354
# Velocity P-wave (km/s) = 6.17318 6.77945 6.48341
#
# Compressibility (1/GPa) = 0.02275235
#
# Stress axis : x y z
#
# Youngs Moduli (GPa) = 72.60077 97.79167 55.28347
#
# Poissons Ratio (x) = 0.11268 0.16852
# Poissons Ratio (y) = 0.08365 0.30226
# Poissons Ratio (z) = 0.22130 0.53468
#
# Static dielectric constant tensor:
#      x y z
#    x 1.699410 0.000000 0.000100 
#    y 0.000000 1.765450 0.000000 
#    z 0.000100 0.000000 1.899530 
# 
# From -- ./inp_files/10139.got.cif
#   From: 2010.05.17/outbox.cif.g08.bks.cpg/sg5_6_cif.got.tgz:10139.got - 2010.06.03 18:56:24.
