data_PCOD9129953
_publ_section_title
;
Structure prediction by ZEFSAII (Michael W. Deem and Ramdas Pophale) SiO2 
 PCOD9129953
Probable space group: C 2
;
_chemical_formula_sum "Si O2"
_cell_formula_units_Z 20
_cell_length_a 5.211864
_cell_length_b 20.967901
_cell_length_c 8.837581
_cell_angle_alpha 90.000000
_cell_angle_beta 115.266247
_cell_angle_gamma 90.000000
_cell_volume 873.394334
_symmetry_space_group_name_H-M "C 2"
_symmetry_group_IT_number 5
_symmetry_cell_setting 'monoclinic'
loop_
_space_group_symop_operation_xyz
x,y,z
-x,y,-z
1/2+x,1/2+y,z
1/2-x,1/2+y,-z
loop_
_atom_site_type_symbol
_atom_site_label
_atom_site_fract_x
_atom_site_fract_y
_atom_site_fract_z
Si Si1 0.105135 0.568470 0.199389
Si Si2 0.500000 0.802464 0.000000
Si Si3 0.500000 0.387321 0.000000
Si Si4 0.500000 0.889907 0.500000
Si Si5 0.302913 0.777773 0.635669
Si Si6 0.000000 0.160453 0.500000
Si Si7 0.845231 0.988300 0.724236
O O1 0.285916 0.620056 0.341635
O O2 0.342764 0.514805 0.225782
O O3 0.860453 0.542792 0.254076
O O4 0.000000 0.586902 0.000000
O O5 0.769771 0.845091 0.026015
O O6 0.382725 0.764407 0.827716
O O7 0.340759 0.435529 0.851503
O O8 0.501573 0.837250 0.634761
O O9 0.747332 0.943376 0.560276
O O10 0.335868 0.710481 0.562905
O O11 0.000000 0.801860 0.500000
#
# Coordination Sequence:
#
# PCOD9129953 Si02
#       7
#     4   2   2   2   4   2   4
#     4  12  26  48  73 104 143 194 242 293 356 424
#     4  12  26  46  77 108 149 190 232 294 370 436
#     4  12  22  44  71 112 151 174 230 292 360 450
#     4  11  24  42  72 110 148 183 226 300 370 433
#     4  11  27  48  73 105 143 192 246 296 359 426
#     4  11  30  50  70 104 142 193 256 304 344 415
#     4  12  24  43  73 109 145 181 232 293 362 437
#
# _framework density 22.899166000000001
#
# number of rings (size 3 to 8) (size 9 to 14) (size 15 to 20)
#    0.000    0.400    4.000    3.600    8.400    1.600 
#    0.000    0.000    0.000    0.000    0.000    0.000 
#    0.000    0.000    0.000    0.000    0.000    0.000 
#
# Total GULP energy -55725.512995 kJ/mol
# GULP energy per Si atom -5572.551299 kJ/mol
# Density = 2.284705 g / cm^3
# Si number density = 22.899166 Si / 1000 Ang^3
#
#
#
# Elastic Constant Matrix: (Units=GPa)
#
#
# Indices 1 2 3 4 5 6 
#
# 1 77.0456 13.0364 4.9035 0.0000 2.0257 0.0000
# 2 13.0364 76.5584 55.7180 0.0000 3.5383 0.0000
# 3 4.9035 55.7180 144.3846 0.0000 -0.0860 0.0000
# 4 0.0000 0.0000 0.0000 -37.8048 0.0000 96.8510
# 5 2.0257 3.5383 -0.0860 0.0000 28.4339 0.0000
# 6 0.0000 0.0000 0.0000 96.8510 0.0000 447.8187
#
#
#
# Elastic Compliance Matrix: (Units=1/GPa)
#
#
# Indices 1 2 3 4 5 6 
#
# 1 0.013411 -0.002674 0.000576 0.000000 -0.000621 0.000000
# 2 -0.002674 0.018846 -0.007183 0.000000 -0.002176 0.000000
# 3 0.000576 -0.007183 0.009679 0.000000 0.000882 0.000000
# 4 0.000000 0.000000 0.000000 -0.017021 0.000000 0.003681
# 5 -0.000621 -0.002176 0.000882 0.000000 0.035487 0.000000
# 6 0.000000 0.000000 0.000000 0.003681 0.000000 0.001437
#
#
# Mechanical properties :
#
#
# Convention : Reuss Voigt Hill
#
# Bulk Modulus (GPa) = 42.78334 49.47826 46.13080
# Shear Modulus (GPa) = 56.69435 102.64494 79.66965
#
# Velocity S-wave (km/s) = 4.98117 6.70239 5.90483
# Velocity P-wave (km/s) = 7.19768 9.03050 8.16568
#
# Compressibility (1/GPa) = 0.02337359
#
# Stress axis : x y z
#
# Youngs Moduli (GPa) = 74.56291 53.06300 103.31854
#
# Poissons Ratio (x) = 0.14191 -0.05953
# Poissons Ratio (y) = 0.19941 0.74213
# Poissons Ratio (z) = -0.04296 0.38115
#
# Static dielectric constant tensor:
#      x y z
#    x 1.700030 0.000000 -0.898720 
#    y 0.000000 1.782700 0.000000 
#    z -0.898720 0.000000 -2.161750 
# 
# From -- ./inp_files/12118.got.cif
#   From: 2010.05.17/outbox.cif.g08.bks.cpg/sg5_7_cif.got.tgz:12118.got - 2010.06.03 18:56:24.
