data_PCOD9129338
_publ_section_title
;
Structure prediction by ZEFSAII (Michael W. Deem and Ramdas Pophale) SiO2 
 PCOD9129338
Probable space group: C 2
;
_chemical_formula_sum "Si O2"
_cell_formula_units_Z 32
_cell_length_a 9.817344
_cell_length_b 12.330052
_cell_length_c 12.024360
_cell_angle_alpha 90.000000
_cell_angle_beta 102.437520
_cell_angle_gamma 90.000000
_cell_volume 1421.369925
_symmetry_space_group_name_H-M "C 2"
_symmetry_group_IT_number 5
_symmetry_cell_setting 'monoclinic'
loop_
_space_group_symop_operation_xyz
x,y,z
-x,y,-z
1/2+x,1/2+y,z
1/2-x,1/2+y,-z
loop_
_atom_site_type_symbol
_atom_site_label
_atom_site_fract_x
_atom_site_fract_y
_atom_site_fract_z
Si Si1 0.648158 0.990520 0.546725
Si Si2 0.481206 0.342907 0.655436
Si Si3 0.256142 0.183446 0.292360
Si Si4 0.309804 0.763147 0.487338
Si Si5 0.355019 0.097788 0.857152
Si Si6 0.677087 0.048409 0.892981
Si Si7 0.619313 0.355072 0.115436
Si Si8 0.337988 0.537467 0.378011
O O1 0.500000 0.043469 0.500000
O O2 0.628970 0.865024 0.569983
O O3 0.721780 0.066096 0.647318
O O4 0.731930 0.984689 0.447218
O O5 0.607978 0.259111 0.686545
O O6 0.356168 0.283945 0.566480
O O7 0.437003 0.374730 0.771288
O O8 0.534513 0.456543 0.615635
O O9 0.167409 0.244395 0.375386
O O10 0.238937 0.143650 0.160449
O O11 0.358848 0.655520 0.433724
O O12 0.510590 0.065143 0.840246
O O13 0.347978 0.227151 0.873135
O O14 0.242195 0.054671 0.751214
O O15 0.322360 0.054683 0.973763
O O16 0.749172 0.933845 0.878630
O O17 0.500000 0.373004 0.000000
#
# Coordination Sequence:
#
# PCOD9129338 Si02
#       8
#     4   4   4   4   4   4   4   4
#     4  11  23  40  63  91 136 181 223 286 342 400
#     4  12  22  42  72  98 134 185 231 282 347 412
#     4  11  21  40  67  95 128 177 232 271 340 412
#     4  11  23  43  64  96 141 179 229 291 336 412
#     4  11  22  45  73  98 137 180 224 286 343 413
#     4  11  23  42  73 101 132 179 233 279 348 414
#     4  12  23  43  75 102 135 184 228 284 352 411
#     4  11  24  42  68 102 132 181 236 275 348 414
#
# _framework density 22.513491999999999
#
# number of rings (size 3 to 8) (size 9 to 14) (size 15 to 20)
#    0.000    0.750    5.000    4.125    0.000    0.000 
#    6.750    0.000   11.000    0.000    0.000    0.000 
#    0.000    0.000    0.000    0.000    0.000    0.000 
#
# Total GULP energy -89305.717237 kJ/mol
# GULP energy per Si atom -5581.607327 kJ/mol
# Density = 2.246225 g / cm^3
# Si number density = 22.513492 Si / 1000 Ang^3
#
#
#
# Elastic Constant Matrix: (Units=GPa)
#
#
# Indices 1 2 3 4 5 6 
#
# 1 73.6410 47.5925 40.1309 0.0000 -10.1537 0.0000
# 2 47.5925 156.9727 24.2959 0.0000 -12.3819 0.0000
# 3 40.1309 24.2959 128.5763 0.0000 -20.0271 0.0000
# 4 0.0000 0.0000 0.0000 26.9983 0.0000 24.3503
# 5 -10.1537 -12.3819 -20.0271 0.0000 35.4714 0.0000
# 6 0.0000 0.0000 0.0000 24.3503 0.0000 329.0606
#
#
#
# Elastic Compliance Matrix: (Units=1/GPa)
#
#
# Indices 1 2 3 4 5 6 
#
# 1 0.019792 -0.005139 -0.005047 0.000000 0.001022 0.000000
# 2 -0.005139 0.007997 0.000327 0.000000 0.001505 0.000000
# 3 -0.005047 0.000327 0.009960 0.000000 0.004293 0.000000
# 4 0.000000 0.000000 0.000000 0.039688 0.000000 -0.002937
# 5 0.001022 0.001505 0.004293 0.000000 0.031433 0.000000
# 6 0.000000 0.000000 0.000000 -0.002937 0.000000 0.003256
#
#
# Mechanical properties :
#
#
# Convention : Reuss Voigt Hill
#
# Bulk Modulus (GPa) = 55.46106 64.80318 60.13212
# Shear Modulus (GPa) = 36.27034 94.78410 65.52722
#
# Velocity S-wave (km/s) = 4.01814 6.49557 5.40083
# Velocity P-wave (km/s) = 6.79819 9.22514 8.10304
#
# Compressibility (1/GPa) = 0.01803067
#
# Stress axis : x y z
#
# Youngs Moduli (GPa) = 50.52564 125.05218 100.40597
#
# Poissons Ratio (x) = 0.64263 0.50677
# Poissons Ratio (y) = 0.25965 -0.03287
# Poissons Ratio (z) = 0.25501 -0.04093
#
# Static dielectric constant tensor:
#      x y z
#    x 1.890680 0.000000 -0.035950 
#    y 0.000000 1.886610 0.000000 
#    z -0.035950 0.000000 1.896330 
# 
# From -- ./inp_files/39201.got.cif
#   From: 2010.05.17/outbox.cif.g08.bks.cpg/sg5_20_cif.got.tgz:39201.got - 2010.06.03 18:56:24.
