data_PCOD9129299
_publ_section_title
;
Structure prediction by ZEFSAII (Michael W. Deem and Ramdas Pophale) SiO2 
 PCOD9129299
Probable space group: C 2
;
_chemical_formula_sum "Si O2"
_cell_formula_units_Z 28
_cell_length_a 15.418527
_cell_length_b 19.840970
_cell_length_c 4.871637
_cell_angle_alpha 90.000000
_cell_angle_beta 69.828768
_cell_angle_gamma 90.000000
_cell_volume 1398.916917
_symmetry_space_group_name_H-M "C 2"
_symmetry_group_IT_number 5
_symmetry_cell_setting 'monoclinic'
loop_
_space_group_symop_operation_xyz
x,y,z
-x,y,-z
1/2+x,1/2+y,z
1/2-x,1/2+y,-z
loop_
_atom_site_type_symbol
_atom_site_label
_atom_site_fract_x
_atom_site_fract_y
_atom_site_fract_z
Si Si1 0.064382 0.148180 0.678903
Si Si2 0.261910 0.958658 0.756211
Si Si3 0.832165 0.020232 0.668638
Si Si4 0.561047 0.896681 0.689295
Si Si5 0.700661 0.306279 0.866953
Si Si6 0.182693 0.272323 0.763068
Si Si7 0.500000 0.333990 0.000000
Si Si8 0.500000 0.428754 0.500000
O O1 0.129172 0.091757 0.470347
O O2 0.125478 0.207041 0.742091
O O3 0.000000 0.173885 0.500000
O O4 0.000000 0.121177 0.000000
O O5 0.364900 0.945777 0.533501
O O6 0.224256 0.885313 0.891619
O O7 0.203746 0.983142 0.561653
O O8 0.246324 0.012330 0.015276
O O9 0.918786 0.977626 0.687328
O O10 0.500000 0.870534 0.500000
O O11 0.616009 0.836234 0.780166
O O12 0.500000 0.927973 0.000000
O O13 0.731360 0.286283 0.530331
O O14 0.771971 0.268468 0.988411
O O15 0.591028 0.295919 0.009712
O O16 0.468577 0.381577 0.285162
#
# Coordination Sequence:
#
# PCOD9129299 Si02
#       8
#     4   4   4   4   4   4   2   2
#     4  12  25  40  61  89 124 170 206 239 296 369
#     4  11  22  37  57  89 125 161 198 252 306 362
#     4  12  22  37  57  90 128 161 198 242 299 373
#     4  11  21  37  60  86 118 160 206 253 301 355
#     4  11  21  37  57  87 122 160 198 249 307 358
#     4  11  23  39  58  85 125 161 205 250 294 355
#     4  12  22  34  60  90 124 160 194 244 312 370
#     4  12  20  34  56  88 130 156 194 236 290 384
#
# _framework density 20.015484000000001
#
# number of rings (size 3 to 8) (size 9 to 14) (size 15 to 20)
#    0.000    0.571    3.571    7.714    1.000    0.000 
#    0.000    0.000    0.000    0.000    9.286    0.000 
#    0.000    0.000    0.000    0.000    0.000    0.000 
#
# Total GULP energy -78236.244730 kJ/mol
# GULP energy per Si atom -5588.303195 kJ/mol
# Density = 1.996993 g / cm^3
# Si number density = 20.015484 Si / 1000 Ang^3
#
#
#
# Elastic Constant Matrix: (Units=GPa)
#
#
# Indices 1 2 3 4 5 6 
#
# 1 103.3243 28.9876 9.7757 0.0000 1.1199 0.0000
# 2 28.9876 56.5306 28.8631 0.0000 -14.8095 0.0000
# 3 9.7757 28.8631 100.2430 0.0000 -13.7604 0.0000
# 4 0.0000 0.0000 0.0000 24.8532 0.0000 3.4006
# 5 1.1199 -14.8095 -13.7604 0.0000 40.0320 0.0000
# 6 0.0000 0.0000 0.0000 3.4006 0.0000 19.7931
#
#
#
# Elastic Compliance Matrix: (Units=1/GPa)
#
#
# Indices 1 2 3 4 5 6 
#
# 1 0.011599 -0.006906 0.000485 0.000000 -0.002713 0.000000
# 2 -0.006906 0.026268 -0.005803 0.000000 0.007916 0.000000
# 3 0.000485 -0.005803 0.011863 0.000000 0.001917 0.000000
# 4 0.000000 0.000000 0.000000 0.041205 0.000000 -0.007079
# 5 -0.002713 0.007916 0.001917 0.000000 0.028643 0.000000
# 6 0.000000 0.000000 0.000000 -0.007079 0.000000 0.051739
#
#
# Mechanical properties :
#
#
# Convention : Reuss Voigt Hill
#
# Bulk Modulus (GPa) = 39.55573 43.92786 41.74180
# Shear Modulus (GPa) = 24.48677 29.76709 27.12693
#
# Velocity S-wave (km/s) = 3.50150 3.86061 3.68543
# Velocity P-wave (km/s) = 6.01272 6.47047 6.24579
#
# Compressibility (1/GPa) = 0.02528079
#
# Stress axis : x y z
#
# Youngs Moduli (GPa) = 86.21217 38.06985 84.29900
#
# Poissons Ratio (x) = 0.26291 -0.04088
# Poissons Ratio (y) = 0.59539 0.48920
# Poissons Ratio (z) = -0.04181 0.22092
#
# Static dielectric constant tensor:
#      x y z
#    x 1.730550 0.000000 -0.024380 
#    y 0.000000 1.683180 0.000000 
#    z -0.024380 0.000000 1.745210 
# 
# From -- ./inp_files/7275.got.cif
#   From: 2010.05.17/outbox.cif.g08.bks.cpg/sg5_4_cif.got.tgz:7275.got - 2010.06.03 18:56:24.
