data_PCOD9129449
_publ_section_title
;
Structure prediction by ZEFSAII (Michael W. Deem and Ramdas Pophale) SiO2 
 PCOD9129449
Probable space group: C 2
;
_chemical_formula_sum "Si O2"
_cell_formula_units_Z 32
_cell_length_a 10.993465
_cell_length_b 9.238050
_cell_length_c 20.807035
_cell_angle_alpha 90.000000
_cell_angle_beta 133.149677
_cell_angle_gamma 90.000000
_cell_volume 1541.671432
_symmetry_space_group_name_H-M "C 2"
_symmetry_group_IT_number 5
_symmetry_cell_setting 'monoclinic'
loop_
_space_group_symop_operation_xyz
x,y,z
-x,y,-z
1/2+x,1/2+y,z
1/2-x,1/2+y,-z
loop_
_atom_site_type_symbol
_atom_site_label
_atom_site_fract_x
_atom_site_fract_y
_atom_site_fract_z
Si Si1 0.342983 0.855610 0.734493
Si Si2 0.003725 0.654707 0.191071
Si Si3 0.379037 0.414125 0.854159
Si Si4 0.694201 0.746335 0.898852
Si Si5 0.692339 0.307130 0.547218
Si Si6 0.875382 0.491623 0.510823
Si Si7 0.597545 0.132232 0.703517
Si Si8 0.266082 0.517329 0.994256
O O1 0.506348 0.756420 0.805401
O O2 0.307827 0.867097 0.646046
O O3 0.188192 0.773618 0.709151
O O4 0.379018 0.013731 0.776557
O O5 0.994094 0.672707 0.263823
O O6 0.060823 0.799572 0.177155
O O7 0.827964 0.604041 0.096163
O O8 0.308556 0.319138 0.886897
O O9 0.235958 0.515248 0.774473
O O10 0.534404 0.507531 0.935412
O O11 0.764354 0.595365 0.949022
O O12 0.701569 0.854369 0.962700
O O13 0.500000 0.333618 0.500000
O O14 0.750747 0.380700 0.501456
O O15 0.714254 0.133314 0.551223
O O16 0.000000 0.432218 0.500000
O O17 0.987294 0.562220 0.607831
#
# Coordination Sequence:
#
# PCOD9129449 Si02
#       8
#     4   4   4   4   4   4   4   4
#     4  11  22  46  65  93 135 174 211 275 335 391
#     4  11  26  41  63 100 132 176 225 272 326 396
#     4  12  24  42  68  95 137 177 221 279 325 386
#     4  11  23  41  67  93 133 175 223 274 327 388
#     4  11  23  46  70  98 137 173 219 284 339 408
#     4  11  24  45  72 101 131 174 226 277 345 412
#     4  12  23  45  69  91 136 175 215 273 337 398
#     4  11  22  38  65  94 129 178 223 265 327 375
#
# _framework density 20.756692999999999
#
# number of rings (size 3 to 8) (size 9 to 14) (size 15 to 20)
#    0.000    0.750    8.750    0.375    0.000    2.500 
#    4.500    1.250    0.000    0.000    0.000    0.000 
#    0.000    0.000    0.000    0.000    0.000    0.000 
#
# Total GULP energy -89353.375038 kJ/mol
# GULP energy per Si atom -5584.585940 kJ/mol
# Density = 2.070945 g / cm^3
# Si number density = 20.756693 Si / 1000 Ang^3
#
#
#
# Elastic Constant Matrix: (Units=GPa)
#
#
# Indices 1 2 3 4 5 6 
#
# 1 90.7586 38.7668 -4.9606 0.0000 -20.8157 0.0000
# 2 38.7668 53.0198 1.9585 0.0000 -18.5919 0.0000
# 3 -4.9606 1.9585 70.7126 0.0000 -8.1258 0.0000
# 4 0.0000 0.0000 0.0000 25.2211 0.0000 -9.0675
# 5 -20.8157 -18.5919 -8.1258 0.0000 24.0427 0.0000
# 6 0.0000 0.0000 0.0000 -9.0675 0.0000 40.4073
#
#
#
# Elastic Compliance Matrix: (Units=1/GPa)
#
#
# Indices 1 2 3 4 5 6 
#
# 1 0.017208 -0.009825 0.002412 0.000000 0.008116 0.000000
# 2 -0.009825 0.031674 0.000281 0.000000 0.016081 0.000000
# 3 0.002412 0.000281 0.015157 0.000000 0.007428 0.000000
# 4 0.000000 0.000000 0.000000 0.043129 0.000000 0.009678
# 5 0.008116 0.016081 0.007428 0.000000 0.063565 0.000000
# 6 0.000000 0.000000 0.000000 0.009678 0.000000 0.026920
#
#
# Mechanical properties :
#
#
# Convention : Reuss Voigt Hill
#
# Bulk Modulus (GPa) = 20.09059 31.78005 25.93532
# Shear Modulus (GPa) = 21.88103 29.84932 25.86517
#
# Velocity S-wave (km/s) = 3.25032 3.79629 3.53386
# Velocity P-wave (km/s) = 4.87711 5.87875 5.40120
#
# Compressibility (1/GPa) = 0.04977454
#
# Stress axis : x y z
#
# Youngs Moduli (GPa) = 58.11135 31.57197 65.97709
#
# Poissons Ratio (x) = 0.31021 -0.15913
# Poissons Ratio (y) = 0.57097 -0.01857
# Poissons Ratio (z) = -0.14016 -0.00889
#
# Static dielectric constant tensor:
#      x y z
#    x 1.763490 0.000000 -0.001100 
#    y 0.000000 1.747610 0.000000 
#    z -0.001100 0.000000 1.748350 
# 
# From -- ./inp_files/65142.got.cif
#   From: 2010.05.17/outbox.cif.g08.bks.cpg/sg5_33_cif.got.tgz:65142.got - 2010.06.03 18:56:24.
