data_PCOD9129016
_publ_section_title
;
Structure prediction by ZEFSAII (Michael W. Deem and Ramdas Pophale) SiO2 
 PCOD9129016
Probable space group: C 2
;
_chemical_formula_sum "Si O2"
_cell_formula_units_Z 30
_cell_length_a 23.398655
_cell_length_b 10.226607
_cell_length_c 6.327007
_cell_angle_alpha 90.000000
_cell_angle_beta 96.096125
_cell_angle_gamma 90.000000
_cell_volume 1505.420848
_symmetry_space_group_name_H-M "C 2"
_symmetry_group_IT_number 5
_symmetry_cell_setting 'monoclinic'
loop_
_space_group_symop_operation_xyz
x,y,z
-x,y,-z
1/2+x,1/2+y,z
1/2-x,1/2+y,-z
loop_
_atom_site_type_symbol
_atom_site_label
_atom_site_fract_x
_atom_site_fract_y
_atom_site_fract_z
Si Si1 0.183837 0.761030 0.607451
Si Si2 0.500000 0.312199 0.500000
Si Si3 0.856257 0.443732 0.818396
Si Si4 0.798716 0.324033 0.417048
Si Si5 0.597372 0.414911 0.836203
Si Si6 0.410561 0.206828 0.786166
Si Si7 0.768600 0.545114 0.094760
Si Si8 0.149976 0.176942 0.932390
O O1 0.248410 0.778140 0.551469
O O2 0.155924 0.878008 0.731852
O O3 0.143550 0.735094 0.390284
O O4 0.186744 0.639835 0.768869
O O5 0.546150 0.395788 0.649510
O O6 0.465624 0.227831 0.659240
O O7 0.844221 0.404281 0.573290
O O8 0.902923 0.557798 0.858848
O O9 0.796971 0.506229 0.884640
O O10 0.866556 0.311073 0.955068
O O11 0.766813 0.414539 0.232675
O O12 0.832120 0.214383 0.299417
O O13 0.603529 0.562094 0.920355
O O14 0.589753 0.311117 0.023401
O O15 0.708102 0.616169 0.053420
#
# Coordination Sequence:
#
# PCOD9129016 Si02
#       8
#     4   2   4   4   4   4   4   4
#     4  11  21  33  60  93 132 175 214 247 304 377
#     4  10  26  44  74  92 110 160 228 286 342 374
#     4  11  22  38  61  92 133 174 209 261 319 381
#     4  11  23  36  56  92 141 180 210 246 306 388
#     4  11  24  44  66  95 125 167 221 279 323 381
#     4  11  22  43  69  93 121 162 218 282 324 385
#     4  11  21  35  54  96 136 180 215 244 299 389
#     4  11  25  36  61  95 139 176 213 254 319 386
#
# _framework density 19.927982
#
# number of rings (size 3 to 8) (size 9 to 14) (size 15 to 20)
#    0.000    1.067    4.000    2.800    3.733    2.133 
#    0.000    0.000    0.000   12.000    0.000    0.000 
#    0.000    0.000    0.000    0.000    0.000    0.000 
#
# Total GULP energy -83803.565257 kJ/mol
# GULP energy per Si atom -5586.904350 kJ/mol
# Density = 1.988262 g / cm^3
# Si number density = 19.927982 Si / 1000 Ang^3
#
#
#
# Elastic Constant Matrix: (Units=GPa)
#
#
# Indices 1 2 3 4 5 6 
#
# 1 66.6209 48.0589 30.8232 0.0000 -4.4188 0.0000
# 2 48.0589 133.0065 42.5789 0.0000 -7.9952 0.0000
# 3 30.8232 42.5789 91.4617 0.0000 -2.3800 0.0000
# 4 0.0000 0.0000 0.0000 24.1477 0.0000 -2.4182
# 5 -4.4188 -7.9952 -2.3800 0.0000 28.3217 0.0000
# 6 0.0000 0.0000 0.0000 -2.4182 0.0000 14.5766
#
#
#
# Elastic Compliance Matrix: (Units=1/GPa)
#
#
# Indices 1 2 3 4 5 6 
#
# 1 0.021689 -0.006385 -0.004305 0.000000 0.001220 0.000000
# 2 -0.006385 0.010848 -0.002851 0.000000 0.001827 0.000000
# 3 -0.004305 -0.002851 0.013703 0.000000 -0.000325 0.000000
# 4 0.000000 0.000000 0.000000 0.042111 0.000000 0.006986
# 5 0.001220 0.001827 -0.000325 0.000000 0.035987 0.000000
# 6 0.000000 0.000000 0.000000 0.006986 0.000000 0.069762
#
#
# Mechanical properties :
#
#
# Convention : Reuss Voigt Hill
#
# Bulk Modulus (GPa) = 52.19758 59.33458 55.76608
# Shear Modulus (GPa) = 21.97129 24.71774 23.34451
#
# Velocity S-wave (km/s) = 3.32405 3.52569 3.42635
# Velocity P-wave (km/s) = 6.40175 6.81272 6.61043
#
# Compressibility (1/GPa) = 0.01915798
#
# Stress axis : x y z
#
# Youngs Moduli (GPa) = 46.10560 92.18243 72.97662
#
# Poissons Ratio (x) = 0.58863 0.31417
# Poissons Ratio (y) = 0.29441 0.20803
# Poissons Ratio (z) = 0.19849 0.26278
#
# Static dielectric constant tensor:
#      x y z
#    x 1.687100 0.000000 -0.017020 
#    y 0.000000 1.725150 0.000000 
#    z -0.017020 0.000000 1.716950 
# 
# From -- ./inp_files/9594.got.cif
#   From: 2010.05.17/outbox.cif.g08.bks.cpg/sg5_5_cif.got.tgz:9594.got - 2010.06.03 18:56:24.
