data_PCOD9129578
_publ_section_title
;
Structure prediction by ZEFSAII (Michael W. Deem and Ramdas Pophale) SiO2 
 PCOD9129578
Probable space group: C 2
;
_chemical_formula_sum "Si O2"
_cell_formula_units_Z 20
_cell_length_a 7.046709
_cell_length_b 12.406690
_cell_length_c 9.044359
_cell_angle_alpha 90.000000
_cell_angle_beta 70.272394
_cell_angle_gamma 90.000000
_cell_volume 744.306512
_symmetry_space_group_name_H-M "C 2"
_symmetry_group_IT_number 5
_symmetry_cell_setting 'monoclinic'
loop_
_space_group_symop_operation_xyz
x,y,z
-x,y,-z
1/2+x,1/2+y,z
1/2-x,1/2+y,-z
loop_
_atom_site_type_symbol
_atom_site_label
_atom_site_fract_x
_atom_site_fract_y
_atom_site_fract_z
Si Si1 0.423689 0.614930 0.226807
Si Si2 0.814581 0.340519 0.203693
Si Si3 0.190331 0.464744 0.093916
Si Si4 0.609716 0.170964 0.838088
Si Si5 0.275827 0.757870 0.506183
O O1 0.336090 0.715423 0.153907
O O2 0.358305 0.506803 0.161806
O O3 0.314067 0.642440 0.411216
O O4 0.337586 0.631955 0.815291
O O5 0.710479 0.337876 0.391348
O O6 0.045328 0.370417 0.186634
O O7 0.758010 0.416608 0.082494
O O8 0.966316 0.566349 0.860773
O O9 0.631951 0.238020 0.682017
O O10 0.500000 0.234314 0.000000
O O11 0.500000 0.788789 0.500000
#
# Coordination Sequence:
#
# PCOD9129578 Si02
#       5
#     4   4   4   4   4
#     4   9  23  47  78 109 169 215 254 355 404 474
#     4   9  21  47  72 120 159 211 274 335 397 504
#     4  11  22  45  76 118 159 208 285 322 413 492
#     4  11  22  43  77 123 158 211 274 334 413 481
#     4   8  19  46  75 107 168 216 254 339 416 467
#
# _framework density 26.870647999999999
#
# number of rings (size 3 to 8) (size 9 to 14) (size 15 to 20)
#    1.200    1.200    2.000    0.000    0.000    4.800 
#    3.600    6.000    0.000    0.000    5.200    0.000 
#    0.000    0.000    0.000    0.000    0.000    0.000 
#
# Total GULP energy -55779.015439 kJ/mol
# GULP energy per Si atom -5577.901544 kJ/mol
# Density = 2.680949 g / cm^3
# Si number density = 26.870648 Si / 1000 Ang^3
#
#
#
# Elastic Constant Matrix: (Units=GPa)
#
#
# Indices 1 2 3 4 5 6 
#
# 1 160.2591 42.5522 53.2017 0.0000 8.7911 0.0000
# 2 42.5522 104.2270 39.7823 0.0000 10.3998 0.0000
# 3 53.2017 39.7823 268.1385 0.0000 -15.9537 0.0000
# 4 0.0000 0.0000 0.0000 46.7613 0.0000 9.4733
# 5 8.7911 10.3998 -15.9537 0.0000 41.6561 0.0000
# 6 0.0000 0.0000 0.0000 9.4733 0.0000 43.8519
#
#
#
# Elastic Compliance Matrix: (Units=1/GPa)
#
#
# Indices 1 2 3 4 5 6 
#
# 1 0.007350 -0.002408 -0.001184 0.000000 -0.001403 0.000000
# 2 -0.002408 0.011391 -0.001383 0.000000 -0.002865 0.000000
# 3 -0.001184 -0.001383 0.004303 0.000000 0.002243 0.000000
# 4 0.000000 0.000000 0.000000 0.022364 0.000000 -0.004831
# 5 -0.001403 -0.002865 0.002243 0.000000 0.025877 0.000000
# 6 0.000000 0.000000 0.000000 -0.004831 0.000000 0.023848
#
#
# Mechanical properties :
#
#
# Convention : Reuss Voigt Hill
#
# Bulk Modulus (GPa) = 76.37754 89.29967 82.83860
# Shear Modulus (GPa) = 45.68391 52.92642 49.30517
#
# Velocity S-wave (km/s) = 4.12775 4.44292 4.28823
# Velocity P-wave (km/s) = 7.15567 7.72170 7.44407
#
# Compressibility (1/GPa) = 0.01309285
#
# Stress axis : x y z
#
# Youngs Moduli (GPa) = 136.06246 87.78565 232.39493
#
# Poissons Ratio (x) = 0.21143 0.27525
# Poissons Ratio (y) = 0.32770 0.32133
# Poissons Ratio (z) = 0.16115 0.12138
#
# Static dielectric constant tensor:
#      x y z
#    x 2.184130 0.000000 0.017870 
#    y 0.000000 2.100210 0.000000 
#    z 0.017870 0.000000 2.154260 
# 
# From -- ./inp_files/19639.got.cif
#   From: 2010.05.17/outbox.cif.g08.bks.cpg/sg5_10_cif.got.tgz:19639.got - 2010.06.03 18:56:24.
