data_PCOD9129642
_publ_section_title
;
Structure prediction by ZEFSAII (Michael W. Deem and Ramdas Pophale) SiO2 
 PCOD9129642
Probable space group: C 2
;
_chemical_formula_sum "Si O2"
_cell_formula_units_Z 18
_cell_length_a 11.660310
_cell_length_b 7.408395
_cell_length_c 8.807400
_cell_angle_alpha 90.000000
_cell_angle_beta 70.876354
_cell_angle_gamma 90.000000
_cell_volume 718.833271
_symmetry_space_group_name_H-M "C 2"
_symmetry_group_IT_number 5
_symmetry_cell_setting 'monoclinic'
loop_
_space_group_symop_operation_xyz
x,y,z
-x,y,-z
1/2+x,1/2+y,z
1/2-x,1/2+y,-z
loop_
_atom_site_type_symbol
_atom_site_label
_atom_site_fract_x
_atom_site_fract_y
_atom_site_fract_z
Si Si1 0.571048 0.097380 0.324375
Si Si2 0.135958 0.609296 0.837279
Si Si3 0.126327 0.210808 0.441455
Si Si4 0.000000 0.926039 0.000000
Si Si5 0.342270 0.723908 0.216859
O O1 0.500000 0.177518 0.500000
O O2 0.475049 0.120137 0.232861
O O3 0.705278 0.168820 0.237726
O O4 0.595250 0.889161 0.358407
O O5 0.261236 0.623302 0.691915
O O6 0.131356 0.402995 0.893326
O O7 0.112462 0.781707 0.954869
O O8 0.159126 0.258879 0.600764
O O9 0.000000 0.102464 0.500000
O O10 0.057192 0.068278 0.854908
#
# Coordination Sequence:
#
# PCOD9129642 Si02
#       5
#     4   4   4   2   4
#     4  11  22  46  78 114 142 187 257 307 362 436
#     4  12  26  50  77 107 155 196 243 310 371 440
#     4  11  22  46  82 113 141 186 257 310 358 437
#     4  12  30  50  68 114 158 196 246 300 376 452
#     4  12  24  48  79 107 150 197 248 304 374 441
#
# _framework density 25.040576999999999
#
# number of rings (size 3 to 8) (size 9 to 14) (size 15 to 20)
#    0.000    0.444    8.889    0.667    0.000    2.667 
#   12.000    0.000    0.000    0.000    0.000    0.000 
#    0.000    0.000    0.000    0.000    0.000    0.000 
#
# Total GULP energy -50237.604122 kJ/mol
# GULP energy per Si atom -5581.956014 kJ/mol
# Density = 2.498358 g / cm^3
# Si number density = 25.040577 Si / 1000 Ang^3
#
#
#
# Elastic Constant Matrix: (Units=GPa)
#
#
# Indices 1 2 3 4 5 6 
#
# 1 149.3000 16.7412 39.8462 0.0000 -31.0091 0.0000
# 2 16.7412 144.8900 49.1263 0.0000 -27.1907 0.0000
# 3 39.8462 49.1263 111.5363 0.0000 -51.1268 0.0000
# 4 0.0000 0.0000 0.0000 22.2872 0.0000 0.6529
# 5 -31.0091 -27.1907 -51.1268 0.0000 51.8168 0.0000
# 6 0.0000 0.0000 0.0000 0.6529 0.0000 6.3399
#
#
#
# Elastic Compliance Matrix: (Units=1/GPa)
#
#
# Indices 1 2 3 4 5 6 
#
# 1 0.007736 0.000184 -0.001238 0.000000 0.003504 0.000000
# 2 0.000184 0.008169 -0.003009 0.000000 0.001427 0.000000
# 3 -0.001238 -0.003009 0.017655 0.000000 0.015100 0.000000
# 4 0.000000 0.000000 0.000000 0.045004 0.000000 -0.004634
# 5 0.003504 0.001427 0.015100 0.000000 0.037043 0.000000
# 6 0.000000 0.000000 0.000000 -0.004634 0.000000 0.158209
#
#
# Mechanical properties :
#
#
# Convention : Reuss Voigt Hill
#
# Bulk Modulus (GPa) = 39.32160 68.57262 53.94711
# Shear Modulus (GPa) = 17.21638 36.08963 26.65300
#
# Velocity S-wave (km/s) = 2.62494 3.80049 3.26604
# Velocity P-wave (km/s) = 4.99243 6.83391 5.98443
#
# Compressibility (1/GPa) = 0.02543131
#
# Stress axis : x y z
#
# Youngs Moduli (GPa) = 129.27334 122.41793 56.64086
#
# Poissons Ratio (x) = -0.02247 0.07014
# Poissons Ratio (y) = -0.02373 0.17045
# Poissons Ratio (z) = 0.16008 0.36840
#
# Static dielectric constant tensor:
#      x y z
#    x 1.961980 0.000000 -0.006190 
#    y 0.000000 2.052200 0.000000 
#    z -0.006190 0.000000 2.066510 
# 
# From -- ./inp_files/38041.got.cif
#   From: 2010.05.17/outbox.cif.g08.bks.cpg/sg5_20_cif.got.tgz:38041.got - 2010.06.03 18:56:24.
