data_PCOD9129795
_publ_section_title
;
Structure prediction by ZEFSAII (Michael W. Deem and Ramdas Pophale) SiO2 
 PCOD9129795
Probable space group: C 2
;
_chemical_formula_sum "Si O2"
_cell_formula_units_Z 22
_cell_length_a 17.165965
_cell_length_b 9.241833
_cell_length_c 6.655790
_cell_angle_alpha 90.000000
_cell_angle_beta 110.183467
_cell_angle_gamma 90.000000
_cell_volume 991.067161
_symmetry_space_group_name_H-M "C 2"
_symmetry_group_IT_number 5
_symmetry_cell_setting 'monoclinic'
loop_
_space_group_symop_operation_xyz
x,y,z
-x,y,-z
1/2+x,1/2+y,z
1/2-x,1/2+y,-z
loop_
_atom_site_type_symbol
_atom_site_label
_atom_site_fract_x
_atom_site_fract_y
_atom_site_fract_z
Si Si1 0.500000 0.344380 0.000000
Si Si2 0.310789 0.908342 0.996705
Si Si3 0.934370 0.604377 0.258598
Si Si4 0.210193 0.735825 0.621571
Si Si5 0.420697 0.487565 0.569737
Si Si6 0.287075 0.665607 0.285069
O O1 0.459613 0.234630 0.129256
O O2 0.556380 0.452905 0.180804
O O3 0.293113 0.793497 0.802160
O O4 0.247852 0.040003 0.890618
O O5 0.285311 0.818103 0.170941
O O6 0.404725 0.966725 0.101175
O O7 0.847437 0.638798 0.290550
O O8 0.000000 0.586456 0.500000
O O9 0.151378 0.872624 0.534697
O O10 0.228335 0.664281 0.426173
O O11 0.500000 0.458844 0.500000
O O12 0.378701 0.633873 0.453083
#
# Coordination Sequence:
#
# PCOD9129795 Si02
#       6
#     2   4   4   4   4   4
#     4  12  22  42  72 102 142 192 242 294 364 420
#     4  11  26  44  72 103 144 189 238 299 368 422
#     4  12  25  42  71 108 142 185 248 296 357 432
#     4  11  23  44  69 108 135 189 237 298 351 439
#     4  11  24  43  71 105 140 188 246 298 355 434
#     4  11  27  44  75 104 146 185 249 298 362 437
#
# _framework density 22.198291999999999
#
# number of rings (size 3 to 8) (size 9 to 14) (size 15 to 20)
#    0.000    0.727    5.455    1.091    5.091    2.182 
#    0.000    0.000    0.000    0.000    0.000    0.000 
#    0.000    0.000    0.000    0.000    0.000    0.000 
#
# Total GULP energy -61359.915955 kJ/mol
# GULP energy per Si atom -5578.174178 kJ/mol
# Density = 2.214777 g / cm^3
# Si number density = 22.198292 Si / 1000 Ang^3
#
#
#
# Elastic Constant Matrix: (Units=GPa)
#
#
# Indices 1 2 3 4 5 6 
#
# 1 67.8166 40.4167 77.1829 0.0000 10.4989 0.0000
# 2 40.4167 75.2768 55.0898 0.0000 5.0418 0.0000
# 3 77.1829 55.0898 160.3274 0.0000 24.9433 0.0000
# 4 0.0000 0.0000 0.0000 73.3181 0.0000 18.9061
# 5 10.4989 5.0418 24.9433 0.0000 41.2566 0.0000
# 6 0.0000 0.0000 0.0000 18.9061 0.0000 29.1754
#
#
#
# Elastic Compliance Matrix: (Units=1/GPa)
#
#
# Indices 1 2 3 4 5 6 
#
# 1 0.036735 -0.009020 -0.014683 0.000000 0.000631 0.000000
# 2 -0.009020 0.020067 -0.002791 0.000000 0.001531 0.000000
# 3 -0.014683 -0.002791 0.015046 0.000000 -0.005019 0.000000
# 4 0.000000 0.000000 0.000000 0.016376 0.000000 -0.010612
# 5 0.000631 0.001531 -0.005019 0.000000 0.026925 0.000000
# 6 0.000000 0.000000 0.000000 -0.010612 0.000000 0.041152
#
#
# Mechanical properties :
#
#
# Convention : Reuss Voigt Hill
#
# Bulk Modulus (GPa) = 53.02463 72.08884 62.55674
# Shear Modulus (GPa) = 23.19373 37.46544 30.32958
#
# Velocity S-wave (km/s) = 3.23591 4.11270 3.70036
# Velocity P-wave (km/s) = 6.15631 7.42279 6.81902
#
# Compressibility (1/GPa) = 0.01885916
#
# Stress axis : x y z
#
# Youngs Moduli (GPa) = 27.22219 49.83248 66.46352
#
# Poissons Ratio (x) = 0.44948 0.97591
# Poissons Ratio (y) = 0.24554 0.18551
# Poissons Ratio (z) = 0.39971 0.13909
#
# Static dielectric constant tensor:
#      x y z
#    x 1.769710 0.000000 0.115590 
#    y 0.000000 1.940210 0.000000 
#    z 0.115590 0.000000 1.670070 
# 
# From -- ./inp_files/6651.got.cif
#   From: 2010.05.17/outbox.cif.g08.bks.cpg/sg5_4_cif.got.tgz:6651.got - 2010.06.03 18:56:24.
