data_PCOD9129717
_publ_section_title
;
Structure prediction by ZEFSAII (Michael W. Deem and Ramdas Pophale) SiO2 
 PCOD9129717
Probable space group: C 2
;
_chemical_formula_sum "Si O2"
_cell_formula_units_Z 20
_cell_length_a 13.211189
_cell_length_b 8.047045
_cell_length_c 11.027464
_cell_angle_alpha 90.000000
_cell_angle_beta 129.321805
_cell_angle_gamma 90.000000
_cell_volume 906.922016
_symmetry_space_group_name_H-M "C 2"
_symmetry_group_IT_number 5
_symmetry_cell_setting 'monoclinic'
loop_
_space_group_symop_operation_xyz
x,y,z
-x,y,-z
1/2+x,1/2+y,z
1/2-x,1/2+y,-z
loop_
_atom_site_type_symbol
_atom_site_label
_atom_site_fract_x
_atom_site_fract_y
_atom_site_fract_z
Si Si1 0.634557 0.281610 0.548512
Si Si2 0.066233 0.806160 0.218136
Si Si3 0.362462 0.964524 0.855683
Si Si4 0.755810 0.821033 0.019258
Si Si5 0.747841 0.019505 0.798521
O O1 0.500000 0.358372 0.500000
O O2 0.623155 0.285566 0.396182
O O3 0.767325 0.372877 0.689997
O O4 0.649115 0.104812 0.628782
O O5 0.100074 0.639460 0.171997
O O6 0.910812 0.820980 0.114170
O O7 0.132384 0.953668 0.191690
O O8 0.281622 0.972094 0.918481
O O9 0.500000 0.882415 0.000000
O O10 0.720226 0.664099 0.078159
O O11 0.694722 0.868846 0.842692
#
# Coordination Sequence:
#
# PCOD9129717 Si02
#       5
#     4   4   4   4   4
#     4  11  24  48  71 101 149 188 231 297 360 415
#     4  12  23  46  74 101 143 189 233 296 357 419
#     4  11  24  43  74 102 135 190 235 290 353 422
#     4  11  24  45  69 107 147 173 241 295 348 416
#     4  11  23  41  75 103 138 191 232 286 359 415
#
# _framework density 22.052612
#
# number of rings (size 3 to 8) (size 9 to 14) (size 15 to 20)
#    0.000    0.800    4.000    5.400    0.000    6.400 
#    0.000    5.000    0.000    0.000    0.000    0.000 
#    0.000    0.000    0.000    0.000    0.000    0.000 
#
# Total GULP energy -55809.709852 kJ/mol
# GULP energy per Si atom -5580.970985 kJ/mol
# Density = 2.200242 g / cm^3
# Si number density = 22.052612 Si / 1000 Ang^3
#
#
#
# Elastic Constant Matrix: (Units=GPa)
#
#
# Indices 1 2 3 4 5 6 
#
# 1 169.4764 77.1795 71.4841 0.0000 -18.4577 0.0000
# 2 77.1795 72.8628 55.5526 0.0000 3.2007 0.0000
# 3 71.4841 55.5526 160.6087 0.0000 -15.4471 0.0000
# 4 0.0000 0.0000 0.0000 26.2271 0.0000 -9.8352
# 5 -18.4577 3.2007 -15.4471 0.0000 54.5433 0.0000
# 6 0.0000 0.0000 0.0000 -9.8352 0.0000 53.0595
#
#
#
# Elastic Compliance Matrix: (Units=1/GPa)
#
#
# Indices 1 2 3 4 5 6 
#
# 1 0.012709 -0.013207 -0.000617 0.000000 0.004901 0.000000
# 2 -0.013207 0.032854 -0.006272 0.000000 -0.008173 0.000000
# 3 -0.000617 -0.006272 0.008929 0.000000 0.002688 0.000000
# 4 0.000000 0.000000 0.000000 0.040977 0.000000 0.007596
# 5 0.004901 -0.008173 0.002688 0.000000 0.021233 0.000000
# 6 0.000000 0.000000 0.000000 0.007596 0.000000 0.020255
#
#
# Mechanical properties :
#
#
# Convention : Reuss Voigt Hill
#
# Bulk Modulus (GPa) = 69.92650 90.15337 80.03993
# Shear Modulus (GPa) = 27.48530 40.01475 33.75003
#
# Velocity S-wave (km/s) = 3.53420 4.26433 3.91632
# Velocity P-wave (km/s) = 6.95930 8.07563 7.53816
#
# Compressibility (1/GPa) = 0.01430073
#
# Stress axis : x y z
#
# Youngs Moduli (GPa) = 78.68543 30.43739 111.99537
#
# Poissons Ratio (x) = 0.40197 0.06912
# Poissons Ratio (y) = 1.03916 0.70244
# Poissons Ratio (z) = 0.04856 0.19090
#
# Static dielectric constant tensor:
#      x y z
#    x 1.813760 0.000000 -0.014050 
#    y 0.000000 1.942580 0.000000 
#    z -0.014050 0.000000 1.804520 
# 
# From -- ./inp_files/38496.got.cif
#   From: 2010.05.17/outbox.cif.g08.bks.cpg/sg5_20_cif.got.tgz:38496.got - 2010.06.03 18:56:24.
