data_PCOD9129392
_publ_section_title
;
Structure prediction by ZEFSAII (Michael W. Deem and Ramdas Pophale) SiO2 
 PCOD9129392
Probable space group: C 2
;
_chemical_formula_sum "Si O2"
_cell_formula_units_Z 32
_cell_length_a 11.841983
_cell_length_b 8.084943
_cell_length_c 18.351333
_cell_angle_alpha 90.000000
_cell_angle_beta 120.085280
_cell_angle_gamma 90.000000
_cell_volume 1520.287749
_symmetry_space_group_name_H-M "C 2"
_symmetry_group_IT_number 5
_symmetry_cell_setting 'monoclinic'
loop_
_space_group_symop_operation_xyz
x,y,z
-x,y,-z
1/2+x,1/2+y,z
1/2-x,1/2+y,-z
loop_
_atom_site_type_symbol
_atom_site_label
_atom_site_fract_x
_atom_site_fract_y
_atom_site_fract_z
Si Si1 0.624087 0.120680 0.713517
Si Si2 0.408398 0.097583 0.904528
Si Si3 0.619999 0.625048 0.804959
Si Si4 0.272787 0.504265 0.421599
Si Si5 0.629082 0.834375 0.236351
Si Si6 0.921980 0.698170 0.540307
Si Si7 0.510041 0.277514 0.202990
Si Si8 0.181297 0.264524 0.671552
O O1 0.768317 0.192118 0.752851
O O2 0.528397 0.238662 0.636110
O O3 0.566355 0.135671 0.776039
O O4 0.621401 0.941356 0.674482
O O5 0.264592 0.153067 0.883835
O O6 0.478398 0.237976 0.878654
O O7 0.383070 0.956099 0.836112
O O8 0.500000 0.045859 0.000000
O O9 0.510007 0.753329 0.793070
O O10 0.567069 0.444529 0.806541
O O11 0.640661 0.647683 0.725349
O O12 0.187999 0.423335 0.327846
O O13 0.181499 0.580548 0.454535
O O14 0.357349 0.359983 0.484750
O O15 0.348381 0.660314 0.410396
O O16 0.000000 0.612618 0.500000
O O17 0.660863 0.288430 0.278054
#
# Coordination Sequence:
#
# PCOD9129392 Si02
#       8
#     4   4   4   4   4   4   4   4
#     4  12  23  45  76  99 139 187 237 287 352 413
#     4  11  25  45  70 107 148 179 232 288 345 415
#     4  11  23  41  74 105 132 184 230 282 345 416
#     4  12  26  48  67  99 140 182 239 287 348 410
#     4  12  23  47  74 103 139 189 234 279 355 421
#     4  12  28  45  63 101 140 180 229 302 338 405
#     4  11  21  43  73 101 135 180 232 289 338 420
#     4  11  23  43  73 100 129 188 236 284 345 414
#
# _framework density 21.048646999999999
#
# number of rings (size 3 to 8) (size 9 to 14) (size 15 to 20)
#    0.000    0.500    7.500    1.500    1.750    2.000 
#    2.250    0.625    0.000    0.000    0.000    0.000 
#    0.000    0.000    0.000    0.000    0.000    0.000 
#
# Total GULP energy -89429.833773 kJ/mol
# GULP energy per Si atom -5589.364611 kJ/mol
# Density = 2.100074 g / cm^3
# Si number density = 21.048647 Si / 1000 Ang^3
#
#
#
# Elastic Constant Matrix: (Units=GPa)
#
#
# Indices 1 2 3 4 5 6 
#
# 1 145.4972 59.4944 45.3371 0.0000 7.3866 0.0000
# 2 59.4944 125.2212 45.2290 0.0000 -1.3427 0.0000
# 3 45.3371 45.2290 102.7800 0.0000 5.8317 0.0000
# 4 0.0000 0.0000 0.0000 13.8980 0.0000 -0.2912
# 5 7.3866 -1.3427 5.8317 0.0000 16.1967 0.0000
# 6 0.0000 0.0000 0.0000 -0.2912 0.0000 36.8935
#
#
#
# Elastic Compliance Matrix: (Units=1/GPa)
#
#
# Indices 1 2 3 4 5 6 
#
# 1 0.009247 -0.003609 -0.002281 0.000000 -0.003695 0.000000
# 2 -0.003609 0.010991 -0.003461 0.000000 0.003803 0.000000
# 3 -0.002281 -0.003461 0.012471 0.000000 -0.003737 0.000000
# 4 0.000000 0.000000 0.000000 0.071964 0.000000 0.000568
# 5 -0.003695 0.003803 -0.003737 0.000000 0.065087 0.000000
# 6 0.000000 0.000000 0.000000 0.000568 0.000000 0.027110
#
#
# Mechanical properties :
#
#
# Convention : Reuss Voigt Hill
#
# Bulk Modulus (GPa) = 71.39068 74.84661 73.11864
# Shear Modulus (GPa) = 22.70243 28.29350 25.49797
#
# Velocity S-wave (km/s) = 3.28772 3.67030 3.48427
# Velocity P-wave (km/s) = 6.95721 7.32104 7.14144
#
# Compressibility (1/GPa) = 0.01400743
#
# Stress axis : x y z
#
# Youngs Moduli (GPa) = 108.14104 90.98058 80.18855
#
# Poissons Ratio (x) = 0.32836 0.18292
# Poissons Ratio (y) = 0.39030 0.27750
# Poissons Ratio (z) = 0.24668 0.31484
#
# Static dielectric constant tensor:
#      x y z
#    x 1.795100 0.000000 -0.000200 
#    y 0.000000 1.797200 0.000000 
#    z -0.000200 0.000000 1.751700 
# 
# From -- ./inp_files/60312.got.cif
#   From: 2010.05.17/outbox.cif.g08.bks.cpg/sg5_31_cif.got.tgz:60312.got - 2010.06.03 18:56:24.
