data_PCOD9129999
_publ_section_title
;
Structure prediction by ZEFSAII (Michael W. Deem and Ramdas Pophale) SiO2 
 PCOD9129999
Probable space group: C 2
;
_chemical_formula_sum "Si O2"
_cell_formula_units_Z 20
_cell_length_a 17.969397
_cell_length_b 7.842591
_cell_length_c 6.491364
_cell_angle_alpha 90.000000
_cell_angle_beta 80.623383
_cell_angle_gamma 90.000000
_cell_volume 902.583094
_symmetry_space_group_name_H-M "C 2"
_symmetry_group_IT_number 5
_symmetry_cell_setting 'monoclinic'
loop_
_space_group_symop_operation_xyz
x,y,z
-x,y,-z
1/2+x,1/2+y,z
1/2-x,1/2+y,-z
loop_
_atom_site_type_symbol
_atom_site_label
_atom_site_fract_x
_atom_site_fract_y
_atom_site_fract_z
Si Si1 0.226525 0.614280 0.264278
Si Si2 0.083072 0.750632 0.555353
Si Si3 0.621430 0.632655 0.547697
Si Si4 0.576612 0.934041 0.840671
Si Si5 0.317060 0.766411 0.869016
O O1 0.150747 0.710445 0.365222
O O2 0.295358 0.646595 0.388877
O O3 0.213328 0.412542 0.267061
O O4 0.253729 0.667537 0.024348
O O5 0.096064 0.614569 0.730884
O O6 0.000000 0.717763 0.500000
O O7 0.088543 0.947911 0.617539
O O8 0.574372 0.789551 0.663263
O O9 0.631565 0.647883 0.297601
O O10 0.500000 0.949437 0.000000
O O11 0.636016 0.865355 0.979034
#
# Coordination Sequence:
#
# PCOD9129999 Si02
#       5
#     4   4   4   4   4
#     4  11  24  44  74 106 144 191 246 301 364 434
#     4  12  27  46  74 108 149 188 241 307 365 428
#     4  11  26  47  75 104 147 192 251 301 362 435
#     4  11  27  47  71 103 148 196 240 299 369 436
#     4  11  24  44  76 103 144 194 248 298 364 436
#
# _framework density 22.158622999999999
#
# number of rings (size 3 to 8) (size 9 to 14) (size 15 to 20)
#    0.000    0.800    2.000    3.600   11.200    0.800 
#    3.600    0.000    0.000    0.000    0.000    0.000 
#    0.000    0.000    0.000    0.000    0.000    0.000 
#
# Total GULP energy -55962.122994 kJ/mol
# GULP energy per Si atom -5596.212299 kJ/mol
# Density = 2.210819 g / cm^3
# Si number density = 22.158623 Si / 1000 Ang^3
#
#
#
# Elastic Constant Matrix: (Units=GPa)
#
#
# Indices 1 2 3 4 5 6 
#
# 1 34.4890 7.3346 27.5507 0.0000 -1.5620 0.0000
# 2 7.3346 149.2932 51.9287 0.0000 -13.2375 0.0000
# 3 27.5507 51.9287 115.5835 0.0000 -19.0816 0.0000
# 4 0.0000 0.0000 0.0000 41.6561 0.0000 -6.9991
# 5 -1.5620 -13.2375 -19.0816 0.0000 37.9888 0.0000
# 6 0.0000 0.0000 0.0000 -6.9991 0.0000 4.4085
#
#
#
# Elastic Compliance Matrix: (Units=1/GPa)
#
#
# Indices 1 2 3 4 5 6 
#
# 1 0.036372 0.001347 -0.009760 0.000000 -0.002937 0.000000
# 2 0.001347 0.008028 -0.003770 0.000000 0.000959 0.000000
# 3 -0.009760 -0.003770 0.013509 0.000000 0.005071 0.000000
# 4 0.000000 0.000000 0.000000 0.032739 0.000000 0.051978
# 5 -0.002937 0.000959 0.005071 0.000000 0.029084 0.000000
# 6 0.000000 0.000000 0.000000 0.051978 0.000000 0.309356
#
#
# Mechanical properties :
#
#
# Convention : Reuss Voigt Hill
#
# Bulk Modulus (GPa) = 29.81116 52.55485 41.18301
# Shear Modulus (GPa) = 10.76116 30.98079 20.87098
#
# Velocity S-wave (km/s) = 2.20612 3.74322 3.07235
# Velocity P-wave (km/s) = 4.46901 6.51547 5.58674
#
# Compressibility (1/GPa) = 0.03354449
#
# Stress axis : x y z
#
# Youngs Moduli (GPa) = 27.49395 124.55914 74.02547
#
# Poissons Ratio (x) = -0.16784 0.72248
# Poissons Ratio (y) = -0.03705 0.27905
# Poissons Ratio (z) = 0.26834 0.46955
#
# Static dielectric constant tensor:
#      x y z
#    x 1.911110 0.000000 0.007050 
#    y 0.000000 1.828010 0.000000 
#    z 0.007050 0.000000 1.835090 
# 
# From -- ./inp_files/8001.got.cif
#   From: 2010.05.17/outbox.cif.g08.bks.cpg/sg5_5_cif.got.tgz:8001.got - 2010.06.03 18:56:24.
