data_PCOD9129885
_publ_section_title
;
Structure prediction by ZEFSAII (Michael W. Deem and Ramdas Pophale) SiO2 
 PCOD9129885
Probable space group: C 2
;
_chemical_formula_sum "Si O2"
_cell_formula_units_Z 28
_cell_length_a 14.376795
_cell_length_b 4.999011
_cell_length_c 16.601018
_cell_angle_alpha 90.000000
_cell_angle_beta 102.484454
_cell_angle_gamma 90.000000
_cell_volume 1164.899645
_symmetry_space_group_name_H-M "C 2"
_symmetry_group_IT_number 5
_symmetry_cell_setting 'monoclinic'
loop_
_space_group_symop_operation_xyz
x,y,z
-x,y,-z
1/2+x,1/2+y,z
1/2-x,1/2+y,-z
loop_
_atom_site_type_symbol
_atom_site_label
_atom_site_fract_x
_atom_site_fract_y
_atom_site_fract_z
Si Si1 0.711820 0.119250 0.947261
Si Si2 0.848690 0.974544 0.682613
Si Si3 0.500000 0.613438 0.000000
Si Si4 0.211683 0.710278 0.538343
Si Si5 0.349394 0.363755 0.862184
Si Si6 0.464492 0.958510 0.666278
Si Si7 0.516872 0.001611 0.855828
Si Si8 0.500000 0.182287 0.500000
O O1 0.746927 0.939982 0.877379
O O2 0.603368 0.190273 0.901836
O O3 0.768515 0.397330 0.977484
O O4 0.750335 0.088491 0.629284
O O5 0.856928 0.016314 0.779161
O O6 0.927429 0.157981 0.655850
O O7 0.879021 0.672500 0.667978
O O8 0.411356 0.453500 0.949819
O O9 0.528863 0.773084 0.924944
O O10 0.224423 0.451020 0.483520
O O11 0.103863 0.817399 0.517617
O O12 0.407550 0.096029 0.851209
O O13 0.524951 0.969294 0.760990
O O14 0.505931 0.026801 0.586651
#
# Coordination Sequence:
#
# PCOD9129885 Si02
#       8
#     4   4   2   4   4   4   4   2
#     4  12  26  44  67 103 141 180 245 291 343 435
#     4  11  23  47  67 104 142 183 238 294 354 429
#     4  12  18  42  70  88 134 184 230 278 352 404
#     4  12  25  46  73 104 141 181 235 294 352 433
#     4  11  25  41  70  97 139 194 228 292 362 411
#     4  11  25  44  72 103 142 184 240 294 353 434
#     4  11  25  43  67 103 139 185 238 293 355 419
#     4  12  26  46  78 104 140 192 232 288 380 410
#
# _framework density 24.036404999999998
#
# number of rings (size 3 to 8) (size 9 to 14) (size 15 to 20)
#    0.000    0.571    5.714    2.143    2.000    2.286 
#    0.000    0.000    0.000    0.000    0.000    0.000 
#    0.000    0.000    0.000    0.000    0.000    0.000 
#
# Total GULP energy -77968.377799 kJ/mol
# GULP energy per Si atom -5569.169843 kJ/mol
# Density = 2.398170 g / cm^3
# Si number density = 24.036405 Si / 1000 Ang^3
#
#
#
# Elastic Constant Matrix: (Units=GPa)
#
#
# Indices 1 2 3 4 5 6 
#
# 1 57.4366 -4.8623 27.0742 0.0000 2.3412 0.0000
# 2 -4.8623 76.5349 32.7176 0.0000 6.0283 0.0000
# 3 27.0742 32.7176 209.9021 0.0000 -5.1487 0.0000
# 4 0.0000 0.0000 0.0000 34.3563 0.0000 3.4376
# 5 2.3412 6.0283 -5.1487 0.0000 52.1753 0.0000
# 6 0.0000 0.0000 0.0000 3.4376 0.0000 5.7615
#
#
#
# Elastic Compliance Matrix: (Units=1/GPa)
#
#
# Indices 1 2 3 4 5 6 
#
# 1 0.019048 0.002559 -0.002891 0.000000 -0.001436 0.000000
# 2 0.002559 0.014520 -0.002644 0.000000 -0.002053 0.000000
# 3 -0.002891 -0.002644 0.005573 0.000000 0.000985 0.000000
# 4 0.000000 0.000000 0.000000 0.030955 0.000000 -0.018469
# 5 -0.001436 -0.002053 0.000985 0.000000 0.019565 0.000000
# 6 0.000000 0.000000 0.000000 -0.018469 0.000000 0.184587
#
#
# Mechanical properties :
#
#
# Convention : Reuss Voigt Hill
#
# Bulk Modulus (GPa) = 30.12888 50.41473 40.27181
# Shear Modulus (GPa) = 17.16659 37.72156 27.44407
#
# Velocity S-wave (km/s) = 2.67533 3.96580 3.38268
# Velocity P-wave (km/s) = 4.70161 6.47997 5.66105
#
# Compressibility (1/GPa) = 0.03319075
#
# Stress axis : x y z
#
# Youngs Moduli (GPa) = 52.49775 68.86849 179.42755
#
# Poissons Ratio (x) = -0.17624 0.51874
# Poissons Ratio (y) = -0.13435 0.47436
# Poissons Ratio (z) = 0.15177 0.18207
#
# Static dielectric constant tensor:
#      x y z
#    x 2.230510 0.000000 -0.017090 
#    y 0.000000 1.951710 0.000000 
#    z -0.017090 0.000000 1.965000 
# 
# From -- ./inp_files/61087.got.cif
#   From: 2010.05.17/outbox.cif.g08.bks.cpg/sg5_31_cif.got.tgz:61087.got - 2010.06.03 18:56:24.
