data_PCOD9129754
_publ_section_title
;
Structure prediction by ZEFSAII (Michael W. Deem and Ramdas Pophale) SiO2 
 PCOD9129754
Probable space group: C 2
;
_chemical_formula_sum "Si O2"
_cell_formula_units_Z 32
_cell_length_a 17.130952
_cell_length_b 5.695039
_cell_length_c 12.240900
_cell_angle_alpha 90.000000
_cell_angle_beta 87.518696
_cell_angle_gamma 90.000000
_cell_volume 1193.120111
_symmetry_space_group_name_H-M "C 2"
_symmetry_group_IT_number 5
_symmetry_cell_setting 'monoclinic'
loop_
_space_group_symop_operation_xyz
x,y,z
-x,y,-z
1/2+x,1/2+y,z
1/2-x,1/2+y,-z
loop_
_atom_site_type_symbol
_atom_site_label
_atom_site_fract_x
_atom_site_fract_y
_atom_site_fract_z
Si Si1 0.298273 0.127470 0.620749
Si Si2 0.574513 0.556870 0.942756
Si Si3 0.545181 0.650187 0.395352
Si Si4 0.923856 0.743767 0.765389
Si Si5 0.435267 0.926048 0.250559
Si Si6 0.303437 0.170201 0.141072
Si Si7 0.269694 0.645347 0.610309
Si Si8 0.659917 0.917051 0.073325
O O1 0.385055 0.113122 0.662738
O O2 0.273097 0.385876 0.661683
O O3 0.285232 0.129534 0.492337
O O4 0.248991 0.901888 0.660170
O O5 0.565426 0.713603 0.835073
O O6 0.643834 0.380803 0.909833
O O7 0.500000 0.427236 0.000000
O O8 0.592033 0.744334 0.038372
O O9 0.500000 0.527760 0.500000
O O10 0.560824 0.499185 0.283841
O O11 0.636870 0.684647 0.426688
O O12 0.476184 0.832140 0.359483
O O13 0.866116 0.654424 0.863769
O O14 0.005017 0.626893 0.790179
O O15 0.351918 0.057003 0.239089
O O16 0.215486 0.265168 0.147380
O O17 0.300549 0.978853 0.044007
#
# Coordination Sequence:
#
# PCOD9129754 Si02
#       8
#     4   4   4   4   4   4   4   4
#     4   9  18  37  64  92 135 177 253 313 383 453
#     4  11  23  42  74 107 152 197 245 306 390 476
#     4  11  25  46  70 102 153 202 265 330 397 461
#     4  11  23  43  71 105 145 197 267 319 392 473
#     4  11  24  44  70 106 150 195 262 315 393 475
#     4  11  25  44  70 108 159 199 250 317 395 473
#     4   9  18  38  64  94 129 188 244 321 382 456
#     4  11  24  45  71 109 155 202 249 313 391 471
#
# _framework density 26.820433000000001
#
# number of rings (size 3 to 8) (size 9 to 14) (size 15 to 20)
#    0.000    1.500    3.750    0.750    3.500    0.500 
#    4.500    2.500    0.000    0.000    0.000    0.000 
#    0.000    0.000    0.000    0.000    0.000    0.000 
#
# Total GULP energy -89224.147910 kJ/mol
# GULP energy per Si atom -5576.509244 kJ/mol
# Density = 2.675939 g / cm^3
# Si number density = 26.820433 Si / 1000 Ang^3
#
#
#
# Elastic Constant Matrix: (Units=GPa)
#
#
# Indices 1 2 3 4 5 6 
#
# 1 94.9743 19.9587 34.4675 0.0000 25.1813 0.0000
# 2 19.9587 97.3584 14.6562 0.0000 10.8285 0.0000
# 3 34.4675 14.6562 79.4007 0.0000 26.3053 0.0000
# 4 0.0000 0.0000 0.0000 47.5069 0.0000 14.7667
# 5 25.1813 10.8285 26.3053 0.0000 53.1690 0.0000
# 6 0.0000 0.0000 0.0000 14.7667 0.0000 48.6679
#
#
#
# Elastic Compliance Matrix: (Units=1/GPa)
#
#
# Indices 1 2 3 4 5 6 
#
# 1 0.013462 -0.001685 -0.004227 0.000000 -0.003941 0.000000
# 2 -0.001685 0.010866 -0.000963 0.000000 -0.000938 0.000000
# 3 -0.004227 -0.000963 0.016600 0.000000 -0.006014 0.000000
# 4 0.000000 0.000000 0.000000 0.023242 0.000000 -0.007052
# 5 -0.003941 -0.000938 -0.006014 0.000000 0.023841 0.000000
# 6 0.000000 0.000000 0.000000 -0.007052 0.000000 0.022687
#
#
# Mechanical properties :
#
#
# Convention : Reuss Voigt Hill
#
# Bulk Modulus (GPa) = 36.79579 45.54423 41.17001
# Shear Modulus (GPa) = 37.45080 43.37883 40.41482
#
# Velocity S-wave (km/s) = 3.74083 4.02603 3.88605
# Velocity P-wave (km/s) = 5.69276 6.21530 5.95976
#
# Compressibility (1/GPa) = 0.02717702
#
# Stress axis : x y z
#
# Youngs Moduli (GPa) = 74.28106 92.02883 60.24192
#
# Poissons Ratio (x) = 0.15508 0.25465
# Poissons Ratio (y) = 0.12517 0.05804
# Poissons Ratio (z) = 0.31400 0.08866
#
# Static dielectric constant tensor:
#      x y z
#    x 2.091650 0.000000 -0.042880 
#    y 0.000000 2.159560 0.000000 
#    z -0.042880 0.000000 2.138740 
# 
# From -- ./inp_files/55454.got.cif
#   From: 2010.05.17/outbox.cif.g08.bks.cpg/sg5_28_cif.got.tgz:55454.got - 2010.06.03 18:56:24.
