data_PCOD9129665
_publ_section_title
;
Structure prediction by ZEFSAII (Michael W. Deem and Ramdas Pophale) SiO2 
 PCOD9129665
Probable space group: C 2
;
_chemical_formula_sum "Si O2"
_cell_formula_units_Z 22
_cell_length_a 21.723090
_cell_length_b 5.428016
_cell_length_c 11.863060
_cell_angle_alpha 90.000000
_cell_angle_beta 140.717899
_cell_angle_gamma 90.000000
_cell_volume 885.642767
_symmetry_space_group_name_H-M "C 2"
_symmetry_group_IT_number 5
_symmetry_cell_setting 'monoclinic'
loop_
_space_group_symop_operation_xyz
x,y,z
-x,y,-z
1/2+x,1/2+y,z
1/2-x,1/2+y,-z
loop_
_atom_site_type_symbol
_atom_site_label
_atom_site_fract_x
_atom_site_fract_y
_atom_site_fract_z
Si Si1 0.242221 0.826200 0.426053
Si Si2 0.070554 0.475349 0.870460
Si Si3 0.500000 0.325645 0.500000
Si Si4 0.416252 0.709200 0.515334
Si Si5 0.822608 0.480392 0.193692
Si Si6 0.378203 0.476831 0.954577
O O1 0.215935 0.585946 0.464415
O O2 0.325705 0.699398 0.468450
O O3 0.157857 0.921348 0.223044
O O4 0.166773 0.470691 0.925664
O O5 0.984051 0.424050 0.659934
O O6 0.065575 0.733154 0.926337
O O7 0.071357 0.240155 0.954901
O O8 0.483240 0.476194 0.592048
O O9 0.396985 0.191715 0.337754
O O10 0.374196 0.753835 0.331012
O O11 0.717783 0.494899 0.101383
#
# Coordination Sequence:
#
# PCOD9129665 Si02
#       6
#     4   4   2   4   4   4
#     4  11  27  51  73  96 133 194 250 294 347 422
#     4  12  22  43  62 109 140 179 220 294 359 417
#     4  12  20  40  70 106 146 182 248 276 352 420
#     4  11  25  40  73 103 141 191 236 288 345 435
#     4  11  23  38  64 100 149 192 219 272 353 445
#     4  11  27  40  69  98 142 177 235 288 357 416
#
# _framework density 24.840717000000001
#
# number of rings (size 3 to 8) (size 9 to 14) (size 15 to 20)
#    0.000    0.727    3.636    3.273   10.182    0.000 
#    0.000    5.455    0.000    0.000    0.000    0.000 
#    0.000    0.000    0.000    0.000    0.000    0.000 
#
# Total GULP energy -61459.908411 kJ/mol
# GULP energy per Si atom -5587.264401 kJ/mol
# Density = 2.478418 g / cm^3
# Si number density = 24.840717 Si / 1000 Ang^3
#
#
#
# Elastic Constant Matrix: (Units=GPa)
#
#
# Indices 1 2 3 4 5 6 
#
# 1 30.2580 15.0822 -1.7892 0.0000 -10.9620 0.0000
# 2 15.0822 166.4789 49.6909 0.0004 -14.8521 0.0003
# 3 -1.7892 49.6909 75.2264 0.0000 -15.9272 0.0001
# 4 0.0000 0.0004 0.0000 46.6539 0.0000 -4.0577
# 5 -10.9620 -14.8521 -15.9272 0.0000 32.8650 0.0000
# 6 0.0000 0.0003 0.0001 -4.0577 0.0000 15.6863
#
#
#
# Elastic Compliance Matrix: (Units=1/GPa)
#
#
# Indices 1 2 3 4 5 6 
#
# 1 0.041233 -0.004525 0.007186 0.000000 0.015191 0.000000
# 2 -0.004525 0.008014 -0.005521 0.000000 -0.000563 0.000000
# 3 0.007186 -0.005521 0.019044 0.000000 0.009131 0.000000
# 4 0.000000 0.000000 0.000000 0.021928 0.000000 0.005672
# 5 0.015191 -0.000563 0.009131 0.000000 0.039665 0.000000
# 6 0.000000 0.000000 0.000000 0.005672 0.000000 0.065217
#
#
# Mechanical properties :
#
#
# Convention : Reuss Voigt Hill
#
# Bulk Modulus (GPa) = 15.98165 44.21456 30.09811
# Shear Modulus (GPa) = 22.55515 32.97298 27.76407
#
# Velocity S-wave (km/s) = 3.01656 3.64727 3.34680
# Velocity P-wave (km/s) = 4.31050 5.96445 5.20361
#
# Compressibility (1/GPa) = 0.06257177
#
# Stress axis : x y z
#
# Youngs Moduli (GPa) = 24.25242 124.77651 52.50955
#
# Poissons Ratio (x) = 0.56464 -0.37734
# Poissons Ratio (y) = 0.10975 0.28989
# Poissons Ratio (z) = -0.17428 0.68886
#
# Static dielectric constant tensor:
#      x y z
#    x 1.992020 0.000000 -0.017140 
#    y 0.000000 2.068610 0.000000 
#    z -0.017140 0.000000 1.968960 
# 
# From -- ./inp_files/43641.got.cif
#   From: 2010.05.17/outbox.cif.g08.bks.cpg/sg5_22_cif.got.tgz:43641.got - 2010.06.03 18:56:24.
