data_PCOD9129028
_publ_section_title
;
Structure prediction by ZEFSAII (Michael W. Deem and Ramdas Pophale) SiO2 
 PCOD9129028
Probable space group: C 2
;
_chemical_formula_sum "Si O2"
_cell_formula_units_Z 16
_cell_length_a 14.993495
_cell_length_b 4.561533
_cell_length_c 8.344022
_cell_angle_alpha 90.000000
_cell_angle_beta 98.133103
_cell_angle_gamma 90.000000
_cell_volume 564.935581
_symmetry_space_group_name_H-M "C 2"
_symmetry_group_IT_number 5
_symmetry_cell_setting 'monoclinic'
loop_
_space_group_symop_operation_xyz
x,y,z
-x,y,-z
1/2+x,1/2+y,z
1/2-x,1/2+y,-z
loop_
_atom_site_type_symbol
_atom_site_label
_atom_site_fract_x
_atom_site_fract_y
_atom_site_fract_z
Si Si1 0.523513 0.504570 0.191467
Si Si2 0.914801 0.432690 0.367589
Si Si3 0.143650 0.504601 0.315408
Si Si4 0.230004 0.347470 0.888327
O O1 0.449880 0.616203 0.304192
O O2 0.552726 0.170369 0.225646
O O3 0.613504 0.675185 0.270153
O O4 0.500000 0.556234 0.000000
O O5 0.842471 0.500418 0.490898
O O6 0.857814 0.519410 0.196501
O O7 0.000000 0.521817 0.500000
O O8 0.223056 0.654843 0.237796
O O9 0.289912 0.595706 0.986960
#
# Coordination Sequence:
#
# PCOD9129028 Si02
#       4
#     4   4   4   4
#     4  11  23  45  73 105 143 189 238 295 357 424
#     4  10  26  45  71 105 143 185 236 292 355 421
#     4  11  25  44  70 106 144 188 237 296 357 423
#     4  12  27  48  74 106 144 190 241 295 356 426
#
# _framework density 28.321811
#
# number of rings (size 3 to 8) (size 9 to 14) (size 15 to 20)
#    0.000    1.000    0.000    5.250    0.000   25.000 
#    0.000    0.000    0.000    0.000    0.000    0.000 
#    0.000    0.000    0.000    0.000    0.000    0.000 
#
# Total GULP energy -44597.838343 kJ/mol
# GULP energy per Si atom -5574.729793 kJ/mol
# Density = 2.825735 g / cm^3
# Si number density = 28.321811 Si / 1000 Ang^3
#
#
#
# Elastic Constant Matrix: (Units=GPa)
#
#
# Indices 1 2 3 4 5 6 
#
# 1 103.4792 9.7001 39.8327 0.0000 4.7845 0.0000
# 2 9.7001 62.6875 21.8709 0.0000 -0.6173 0.0000
# 3 39.8327 21.8709 155.0919 0.0000 9.2087 0.0000
# 4 0.0000 0.0000 0.0000 55.1989 0.0000 -5.9214
# 5 4.7845 -0.6173 9.2087 0.0000 67.0699 0.0000
# 6 0.0000 0.0000 0.0000 -5.9214 0.0000 48.3846
#
#
#
# Elastic Compliance Matrix: (Units=1/GPa)
#
#
# Indices 1 2 3 4 5 6 
#
# 1 0.010768 -0.000751 -0.002635 0.000000 -0.000413 0.000000
# 2 -0.000751 0.016845 -0.002213 0.000000 0.000512 0.000000
# 3 -0.002635 -0.002213 0.007488 0.000000 -0.000860 0.000000
# 4 0.000000 0.000000 0.000000 0.018357 0.000000 0.002247
# 5 -0.000413 0.000512 -0.000860 0.000000 0.015062 0.000000
# 6 0.000000 0.000000 0.000000 0.002247 0.000000 0.020943
#
#
# Mechanical properties :
#
#
# Convention : Reuss Voigt Hill
#
# Bulk Modulus (GPa) = 41.83621 51.56290 46.69955
# Shear Modulus (GPa) = 46.02837 50.78765 48.40801
#
# Velocity S-wave (km/s) = 4.03574 4.23925 4.13875
# Velocity P-wave (km/s) = 6.04318 6.49671 6.27405
#
# Compressibility (1/GPa) = 0.02390274
#
# Stress axis : x y z
#
# Youngs Moduli (GPa) = 92.87124 59.36304 133.55171
#
# Poissons Ratio (x) = 0.04458 0.35192
# Poissons Ratio (y) = 0.06974 0.29556
# Poissons Ratio (z) = 0.24472 0.13138
#
# Static dielectric constant tensor:
#      x y z
#    x 2.591130 0.000000 -0.276170 
#    y 0.000000 2.215530 0.000000 
#    z -0.276170 0.000000 2.141300 
# 
# From -- ./inp_files/25767.got.cif
#   From: 2010.05.17/outbox.cif.g08.bks.cpg/sg5_13_cif.got.tgz:25767.got - 2010.06.03 18:56:24.
