data_PCOD9129853
_publ_section_title
;
Structure prediction by ZEFSAII (Michael W. Deem and Ramdas Pophale) SiO2 
 PCOD9129853
Probable space group: C 2
;
_chemical_formula_sum "Si O2"
_cell_formula_units_Z 22
_cell_length_a 21.153526
_cell_length_b 7.569862
_cell_length_c 8.377129
_cell_angle_alpha 90.000000
_cell_angle_beta 38.274477
_cell_angle_gamma 90.000000
_cell_volume 830.917177
_symmetry_space_group_name_H-M "C 2"
_symmetry_group_IT_number 5
_symmetry_cell_setting 'monoclinic'
loop_
_space_group_symop_operation_xyz
x,y,z
-x,y,-z
1/2+x,1/2+y,z
1/2-x,1/2+y,-z
loop_
_atom_site_type_symbol
_atom_site_label
_atom_site_fract_x
_atom_site_fract_y
_atom_site_fract_z
Si Si1 0.880563 0.324400 0.246615
Si Si2 0.057698 0.915692 0.543444
Si Si3 0.639800 0.038031 0.386520
Si Si4 0.290302 0.694024 0.866556
Si Si5 0.187759 0.654144 0.759218
Si Si6 0.500000 0.376579 0.000000
O O1 0.866131 0.450851 0.429683
O O2 0.847911 0.451852 0.167292
O O3 0.794737 0.177047 0.450412
O O4 0.000000 0.283356 0.000000
O O5 0.063516 0.702773 0.531000
O O6 0.015344 0.969408 0.799048
O O7 0.000000 0.974070 0.500000
O O8 0.161561 0.022047 0.311792
O O9 0.636587 0.864330 0.279364
O O10 0.744051 0.134120 0.124696
O O11 0.201325 0.733623 0.911055
O O12 0.101114 0.761525 0.835531
#
# Coordination Sequence:
#
# PCOD9129853 Si02
#       6
#     4   4   4   4   4   2
#     4  11  24  46  71 109 148 197 258 318 395 469
#     4  12  26  48  77 112 162 204 264 332 393 479
#     4  11  23  46  71 102 149 198 257 323 391 467
#     4  11  25  45  74 111 149 208 264 323 403 474
#     4  11  23  45  76 107 153 198 259 321 391 473
#     4  12  24  48  80 118 156 216 260 328 412 456
#
# _framework density 26.476762999999998
#
# number of rings (size 3 to 8) (size 9 to 14) (size 15 to 20)
#    0.000    0.727    4.545    2.182    2.545    0.727 
#   14.727    1.818    0.000    0.000    0.000    0.000 
#    0.000    0.000    0.000    0.000    0.000    0.000 
#
# Total GULP energy -61516.456303 kJ/mol
# GULP energy per Si atom -5592.405118 kJ/mol
# Density = 2.641650 g / cm^3
# Si number density = 26.476763 Si / 1000 Ang^3
#
#
#
# Elastic Constant Matrix: (Units=GPa)
#
#
# Indices 1 2 3 4 5 6 
#
# 1 120.8430 27.4372 52.9513 0.0000 0.0071 0.0000
# 2 27.4372 133.9401 35.0179 0.0000 -1.6776 0.0000
# 3 52.9513 35.0179 156.4183 0.0000 8.6445 0.0000
# 4 0.0000 0.0000 0.0000 36.5943 0.0000 19.3981
# 5 0.0071 -1.6776 8.6445 0.0000 50.4162 0.0000
# 6 0.0000 0.0000 0.0000 19.3981 0.0000 19.0682
#
#
#
# Elastic Compliance Matrix: (Units=1/GPa)
#
#
# Indices 1 2 3 4 5 6 
#
# 1 0.009914 -0.001211 -0.003112 0.000000 0.000492 0.000000
# 2 -0.001211 0.008095 -0.001431 0.000000 0.000515 0.000000
# 3 -0.003112 -0.001431 0.007844 0.000000 -0.001392 0.000000
# 4 0.000000 0.000000 0.000000 0.059310 0.000000 -0.060336
# 5 0.000492 0.000515 -0.001392 0.000000 0.020091 0.000000
# 6 0.000000 0.000000 0.000000 -0.060336 0.000000 0.113823
#
#
# Mechanical properties :
#
#
# Convention : Reuss Voigt Hill
#
# Bulk Modulus (GPa) = 69.71233 71.33491 70.52362
# Shear Modulus (GPa) = 21.24360 40.93541 31.08951
#
# Velocity S-wave (km/s) = 2.83565 3.93630 3.43040
# Velocity P-wave (km/s) = 6.09163 6.90364 6.51031
#
# Compressibility (1/GPa) = 0.01434466
#
# Stress axis : x y z
#
# Youngs Moduli (GPa) = 100.86932 123.53941 127.48815
#
# Poissons Ratio (x) = 0.14961 0.39676
# Poissons Ratio (y) = 0.12215 0.18239
# Poissons Ratio (z) = 0.31392 0.17674
#
# Static dielectric constant tensor:
#      x y z
#    x 2.178410 0.000000 -0.002070 
#    y 0.000000 2.059050 0.000000 
#    z -0.002070 0.000000 2.091290 
# 
# From -- ./inp_files/28849.got.cif
#   From: 2010.05.17/outbox.cif.g08.bks.cpg/sg5_15_cif.got.tgz:28849.got - 2010.06.03 18:56:24.
