data_PCOD9129225
_publ_section_title
;
Structure prediction by ZEFSAII (Michael W. Deem and Ramdas Pophale) SiO2 
 PCOD9129225
Probable space group: C 2
;
_chemical_formula_sum "Si O2"
_cell_formula_units_Z 28
_cell_length_a 20.525680
_cell_length_b 4.990067
_cell_length_c 11.599414
_cell_angle_alpha 90.000000
_cell_angle_beta 82.245576
_cell_angle_gamma 90.000000
_cell_volume 1177.200117
_symmetry_space_group_name_H-M "C 2"
_symmetry_group_IT_number 5
_symmetry_cell_setting 'monoclinic'
loop_
_space_group_symop_operation_xyz
x,y,z
-x,y,-z
1/2+x,1/2+y,z
1/2-x,1/2+y,-z
loop_
_atom_site_type_symbol
_atom_site_label
_atom_site_fract_x
_atom_site_fract_y
_atom_site_fract_z
Si Si1 0.620747 0.291190 0.149841
Si Si2 0.412955 0.068719 0.215636
Si Si3 0.330655 0.889297 0.425572
Si Si4 0.426090 0.562872 0.527023
Si Si5 0.694027 0.209795 0.353987
Si Si6 0.548203 0.800118 0.251592
Si Si7 0.923395 0.081196 0.060277
O O1 0.683526 0.252987 0.219358
O O2 0.566804 0.492656 0.220857
O O3 0.593159 0.989777 0.161004
O O4 0.621739 0.434904 0.026072
O O5 0.478226 0.924432 0.245824
O O6 0.392726 0.850664 0.121862
O O7 0.362622 0.106850 0.332739
O O8 0.428729 0.350709 0.154807
O O9 0.310470 0.945459 0.563589
O O10 0.390673 0.681080 0.423347
O O11 0.264317 0.813756 0.376756
O O12 0.500000 0.447943 0.500000
O O13 0.370162 0.364856 0.584774
O O14 0.436615 0.805367 0.616397
O O15 0.000000 0.133474 0.000000
#
# Coordination Sequence:
#
# PCOD9129225 Si02
#       7
#     4   4   4   4   4   4   4
#     4  11  23  40  68  93 134 178 235 278 351 423
#     4  12  25  39  68 106 139 182 236 298 356 427
#     4  12  25  44  69  99 146 185 240 285 368 439
#     4  11  23  39  67 102 140 175 232 291 351 421
#     4  11  26  45  69  98 138 200 225 296 360 439
#     4  11  20  37  61 102 129 171 220 289 349 403
#     4  12  23  42  67 101 142 183 234 303 362 417
#
# _framework density 23.785250999999999
#
# number of rings (size 3 to 8) (size 9 to 14) (size 15 to 20)
#    0.000    0.571    7.143    1.286    2.000    2.857 
#    0.000    1.429    0.000    0.000    0.000    0.000 
#    0.000    0.000    0.000    0.000    0.000    0.000 
#
# Total GULP energy -77994.069641 kJ/mol
# GULP energy per Si atom -5571.004974 kJ/mol
# Density = 2.373111 g / cm^3
# Si number density = 23.785251 Si / 1000 Ang^3
#
#
#
# Elastic Constant Matrix: (Units=GPa)
#
#
# Indices 1 2 3 4 5 6 
#
# 1 112.0816 -7.6475 29.0460 0.0000 34.3489 0.0000
# 2 -7.6475 72.3008 19.4934 0.0000 -8.7585 0.0000
# 3 29.0460 19.4934 63.8482 0.0000 32.0972 0.0000
# 4 0.0000 0.0000 0.0000 34.7200 0.0000 4.4368
# 5 34.3489 -8.7585 32.0972 0.0000 41.2758 0.0000
# 6 0.0000 0.0000 0.0000 4.4368 0.0000 7.7332
#
#
#
# Elastic Compliance Matrix: (Units=1/GPa)
#
#
# Indices 1 2 3 4 5 6 
#
# 1 0.012007 0.000442 -0.001020 0.000000 -0.009105 0.000000
# 2 0.000442 0.019010 -0.012885 0.000000 0.013685 0.000000
# 3 -0.001020 -0.012885 0.034491 0.000000 -0.028706 0.000000
# 4 0.000000 0.000000 0.000000 0.031081 0.000000 -0.017832
# 5 -0.009105 0.013685 -0.028706 0.000000 0.057031 0.000000
# 6 0.000000 0.000000 0.000000 -0.017832 0.000000 0.139543
#
#
# Mechanical properties :
#
#
# Convention : Reuss Voigt Hill
#
# Bulk Modulus (GPa) = 25.91872 36.66827 31.29350
# Shear Modulus (GPa) = 15.01735 30.56838 22.79287
#
# Velocity S-wave (km/s) = 2.51544 3.58883 3.09896
# Velocity P-wave (km/s) = 4.39968 5.71164 5.09804
#
# Compressibility (1/GPa) = 0.03858215
#
# Stress axis : x y z
#
# Youngs Moduli (GPa) = 83.28549 52.60500 28.99310
#
# Poissons Ratio (x) = -0.02325 0.02957
# Poissons Ratio (y) = -0.03682 0.37357
# Poissons Ratio (z) = 0.08496 0.67780
#
# Static dielectric constant tensor:
#      x y z
#    x 1.888050 0.000000 0.031190 
#    y 0.000000 1.980900 0.000000 
#    z 0.031190 0.000000 2.099460 
# 
# From -- ./inp_files/45468.got.cif
#   From: 2010.05.17/outbox.cif.g08.bks.cpg/sg5_23_cif.got.tgz:45468.got - 2010.06.03 18:56:24.
