data_PCOD9129784
_publ_section_title
;
Structure prediction by ZEFSAII (Michael W. Deem and Ramdas Pophale) SiO2 
 PCOD9129784
Probable space group: C 2
;
_chemical_formula_sum "Si O2"
_cell_formula_units_Z 16
_cell_length_a 7.959743
_cell_length_b 15.864715
_cell_length_c 6.951514
_cell_angle_alpha 90.000000
_cell_angle_beta 43.499003
_cell_angle_gamma 90.000000
_cell_volume 604.247639
_symmetry_space_group_name_H-M "C 2"
_symmetry_group_IT_number 5
_symmetry_cell_setting 'monoclinic'
loop_
_space_group_symop_operation_xyz
x,y,z
-x,y,-z
1/2+x,1/2+y,z
1/2-x,1/2+y,-z
loop_
_atom_site_type_symbol
_atom_site_label
_atom_site_fract_x
_atom_site_fract_y
_atom_site_fract_z
Si Si1 0.292430 0.500000 0.284782
Si Si2 0.337162 0.521957 0.776474
Si Si3 0.000000 0.677018 0.000000
Si Si4 0.000000 0.364555 0.000000
Si Si5 0.775213 0.303487 0.560741
O O1 0.356706 0.520017 0.486392
O O2 0.279660 0.397777 0.319557
O O3 0.000000 0.526685 0.500000
O O4 0.384305 0.520588 0.978667
O O5 0.213359 0.612711 0.869839
O O6 0.204915 0.431203 0.892387
O O7 0.056640 0.739779 0.777757
O O8 0.875422 0.309520 0.264869
O O9 0.000000 0.270843 0.500000
#
# Coordination Sequence:
#
# PCOD9129784 Si02
#       5
#     4   4   2   2   4
#     4  11  23  43  80 114 151 199 273 325 379 472
#     4  11  23  45  75 114 151 202 254 324 397 463
#     4  11  26  44  78 109 164 200 246 325 416 458
#     4  11  24  42  84 117 148 202 278 321 378 478
#     4  11  23  45  75 115 152 205 260 328 388 466
#
# _framework density 26.479210999999999
#
# number of rings (size 3 to 8) (size 9 to 14) (size 15 to 20)
#    0.000    1.000    3.750    3.750    3.500    0.000 
#    0.000    0.000   16.500    4.500    0.000    0.000 
#    0.000    0.000    0.000    0.000    0.000    0.000 
#
# Total GULP energy -44616.941334 kJ/mol
# GULP energy per Si atom -5577.117667 kJ/mol
# Density = 2.641894 g / cm^3
# Si number density = 26.479211 Si / 1000 Ang^3
#
#
#
# Elastic Constant Matrix: (Units=GPa)
#
#
# Indices 1 2 3 4 5 6 
#
# 1 160.0796 41.8006 49.5256 0.0000 4.1196 0.0000
# 2 41.8006 156.4244 91.3802 0.0000 0.1330 0.0000
# 3 49.5256 91.3802 272.7265 0.0000 -5.9803 0.0000
# 4 0.0000 0.0000 0.0000 43.0787 0.0000 -48.4455
# 5 4.1196 0.1330 -5.9803 0.0000 42.7744 0.0000
# 6 0.0000 0.0000 0.0000 -48.4455 0.0000 13.6739
#
#
#
# Elastic Compliance Matrix: (Units=1/GPa)
#
#
# Indices 1 2 3 4 5 6 
#
# 1 0.006873 -0.001364 -0.000808 0.000000 -0.000771 0.000000
# 2 -0.001364 0.008226 -0.002514 0.000000 -0.000246 0.000000
# 3 -0.000808 -0.002514 0.004672 0.000000 0.000739 0.000000
# 4 0.000000 0.000000 0.000000 -0.007778 0.000000 -0.027559
# 5 -0.000771 -0.000246 0.000739 0.000000 0.023557 0.000000
# 6 0.000000 0.000000 0.000000 -0.027559 0.000000 -0.024506
#
#
# Mechanical properties :
#
#
# Convention : Reuss Voigt Hill
#
# Bulk Modulus (GPa) = 96.16140 106.07148 101.11644
# Shear Modulus (GPa) = 209.36423 47.00701 128.18562
#
# Velocity S-wave (km/s) = 8.90163 4.21793 6.96527
# Velocity P-wave (km/s) = 11.91833 7.99166 10.14676
#
# Compressibility (1/GPa) = 0.01039918
#
# Stress axis : x y z
#
# Youngs Moduli (GPa) = 145.49994 121.56321 214.04401
#
# Poissons Ratio (x) = 0.16581 0.17294
# Poissons Ratio (y) = 0.19845 0.53810
# Poissons Ratio (z) = 0.11756 0.30561
#
# Static dielectric constant tensor:
#      x y z
#    x 1.893950 0.000000 0.124570 
#    y 0.000000 1.827040 0.000000 
#    z 0.124570 0.000000 2.795730 
# 
# From -- ./inp_files/4608.got.cif
#   From: 2010.05.17/outbox.cif.g08.bks.cpg/sg5_3_cif.got.tgz:4608.got - 2010.06.03 18:56:24.
