data_PCOD9129974
_publ_section_title
;
Structure prediction by ZEFSAII (Michael W. Deem and Ramdas Pophale) SiO2 
 PCOD9129974
Probable space group: C 2
;
_chemical_formula_sum "Si O2"
_cell_formula_units_Z 18
_cell_length_a 9.993062
_cell_length_b 9.096897
_cell_length_c 9.774640
_cell_angle_alpha 90.000000
_cell_angle_beta 118.694498
_cell_angle_gamma 90.000000
_cell_volume 779.448506
_symmetry_space_group_name_H-M "C 2"
_symmetry_group_IT_number 5
_symmetry_cell_setting 'monoclinic'
loop_
_space_group_symop_operation_xyz
x,y,z
-x,y,-z
1/2+x,1/2+y,z
1/2-x,1/2+y,-z
loop_
_atom_site_type_symbol
_atom_site_label
_atom_site_fract_x
_atom_site_fract_y
_atom_site_fract_z
Si Si1 0.187788 0.344730 0.408832
Si Si2 0.254137 0.470024 0.187993
Si Si3 0.327244 0.057436 0.379892
Si Si4 0.500000 0.620220 0.500000
Si Si5 0.181976 0.151406 0.046348
O O1 0.128132 0.439251 0.248555
O O2 0.305542 0.226506 0.408355
O O3 0.258408 0.448323 0.559383
O O4 0.071796 0.233215 0.424763
O O5 0.388048 0.518677 0.357037
O O6 0.245628 0.316035 0.102676
O O7 0.268829 0.593497 0.078316
O O8 0.500000 0.020538 0.500000
O O9 0.265965 0.046540 0.197942
O O10 0.000000 0.148677 0.000000
#
# Coordination Sequence:
#
# PCOD9129974 Si02
#       5
#     4   4   4   2   4
#     4  11  24  43  77 107 146 195 251 299 362 440
#     4  11  26  47  77 106 149 197 243 305 373 435
#     4  11  25  43  72 109 148 194 248 296 368 447
#     4  12  24  48  80 108 152 196 250 308 368 438
#     4  11  28  48  72 111 156 191 244 312 374 435
#
# _framework density 23.093250999999999
#
# number of rings (size 3 to 8) (size 9 to 14) (size 15 to 20)
#    0.000    0.889    3.333    2.667    9.333    3.556 
#    0.000    1.111    0.000    0.000    0.000    0.000 
#    0.000    0.000    0.000    0.000    0.000    0.000 
#
# Total GULP energy -50106.393649 kJ/mol
# GULP energy per Si atom -5567.377072 kJ/mol
# Density = 2.304069 g / cm^3
# Si number density = 23.093251 Si / 1000 Ang^3
#
#
#
# Elastic Constant Matrix: (Units=GPa)
#
#
# Indices 1 2 3 4 5 6 
#
# 1 80.6222 39.0090 48.7807 0.0000 -4.7274 0.0000
# 2 39.0090 118.0193 56.6218 0.0000 -13.9282 0.0000
# 3 48.7807 56.6218 170.7770 0.0000 -19.4472 0.0000
# 4 0.0000 0.0000 0.0000 18.8723 0.0000 -10.7588
# 5 -4.7274 -13.9282 -19.4472 0.0000 31.4336 0.0000
# 6 0.0000 0.0000 0.0000 -10.7588 0.0000 30.4873
#
#
#
# Elastic Compliance Matrix: (Units=1/GPa)
#
#
# Indices 1 2 3 4 5 6 
#
# 1 0.016338 -0.003869 -0.003550 0.000000 -0.001453 0.000000
# 2 -0.003869 0.011190 -0.002266 0.000000 0.002974 0.000000
# 3 -0.003550 -0.002266 0.008010 0.000000 0.003418 0.000000
# 4 0.000000 0.000000 0.000000 0.066332 0.000000 0.023408
# 5 -0.001453 0.002974 0.003418 0.000000 0.035027 0.000000
# 6 0.000000 0.000000 0.000000 0.023408 0.000000 0.041061
#
#
# Mechanical properties :
#
#
# Convention : Reuss Voigt Hill
#
# Bulk Modulus (GPa) = 61.84704 73.13796 67.49250
# Shear Modulus (GPa) = 24.66487 31.15911 27.91199
#
# Velocity S-wave (km/s) = 3.27166 3.67723 3.48036
# Velocity P-wave (km/s) = 6.41180 7.05470 6.74092
#
# Compressibility (1/GPa) = 0.01616892
#
# Stress axis : x y z
#
# Youngs Moduli (GPa) = 61.20755 89.36311 124.84245
#
# Poissons Ratio (x) = 0.34572 0.44313
# Poissons Ratio (y) = 0.23679 0.28295
# Poissons Ratio (z) = 0.21726 0.20253
#
# Static dielectric constant tensor:
#      x y z
#    x 2.103900 0.000000 -0.042590 
#    y 0.000000 1.881140 0.000000 
#    z -0.042590 0.000000 1.882940 
# 
# From -- ./inp_files/18414.got.cif
#   From: 2010.05.17/outbox.cif.g08.bks.cpg/sg5_10_cif.got.tgz:18414.got - 2010.06.03 18:56:24.
