data_PCOD9129139
_publ_section_title
;
Structure prediction by ZEFSAII (Michael W. Deem and Ramdas Pophale) SiO2 
 PCOD9129139
Probable space group: C 2
;
_chemical_formula_sum "Si O2"
_cell_formula_units_Z 28
_cell_length_a 16.652426
_cell_length_b 13.208417
_cell_length_c 6.714963
_cell_angle_alpha 90.000000
_cell_angle_beta 123.312041
_cell_angle_gamma 90.000000
_cell_volume 1234.292623
_symmetry_space_group_name_H-M "C 2"
_symmetry_group_IT_number 5
_symmetry_cell_setting 'monoclinic'
loop_
_space_group_symop_operation_xyz
x,y,z
-x,y,-z
1/2+x,1/2+y,z
1/2-x,1/2+y,-z
loop_
_atom_site_type_symbol
_atom_site_label
_atom_site_fract_x
_atom_site_fract_y
_atom_site_fract_z
Si Si1 0.500000 0.009851 0.000000
Si Si2 0.909483 0.000644 0.988416
Si Si3 0.820740 0.625078 0.923358
Si Si4 0.312120 0.684199 0.615331
Si Si5 0.826615 0.784186 0.269838
Si Si6 0.500000 0.439312 0.500000
Si Si7 0.222944 0.431533 0.880446
Si Si8 0.557376 0.850433 0.392849
O O1 0.406768 0.079510 0.906916
O O2 0.499177 0.933539 0.811349
O O3 0.867776 0.096927 0.814046
O O4 0.820804 0.925806 0.888355
O O5 0.000000 0.955068 0.000000
O O6 0.953262 0.010944 0.268849
O O7 0.732872 0.653420 0.658852
O O8 0.855166 0.713071 0.121555
O O9 0.783525 0.538061 0.020493
O O10 0.219098 0.720570 0.613824
O O11 0.390090 0.770877 0.677005
O O12 0.912082 0.862778 0.439327
O O13 0.734952 0.847744 0.065333
O O14 0.138401 0.414168 0.615673
O O15 0.500000 0.801928 0.500000
#
# Coordination Sequence:
#
# PCOD9129139 Si02
#       8
#     2   4   4   4   4   2   4   4
#     4  12  28  44  78 114 142 200 250 306 386 438
#     4  11  27  45  74 107 144 197 245 300 377 444
#     4  12  26  47  77 110 151 197 250 311 377 449
#     4  12  28  45  77 107 150 197 252 306 377 453
#     4  11  26  48  75 110 150 198 248 309 376 448
#     4  10  28  48  74 104 154 194 246 314 370 450
#     4  11  24  52  73 103 157 195 235 319 377 434
#     4  12  27  49  74 110 153 194 251 315 371 448
#
# _framework density 22.685058999999999
#
# number of rings (size 3 to 8) (size 9 to 14) (size 15 to 20)
#    0.000    0.571    4.286    1.714    9.000    1.143 
#    1.286    0.000    0.000    0.000    0.000    0.000 
#    0.000    0.000    0.000    0.000    0.000    0.000 
#
# Total GULP energy -78238.632173 kJ/mol
# GULP energy per Si atom -5588.473727 kJ/mol
# Density = 2.263343 g / cm^3
# Si number density = 22.685059 Si / 1000 Ang^3
#
#
#
# Elastic Constant Matrix: (Units=GPa)
#
#
# Indices 1 2 3 4 5 6 
#
# 1 96.5047 6.6780 8.6531 0.0000 -9.7563 0.0000
# 2 6.6780 64.8856 20.8053 0.0000 -9.2226 0.0000
# 3 8.6531 20.8053 98.3698 0.0000 8.9949 0.0000
# 4 0.0000 0.0000 0.0000 41.8454 0.0000 -6.0436
# 5 -9.7563 -9.2226 8.9949 0.0000 26.9017 0.0000
# 6 0.0000 0.0000 0.0000 -6.0436 0.0000 23.6641
#
#
#
# Elastic Compliance Matrix: (Units=1/GPa)
#
#
# Indices 1 2 3 4 5 6 
#
# 1 0.010932 -0.000068 -0.001349 0.000000 0.004392 0.000000
# 2 -0.000068 0.017941 -0.004486 0.000000 0.007626 0.000000
# 3 -0.001349 -0.004486 0.011779 0.000000 -0.005965 0.000000
# 4 0.000000 0.000000 0.000000 0.024813 0.000000 0.006337
# 5 0.004392 0.007626 -0.005965 0.000000 0.043374 0.000000
# 6 0.000000 0.000000 0.000000 0.006337 0.000000 0.043876
#
#
# Mechanical properties :
#
#
# Convention : Reuss Voigt Hill
#
# Bulk Modulus (GPa) = 34.66731 36.89253 35.77992
# Shear Modulus (GPa) = 28.71321 33.39049 31.05185
#
# Velocity S-wave (km/s) = 3.56157 3.84072 3.70378
# Velocity P-wave (km/s) = 5.67699 5.99720 5.83929
#
# Compressibility (1/GPa) = 0.02884562
#
# Stress axis : x y z
#
# Youngs Moduli (GPa) = 91.47548 55.73810 84.89977
#
# Poissons Ratio (x) = 0.00381 0.11451
# Poissons Ratio (y) = 0.00625 0.38085
# Poissons Ratio (z) = 0.12338 0.25003
#
# Static dielectric constant tensor:
#      x y z
#    x 1.885730 0.000000 -0.045240 
#    y 0.000000 1.836000 0.000000 
#    z -0.045240 0.000000 1.835240 
# 
# From -- ./inp_files/8717.got.cif
#   From: 2010.05.17/outbox.cif.g08.bks.cpg/sg5_5_cif.got.tgz:8717.got - 2010.06.03 18:56:24.
