data_PCOD9129919
_publ_section_title
;
Structure prediction by ZEFSAII (Michael W. Deem and Ramdas Pophale) SiO2 
 PCOD9129919
Probable space group: C 2
;
_chemical_formula_sum "Si O2"
_cell_formula_units_Z 20
_cell_length_a 19.546586
_cell_length_b 7.272560
_cell_length_c 19.815610
_cell_angle_alpha 90.000000
_cell_angle_beta 14.862392
_cell_angle_gamma 90.000000
_cell_volume 722.520836
_symmetry_space_group_name_H-M "C 2"
_symmetry_group_IT_number 5
_symmetry_cell_setting 'monoclinic'
loop_
_space_group_symop_operation_xyz
x,y,z
-x,y,-z
1/2+x,1/2+y,z
1/2-x,1/2+y,-z
loop_
_atom_site_type_symbol
_atom_site_label
_atom_site_fract_x
_atom_site_fract_y
_atom_site_fract_z
Si Si1 0.498831 0.648700 0.207880
Si Si2 0.117981 0.968923 0.549152
Si Si3 0.554291 0.286621 0.806919
Si Si4 0.885218 0.381078 0.676462
Si Si5 0.201189 0.288417 0.866444
O O1 0.225199 0.772122 0.474261
O O2 0.535906 0.607351 0.253033
O O3 0.578202 0.436099 0.114678
O O4 0.605120 0.738889 0.035461
O O5 0.943983 0.924413 0.649767
O O6 0.376990 0.086598 0.283435
O O7 0.846284 0.383348 0.535351
O O8 0.373428 0.289004 0.045272
O O9 0.800538 0.591008 0.744670
O O10 0.000000 0.291335 0.500000
O O11 0.000000 0.354344 0.000000
#
# Coordination Sequence:
#
# PCOD9129919 Si02
#       5
#     4   4   4   4   4
#     4  11  25  49  79 122 169 224 287 360 429 499
#     4  12  26  48  83 121 171 221 297 352 432 514
#     4  11  25  46  80 119 165 216 289 355 424 509
#     4  11  23  49  80 116 169 230 279 349 435 511
#     4  11  27  49  85 123 174 231 280 358 441 511
#
# _framework density 27.680862999999999
#
# number of rings (size 3 to 8) (size 9 to 14) (size 15 to 20)
#    0.000    0.800    4.000    3.000    2.800    4.800 
#    3.600    1.000    0.000    0.000    0.000    0.000 
#    0.000    0.000    0.000    0.000    0.000    0.000 
#
# Total GULP energy -55731.488982 kJ/mol
# GULP energy per Si atom -5573.148898 kJ/mol
# Density = 2.761786 g / cm^3
# Si number density = 27.680863 Si / 1000 Ang^3
#
#
#
# Elastic Constant Matrix: (Units=GPa)
#
#
# Indices 1 2 3 4 5 6 
#
# 1 111.6858 41.8162 61.6701 -0.0205 12.5664 -0.0133
# 2 41.8162 145.8514 42.6698 -0.0847 4.8837 0.2047
# 3 61.6701 42.6698 155.6240 -0.0387 20.5399 0.2467
# 4 -0.0205 -0.0847 -0.0387 18.7829 0.0289 -23.7632
# 5 12.5664 4.8837 20.5399 0.0289 34.5522 0.0887
# 6 -0.0133 0.2047 0.2467 -23.7632 0.0887 -32.5361
#
#
#
# Elastic Compliance Matrix: (Units=1/GPa)
#
#
# Indices 1 2 3 4 5 6 
#
# 1 0.012200 -0.002275 -0.003980 -0.000037 -0.001750 -0.000027
# 2 -0.002275 0.007879 -0.001325 0.000043 0.000501 0.000011
# 3 -0.003980 -0.001325 0.008844 0.000040 -0.003623 0.000021
# 4 -0.000037 0.000043 0.000040 0.027672 0.000012 -0.020210
# 5 -0.001750 0.000501 -0.003623 0.000012 0.031661 0.000054
# 6 -0.000027 0.000011 0.000021 -0.020210 0.000054 -0.015974
#
#
# Mechanical properties :
#
#
# Convention : Reuss Voigt Hill
#
# Bulk Modulus (GPa) = 72.65338 78.38595 75.51967
# Shear Modulus (GPa) = 54.33055 21.96015 38.14535
#
# Velocity S-wave (km/s) = 4.43510 2.81967 3.71622
# Velocity P-wave (km/s) = 7.24780 6.24339 6.76426
#
# Compressibility (1/GPa) = 0.01376398
#
# Stress axis : x y z
#
# Youngs Moduli (GPa) = 81.96858 126.91341 113.06671
#
# Poissons Ratio (x) = 0.28870 0.44999
# Poissons Ratio (y) = 0.18646 0.14983
# Poissons Ratio (z) = 0.32622 0.16818
#
# Static dielectric constant tensor:
#      x y z
#    x 2.922520 -0.000480 -0.420470 
#    y -0.000480 2.157830 0.000340 
#    z -0.420470 0.000340 2.506730 
# 
# From -- ./inp_files/62210.got.cif
#   From: 2010.05.17/outbox.cif.g08.bks.cpg/sg5_32_cif.got.tgz:62210.got - 2010.06.03 18:56:24.
