data_PCOD9129972
_publ_section_title
;
Structure prediction by ZEFSAII (Michael W. Deem and Ramdas Pophale) SiO2 
 PCOD9129972
Probable space group: C 2
;
_chemical_formula_sum "Si O2"
_cell_formula_units_Z 16
_cell_length_a 21.716513
_cell_length_b 5.073312
_cell_length_c 14.658520
_cell_angle_alpha 90.000000
_cell_angle_beta 24.157904
_cell_angle_gamma 90.000000
_cell_volume 660.942109
_symmetry_space_group_name_H-M "C 2"
_symmetry_group_IT_number 5
_symmetry_cell_setting 'monoclinic'
loop_
_space_group_symop_operation_xyz
x,y,z
-x,y,-z
1/2+x,1/2+y,z
1/2-x,1/2+y,-z
loop_
_atom_site_type_symbol
_atom_site_label
_atom_site_fract_x
_atom_site_fract_y
_atom_site_fract_z
Si Si1 0.644210 0.558150 0.852481
Si Si2 0.447342 0.390457 0.468661
Si Si3 0.352233 0.743093 0.458408
Si Si4 0.003184 0.748946 0.206283
O O1 0.696395 0.357476 0.702282
O O2 0.782944 0.752064 0.684448
O O3 0.500000 0.692684 0.000000
O O4 0.608820 0.381604 0.989397
O O5 0.500000 0.377880 0.500000
O O6 0.431459 0.685860 0.450078
O O7 0.552239 0.264287 0.246986
O O8 0.361457 0.453822 0.403206
O O9 0.447504 0.951694 0.271370
#
# Coordination Sequence:
#
# PCOD9129972 Si02
#       4
#     4   4   4   4
#     4  11  24  43  74 104 141 183 239 287 353 418
#     4   9  22  47  68 105 145 179 232 295 349 423
#     4   9  22  41  65  98 138 177 227 282 337 413
#     4   9  22  43  66 101 134 185 225 286 348 406
#
# _framework density 24.207871000000001
#
# number of rings (size 3 to 8) (size 9 to 14) (size 15 to 20)
#    1.500    1.000    0.000    0.000    3.500    9.000 
#    4.500    0.000    0.000    0.000    0.000    0.000 
#    0.000    0.000    0.000    0.000    0.000    0.000 
#
# Total GULP energy -44548.926220 kJ/mol
# GULP energy per Si atom -5568.615778 kJ/mol
# Density = 2.415277 g / cm^3
# Si number density = 24.207871 Si / 1000 Ang^3
#
#
#
# Elastic Constant Matrix: (Units=GPa)
#
#
# Indices 1 2 3 4 5 6 
#
# 1 186.1650 36.6032 54.2732 -0.0012 38.5472 -0.0043
# 2 36.6032 122.2762 34.9986 -0.0117 3.7553 0.0107
# 3 54.2732 34.9986 91.3391 -0.0095 33.2481 -0.0017
# 4 -0.0012 -0.0117 -0.0095 40.8869 0.0030 18.5493
# 5 38.5472 3.7553 33.2481 0.0030 37.8440 0.0032
# 6 -0.0043 0.0107 -0.0017 18.5493 0.0032 15.2649
#
#
#
# Elastic Compliance Matrix: (Units=1/GPa)
#
#
# Indices 1 2 3 4 5 6 
#
# 1 0.007382 -0.001562 -0.001628 -0.000005 -0.005934 0.000010
# 2 -0.001562 0.009788 -0.004481 0.000012 0.004556 -0.000023
# 3 -0.001628 -0.004481 0.018917 0.000001 -0.014517 0.000007
# 4 -0.000005 0.000012 0.000001 0.054506 0.000004 -0.066233
# 5 -0.005934 0.004556 -0.014517 0.000004 0.044770 -0.000021
# 6 0.000010 -0.000023 0.000007 -0.066233 -0.000021 0.145994
#
#
# Mechanical properties :
#
#
# Convention : Reuss Voigt Hill
#
# Bulk Modulus (GPa) = 48.20350 72.39227 60.29788
# Shear Modulus (GPa) = 16.46829 37.05952 26.76390
#
# Velocity S-wave (km/s) = 2.61106 3.91690 3.32864
# Velocity P-wave (km/s) = 5.38941 7.10109 6.30362
#
# Compressibility (1/GPa) = 0.02074538
#
# Stress axis : x y z
#
# Youngs Moduli (GPa) = 135.46716 102.16181 52.86303
#
# Poissons Ratio (x) = 0.15953 0.08606
# Poissons Ratio (y) = 0.21154 0.23690
# Poissons Ratio (z) = 0.22054 0.45782
#
# Static dielectric constant tensor:
#      x y z
#    x 2.037760 0.000000 0.005750 
#    y 0.000000 1.947320 0.000000 
#    z 0.005750 0.000000 1.945850 
# 
# From -- ./inp_files/45268.got.cif
#   From: 2010.05.17/outbox.cif.g08.bks.cpg/sg5_23_cif.got.tgz:45268.got - 2010.06.03 18:56:24.
