data_PCOD9129793
_publ_section_title
;
Structure prediction by ZEFSAII (Michael W. Deem and Ramdas Pophale) SiO2 
 PCOD9129793
Probable space group: C 2
;
_chemical_formula_sum "Si O2"
_cell_formula_units_Z 28
_cell_length_a 7.931767
_cell_length_b 11.521022
_cell_length_c 14.581877
_cell_angle_alpha 90.000000
_cell_angle_beta 122.774925
_cell_angle_gamma 90.000000
_cell_volume 1120.389282
_symmetry_space_group_name_H-M "C 2"
_symmetry_group_IT_number 5
_symmetry_cell_setting 'monoclinic'
loop_
_space_group_symop_operation_xyz
x,y,z
-x,y,-z
1/2+x,1/2+y,z
1/2-x,1/2+y,-z
loop_
_atom_site_type_symbol
_atom_site_label
_atom_site_fract_x
_atom_site_fract_y
_atom_site_fract_z
Si Si1 0.796531 0.632480 0.426593
Si Si2 0.944394 0.923312 0.090358
Si Si3 0.235706 0.262826 0.581285
Si Si4 0.383682 0.927518 0.857103
Si Si5 0.505176 0.451623 0.611032
Si Si6 0.871194 0.673861 0.806267
Si Si7 0.530057 0.678005 0.187835
O O1 0.831674 0.729689 0.512759
O O2 0.595544 0.576240 0.406544
O O3 0.731503 0.678490 0.309240
O O4 0.000000 0.559473 0.500000
O O5 0.017589 0.796068 0.146204
O O6 0.726685 0.930943 0.076537
O O7 0.034991 0.050094 0.144285
O O8 0.000000 0.916541 0.000000
O O9 0.346222 0.383540 0.629175
O O10 0.305643 0.175594 0.680578
O O11 0.000000 0.275863 0.500000
O O12 0.475431 0.799090 0.869538
O O13 0.213013 0.935185 0.725398
O O14 0.484832 0.054465 0.867509
O O15 0.500000 0.434785 0.500000
O O16 0.671296 0.679871 0.809886
#
# Coordination Sequence:
#
# PCOD9129793 Si02
#       7
#     4   4   4   4   4   4   4
#     4  12  23  38  62  99 141 192 235 273 348 422
#     4  11  26  49  74  99 137 182 237 303 358 411
#     4  12  21  37  62  97 140 186 231 277 342 425
#     4  11  23  44  68  99 139 178 230 290 349 417
#     4  12  23  40  59  96 145 189 232 289 339 418
#     4  11  23  45  68 103 141 183 232 288 350 424
#     4  11  24  46  70 104 142 184 232 291 351 426
#
# _framework density 24.991313999999999
#
# number of rings (size 3 to 8) (size 9 to 14) (size 15 to 20)
#    0.000    0.571    5.714    3.857    0.000    3.429 
#    2.571    0.714    0.000    0.000    0.000    0.000 
#    0.000    0.000    0.000    0.000    0.000    0.000 
#
# Total GULP energy -78072.854678 kJ/mol
# GULP energy per Si atom -5576.632477 kJ/mol
# Density = 2.493443 g / cm^3
# Si number density = 24.991314 Si / 1000 Ang^3
#
#
#
# Elastic Constant Matrix: (Units=GPa)
#
#
# Indices 1 2 3 4 5 6 
#
# 1 50.4771 34.7587 5.2714 0.0000 -12.6502 0.0000
# 2 34.7587 198.0393 46.1933 0.0000 -6.7147 0.0000
# 3 5.2714 46.1933 89.6803 0.0000 -27.1834 0.0000
# 4 0.0000 0.0000 0.0000 23.4112 0.0000 -16.9647
# 5 -12.6502 -6.7147 -27.1834 0.0000 32.2080 0.0000
# 6 0.0000 0.0000 0.0000 -16.9647 0.0000 43.3088
#
#
#
# Elastic Compliance Matrix: (Units=1/GPa)
#
#
# Indices 1 2 3 4 5 6 
#
# 1 0.026466 -0.005447 0.005451 0.000000 0.013860 0.000000
# 2 -0.005447 0.006934 -0.004652 0.000000 -0.004620 0.000000
# 3 0.005451 -0.004652 0.018250 0.000000 0.016574 0.000000
# 4 0.000000 0.000000 0.000000 0.059645 0.000000 0.023364
# 5 0.013860 -0.004620 0.016574 0.000000 0.049517 0.000000
# 6 0.000000 0.000000 0.000000 0.023364 0.000000 0.032242
#
#
# Mechanical properties :
#
#
# Convention : Reuss Voigt Hill
#
# Bulk Modulus (GPa) = 23.60986 56.73818 40.17402
# Shear Modulus (GPa) = 23.09819 36.58383 29.84101
#
# Velocity S-wave (km/s) = 3.04344 3.83020 3.45926
# Velocity P-wave (km/s) = 4.67095 6.50484 5.66263
#
# Compressibility (1/GPa) = 0.04235518
#
# Stress axis : x y z
#
# Youngs Moduli (GPa) = 37.78469 144.21998 54.79380
#
# Poissons Ratio (x) = 0.78551 -0.29868
# Poissons Ratio (y) = 0.20580 0.25488
# Poissons Ratio (z) = -0.20596 0.67087
#
# Static dielectric constant tensor:
#      x y z
#    x 2.010600 0.000000 0.121330 
#    y 0.000000 2.016330 0.000000 
#    z 0.121330 0.000000 2.150860 
# 
# From -- ./inp_files/50211.got.cif
#   From: 2010.05.17/outbox.cif.g08.bks.cpg/sg5_26_cif.got.tgz:50211.got - 2010.06.03 18:56:24.
