data_PCOD9129704
_publ_section_title
;
Structure prediction by ZEFSAII (Michael W. Deem and Ramdas Pophale) SiO2 
 PCOD9129704
Probable space group: C 2
;
_chemical_formula_sum "Si O2"
_cell_formula_units_Z 24
_cell_length_a 9.980788
_cell_length_b 11.686788
_cell_length_c 14.879558
_cell_angle_alpha 90.000000
_cell_angle_beta 144.871809
_cell_angle_gamma 90.000000
_cell_volume 998.678549
_symmetry_space_group_name_H-M "C 2"
_symmetry_group_IT_number 5
_symmetry_cell_setting 'monoclinic'
loop_
_space_group_symop_operation_xyz
x,y,z
-x,y,-z
1/2+x,1/2+y,z
1/2-x,1/2+y,-z
loop_
_atom_site_type_symbol
_atom_site_label
_atom_site_fract_x
_atom_site_fract_y
_atom_site_fract_z
Si Si1 0.962596 0.443900 0.688190
Si Si2 0.303093 0.786030 0.057617
Si Si3 0.733569 0.592554 0.824562
Si Si4 0.782208 0.797619 0.732562
Si Si5 0.739639 0.662278 0.150643
Si Si6 0.521526 0.358683 0.352734
O O1 0.046545 0.390887 0.827916
O O2 0.110245 0.384684 0.688000
O O3 0.047201 0.573991 0.737404
O O4 0.701034 0.404711 0.525356
O O5 0.369491 0.677289 0.155712
O O6 0.311951 0.746699 0.961001
O O7 0.031137 0.813893 0.917827
O O8 0.714128 0.668112 0.723043
O O9 0.613393 0.471604 0.752729
O O10 0.000000 0.576665 0.000000
O O11 0.827246 0.816972 0.651959
O O12 0.842323 0.755450 0.278256
O O13 0.500000 0.589988 0.000000
#
# Coordination Sequence:
#
# PCOD9129704 Si02
#       6
#     4   4   4   4   4   4
#     4  11  23  41  66  98 132 168 229 288 334 407
#     4   9  21  40  68  88 126 180 228 269 337 413
#     4   9  19  39  70  94 131 175 227 273 330 417
#     4   9  20  42  67  94 126 177 223 265 345 418
#     4  11  25  42  67  96 133 177 229 275 343 416
#     4  11  24  40  67 101 135 172 217 285 347 398
#
# _framework density 24.031756999999999
#
# number of rings (size 3 to 8) (size 9 to 14) (size 15 to 20)
#    0.000    2.000    0.000    3.500   11.667    0.000 
#    3.000    0.833    0.000    0.000    0.000    0.000 
#    0.000    0.000    0.000    0.000    0.000    0.000 
#
# Total GULP energy -66941.545163 kJ/mol
# GULP energy per Si atom -5578.462097 kJ/mol
# Density = 2.397706 g / cm^3
# Si number density = 24.031757 Si / 1000 Ang^3
#
#
#
# Elastic Constant Matrix: (Units=GPa)
#
#
# Indices 1 2 3 4 5 6 
#
# 1 56.4293 2.8956 -5.7498 0.0005 2.7200 0.0000
# 2 2.8956 155.7624 54.8488 0.0007 4.4810 -0.0001
# 3 -5.7498 54.8488 125.9257 0.0012 -2.4480 -0.0002
# 4 0.0005 0.0007 0.0012 4.5881 0.0007 20.4321
# 5 2.7200 4.4810 -2.4480 0.0007 18.2627 -0.0001
# 6 0.0000 -0.0001 -0.0002 20.4321 -0.0001 9.4638
#
#
#
# Elastic Compliance Matrix: (Units=1/GPa)
#
#
# Indices 1 2 3 4 5 6 
#
# 1 0.017976 -0.000636 0.001052 0.000000 -0.002380 0.000000
# 2 -0.000636 0.007704 -0.003428 0.000000 -0.002255 0.000000
# 3 0.001052 -0.003428 0.009521 0.000000 0.001961 -0.000001
# 4 0.000000 0.000000 0.000000 -0.025301 0.000001 0.054624
# 5 -0.002380 -0.002255 0.001961 0.000001 0.055927 -0.000002
# 6 0.000000 0.000000 -0.000001 0.054624 -0.000002 -0.012266
#
#
# Mechanical properties :
#
#
# Convention : Reuss Voigt Hill
#
# Bulk Modulus (GPa) = 34.27637 49.12294 41.69965
# Shear Modulus (GPa) = 72.13866 25.53779 48.83823
#
# Velocity S-wave (km/s) = 5.48482 3.26340 4.51292
# Velocity P-wave (km/s) = 7.37597 5.88939 6.67420
#
# Compressibility (1/GPa) = 0.02917461
#
# Stress axis : x y z
#
# Youngs Moduli (GPa) = 55.63033 129.80266 105.03495
#
# Poissons Ratio (x) = 0.08255 -0.11045
# Poissons Ratio (y) = 0.03538 0.36011
# Poissons Ratio (z) = -0.05850 0.44502
#
# Static dielectric constant tensor:
#      x y z
#    x 2.178370 0.000000 0.277520 
#    y 0.000000 1.914860 0.000000 
#    z 0.277520 0.000000 2.328430 
# 
# From -- ./inp_files/30911.got.cif
#   From: 2010.05.17/outbox.cif.g08.bks.cpg/sg5_16_cif.got.tgz:30911.got - 2010.06.03 18:56:24.
