data_PCOD9129368
_publ_section_title
;
Structure prediction by ZEFSAII (Michael W. Deem and Ramdas Pophale) SiO2 
 PCOD9129368
Probable space group: C 2
;
_chemical_formula_sum "Si O2"
_cell_formula_units_Z 24
_cell_length_a 16.106176
_cell_length_b 8.512724
_cell_length_c 14.655838
_cell_angle_alpha 90.000000
_cell_angle_beta 27.455603
_cell_angle_gamma 90.000000
_cell_volume 926.467484
_symmetry_space_group_name_H-M "C 2"
_symmetry_group_IT_number 5
_symmetry_cell_setting 'monoclinic'
loop_
_space_group_symop_operation_xyz
x,y,z
-x,y,-z
1/2+x,1/2+y,z
1/2-x,1/2+y,-z
loop_
_atom_site_type_symbol
_atom_site_label
_atom_site_fract_x
_atom_site_fract_y
_atom_site_fract_z
Si Si1 0.879473 0.591680 0.824031
Si Si2 0.784813 0.972563 0.199117
Si Si3 0.642440 0.702481 0.722867
Si Si4 0.263660 0.498172 0.511079
Si Si5 0.223286 0.401729 0.905425
Si Si6 0.788053 0.626214 0.238264
O O1 0.779786 0.505271 0.838819
O O2 0.850387 0.773552 0.828332
O O3 0.080269 0.524438 0.633495
O O4 0.806293 0.543274 0.994572
O O5 0.751256 0.122714 0.297312
O O6 0.715959 0.801208 0.293067
O O7 0.000000 0.963990 0.000000
O O8 0.590352 0.564806 0.701688
O O9 0.760952 0.820309 0.546680
O O10 0.467053 0.805674 0.921815
O O11 0.244547 0.591169 0.624280
O O12 0.288495 0.485446 0.749683
O O13 0.000000 0.625527 0.000000
#
# Coordination Sequence:
#
# PCOD9129368 Si02
#       6
#     4   4   4   4   4   4
#     4  11  23  37  65 101 127 176 229 289 322 405
#     4  11  23  39  68  98 130 177 228 276 343 398
#     4  11  23  43  65  98 137 185 217 278 347 405
#     4  11  25  41  68  96 139 178 228 279 339 405
#     4  11  23  41  68  99 136 172 237 280 334 401
#     4  11  21  42  66  98 128 181 226 274 333 415
#
# _framework density 25.904848000000001
#
# number of rings (size 3 to 8) (size 9 to 14) (size 15 to 20)
#    0.000    1.000    5.000    3.000    2.333    2.000 
#    0.000    0.000    0.000   11.000    0.000    0.000 
#    0.000    0.000    0.000    0.000    0.000    0.000 
#
# Total GULP energy -67175.283474 kJ/mol
# GULP energy per Si atom -5597.940289 kJ/mol
# Density = 2.584589 g / cm^3
# Si number density = 25.904848 Si / 1000 Ang^3
#
#
#
# Elastic Constant Matrix: (Units=GPa)
#
#
# Indices 1 2 3 4 5 6 
#
# 1 163.4444 57.3303 57.5809 0.0000 30.9995 0.0000
# 2 57.3303 157.8125 16.3198 0.0000 7.8688 0.0000
# 3 57.5809 16.3198 65.4234 0.0000 3.4455 0.0000
# 4 0.0000 0.0000 0.0000 28.7164 0.0000 20.3270
# 5 30.9995 7.8688 3.4455 0.0000 39.8835 0.0000
# 6 0.0000 0.0000 0.0000 20.3270 0.0000 57.7504
#
#
#
# Elastic Compliance Matrix: (Units=1/GPa)
#
#
# Indices 1 2 3 4 5 6 
#
# 1 0.011964 -0.002983 -0.009370 0.000000 -0.007901 0.000000
# 2 -0.002983 0.007301 0.000762 0.000000 0.000813 0.000000
# 3 -0.009370 0.000762 0.023071 0.000000 0.005139 0.000000
# 4 0.000000 0.000000 0.000000 0.046379 0.000000 -0.016324
# 5 -0.007901 0.000813 0.005139 0.000000 0.030610 0.000000
# 6 0.000000 0.000000 0.000000 -0.016324 0.000000 0.023062
#
#
# Mechanical properties :
#
#
# Convention : Reuss Voigt Hill
#
# Bulk Modulus (GPa) = 52.20979 72.12692 62.16836
# Shear Modulus (GPa) = 29.07751 42.30000 35.68876
#
# Velocity S-wave (km/s) = 3.35397 4.04530 3.71575
# Velocity P-wave (km/s) = 5.93271 7.05143 6.51612
#
# Compressibility (1/GPa) = 0.01915349
#
# Stress axis : x y z
#
# Youngs Moduli (GPa) = 83.58198 136.96410 43.34456
#
# Poissons Ratio (x) = 0.40863 0.40613
# Poissons Ratio (y) = 0.24937 -0.03302
# Poissons Ratio (z) = 0.78314 -0.10434
#
# Static dielectric constant tensor:
#      x y z
#    x 1.992000 0.000000 -0.036940 
#    y 0.000000 2.105250 0.000000 
#    z -0.036940 0.000000 2.116530 
# 
# From -- ./inp_files/54090.got.cif
#   From: 2010.05.17/outbox.cif.g08.bks.cpg/sg5_28_cif.got.tgz:54090.got - 2010.06.03 18:56:24.
