data_PCOD9129545
_publ_section_title
;
Structure prediction by ZEFSAII (Michael W. Deem and Ramdas Pophale) SiO2 
 PCOD9129545
Probable space group: C 2
;
_chemical_formula_sum "Si O2"
_cell_formula_units_Z 26
_cell_length_a 19.327643
_cell_length_b 9.457502
_cell_length_c 8.594383
_cell_angle_alpha 90.000000
_cell_angle_beta 126.191797
_cell_angle_gamma 90.000000
_cell_volume 1267.849538
_symmetry_space_group_name_H-M "C 2"
_symmetry_group_IT_number 5
_symmetry_cell_setting 'monoclinic'
loop_
_space_group_symop_operation_xyz
x,y,z
-x,y,-z
1/2+x,1/2+y,z
1/2-x,1/2+y,-z
loop_
_atom_site_type_symbol
_atom_site_label
_atom_site_fract_x
_atom_site_fract_y
_atom_site_fract_z
Si Si1 0.089606 0.104760 0.169896
Si Si2 0.289589 0.783492 0.897914
Si Si3 0.207255 0.863098 0.467870
Si Si4 0.000000 0.520489 0.500000
Si Si5 0.158624 0.583830 0.906557
Si Si6 0.094736 0.642516 0.156669
Si Si7 0.898115 0.370305 0.631517
O O1 0.137919 0.191545 0.096439
O O2 0.065260 0.222437 0.264356
O O3 0.155420 0.997630 0.337448
O O4 0.000000 0.036820 0.000000
O O5 0.234619 0.855564 0.684410
O O6 0.231769 0.672417 0.916452
O O7 0.323013 0.915096 0.046562
O O8 0.147991 0.729459 0.352748
O O9 0.295598 0.855314 0.488302
O O10 0.931236 0.603506 0.304120
O O11 0.942490 0.426983 0.537856
O O12 0.145456 0.640936 0.063056
O O13 0.085399 0.485340 0.211759
O O14 0.000000 0.699045 0.000000
#
# Coordination Sequence:
#
# PCOD9129545 Si02
#       7
#     4   4   4   2   4   4   4
#     4  11  22  43  68  97 130 175 222 274 336 397
#     4  11  27  44  68 100 136 177 225 277 337 400
#     4  11  24  43  68  96 134 179 220 274 340 401
#     4  12  24  40  70 102 130 176 228 284 318 400
#     4  12  26  45  67 101 138 174 227 279 337 395
#     4  12  23  44  70  96 130 182 227 274 334 402
#     4  11  22  42  70  95 129 174 232 272 331 396
#
# _framework density 20.507162999999998
#
# number of rings (size 3 to 8) (size 9 to 14) (size 15 to 20)
#    0.000    0.615    4.615    5.538    4.308    0.000 
#    0.000    0.000    0.000    0.000    0.000    0.000 
#    0.000    0.000    0.000    0.000    0.000    0.000 
#
# Total GULP energy -72665.501641 kJ/mol
# GULP energy per Si atom -5589.653972 kJ/mol
# Density = 2.046049 g / cm^3
# Si number density = 20.507163 Si / 1000 Ang^3
#
#
#
# Elastic Constant Matrix: (Units=GPa)
#
#
# Indices 1 2 3 4 5 6 
#
# 1 78.3047 9.8243 26.3829 0.0000 -5.1346 0.0000
# 2 9.8243 72.6720 23.3241 0.0000 9.2573 0.0000
# 3 26.3829 23.3241 104.1359 0.0000 19.3342 0.0000
# 4 0.0000 0.0000 0.0000 67.2103 0.0000 38.7963
# 5 -5.1346 9.2573 19.3342 0.0000 36.5364 0.0000
# 6 0.0000 0.0000 0.0000 38.7963 0.0000 68.7230
#
#
#
# Elastic Compliance Matrix: (Units=1/GPa)
#
#
# Indices 1 2 3 4 5 6 
#
# 1 0.014679 -0.001192 -0.004315 0.000000 0.004648 0.000000
# 2 -0.001192 0.015087 -0.002591 0.000000 -0.002619 0.000000
# 3 -0.004315 -0.002591 0.012495 0.000000 -0.006562 0.000000
# 4 0.000000 0.000000 0.000000 0.022071 0.000000 -0.012460
# 5 0.004648 -0.002619 -0.006562 0.000000 0.032159 0.000000
# 6 0.000000 0.000000 0.000000 -0.012460 0.000000 0.021585
#
#
# Mechanical properties :
#
#
# Convention : Reuss Voigt Hill
#
# Bulk Modulus (GPa) = 38.36552 41.57502 39.97027
# Shear Modulus (GPa) = 34.97519 47.53270 41.25394
#
# Velocity S-wave (km/s) = 4.13426 4.81964 4.49005
# Velocity P-wave (km/s) = 6.44504 7.16165 6.81277
#
# Compressibility (1/GPa) = 0.02606507
#
# Stress axis : x y z
#
# Youngs Moduli (GPa) = 68.12574 66.28340 80.03442
#
# Poissons Ratio (x) = 0.07898 0.34535
# Poissons Ratio (y) = 0.08118 0.20737
# Poissons Ratio (z) = 0.29396 0.17174
#
# Static dielectric constant tensor:
#      x y z
#    x 1.708600 0.000000 0.049250 
#    y 0.000000 1.736100 0.000000 
#    z 0.049250 0.000000 1.747190 
# 
# From -- ./inp_files/28899.got.cif
#   From: 2010.05.17/outbox.cif.g08.bks.cpg/sg5_15_cif.got.tgz:28899.got - 2010.06.03 18:56:24.
