data_PCOD9129269
_publ_section_title
;
Structure prediction by ZEFSAII (Michael W. Deem and Ramdas Pophale) SiO2 
 PCOD9129269
Probable space group: C 2
;
_chemical_formula_sum "Si O2"
_cell_formula_units_Z 32
_cell_length_a 11.428586
_cell_length_b 15.246541
_cell_length_c 18.394699
_cell_angle_alpha 90.000000
_cell_angle_beta 154.360783
_cell_angle_gamma 90.000000
_cell_volume 1386.903804
_symmetry_space_group_name_H-M "C 2"
_symmetry_group_IT_number 5
_symmetry_cell_setting 'monoclinic'
loop_
_space_group_symop_operation_xyz
x,y,z
-x,y,-z
1/2+x,1/2+y,z
1/2-x,1/2+y,-z
loop_
_atom_site_type_symbol
_atom_site_label
_atom_site_fract_x
_atom_site_fract_y
_atom_site_fract_z
Si Si1 0.185572 0.069030 0.309663
Si Si2 0.612909 0.387686 0.339720
Si Si3 0.765163 0.028216 0.822260
Si Si4 0.378699 0.847051 0.281111
Si Si5 0.887529 0.381310 0.852316
Si Si6 0.174916 0.527238 0.303631
Si Si7 0.170349 0.262977 0.310661
Si Si8 0.205419 0.724578 0.296436
O O1 0.500000 0.056870 0.500000
O O2 0.204175 0.078454 0.234405
O O3 0.090538 0.162831 0.285196
O O4 0.056280 0.979710 0.267602
O O5 0.916913 0.379770 0.540601
O O6 0.429949 0.383174 0.307985
O O7 0.560188 0.302378 0.260149
O O8 0.484558 0.021808 0.708696
O O9 0.827947 0.926400 0.841032
O O10 0.000000 0.068601 0.000000
O O11 0.537875 0.824590 0.297415
O O12 0.240891 0.760973 0.235688
O O13 0.930018 0.461886 0.818869
O O14 0.931444 0.296357 0.825442
O O15 0.000000 0.384095 0.000000
O O16 0.500000 0.515868 0.500000
O O17 0.102839 0.626254 0.239348
O O18 0.500000 0.267947 0.500000
O O19 0.500000 0.716988 0.500000
#
# Coordination Sequence:
#
# PCOD9129269 Si02
#       8
#     4   4   4   4   4   4   4   4
#     4  11  24  40  70  99 130 180 233 281 333 404
#     4  11  21  42  68  98 134 175 226 285 338 399
#     4  12  26  44  68  99 139 179 226 282 345 403
#     4  11  20  43  69  95 131 177 227 278 331 406
#     4  12  27  42  63  95 140 181 218 286 354 406
#     4  11  25  46  72 100 134 183 229 279 337 410
#     4  11  24  42  67 101 131 178 234 281 330 409
#     4   9  21  38  69 101 126 168 227 282 331 391
#
# _framework density 23.072979
#
# number of rings (size 3 to 8) (size 9 to 14) (size 15 to 20)
#    0.000    1.000    5.000    1.500    5.250    2.500 
#    0.000    0.625    0.000    0.000    0.000    0.000 
#    0.000    0.000    0.000    0.000    0.000    0.000 
#
# Total GULP energy -89239.531079 kJ/mol
# GULP energy per Si atom -5577.470692 kJ/mol
# Density = 2.302046 g / cm^3
# Si number density = 23.072979 Si / 1000 Ang^3
#
#
#
# Elastic Constant Matrix: (Units=GPa)
#
#
# Indices 1 2 3 4 5 6 
#
# 1 77.3734 12.7145 -12.2924 0.0079 -15.4186 0.0073
# 2 12.7145 127.3206 -18.1582 0.0058 -2.1655 0.0082
# 3 -12.2924 -18.1582 51.1495 0.0092 -24.7330 0.0135
# 4 0.0079 0.0058 0.0092 -17.1063 0.0091 -29.8835
# 5 -15.4186 -2.1655 -24.7330 0.0091 28.0552 0.0064
# 6 0.0073 0.0082 0.0135 -29.8835 0.0064 17.1791
#
#
#
# Elastic Compliance Matrix: (Units=1/GPa)
#
#
# Indices 1 2 3 4 5 6 
#
# 1 0.021867 0.001191 0.020103 0.000025 0.029832 0.000007
# 2 0.001191 0.008881 0.007123 0.000009 0.007620 0.000002
# 3 0.020103 0.007123 0.056681 0.000053 0.061567 0.000012
# 4 0.000025 0.000009 0.000053 -0.014474 0.000072 -0.025178
# 5 0.029832 0.007620 0.061567 0.000072 0.106904 0.000020
# 6 0.000007 0.000002 0.000012 -0.025178 0.000020 0.014413
#
#
# Mechanical properties :
#
#
# Convention : Reuss Voigt Hill
#
# Bulk Modulus (GPa) = 6.93176 24.48571 15.70873
# Shear Modulus (GPa) = 26.95054 23.86423 25.40739
#
# Velocity S-wave (km/s) = 3.42139 3.21953 3.32200
# Velocity P-wave (km/s) = 4.31494 4.94529 4.64083
#
# Compressibility (1/GPa) = 0.14426352
#
# Stress axis : x y z
#
# Youngs Moduli (GPa) = 45.73025 112.60275 17.64263
#
# Poissons Ratio (x) = -0.13408 -0.35467
# Poissons Ratio (y) = -0.05445 -0.12567
# Poissons Ratio (z) = -0.91932 -0.80210
#
# Static dielectric constant tensor:
#      x y z
#    x 1.845480 0.000000 -0.014940 
#    y 0.000000 1.866830 -0.000010 
#    z -0.014940 -0.000010 1.942080 
# 
# From -- ./inp_files/60713.got.cif
#   From: 2010.05.17/outbox.cif.g08.bks.cpg/sg5_31_cif.got.tgz:60713.got - 2010.06.03 18:56:24.
