data_PCOD9129236
_publ_section_title
;
Structure prediction by ZEFSAII (Michael W. Deem and Ramdas Pophale) SiO2 
 PCOD9129236
Probable space group: C 2
;
_chemical_formula_sum "Si O2"
_cell_formula_units_Z 22
_cell_length_a 15.843632
_cell_length_b 12.140976
_cell_length_c 8.227346
_cell_angle_alpha 90.000000
_cell_angle_beta 36.555162
_cell_angle_gamma 90.000000
_cell_volume 942.584287
_symmetry_space_group_name_H-M "C 2"
_symmetry_group_IT_number 5
_symmetry_cell_setting 'monoclinic'
loop_
_space_group_symop_operation_xyz
x,y,z
-x,y,-z
1/2+x,1/2+y,z
1/2-x,1/2+y,-z
loop_
_atom_site_type_symbol
_atom_site_label
_atom_site_fract_x
_atom_site_fract_y
_atom_site_fract_z
Si Si1 0.613591 0.238210 0.105900
Si Si2 0.232057 0.417760 0.289775
Si Si3 0.000000 0.555397 0.500000
Si Si4 0.158757 0.134539 0.811646
Si Si5 0.154516 0.555152 0.781858
Si Si6 0.808187 0.849911 0.546350
O O1 0.606185 0.143709 0.253972
O O2 0.468877 0.309920 0.322994
O O3 0.740267 0.324025 0.886430
O O4 0.620534 0.161328 0.938381
O O5 0.335945 0.521793 0.094300
O O6 0.267683 0.369111 0.415514
O O7 0.079733 0.475190 0.501326
O O8 0.268111 0.100582 0.498284
O O9 0.214256 0.254289 0.772384
O O10 0.000000 0.147730 0.000000
O O11 0.263102 0.467247 0.689397
O O12 0.000000 0.499679 0.000000
#
# Coordination Sequence:
#
# PCOD9129236 Si02
#       6
#     4   4   2   4   4   4
#     4  12  23  47  71  98 147 193 235 297 359 424
#     4  11  23  44  69 100 144 188 233 299 351 425
#     4  12  28  46  64 106 152 194 236 280 376 428
#     4  11  21  38  67 112 139 172 243 306 344 414
#     4  11  20  38  67 103 138 181 229 293 357 407
#     4  11  21  40  75 105 135 181 245 296 352 418
#
# _framework density 23.340087
#
# number of rings (size 3 to 8) (size 9 to 14) (size 15 to 20)
#    0.000    0.727    5.455    4.364    0.000    1.455 
#    3.273    0.000    0.000    0.000    0.000    0.000 
#    0.000    0.000    0.000    0.000    0.000    0.000 
#
# Total GULP energy -61333.591336 kJ/mol
# GULP energy per Si atom -5575.781031 kJ/mol
# Density = 2.328696 g / cm^3
# Si number density = 23.340087 Si / 1000 Ang^3
#
#
#
# Elastic Constant Matrix: (Units=GPa)
#
#
# Indices 1 2 3 4 5 6 
#
# 1 58.8338 9.1271 12.1042 0.0000 -8.8578 0.0000
# 2 9.1271 122.1658 17.2596 0.0000 -9.7495 0.0000
# 3 12.1042 17.2596 72.9878 0.0000 -12.2349 0.0000
# 4 0.0000 0.0000 0.0000 26.8681 0.0000 -7.3691
# 5 -8.8578 -9.7495 -12.2349 0.0000 26.7427 0.0000
# 6 0.0000 0.0000 0.0000 -7.3691 0.0000 35.3757
#
#
#
# Elastic Compliance Matrix: (Units=1/GPa)
#
#
# Indices 1 2 3 4 5 6 
#
# 1 0.018257 -0.000686 -0.002051 0.000000 0.004859 0.000000
# 2 -0.000686 0.008633 -0.001558 0.000000 0.002207 0.000000
# 3 -0.002051 -0.001558 0.015380 0.000000 0.005789 0.000000
# 4 0.000000 0.000000 0.000000 0.039474 0.000000 0.008223
# 5 0.004859 0.002207 0.005789 0.000000 0.042456 0.000000
# 6 0.000000 0.000000 0.000000 0.008223 0.000000 0.029981
#
#
# Mechanical properties :
#
#
# Convention : Reuss Voigt Hill
#
# Bulk Modulus (GPa) = 29.69143 36.77434 33.23289
# Shear Modulus (GPa) = 28.73604 32.16374 30.44989
#
# Velocity S-wave (km/s) = 3.51264 3.71623 3.61587
# Velocity P-wave (km/s) = 5.40373 5.84841 5.63046
#
# Compressibility (1/GPa) = 0.03367975
#
# Stress axis : x y z
#
# Youngs Moduli (GPa) = 54.77361 115.83315 65.02028
#
# Poissons Ratio (x) = 0.07952 0.13335
# Poissons Ratio (y) = 0.03760 0.10128
# Poissons Ratio (z) = 0.11234 0.18043
#
# Static dielectric constant tensor:
#      x y z
#    x 2.005860 0.000000 0.062950 
#    y 0.000000 1.901740 0.000000 
#    z 0.062950 0.000000 1.919980 
# 
# From -- ./inp_files/27654.got.cif
#   From: 2010.05.17/outbox.cif.g08.bks.cpg/sg5_14_cif.got.tgz:27654.got - 2010.06.03 18:56:24.
