data_PCOD9129923
_publ_section_title
;
Structure prediction by ZEFSAII (Michael W. Deem and Ramdas Pophale) SiO2 
 PCOD9129923
Probable space group: C 2
;
_chemical_formula_sum "Si O2"
_cell_formula_units_Z 20
_cell_length_a 13.205772
_cell_length_b 5.279403
_cell_length_c 20.347706
_cell_angle_alpha 90.000000
_cell_angle_beta 146.424294
_cell_angle_gamma 90.000000
_cell_volume 784.547600
_symmetry_space_group_name_H-M "C 2"
_symmetry_group_IT_number 5
_symmetry_cell_setting 'monoclinic'
loop_
_space_group_symop_operation_xyz
x,y,z
-x,y,-z
1/2+x,1/2+y,z
1/2-x,1/2+y,-z
loop_
_atom_site_type_symbol
_atom_site_label
_atom_site_fract_x
_atom_site_fract_y
_atom_site_fract_z
Si Si1 0.180094 0.417910 0.285932
Si Si2 0.317828 0.893898 0.570322
Si Si3 0.531244 0.512805 0.918038
Si Si4 0.808848 0.179111 0.240515
Si Si5 0.844679 0.782831 0.142238
O O1 0.240840 0.306043 0.388138
O O2 0.091632 0.220611 0.186713
O O3 0.332226 0.554659 0.324848
O O4 0.027878 0.620992 0.228519
O O5 0.252057 0.669990 0.486798
O O6 0.538839 0.892368 0.685638
O O7 0.396019 0.290176 0.867754
O O8 0.669075 0.430665 0.934303
O O9 0.663512 0.613755 0.046156
O O10 0.843944 0.978474 0.201615
#
# Coordination Sequence:
#
# PCOD9129923 Si02
#       5
#     4   4   4   4   4
#     4  11  26  50  76 111 155 200 264 324 387 482
#     4  12  29  56  82 110 155 207 268 346 402 453
#     4  11  24  47  78 111 159 206 255 313 390 488
#     4  11  28  50  76 116 157 205 265 325 393 479
#     4  11  23  51  73 115 165 208 249 317 397 477
#
# _framework density 25.492398999999999
#
# number of rings (size 3 to 8) (size 9 to 14) (size 15 to 20)
#    0.000    0.800    4.000    1.200    8.400    1.600 
#    7.200    0.000    0.000    0.000    0.000    0.000 
#    0.000    0.000    0.000    0.000    0.000    0.000 
#
# Total GULP energy -56026.071354 kJ/mol
# GULP energy per Si atom -5602.607135 kJ/mol
# Density = 2.543438 g / cm^3
# Si number density = 25.492399 Si / 1000 Ang^3
#
#
#
# Elastic Constant Matrix: (Units=GPa)
#
#
# Indices 1 2 3 4 5 6 
#
# 1 122.8296 29.4179 18.5069 0.0002 0.9178 -0.0003
# 2 29.4179 80.4273 8.6122 0.0002 -3.3584 0.0014
# 3 18.5069 8.6122 60.7800 0.0001 -7.7049 -0.0002
# 4 0.0002 0.0002 0.0001 39.6210 0.0000 9.2409
# 5 0.9178 -3.3584 -7.7049 0.0000 28.5731 0.0001
# 6 -0.0003 0.0014 -0.0002 9.2409 0.0001 60.6311
#
#
#
# Elastic Compliance Matrix: (Units=1/GPa)
#
#
# Indices 1 2 3 4 5 6 
#
# 1 0.009299 -0.003185 -0.002553 0.000000 -0.001361 0.000000
# 2 -0.003185 0.013746 -0.000787 0.000000 0.001506 0.000000
# 3 -0.002553 -0.000787 0.017954 0.000000 0.004831 0.000000
# 4 0.000000 0.000000 0.000000 0.026169 0.000000 -0.003989
# 5 -0.001361 0.001506 0.004831 0.000000 0.036521 0.000000
# 6 0.000000 0.000000 0.000000 -0.003989 0.000000 0.017101
#
#
# Mechanical properties :
#
#
# Convention : Reuss Voigt Hill
#
# Bulk Modulus (GPa) = 35.77898 41.90120 38.84009
# Shear Modulus (GPa) = 34.92694 39.59836 37.26265
#
# Velocity S-wave (km/s) = 3.70549 3.94552 3.82739
# Velocity P-wave (km/s) = 5.68974 6.10152 5.89923
#
# Compressibility (1/GPa) = 0.02794937
#
# Stress axis : x y z
#
# Youngs Moduli (GPa) = 107.53948 72.75041 55.69792
#
# Poissons Ratio (x) = 0.23169 0.14218
# Poissons Ratio (y) = 0.34249 0.04384
# Poissons Ratio (z) = 0.27452 0.05726
#
# Static dielectric constant tensor:
#      x y z
#    x 1.984800 0.000000 -0.039240 
#    y 0.000000 2.115520 0.000000 
#    z -0.039240 0.000000 2.056680 
# 
# From -- ./inp_files/65757.got.cif
#   From: 2010.05.17/outbox.cif.g08.bks.cpg/sg5_33_cif.got.tgz:65757.got - 2010.06.03 18:56:24.
