data_PCOD9129257
_publ_section_title
;
Structure prediction by ZEFSAII (Michael W. Deem and Ramdas Pophale) SiO2 
 PCOD9129257
Probable space group: C 2
;
_chemical_formula_sum "Si O2"
_cell_formula_units_Z 22
_cell_length_a 21.806839
_cell_length_b 6.331979
_cell_length_c 7.606634
_cell_angle_alpha 90.000000
_cell_angle_beta 115.659967
_cell_angle_gamma 90.000000
_cell_volume 946.743922
_symmetry_space_group_name_H-M "C 2"
_symmetry_group_IT_number 5
_symmetry_cell_setting 'monoclinic'
loop_
_space_group_symop_operation_xyz
x,y,z
-x,y,-z
1/2+x,1/2+y,z
1/2-x,1/2+y,-z
loop_
_atom_site_type_symbol
_atom_site_label
_atom_site_fract_x
_atom_site_fract_y
_atom_site_fract_z
Si Si1 0.247754 0.280130 0.249054
Si Si2 0.391353 0.167832 0.316618
Si Si3 0.922993 0.307669 0.646650
Si Si4 0.830009 0.944561 0.675011
Si Si5 0.000000 0.029185 0.500000
Si Si6 0.886438 0.553661 0.929158
O O1 0.313538 0.248508 0.210679
O O2 0.279360 0.325733 0.480983
O O3 0.189807 0.453938 0.144043
O O4 0.209677 0.058033 0.217647
O O5 0.436643 0.372330 0.409328
O O6 0.400608 0.989413 0.479233
O O7 0.414611 0.077081 0.158606
O O8 0.926999 0.409640 0.843197
O O9 0.987019 0.182582 0.648545
O O10 0.865596 0.128060 0.605613
O O11 0.880589 0.778205 0.824482
#
# Coordination Sequence:
#
# PCOD9129257 Si02
#       6
#     4   4   4   4   2   4
#     4  11  21  38  71 105 150 185 231 295 367 428
#     4  12  27  47  72 110 146 189 250 294 362 434
#     4  11  24  48  71  99 143 193 242 295 358 416
#     4  11  20  41  70 100 147 192 226 294 364 419
#     4  12  26  50  78  96 146 208 240 298 352 430
#     4  11  26  43  72 113 145 187 241 305 362 429
#
# _framework density 23.237542000000001
#
# number of rings (size 3 to 8) (size 9 to 14) (size 15 to 20)
#    0.000    0.727    5.455    1.636    2.545    2.909 
#    0.000   13.636    0.000    0.000    0.000    0.000 
#    0.000    0.000    0.000    0.000    0.000    0.000 
#
# Total GULP energy -61528.813194 kJ/mol
# GULP energy per Si atom -5593.528472 kJ/mol
# Density = 2.318465 g / cm^3
# Si number density = 23.237542 Si / 1000 Ang^3
#
#
#
# Elastic Constant Matrix: (Units=GPa)
#
#
# Indices 1 2 3 4 5 6 
#
# 1 111.2452 71.7640 26.9542 0.0000 -24.1324 0.0000
# 2 71.7640 132.6549 47.0811 0.0000 -14.9199 0.0000
# 3 26.9542 47.0811 95.5716 0.0000 -28.1834 0.0000
# 4 0.0000 0.0000 0.0000 24.6727 0.0000 -15.3200
# 5 -24.1324 -14.9199 -28.1834 0.0000 29.5797 0.0000
# 6 0.0000 0.0000 0.0000 -15.3200 0.0000 35.1591
#
#
#
# Elastic Compliance Matrix: (Units=1/GPa)
#
#
# Indices 1 2 3 4 5 6 
#
# 1 0.016420 -0.008659 0.003195 0.000000 0.012072 0.000000
# 2 -0.008659 0.013706 -0.006056 0.000000 -0.005921 0.000000
# 3 0.003195 -0.006056 0.017264 0.000000 0.016001 0.000000
# 4 0.000000 0.000000 0.000000 0.055564 0.000000 0.024211
# 5 0.012072 -0.005921 0.016001 0.000000 0.055915 0.000000
# 6 0.000000 0.000000 0.000000 0.024211 0.000000 0.038992
#
#
# Mechanical properties :
#
#
# Convention : Reuss Voigt Hill
#
# Bulk Modulus (GPa) = 41.06792 70.11892 55.59342
# Shear Modulus (GPa) = 21.83237 30.79380 26.31309
#
# Velocity S-wave (km/s) = 3.06850 3.64424 3.36870
# Velocity P-wave (km/s) = 5.50143 6.92443 6.25354
#
# Compressibility (1/GPa) = 0.02434991
#
# Stress axis : x y z
#
# Youngs Moduli (GPa) = 60.90229 72.96042 57.92300
#
# Poissons Ratio (x) = 0.63175 -0.18505
# Poissons Ratio (y) = 0.52734 0.35078
# Poissons Ratio (z) = -0.19457 0.44185
#
# Static dielectric constant tensor:
#      x y z
#    x 1.897390 0.000000 -0.012460 
#    y 0.000000 1.850910 0.000000 
#    z -0.012460 0.000000 1.825680 
# 
# From -- ./inp_files/28334.got.cif
#   From: 2010.05.17/outbox.cif.g08.bks.cpg/sg5_15_cif.got.tgz:28334.got - 2010.06.03 18:56:24.
