data_PCOD9129677
_publ_section_title
;
Structure prediction by ZEFSAII (Michael W. Deem and Ramdas Pophale) SiO2 
 PCOD9129677
Probable space group: C 2
;
_chemical_formula_sum "Si O2"
_cell_formula_units_Z 26
_cell_length_a 29.299968
_cell_length_b 8.247342
_cell_length_c 10.974399
_cell_angle_alpha 90.000000
_cell_angle_beta 27.006759
_cell_angle_gamma 90.000000
_cell_volume 1204.229316
_symmetry_space_group_name_H-M "C 2"
_symmetry_group_IT_number 5
_symmetry_cell_setting 'monoclinic'
loop_
_space_group_symop_operation_xyz
x,y,z
-x,y,-z
1/2+x,1/2+y,z
1/2-x,1/2+y,-z
loop_
_atom_site_type_symbol
_atom_site_label
_atom_site_fract_x
_atom_site_fract_y
_atom_site_fract_z
Si Si1 0.500000 0.815541 0.000000
Si Si2 0.091072 0.050599 0.452507
Si Si3 0.869133 0.755972 0.211556
Si Si4 0.145035 0.033291 0.050059
Si Si5 0.917361 0.720812 0.384291
Si Si6 0.345079 0.882928 0.566573
Si Si7 0.662372 0.631101 0.762276
O O1 0.589961 0.899531 0.712440
O O2 0.563735 0.716791 0.946817
O O3 0.117507 0.218610 0.458620
O O4 0.114518 0.887387 0.472861
O O5 0.145309 0.064032 0.192940
O O6 0.972559 0.024048 0.705063
O O7 0.892525 0.744013 0.300063
O O8 0.761635 0.672950 0.451043
O O9 0.857841 0.942975 0.206671
O O10 0.961626 0.692866 0.910985
O O11 0.180483 0.162768 0.862982
O O12 0.224464 0.886739 0.840962
O O13 0.869982 0.561968 0.561068
#
# Coordination Sequence:
#
# PCOD9129677 Si02
#       7
#     2   4   4   4   4   4   4
#     4  12  24  42  70 102 140 186 228 298 368 416
#     4  11  26  50  71  99 148 185 236 296 344 421
#     4  11  23  39  66 102 141 174 230 293 356 426
#     4  11  25  47  71 103 140 190 238 287 350 426
#     4  11  24  44  67 107 136 180 237 291 347 436
#     4  12  25  45  75 103 140 189 232 291 365 417
#     4  12  23  41  68 101 139 185 229 290 366 416
#
# _framework density 21.590572000000002
#
# number of rings (size 3 to 8) (size 9 to 14) (size 15 to 20)
#    0.000    0.615    4.615    3.692    4.308    0.000 
#    0.000    3.077    3.385    0.000    0.000    0.000 
#    0.000    0.000    0.000    0.000    0.000    0.000 
#
# Total GULP energy -72464.092870 kJ/mol
# GULP energy per Si atom -5574.160990 kJ/mol
# Density = 2.154143 g / cm^3
# Si number density = 21.590572 Si / 1000 Ang^3
#
#
#
# Elastic Constant Matrix: (Units=GPa)
#
#
# Indices 1 2 3 4 5 6 
#
# 1 88.9912 55.7783 40.0216 0.0000 10.5707 0.0000
# 2 55.7783 132.9217 38.0146 0.0000 7.3724 0.0000
# 3 40.0216 38.0146 144.5226 0.0000 -4.8472 0.0000
# 4 0.0000 0.0000 0.0000 36.6009 0.0000 -5.2013
# 5 10.5707 7.3724 -4.8472 0.0000 39.2028 0.0000
# 6 0.0000 0.0000 0.0000 -5.2013 0.0000 18.6861
#
#
#
# Elastic Compliance Matrix: (Units=1/GPa)
#
#
# Indices 1 2 3 4 5 6 
#
# 1 0.016873 -0.005942 -0.003238 0.000000 -0.003833 0.000000
# 2 -0.005942 0.010356 -0.001095 0.000000 -0.000481 0.000000
# 3 -0.003238 -0.001095 0.008174 0.000000 0.002090 0.000000
# 4 0.000000 0.000000 0.000000 0.028447 0.000000 0.007918
# 5 -0.003833 -0.000481 0.002090 0.000000 0.026891 0.000000
# 6 0.000000 0.000000 0.000000 0.007918 0.000000 0.055720
#
#
# Mechanical properties :
#
#
# Convention : Reuss Voigt Hill
#
# Bulk Modulus (GPa) = 67.32234 70.45161 68.88698
# Shear Modulus (GPa) = 29.07633 34.40602 31.74117
#
# Velocity S-wave (km/s) = 3.67374 3.99628 3.83840
# Velocity P-wave (km/s) = 7.01742 7.34815 7.18469
#
# Compressibility (1/GPa) = 0.01485391
#
# Stress axis : x y z
#
# Youngs Moduli (GPa) = 59.26724 96.55921 122.33756
#
# Poissons Ratio (x) = 0.57373 0.39614
# Poissons Ratio (y) = 0.35215 0.13394
# Poissons Ratio (z) = 0.19191 0.10571
#
# Static dielectric constant tensor:
#      x y z
#    x 1.853000 0.000000 -0.012850 
#    y 0.000000 1.809850 0.000000 
#    z -0.012850 0.000000 1.855850 
# 
# From -- ./inp_files/48281.got.cif
#   From: 2010.05.17/outbox.cif.g08.bks.cpg/sg5_25_cif.got.tgz:48281.got - 2010.06.03 18:56:24.
