data_PCOD9129136
_publ_section_title
;
Structure prediction by ZEFSAII (Michael W. Deem and Ramdas Pophale) SiO2 
 PCOD9129136
Probable space group: C 2
;
_chemical_formula_sum "Si O2"
_cell_formula_units_Z 16
_cell_length_a 7.739011
_cell_length_b 11.700421
_cell_length_c 10.865815
_cell_angle_alpha 90.000000
_cell_angle_beta 138.089721
_cell_angle_gamma 90.000000
_cell_volume 657.209247
_symmetry_space_group_name_H-M "C 2"
_symmetry_group_IT_number 5
_symmetry_cell_setting 'monoclinic'
loop_
_space_group_symop_operation_xyz
x,y,z
-x,y,-z
1/2+x,1/2+y,z
1/2-x,1/2+y,-z
loop_
_atom_site_type_symbol
_atom_site_label
_atom_site_fract_x
_atom_site_fract_y
_atom_site_fract_z
Si Si1 0.705513 0.679050 0.806924
Si Si2 0.539237 0.926067 0.749465
Si Si3 0.000000 0.004422 0.500000
Si Si4 0.218810 0.657154 0.720550
Si Si5 0.500000 0.845182 0.000000
O O1 0.652355 0.812077 0.748081
O O2 0.640804 0.589382 0.667675
O O3 0.496819 0.651535 0.802021
O O4 0.000000 0.668211 0.000000
O O5 0.230080 0.931663 0.563122
O O6 0.658350 0.041520 0.760487
O O7 0.573900 0.912419 0.915540
O O8 0.000000 0.672336 0.500000
O O9 0.258465 0.764868 0.831735
#
# Coordination Sequence:
#
# PCOD9129136 Si02
#       5
#     4   4   2   4   2
#     4  11  29  49  77 121 158 207 272 331 395 481
#     4  11  28  50  82 114 162 214 263 327 410 469
#     4  12  28  46  80 116 166 206 266 330 398 482
#     4  11  25  54  82 114 165 214 266 333 401 483
#     4  10  28  46  80 120 164 204 276 328 398 484
#
# _framework density 24.345367
#
# number of rings (size 3 to 8) (size 9 to 14) (size 15 to 20)
#    0.000    1.000    2.500    0.000   19.250    0.000 
#    4.500    0.000    0.000    0.000    0.000    0.000 
#    0.000    0.000    0.000    0.000    0.000    0.000 
#
# Total GULP energy -44855.965382 kJ/mol
# GULP energy per Si atom -5606.995673 kJ/mol
# Density = 2.428996 g / cm^3
# Si number density = 24.345367 Si / 1000 Ang^3
#
#
#
# Elastic Constant Matrix: (Units=GPa)
#
#
# Indices 1 2 3 4 5 6 
#
# 1 81.2427 55.5562 63.1247 0.0005 34.7902 0.0002
# 2 55.5562 140.9383 86.6130 -0.0001 -2.9691 0.0000
# 3 63.1247 86.6130 206.0361 0.0005 25.6403 0.0002
# 4 0.0005 -0.0001 0.0005 21.6788 0.0004 -6.7024
# 5 34.7902 -2.9691 25.6403 0.0004 45.2066 0.0002
# 6 0.0002 0.0000 0.0002 -6.7024 0.0002 58.8513
#
#
#
# Elastic Compliance Matrix: (Units=1/GPa)
#
#
# Indices 1 2 3 4 5 6 
#
# 1 0.032974 -0.012471 -0.001721 0.000000 -0.025219 0.000000
# 2 -0.012471 0.014714 -0.003959 0.000000 0.012809 0.000000
# 3 -0.001721 -0.003959 0.007437 0.000000 -0.003154 0.000000
# 4 0.000000 0.000000 0.000000 0.047811 0.000000 0.005445
# 5 -0.025219 0.012809 -0.003154 0.000000 0.044159 0.000000
# 6 0.000000 0.000000 0.000000 0.005445 0.000000 0.017612
#
#
# Mechanical properties :
#
#
# Convention : Reuss Voigt Hill
#
# Bulk Modulus (GPa) = 53.12716 93.20055 73.16385
# Shear Modulus (GPa) = 24.12147 40.00890 32.06519
#
# Velocity S-wave (km/s) = 3.15112 4.05827 3.63312
# Velocity P-wave (km/s) = 5.92529 7.76693 6.90776
#
# Compressibility (1/GPa) = 0.01882276
#
# Stress axis : x y z
#
# Youngs Moduli (GPa) = 30.32696 67.96295 134.45480
#
# Poissons Ratio (x) = 0.84759 0.23145
# Poissons Ratio (y) = 0.37822 0.53224
# Poissons Ratio (z) = 0.05221 0.26903
#
# Static dielectric constant tensor:
#      x y z
#    x 1.963330 0.000000 -0.046200 
#    y 0.000000 1.973390 0.000000 
#    z -0.046200 0.000000 1.942410 
# 
# From -- ./inp_files/13838.got.cif
#   From: 2010.05.17/outbox.cif.g08.bks.cpg/sg5_7_cif.got.tgz:13838.got - 2010.06.03 18:56:24.
