data_PCOD9129090
_publ_section_title
;
Structure prediction by ZEFSAII (Michael W. Deem and Ramdas Pophale) SiO2 
 PCOD9129090
Probable space group: C 2
;
_chemical_formula_sum "Si O2"
_cell_formula_units_Z 32
_cell_length_a 15.974560
_cell_length_b 5.734282
_cell_length_c 15.318655
_cell_angle_alpha 90.000000
_cell_angle_beta 76.207624
_cell_angle_gamma 90.000000
_cell_volume 1362.768422
_symmetry_space_group_name_H-M "C 2"
_symmetry_group_IT_number 5
_symmetry_cell_setting 'monoclinic'
loop_
_space_group_symop_operation_xyz
x,y,z
-x,y,-z
1/2+x,1/2+y,z
1/2-x,1/2+y,-z
loop_
_atom_site_type_symbol
_atom_site_label
_atom_site_fract_x
_atom_site_fract_y
_atom_site_fract_z
Si Si1 0.462671 0.274510 0.601115
Si Si2 0.781314 0.535464 0.686707
Si Si3 0.637402 0.493370 0.839062
Si Si4 0.679055 0.814316 0.594275
Si Si5 0.025547 0.312460 0.096216
Si Si6 0.342466 0.643359 0.584371
Si Si7 0.557740 0.110757 0.743812
Si Si8 0.201056 0.080193 0.008468
O O1 0.500000 0.179931 0.500000
O O2 0.371722 0.159150 0.649624
O O3 0.432661 0.532930 0.585840
O O4 0.521833 0.257295 0.670809
O O5 0.723503 0.614540 0.780544
O O6 0.715804 0.571180 0.621789
O O7 0.808065 0.269158 0.678874
O O8 0.550513 0.639397 0.855964
O O9 0.621557 0.261376 0.787727
O O10 0.657515 0.464578 0.934404
O O11 0.645952 0.798782 0.504689
O O12 0.764845 0.971704 0.577254
O O13 0.609241 0.909569 0.679381
O O14 0.014527 0.519223 0.169930
O O15 0.117706 0.183477 0.080767
O O16 0.000000 0.374965 0.000000
O O17 0.248290 0.337505 0.973336
#
# Coordination Sequence:
#
# PCOD9129090 Si02
#       8
#     4   4   4   4   4   4   4   4
#     4  11  29  44  65 108 158 206 258 322 395 459
#     4  11  23  44  67 103 140 193 252 323 376 461
#     4  11  26  46  78 113 152 201 268 323 397 487
#     4  11  22  39  75 102 135 200 257 319 378 460
#     4  10  26  49  78 114 154 207 256 327 396 488
#     4  11  23  42  68  99 147 195 261 309 396 449
#     4  12  26  47  77 112 154 201 270 320 400 472
#     4  11  29  53  85 121 164 209 259 333 415 484
#
# _framework density 23.481611000000001
#
# number of rings (size 3 to 8) (size 9 to 14) (size 15 to 20)
#    0.000    1.000    3.750    0.750   10.500    3.000 
#    0.000    0.000    0.000    0.000    0.000    0.000 
#    0.000    0.000    0.000    0.000    0.000    0.000 
#
# Total GULP energy -89139.735659 kJ/mol
# GULP energy per Si atom -5571.233479 kJ/mol
# Density = 2.342817 g / cm^3
# Si number density = 23.481611 Si / 1000 Ang^3
#
#
#
# Elastic Constant Matrix: (Units=GPa)
#
#
# Indices 1 2 3 4 5 6 
#
# 1 92.4041 38.6809 36.6968 0.0000 -17.6140 0.0000
# 2 38.6809 63.2380 32.3589 0.0000 -0.4192 0.0000
# 3 36.6968 32.3589 110.6633 0.0000 -22.5972 0.0000
# 4 0.0000 0.0000 0.0000 29.0228 0.0000 1.1257
# 5 -17.6140 -0.4192 -22.5972 0.0000 41.6759 0.0000
# 6 0.0000 0.0000 0.0000 1.1257 0.0000 41.8664
#
#
#
# Elastic Compliance Matrix: (Units=1/GPa)
#
#
# Indices 1 2 3 4 5 6 
#
# 1 0.016444 -0.009241 -0.001519 0.000000 0.006033 0.000000
# 2 -0.009241 0.024153 -0.005337 0.000000 -0.006556 0.000000
# 3 -0.001519 -0.005337 0.012323 0.000000 0.005986 0.000000
# 4 0.000000 0.000000 0.000000 0.034492 0.000000 -0.000927
# 5 0.006033 -0.006556 0.005986 0.000000 0.029724 0.000000
# 6 0.000000 0.000000 0.000000 -0.000927 0.000000 0.023910
#
#
# Mechanical properties :
#
#
# Convention : Reuss Voigt Hill
#
# Bulk Modulus (GPa) = 48.24772 53.53096 50.88934
# Shear Modulus (GPa) = 27.75489 33.08426 30.41958
#
# Velocity S-wave (km/s) = 3.44173 3.75766 3.60316
# Velocity P-wave (km/s) = 6.03205 6.45547 6.24735
#
# Compressibility (1/GPa) = 0.02072637
#
# Stress axis : x y z
#
# Youngs Moduli (GPa) = 60.81422 41.40235 81.14914
#
# Poissons Ratio (x) = 0.38260 0.12324
# Poissons Ratio (y) = 0.56198 0.43310
# Poissons Ratio (z) = 0.09236 0.22097
#
# Static dielectric constant tensor:
#      x y z
#    x 1.883860 0.000000 -0.026990 
#    y 0.000000 2.064170 0.000000 
#    z -0.026990 0.000000 1.952640 
# 
# From -- ./inp_files/55449.got.cif
#   From: 2010.05.17/outbox.cif.g08.bks.cpg/sg5_28_cif.got.tgz:55449.got - 2010.06.03 18:56:24.
