data_PCOD9129131
_publ_section_title
;
Structure prediction by ZEFSAII (Michael W. Deem and Ramdas Pophale) SiO2 
 PCOD9129131
Probable space group: C 2
;
_chemical_formula_sum "Si O2"
_cell_formula_units_Z 24
_cell_length_a 13.117644
_cell_length_b 14.612514
_cell_length_c 9.275548
_cell_angle_alpha 90.000000
_cell_angle_beta 134.999990
_cell_angle_gamma 90.000000
_cell_volume 1257.203079
_symmetry_space_group_name_H-M "C 2"
_symmetry_group_IT_number 5
_symmetry_cell_setting 'monoclinic'
loop_
_space_group_symop_operation_xyz
x,y,z
-x,y,-z
1/2+x,1/2+y,z
1/2-x,1/2+y,-z
loop_
_atom_site_type_symbol
_atom_site_label
_atom_site_fract_x
_atom_site_fract_y
_atom_site_fract_z
Si Si1 0.839316 0.411130 0.715416
Si Si2 0.623899 0.800203 0.963214
Si Si3 0.000000 0.131281 0.000000
Si Si4 0.500000 0.355666 0.000000
Si Si5 0.000000 0.105666 0.500000
Si Si6 0.271867 0.222409 0.832777
Si Si7 0.560910 0.488923 0.289043
Si Si8 0.000000 0.580052 0.000000
O O1 0.697194 0.432455 0.483715
O O2 0.966827 0.347344 0.777298
O O3 0.810473 0.363989 0.843645
O O4 0.907256 0.511118 0.810744
O O5 0.596511 0.700215 0.003766
O O6 0.713479 0.778878 0.910672
O O7 0.909358 0.067690 0.800436
O O8 0.362820 0.293027 0.828269
O O9 0.534551 0.418305 0.897371
O O10 0.138688 0.170642 0.626968
O O11 0.988281 0.040690 0.349593
O O12 0.391077 0.143642 0.981719
#
# Coordination Sequence:
#
# PCOD9129131 Si02
#       8
#     4   4   2   2   2   4   4   2
#     4   9  20  38  64  87 121 163 202 250 305 370
#     4   9  20  38  64  87 121 163 202 250 305 370
#     4   9  19  39  59  92 122 158 197 265 299 353
#     4  10  28  40  62  88 142 152 202 276 308 342
#     4  12  24  36  76  84 120 174 220 232 312 392
#     4  11  22  40  61  94 123 165 205 256 308 366
#     4  11  22  40  61  94 123 165 205 256 308 366
#     4   9  19  39  59  92 122 158 197 265 299 353
#
# _framework density 19.089994000000001
#
# number of rings (size 3 to 8) (size 9 to 14) (size 15 to 20)
#    0.000    2.333    3.333    0.000    4.667    0.000 
#    0.000    0.000    0.000    0.000    0.000    0.000 
#    0.000    0.000    0.000    0.000    0.000    0.000 
#
# Total GULP energy -66810.132188 kJ/mol
# GULP energy per Si atom -5567.511016 kJ/mol
# Density = 1.904654 g / cm^3
# Si number density = 19.089994 Si / 1000 Ang^3
#
#
#
# Elastic Constant Matrix: (Units=GPa)
#
#
# Indices 1 2 3 4 5 6 
#
# 1 59.1684 25.3407 -7.8632 0.0000 -4.8573 0.0000
# 2 25.3407 101.0565 25.3400 0.0000 0.0003 0.0000
# 3 -7.8632 25.3400 59.1656 0.0000 4.8585 0.0000
# 4 0.0000 0.0000 0.0000 21.4768 0.0000 -0.0006
# 5 -4.8573 0.0003 4.8585 0.0000 18.2913 0.0000
# 6 0.0000 0.0000 0.0000 -0.0006 0.0000 21.4768
#
#
#
# Elastic Compliance Matrix: (Units=1/GPa)
#
#
# Indices 1 2 3 4 5 6 
#
# 1 0.020712 -0.006497 0.005197 0.000000 0.004120 0.000000
# 2 -0.006497 0.013154 -0.006497 0.000000 0.000000 0.000000
# 3 0.005197 -0.006497 0.020714 0.000000 -0.004122 0.000000
# 4 0.000000 0.000000 0.000000 0.046562 0.000000 0.000001
# 5 0.004120 0.000000 -0.004122 0.000000 0.056860 0.000000
# 6 0.000000 0.000000 0.000000 0.000001 0.000000 0.046562
#
#
# Mechanical properties :
#
#
# Convention : Reuss Voigt Hill
#
# Bulk Modulus (GPa) = 25.65061 33.89173 29.77117
# Shear Modulus (GPa) = 21.44522 24.02052 22.73287
#
# Velocity S-wave (km/s) = 3.35531 3.55107 3.45458
# Velocity P-wave (km/s) = 5.33636 5.88266 5.61615
#
# Compressibility (1/GPa) = 0.03898543
#
# Stress axis : x y z
#
# Youngs Moduli (GPa) = 48.28056 76.02393 48.27764
#
# Poissons Ratio (x) = 0.49392 -0.25090
# Poissons Ratio (y) = 0.31367 0.31366
# Poissons Ratio (z) = -0.25091 0.49394
#
# Static dielectric constant tensor:
#      x y z
#    x 1.708790 0.000000 0.000000 
#    y 0.000000 1.684980 0.000000 
#    z 0.000000 0.000000 1.708790 
# 
# From -- ./inp_files/24776.got.cif
#   From: 2010.05.17/outbox.cif.g08.bks.cpg/sg5_13_cif.got.tgz:24776.got - 2010.06.03 18:56:24.
