data_PCOD9129134
_publ_section_title
;
Structure prediction by ZEFSAII (Michael W. Deem and Ramdas Pophale) SiO2 
 PCOD9129134
Probable space group: C 2
;
_chemical_formula_sum "Si O2"
_cell_formula_units_Z 18
_cell_length_a 13.476032
_cell_length_b 4.952130
_cell_length_c 10.742581
_cell_angle_alpha 90.000000
_cell_angle_beta 91.709362
_cell_angle_gamma 90.000000
_cell_volume 716.587789
_symmetry_space_group_name_H-M "C 2"
_symmetry_group_IT_number 5
_symmetry_cell_setting 'monoclinic'
loop_
_space_group_symop_operation_xyz
x,y,z
-x,y,-z
1/2+x,1/2+y,z
1/2-x,1/2+y,-z
loop_
_atom_site_type_symbol
_atom_site_label
_atom_site_fract_x
_atom_site_fract_y
_atom_site_fract_z
Si Si1 0.882530 0.937460 0.789513
Si Si2 0.164887 0.295415 0.825999
Si Si3 0.500000 0.776326 0.000000
Si Si4 0.183819 0.989104 0.474978
Si Si5 0.920422 0.775899 0.298960
O O1 0.782424 0.821351 0.845763
O O2 0.851422 0.090904 0.661338
O O3 0.966020 0.736997 0.737928
O O4 0.941626 0.108189 0.892929
O O5 0.092874 0.410819 0.932189
O O6 0.133389 0.490872 0.711945
O O7 0.133809 0.988967 0.795944
O O8 0.243252 0.708466 0.462655
O O9 0.097563 0.912338 0.568554
#
# Coordination Sequence:
#
# PCOD9129134 Si02
#       5
#     4   4   2   4   4
#     4  11  25  47  75 103 149 189 235 302 349 433
#     4  11  25  47  72 102 148 186 241 295 348 428
#     4  10  28  46  72 112 140 200 242 284 362 428
#     4  12  23  45  75 107 144 185 236 299 367 421
#     4  11  24  45  72 110 138 188 238 292 368 418
#
# _framework density 25.119045
#
# number of rings (size 3 to 8) (size 9 to 14) (size 15 to 20)
#    0.000    0.889    4.444    0.667    0.000   16.000 
#    0.000    6.667    0.000    0.000    0.000    0.000 
#    0.000    0.000    0.000    0.000    0.000    0.000 
#
# Total GULP energy -50310.623415 kJ/mol
# GULP energy per Si atom -5590.069268 kJ/mol
# Density = 2.506187 g / cm^3
# Si number density = 25.119045 Si / 1000 Ang^3
#
#
#
# Elastic Constant Matrix: (Units=GPa)
#
#
# Indices 1 2 3 4 5 6 
#
# 1 240.6409 33.9274 44.8838 0.0000 -28.5030 0.0000
# 2 33.9274 85.3672 7.3660 0.0000 1.7308 0.0000
# 3 44.8838 7.3660 127.4636 0.0000 -1.4087 0.0000
# 4 0.0000 0.0000 0.0000 25.3469 0.0000 -2.3864
# 5 -28.5030 1.7308 -1.4087 0.0000 52.0701 0.0000
# 6 0.0000 0.0000 0.0000 -2.3864 0.0000 25.1812
#
#
#
# Elastic Compliance Matrix: (Units=1/GPa)
#
#
# Indices 1 2 3 4 5 6 
#
# 1 0.005064 -0.001928 -0.001641 0.000000 0.002792 0.000000
# 2 -0.001928 0.012515 -0.000061 0.000000 -0.001473 0.000000
# 3 -0.001641 -0.000061 0.008419 0.000000 -0.000668 0.000000
# 4 0.000000 0.000000 0.000000 0.039808 0.000000 0.003773
# 5 0.002792 -0.001473 -0.000668 0.000000 0.020764 0.000000
# 6 0.000000 0.000000 0.000000 0.003773 0.000000 0.040070
#
#
# Mechanical properties :
#
#
# Convention : Reuss Voigt Hill
#
# Bulk Modulus (GPa) = 53.36168 69.53622 61.44895
# Shear Modulus (GPa) = 35.67720 45.00594 40.34157
#
# Velocity S-wave (km/s) = 3.77281 4.23745 4.01186
# Velocity P-wave (km/s) = 6.34574 7.18916 6.78058
#
# Compressibility (1/GPa) = 0.01874004
#
# Stress axis : x y z
#
# Youngs Moduli (GPa) = 197.46919 79.90219 118.77427
#
# Poissons Ratio (x) = 0.15402 0.19490
# Poissons Ratio (y) = 0.38065 0.00722
# Poissons Ratio (z) = 0.32404 0.00485
#
# Static dielectric constant tensor:
#      x y z
#    x 2.016070 0.000000 -0.048060 
#    y 0.000000 1.940560 0.000000 
#    z -0.048060 0.000000 2.080640 
# 
# From -- ./inp_files/37739.got.cif
#   From: 2010.05.17/outbox.cif.g08.bks.cpg/sg5_19_cif.got.tgz:37739.got - 2010.06.03 18:56:24.
