data_PCOD9129200
_publ_section_title
;
Structure prediction by ZEFSAII (Michael W. Deem and Ramdas Pophale) SiO2 
 PCOD9129200
Probable space group: C 2
;
_chemical_formula_sum "Si O2"
_cell_formula_units_Z 32
_cell_length_a 13.313579
_cell_length_b 15.853129
_cell_length_c 15.565407
_cell_angle_alpha 90.000000
_cell_angle_beta 25.939023
_cell_angle_gamma 90.000000
_cell_volume 1437.021707
_symmetry_space_group_name_H-M "C 2"
_symmetry_group_IT_number 5
_symmetry_cell_setting 'monoclinic'
loop_
_space_group_symop_operation_xyz
x,y,z
-x,y,-z
1/2+x,1/2+y,z
1/2-x,1/2+y,-z
loop_
_atom_site_type_symbol
_atom_site_label
_atom_site_fract_x
_atom_site_fract_y
_atom_site_fract_z
Si Si1 0.168445 0.319060 0.120930
Si Si2 0.999549 0.641826 0.769573
Si Si3 0.513912 0.716272 0.086514
Si Si4 0.191271 0.045416 0.778473
Si Si5 0.201778 0.554281 0.908030
Si Si6 0.505234 0.421130 0.776179
Si Si7 0.958248 0.473673 0.361453
Si Si8 0.995689 0.200397 0.401363
O O1 0.006643 0.281458 0.170795
O O2 0.129260 0.414686 0.178514
O O3 0.133231 0.265339 0.234238
O O4 0.412787 0.333435 0.885868
O O5 0.084963 0.555363 0.661065
O O6 0.226071 0.697849 0.587435
O O7 0.767662 0.673931 0.901835
O O8 0.911976 0.615967 0.932250
O O9 0.324483 0.641922 0.242331
O O10 0.500000 0.750649 0.000000
O O11 0.095725 0.983798 0.780218
O O12 0.419880 0.009742 0.646954
O O13 0.000000 0.045226 0.000000
O O14 0.322443 0.474773 0.860984
O O15 0.385134 0.610887 0.714290
O O16 0.000000 0.526625 0.000000
O O17 0.737634 0.414875 0.542979
O O18 0.000000 0.217769 0.500000
#
# Coordination Sequence:
#
# PCOD9129200 Si02
#       8
#     4   4   4   4   4   4   4   4
#     4  12  27  47  68 109 156 194 240 325 394 437
#     4  12  22  46  74 105 139 197 259 304 369 471
#     4  11  23  45  77 104 150 199 249 307 388 457
#     4  11  19  45  74 105 134 194 248 302 371 457
#     4  12  23  44  76 102 137 195 248 314 366 456
#     4  12  25  45  73 103 145 191 250 318 384 448
#     4  12  25  44  77 105 144 195 258 312 378 458
#     4  12  27  45  73 111 146 197 255 309 385 463
#
# _framework density 22.268279
#
# number of rings (size 3 to 8) (size 9 to 14) (size 15 to 20)
#    0.000    0.250   10.000    0.375    1.750    1.500 
#    4.500    0.625    2.750    0.000    0.000    0.000 
#    0.000    0.000    0.000    0.000    0.000    0.000 
#
# Total GULP energy -89352.941158 kJ/mol
# GULP energy per Si atom -5584.558822 kJ/mol
# Density = 2.221760 g / cm^3
# Si number density = 22.268279 Si / 1000 Ang^3
#
#
#
# Elastic Constant Matrix: (Units=GPa)
#
#
# Indices 1 2 3 4 5 6 
#
# 1 122.5602 39.5597 45.8960 0.0215 10.2959 0.0046
# 2 39.5597 75.5496 31.1659 0.1531 -1.4481 -0.0174
# 3 45.8960 31.1659 114.2736 0.1132 -13.6278 -0.0016
# 4 0.0215 0.1531 0.1132 34.7760 -0.0194 7.9407
# 5 10.2959 -1.4481 -13.6278 -0.0194 37.7582 -0.0121
# 6 0.0046 -0.0174 -0.0016 7.9407 -0.0121 17.7887
#
#
#
# Elastic Compliance Matrix: (Units=1/GPa)
#
#
# Indices 1 2 3 4 5 6 
#
# 1 0.011481 -0.004471 -0.003956 0.000028 -0.004730 -0.000024
# 2 -0.004471 0.016687 -0.002648 -0.000073 0.000903 0.000050
# 3 -0.003956 -0.002648 0.011681 -0.000024 0.005193 0.000014
# 4 0.000028 -0.000073 -0.000024 0.032020 -0.000007 -0.014293
# 5 -0.004730 0.000903 0.005193 -0.000007 0.029683 0.000026
# 6 -0.000024 0.000050 0.000014 -0.014293 0.000026 0.062596
#
#
# Mechanical properties :
#
#
# Convention : Reuss Voigt Hill
#
# Bulk Modulus (GPa) = 56.49498 60.62520 58.56009
# Shear Modulus (GPa) = 26.01503 31.11536 28.56520
#
# Velocity S-wave (km/s) = 3.42168 3.74210 3.58547
# Velocity P-wave (km/s) = 6.40592 6.77902 6.59511
#
# Compressibility (1/GPa) = 0.01770069
#
# Stress axis : x y z
#
# Youngs Moduli (GPa) = 87.10032 59.92707 85.60734
#
# Poissons Ratio (x) = 0.26791 0.33866
# Poissons Ratio (y) = 0.38939 0.22666
# Poissons Ratio (z) = 0.34457 0.15867
#
# Static dielectric constant tensor:
#      x y z
#    x 1.810220 0.000010 0.021800 
#    y 0.000010 1.820820 -0.000020 
#    z 0.021800 -0.000020 1.879300 
# 
# From -- ./inp_files/53447.got.cif
#   From: 2010.05.17/outbox.cif.g08.bks.cpg/sg5_27_cif.got.tgz:53447.got - 2010.06.03 18:56:24.
