data_PCOD9129990
_publ_section_title
;
Structure prediction by ZEFSAII (Michael W. Deem and Ramdas Pophale) SiO2 
 PCOD9129990
Probable space group: C 2
;
_chemical_formula_sum "Si O2"
_cell_formula_units_Z 20
_cell_length_a 13.436183
_cell_length_b 5.277693
_cell_length_c 24.150179
_cell_angle_alpha 90.000000
_cell_angle_beta 151.775682
_cell_angle_gamma 90.000000
_cell_volume 809.901965
_symmetry_space_group_name_H-M "C 2"
_symmetry_group_IT_number 5
_symmetry_cell_setting 'monoclinic'
loop_
_space_group_symop_operation_xyz
x,y,z
-x,y,-z
1/2+x,1/2+y,z
1/2-x,1/2+y,-z
loop_
_atom_site_type_symbol
_atom_site_label
_atom_site_fract_x
_atom_site_fract_y
_atom_site_fract_z
Si Si1 0.062063 0.594160 0.360510
Si Si2 0.998689 0.912533 0.440049
Si Si3 0.850805 0.055011 0.075633
Si Si4 0.741271 0.233497 0.241055
Si Si5 0.284975 0.894642 0.874007
O O1 0.046190 0.737606 0.411040
O O2 0.298480 0.594399 0.455478
O O3 0.967441 0.319303 0.328100
O O4 0.896913 0.713425 0.237006
O O5 0.000000 0.777028 0.500000
O O6 0.791242 0.066186 0.319575
O O7 0.807823 0.049573 0.119941
O O8 0.091376 0.969923 0.181142
O O9 0.719529 0.821684 0.984077
O O10 0.650723 0.072426 0.145872
O O11 0.500000 0.761801 0.000000
#
# Coordination Sequence:
#
# PCOD9129990 Si02
#       5
#     4   4   4   4   4
#     4  11  24  44  71 102 147 187 248 301 374 439
#     4  11  24  45  69 105 141 188 245 306 369 441
#     4  12  27  47  73 111 151 196 253 304 375 452
#     4  11  25  44  72 104 145 195 244 305 372 444
#     4  11  24  45  71 105 146 191 238 311 369 441
#
# _framework density 24.694345999999999
#
# number of rings (size 3 to 8) (size 9 to 14) (size 15 to 20)
#    0.000    0.800    4.000    2.400    5.600    3.200 
#    0.000    0.000    0.000    0.000    0.000    0.000 
#    0.000    0.000    0.000    0.000    0.000    0.000 
#
# Total GULP energy -55978.048225 kJ/mol
# GULP energy per Si atom -5597.804822 kJ/mol
# Density = 2.463814 g / cm^3
# Si number density = 24.694346 Si / 1000 Ang^3
#
#
#
# Elastic Constant Matrix: (Units=GPa)
#
#
# Indices 1 2 3 4 5 6 
#
# 1 88.2950 8.8611 45.0593 -0.0009 -18.9682 0.0025
# 2 8.8611 53.5492 17.7517 -0.0033 -12.5325 0.0069
# 3 45.0593 17.7517 142.7379 0.0018 -14.9785 0.0005
# 4 -0.0009 -0.0033 0.0018 30.8068 0.0000 13.0269
# 5 -18.9682 -12.5325 -14.9785 0.0000 50.0229 -0.0011
# 6 0.0025 0.0069 0.0005 13.0269 -0.0011 26.1527
#
#
#
# Elastic Compliance Matrix: (Units=1/GPa)
#
#
# Indices 1 2 3 4 5 6 
#
# 1 0.014309 -0.000035 -0.004072 0.000001 0.004198 -0.000002
# 2 -0.000035 0.020412 -0.002057 0.000006 0.004485 -0.000008
# 3 -0.004072 -0.002057 0.008601 -0.000001 0.000516 0.000002
# 4 0.000001 0.000006 -0.000001 0.041122 0.000001 -0.020483
# 5 0.004198 0.004485 0.000516 0.000001 0.022861 -0.000001
# 6 -0.000002 -0.000008 0.000002 -0.020483 -0.000001 0.048440
#
#
# Mechanical properties :
#
#
# Convention : Reuss Voigt Hill
#
# Bulk Modulus (GPa) = 32.26500 47.54736 39.90618
# Shear Modulus (GPa) = 28.02622 35.59048 31.80835
#
# Velocity S-wave (km/s) = 3.37252 3.80049 3.59288
# Velocity P-wave (km/s) = 5.31595 6.20922 5.77987
#
# Compressibility (1/GPa) = 0.03099334
#
# Stress axis : x y z
#
# Youngs Moduli (GPa) = 69.88535 48.99163 116.26157
#
# Poissons Ratio (x) = 0.00174 0.47344
# Poissons Ratio (y) = 0.00248 0.23912
# Poissons Ratio (z) = 0.28459 0.10076
#
# Static dielectric constant tensor:
#      x y z
#    x 1.954030 0.000000 0.057730 
#    y 0.000000 1.971530 0.000000 
#    z 0.057730 0.000000 2.016460 
# 
# From -- ./inp_files/45351.got.cif
#   From: 2010.05.17/outbox.cif.g08.bks.cpg/sg5_23_cif.got.tgz:45351.got - 2010.06.03 18:56:24.
