data_PCOD9129511
_publ_section_title
;
Structure prediction by ZEFSAII (Michael W. Deem and Ramdas Pophale) SiO2 
 PCOD9129511
Probable space group: C 2
;
_chemical_formula_sum "Si O2"
_cell_formula_units_Z 32
_cell_length_a 11.929531
_cell_length_b 14.671642
_cell_length_c 18.548559
_cell_angle_alpha 90.000000
_cell_angle_beta 29.289725
_cell_angle_gamma 90.000000
_cell_volume 1588.260899
_symmetry_space_group_name_H-M "C 2"
_symmetry_group_IT_number 5
_symmetry_cell_setting 'monoclinic'
loop_
_space_group_symop_operation_xyz
x,y,z
-x,y,-z
1/2+x,1/2+y,z
1/2-x,1/2+y,-z
loop_
_atom_site_type_symbol
_atom_site_label
_atom_site_fract_x
_atom_site_fract_y
_atom_site_fract_z
Si Si1 0.885225 0.484410 0.362096
Si Si2 0.265667 0.705327 0.675940
Si Si3 0.113679 0.027098 0.304257
Si Si4 0.465112 0.535507 0.821493
Si Si5 0.491871 0.714308 0.116687
Si Si6 0.526807 0.922813 0.123487
Si Si7 0.856959 0.398694 0.653662
Si Si8 0.369298 0.174076 0.789684
O O1 0.615886 0.504495 0.521899
O O2 0.954092 0.444561 0.246189
O O3 0.973051 0.422372 0.377374
O O4 0.028205 0.577457 0.290033
O O5 0.500000 0.697089 0.500000
O O6 0.265388 0.616600 0.727709
O O7 0.255591 0.798866 0.725574
O O8 0.073045 0.716052 0.722526
O O9 0.040566 0.035169 0.262071
O O10 0.303092 0.948497 0.202722
O O11 0.503817 0.640266 0.822755
O O12 0.665534 0.474627 0.744988
O O13 0.232608 0.488140 0.981783
O O14 0.576235 0.815623 0.087513
O O15 0.243883 0.720376 0.216649
O O16 0.664905 0.669859 0.961917
O O17 0.000000 0.392160 0.500000
#
# Coordination Sequence:
#
# PCOD9129511 Si02
#       8
#     4   4   4   4   4   4   4   4
#     4  12  23  47  70  97 138 184 227 287 340 416
#     4  11  22  41  68  96 132 179 227 276 343 411
#     4  12  25  44  69  99 143 179 228 290 349 404
#     4  12  25  45  67 101 142 179 226 294 340 406
#     4  11  26  43  70 101 135 181 231 285 346 406
#     4  12  27  44  71 101 138 183 235 281 347 413
#     4  11  25  42  66 102 135 178 225 283 347 409
#     4  11  22  44  70  93 133 179 231 278 341 408
#
# _framework density 20.147822999999999
#
# number of rings (size 3 to 8) (size 9 to 14) (size 15 to 20)
#    0.000    0.500    6.250    1.500    7.000    0.500 
#    0.000    2.500    0.000    0.000    0.000    0.000 
#    0.000    0.000    0.000    0.000    0.000    0.000 
#
# Total GULP energy -89332.197691 kJ/mol
# GULP energy per Si atom -5583.262356 kJ/mol
# Density = 2.010197 g / cm^3
# Si number density = 20.147823 Si / 1000 Ang^3
#
#
#
# Elastic Constant Matrix: (Units=GPa)
#
#
# Indices 1 2 3 4 5 6 
#
# 1 89.4767 9.2451 16.1518 -0.0032 -11.2270 -0.0089
# 2 9.2451 104.4319 1.5262 -0.0065 -10.1055 0.0000
# 3 16.1518 1.5262 72.9724 -0.0192 -10.3920 -0.0069
# 4 -0.0032 -0.0065 -0.0192 23.3315 0.0120 1.7267
# 5 -11.2270 -10.1055 -10.3920 0.0120 35.0343 0.0091
# 6 -0.0089 0.0000 -0.0069 1.7267 0.0091 25.3586
#
#
#
# Elastic Compliance Matrix: (Units=1/GPa)
#
#
# Indices 1 2 3 4 5 6 
#
# 1 0.012028 -0.000744 -0.002222 -0.000002 0.002981 0.000003
# 2 -0.000744 0.009900 0.000345 0.000002 0.002719 -0.000001
# 3 -0.002222 0.000345 0.014723 0.000010 0.003755 0.000001
# 4 -0.000002 0.000002 0.000010 0.043078 -0.000011 -0.002933
# 5 0.002981 0.002719 0.003755 -0.000011 0.031397 -0.000008
# 6 0.000003 -0.000001 0.000001 -0.002933 -0.000008 0.039634
#
#
# Mechanical properties :
#
#
# Convention : Reuss Voigt Hill
#
# Bulk Modulus (GPa) = 31.83875 35.63635 33.73755
# Shear Modulus (GPa) = 30.03520 32.74206 31.38863
#
# Velocity S-wave (km/s) = 3.86520 4.03562 3.95133
# Velocity P-wave (km/s) = 5.97968 6.28019 6.13178
#
# Compressibility (1/GPa) = 0.03140826
#
# Stress axis : x y z
#
# Youngs Moduli (GPa) = 83.13858 101.01434 67.92016
#
# Poissons Ratio (x) = 0.07515 0.15094
# Poissons Ratio (y) = 0.06185 -0.02342
# Poissons Ratio (z) = 0.18476 -0.03484
#
# Static dielectric constant tensor:
#      x y z
#    x 1.761160 0.000000 -0.036890 
#    y 0.000000 1.724350 0.000000 
#    z -0.036890 0.000000 1.686200 
# 
# From -- ./inp_files/60699.got.cif
#   From: 2010.05.17/outbox.cif.g08.bks.cpg/sg5_31_cif.got.tgz:60699.got - 2010.06.03 18:56:24.
