data_PCOD9129203
_publ_section_title
;
Structure prediction by ZEFSAII (Michael W. Deem and Ramdas Pophale) SiO2 
 PCOD9129203
Probable space group: C 2
;
_chemical_formula_sum "Si O2"
_cell_formula_units_Z 26
_cell_length_a 22.883005
_cell_length_b 12.217915
_cell_length_c 14.114547
_cell_angle_alpha 90.000000
_cell_angle_beta 18.879043
_cell_angle_gamma 90.000000
_cell_volume 1276.871394
_symmetry_space_group_name_H-M "C 2"
_symmetry_group_IT_number 5
_symmetry_cell_setting 'monoclinic'
loop_
_space_group_symop_operation_xyz
x,y,z
-x,y,-z
1/2+x,1/2+y,z
1/2-x,1/2+y,-z
loop_
_atom_site_type_symbol
_atom_site_label
_atom_site_fract_x
_atom_site_fract_y
_atom_site_fract_z
Si Si1 0.000000 0.920250 0.500000
Si Si2 0.656387 0.769331 0.834979
Si Si3 0.853106 0.540337 0.787130
Si Si4 0.276555 0.810577 0.927492
Si Si5 0.236056 0.521919 0.751092
Si Si6 0.515420 0.684566 0.254678
Si Si7 0.521151 0.136256 0.226148
O O1 0.874197 0.994689 0.626116
O O2 0.870211 0.847523 0.766498
O O3 0.834062 0.698629 0.534227
O O4 0.698954 0.900119 0.768308
O O5 0.500000 0.746481 0.000000
O O6 0.579774 0.734409 0.055959
O O7 0.814757 0.419506 0.811382
O O8 0.940004 0.540795 0.757135
O O9 0.000000 0.601741 0.500000
O O10 0.669813 0.602742 0.054692
O O11 0.458540 0.774297 0.702563
O O12 0.180118 0.721706 0.009909
O O13 0.335541 0.611314 0.532180
O O14 0.060620 0.581326 0.064753
#
# Coordination Sequence:
#
# PCOD9129203 Si02
#       7
#     2   4   4   4   4   4   4
#     4  12  16  36  62  96 132 160 188 238 314 386
#     4  12  26  46  66  85 120 171 222 270 308 355
#     4  11  20  31  58  93 133 161 195 242 311 384
#     4  11  20  33  61  95 134 159 195 244 315 385
#     4  12  24  42  66  97 130 162 205 260 318 377
#     4  11  22  40  63  94 126 167 206 251 314 382
#     4  11  22  40  63  94 126 167 206 251 314 382
#
# _framework density 20.362269999999999
#
# number of rings (size 3 to 8) (size 9 to 14) (size 15 to 20)
#    0.000    0.615    7.692    0.923    4.308    1.231 
#    0.000    0.000    0.000    0.000    0.000    0.000 
#    0.000    0.000    0.000    0.000    0.000    0.000 
#
# Total GULP energy -72493.516894 kJ/mol
# GULP energy per Si atom -5576.424376 kJ/mol
# Density = 2.031592 g / cm^3
# Si number density = 20.362270 Si / 1000 Ang^3
#
#
#
# Elastic Constant Matrix: (Units=GPa)
#
#
# Indices 1 2 3 4 5 6 
#
# 1 41.5065 7.3283 18.1889 -0.0001 -19.8463 0.0001
# 2 7.3283 100.7244 21.3018 -0.0007 -1.7556 0.0002
# 3 18.1889 21.3018 83.8484 -0.0006 14.0924 0.0001
# 4 -0.0001 -0.0007 -0.0006 36.7401 0.0000 9.9697
# 5 -19.8463 -1.7556 14.0924 0.0000 25.5506 0.0000
# 6 0.0001 0.0002 0.0001 9.9697 0.0000 12.3782
#
#
#
# Elastic Compliance Matrix: (Units=1/GPa)
#
#
# Indices 1 2 3 4 5 6 
#
# 1 0.067281 0.001834 -0.026304 0.000000 0.066894 0.000000
# 2 0.001834 0.010679 -0.003828 0.000000 0.004270 0.000000
# 3 -0.026304 -0.003828 0.024339 0.000000 -0.034119 0.000000
# 4 0.000000 0.000000 0.000000 0.034831 0.000000 -0.028054
# 5 0.066894 0.004270 -0.034119 0.000000 0.110209 0.000000
# 6 0.000000 0.000000 0.000000 -0.028054 0.000000 0.103382
#
#
# Mechanical properties :
#
#
# Convention : Reuss Voigt Hill
#
# Bulk Modulus (GPa) = 21.88076 35.52415 28.70246
# Shear Modulus (GPa) = 11.83285 26.88444 19.35865
#
# Velocity S-wave (km/s) = 2.41325 3.63754 3.08671
# Velocity P-wave (km/s) = 4.30513 5.92674 5.17979
#
# Compressibility (1/GPa) = 0.04570224
#
# Stress axis : x y z
#
# Youngs Moduli (GPa) = 14.86301 93.64420 41.08606
#
# Poissons Ratio (x) = -0.17172 1.08072
# Poissons Ratio (y) = -0.02725 0.15729
# Poissons Ratio (z) = 0.39095 0.35850
#
# Static dielectric constant tensor:
#      x y z
#    x 1.750480 0.000000 0.077560 
#    y 0.000000 1.783120 0.000000 
#    z 0.077560 0.000000 1.795750 
# 
# From -- ./inp_files/57757.got.cif
#   From: 2010.05.17/outbox.cif.g08.bks.cpg/sg5_29_cif.got.tgz:57757.got - 2010.06.03 18:56:24.
