data_PCOD9129887
_publ_section_title
;
Structure prediction by ZEFSAII (Michael W. Deem and Ramdas Pophale) SiO2 
 PCOD9129887
Probable space group: C 2
;
_chemical_formula_sum "Si O2"
_cell_formula_units_Z 20
_cell_length_a 22.423839
_cell_length_b 5.465193
_cell_length_c 6.965193
_cell_angle_alpha 90.000000
_cell_angle_beta 93.371047
_cell_angle_gamma 90.000000
_cell_volume 852.111646
_symmetry_space_group_name_H-M "C 2"
_symmetry_group_IT_number 5
_symmetry_cell_setting 'monoclinic'
loop_
_space_group_symop_operation_xyz
x,y,z
-x,y,-z
1/2+x,1/2+y,z
1/2-x,1/2+y,-z
loop_
_atom_site_type_symbol
_atom_site_label
_atom_site_fract_x
_atom_site_fract_y
_atom_site_fract_z
Si Si1 0.150701 0.982940 0.897609
Si Si2 0.555933 0.861912 0.916417
Si Si3 0.559931 0.226599 0.596852
Si Si4 0.742432 0.907563 0.376921
Si Si5 0.626806 0.132064 0.223001
O O1 0.096005 0.867859 0.765526
O O2 0.122375 0.248840 0.916107
O O3 0.209336 0.950614 0.782156
O O4 0.156518 0.844757 0.100744
O O5 0.543600 0.974637 0.704945
O O6 0.500000 0.715045 0.000000
O O7 0.568695 0.055946 0.089241
O O8 0.500000 0.341375 0.500000
O O9 0.603974 0.206403 0.426742
O O10 0.748616 0.144683 0.519421
O O11 0.676529 0.928518 0.275800
#
# Coordination Sequence:
#
# PCOD9129887 Si02
#       5
#     4   4   4   4   4
#     4  11  28  43  73 106 141 189 249 302 369 438
#     4  11  25  43  70 106 142 190 243 300 371 440
#     4  11  23  47  69 101 145 185 238 304 368 440
#     4  12  28  51  78 108 151 194 250 306 372 439
#     4  11  26  46  73 100 144 190 242 302 369 434
#
# _framework density 23.471101000000001
#
# number of rings (size 3 to 8) (size 9 to 14) (size 15 to 20)
#    0.000    0.800    4.000    1.200   11.200    2.400 
#    0.000    0.000    0.000    0.000    0.000    0.000 
#    0.000    0.000    0.000    0.000    0.000    0.000 
#
# Total GULP energy -55815.209987 kJ/mol
# GULP energy per Si atom -5581.520999 kJ/mol
# Density = 2.341768 g / cm^3
# Si number density = 23.471101 Si / 1000 Ang^3
#
#
#
# Elastic Constant Matrix: (Units=GPa)
#
#
# Indices 1 2 3 4 5 6 
#
# 1 89.0106 -12.5238 25.7130 0.0000 -1.5716 0.0000
# 2 -12.5238 40.4187 29.3763 0.0000 0.4370 0.0000
# 3 25.7130 29.3763 145.8720 0.0000 -2.9306 0.0000
# 4 0.0000 0.0000 0.0000 11.7927 0.0000 -5.1329
# 5 -1.5716 0.4370 -2.9306 0.0000 52.0152 0.0000
# 6 0.0000 0.0000 0.0000 -5.1329 0.0000 26.5014
#
#
#
# Elastic Compliance Matrix: (Units=1/GPa)
#
#
# Indices 1 2 3 4 5 6 
#
# 1 0.013264 0.006801 -0.003705 0.000000 0.000135 0.000000
# 2 0.006801 0.032488 -0.007752 0.000000 -0.000504 0.000000
# 3 -0.003705 -0.007752 0.009079 0.000000 0.000465 0.000000
# 4 0.000000 0.000000 0.000000 0.092605 0.000000 0.017936
# 5 0.000135 -0.000504 0.000465 0.000000 0.019260 0.000000
# 6 0.000000 0.000000 0.000000 0.017936 0.000000 0.041208
#
#
# Mechanical properties :
#
#
# Convention : Reuss Voigt Hill
#
# Bulk Modulus (GPa) = 21.96825 40.04803 31.00814
# Shear Modulus (GPa) = 21.51581 33.57757 27.54669
#
# Velocity S-wave (km/s) = 3.03098 3.78642 3.42956
# Velocity P-wave (km/s) = 4.65071 6.01795 5.37796
#
# Compressibility (1/GPa) = 0.04552025
#
# Stress axis : x y z
#
# Youngs Moduli (GPa) = 75.39057 30.78090 110.14685
#
# Poissons Ratio (x) = -0.20935 0.40810
# Poissons Ratio (y) = -0.51276 0.85380
# Poissons Ratio (z) = 0.27933 0.23860
#
# Static dielectric constant tensor:
#      x y z
#    x 1.903500 0.000000 0.005060 
#    y 0.000000 2.047430 0.000000 
#    z 0.005060 0.000000 1.844320 
# 
# From -- ./inp_files/10570.got.cif
#   From: 2010.05.17/outbox.cif.g08.bks.cpg/sg5_6_cif.got.tgz:10570.got - 2010.06.03 18:56:24.
