data_PCOD9129009
_publ_section_title
;
Structure prediction by ZEFSAII (Michael W. Deem and Ramdas Pophale) SiO2 
 PCOD9129009
Probable space group: C 2
;
_chemical_formula_sum "Si O2"
_cell_formula_units_Z 22
_cell_length_a 6.804485
_cell_length_b 8.144202
_cell_length_c 14.424970
_cell_angle_alpha 90.000000
_cell_angle_beta 76.434799
_cell_angle_gamma 90.000000
_cell_volume 777.089936
_symmetry_space_group_name_H-M "C 2"
_symmetry_group_IT_number 5
_symmetry_cell_setting 'monoclinic'
loop_
_space_group_symop_operation_xyz
x,y,z
-x,y,-z
1/2+x,1/2+y,z
1/2-x,1/2+y,-z
loop_
_atom_site_type_symbol
_atom_site_label
_atom_site_fract_x
_atom_site_fract_y
_atom_site_fract_z
Si Si1 0.928337 0.199640 0.908479
Si Si2 0.491800 0.366608 0.197045
Si Si3 0.340315 0.646447 0.447962
Si Si4 0.996780 0.375133 0.731432
Si Si5 0.529316 0.182301 0.627804
Si Si6 0.000000 0.776376 0.000000
O O1 0.061624 0.307236 0.824757
O O2 0.906718 0.032441 0.852635
O O3 0.737200 0.310602 0.958147
O O4 0.000000 0.136940 0.000000
O O5 0.247184 0.393142 0.231608
O O6 0.547964 0.323076 0.296133
O O7 0.526663 0.233771 0.109979
O O8 0.500000 0.560050 0.500000
O O9 0.456316 0.751202 0.358000
O O10 0.148875 0.588048 0.408071
O O11 0.796865 0.742412 0.460081
O O12 0.100039 0.544524 0.691641
#
# Coordination Sequence:
#
# PCOD9129009 Si02
#       6
#     4   4   4   4   4   2
#     4  11  26  52  76 111 155 202 252 316 374 448
#     4  11  24  50  75 109 155 200 256 305 375 454
#     4  11  25  49  75 112 148 198 252 313 376 449
#     4  11  26  49  76 112 155 194 256 315 375 454
#     4  11  27  48  76 114 153 199 253 315 377 452
#     4  10  26  44  70 112 148 198 256 310 368 444
#
# _framework density 28.310749999999999
#
# number of rings (size 3 to 8) (size 9 to 14) (size 15 to 20)
#    0.000    1.091    2.727    1.091    7.636    4.364 
#    9.818    0.000    0.000    0.000    0.000    0.000 
#    0.000    0.000    0.000    0.000    0.000    0.000 
#
# Total GULP energy -61235.727187 kJ/mol
# GULP energy per Si atom -5566.884290 kJ/mol
# Density = 2.824631 g / cm^3
# Si number density = 28.310750 Si / 1000 Ang^3
#
#
#
# Elastic Constant Matrix: (Units=GPa)
#
#
# Indices 1 2 3 4 5 6 
#
# 1 68.2781 14.7224 45.9685 0.0000 -2.0853 0.0000
# 2 14.7224 80.6228 50.4067 0.0000 6.2100 0.0000
# 3 45.9685 50.4067 284.8026 0.0000 -8.2310 0.0000
# 4 0.0000 0.0000 0.0000 13.9688 0.0000 14.8878
# 5 -2.0853 6.2100 -8.2310 0.0000 68.3115 0.0000
# 6 0.0000 0.0000 0.0000 14.8878 0.0000 28.8798
#
#
#
# Elastic Compliance Matrix: (Units=1/GPa)
#
#
# Indices 1 2 3 4 5 6 
#
# 1 0.016605 -0.001564 -0.002393 0.000000 0.000361 0.000000
# 2 -0.001564 0.014264 -0.002319 0.000000 -0.001624 0.000000
# 3 -0.002393 -0.002319 0.004327 0.000000 0.000659 0.000000
# 4 0.000000 0.000000 0.000000 0.158880 0.000000 -0.081904
# 5 0.000361 -0.001624 0.000659 0.000000 0.014877 0.000000
# 6 0.000000 0.000000 0.000000 -0.081904 0.000000 0.076848
#
#
# Mechanical properties :
#
#
# Convention : Reuss Voigt Hill
#
# Bulk Modulus (GPa) = 44.16112 72.87762 58.51937
# Shear Modulus (GPa) = 16.34516 43.73909 30.04213
#
# Velocity S-wave (km/s) = 2.40541 3.93487 3.26107
# Velocity P-wave (km/s) = 4.83190 6.81485 5.90717
#
# Compressibility (1/GPa) = 0.02264435
#
# Stress axis : x y z
#
# Youngs Moduli (GPa) = 60.22176 70.10645 231.11053
#
# Poissons Ratio (x) = 0.10964 0.55304
# Poissons Ratio (y) = 0.09418 0.53596
# Poissons Ratio (z) = 0.14411 0.16258
#
# Static dielectric constant tensor:
#      x y z
#    x 2.326930 0.000000 0.078290 
#    y 0.000000 2.291070 0.000000 
#    z 0.078290 0.000000 2.134910 
# 
# From -- ./inp_files/49982.got.cif
#   From: 2010.05.17/outbox.cif.g08.bks.cpg/sg5_25_cif.got.tgz:49982.got - 2010.06.03 18:56:24.
