data_PCOD9129983
_publ_section_title
;
Structure prediction by ZEFSAII (Michael W. Deem and Ramdas Pophale) SiO2 
 PCOD9129983
Probable space group: C 2
;
_chemical_formula_sum "Si O2"
_cell_formula_units_Z 16
_cell_length_a 7.123347
_cell_length_b 23.357517
_cell_length_c 5.070819
_cell_angle_alpha 90.000000
_cell_angle_beta 45.544806
_cell_angle_gamma 90.000000
_cell_volume 602.232825
_symmetry_space_group_name_H-M "C 2"
_symmetry_group_IT_number 5
_symmetry_cell_setting 'monoclinic'
loop_
_space_group_symop_operation_xyz
x,y,z
-x,y,-z
1/2+x,1/2+y,z
1/2-x,1/2+y,-z
loop_
_atom_site_type_symbol
_atom_site_label
_atom_site_fract_x
_atom_site_fract_y
_atom_site_fract_z
Si Si1 0.185306 0.711570 0.557772
Si Si2 0.000000 0.125264 0.500000
Si Si3 0.175585 0.520886 0.591282
Si Si4 0.500000 0.432761 0.500000
Si Si5 0.744953 0.844203 0.439446
O O1 0.443534 0.672752 0.331128
O O2 0.264105 0.778047 0.466107
O O3 0.000000 0.695259 0.500000
O O4 0.000000 0.703840 0.000000
O O5 0.779133 0.080420 0.614969
O O6 0.426915 0.478473 0.341248
O O7 0.000000 0.526650 0.500000
O O8 0.000000 0.495620 0.000000
O O9 0.277915 0.385515 0.654857
O O10 0.500000 0.859316 0.500000
O O11 0.000000 0.850959 0.000000
#
# Coordination Sequence:
#
# PCOD9129983 Si02
#       5
#     4   2   4   2   4
#     4  11  24  44  68 105 145 187 235 297 363 440
#     4  11  24  46  74 102 138 191 238 304 368 431
#     4  11  27  47  71 102 141 187 248 304 363 430
#     4  11  26  42  74 100 146 195 238 304 364 439
#     4  11  25  45  70 109 152 194 241 299 367 443
#
# _framework density 26.567799000000001
#
# number of rings (size 3 to 8) (size 9 to 14) (size 15 to 20)
#    0.000    1.000    2.500    2.250    7.000    6.000 
#    0.000    0.000    0.000    0.000    0.000    0.000 
#    0.000    0.000    0.000    0.000    0.000    0.000 
#
# Total GULP energy -44603.022686 kJ/mol
# GULP energy per Si atom -5575.377836 kJ/mol
# Density = 2.650733 g / cm^3
# Si number density = 26.567799 Si / 1000 Ang^3
#
#
#
# Elastic Constant Matrix: (Units=GPa)
#
#
# Indices 1 2 3 4 5 6 
#
# 1 344.4188 91.4929 65.5606 0.0000 8.7269 0.0000
# 2 91.4929 211.1831 19.8885 0.0000 -3.9692 0.0000
# 3 65.5606 19.8885 106.9254 0.0000 13.1882 0.0000
# 4 0.0000 0.0000 0.0000 19.3073 0.0000 -46.8218
# 5 8.7269 -3.9692 13.1882 0.0000 45.6472 0.0000
# 6 0.0000 0.0000 0.0000 -46.8218 0.0000 101.0865
#
#
#
# Elastic Compliance Matrix: (Units=1/GPa)
#
#
# Indices 1 2 3 4 5 6 
#
# 1 0.003654 -0.001404 -0.001947 0.000000 -0.000258 0.000000
# 2 -0.001404 0.005381 -0.000239 0.000000 0.000806 0.000000
# 3 -0.001947 -0.000239 0.010937 0.000000 -0.002808 0.000000
# 4 0.000000 0.000000 0.000000 -0.420195 0.000000 -0.194628
# 5 -0.000258 0.000806 -0.002808 0.000000 0.022838 0.000000
# 6 0.000000 0.000000 0.000000 -0.194628 0.000000 -0.080256
#
#
# Mechanical properties :
#
#
# Convention : Reuss Voigt Hill
#
# Bulk Modulus (GPa) = 78.18265 112.93458 95.55862
# Shear Modulus (GPa) = -11.20582 65.58056 27.18737
#
# Velocity S-wave (km/s) = -2.05596 4.97371 3.20241
# Velocity P-wave (km/s) = 4.88421 8.69391 7.05123
#
# Compressibility (1/GPa) = 0.01279056
#
# Stress axis : x y z
#
# Youngs Moduli (GPa) = 273.69503 185.82748 91.43186
#
# Poissons Ratio (x) = 0.26098 0.17804
# Poissons Ratio (y) = 0.38438 0.02187
# Poissons Ratio (z) = 0.53294 0.04445
#
# Static dielectric constant tensor:
#      x y z
#    x 1.971780 0.000000 -0.105390 
#    y 0.000000 2.055960 0.000000 
#    z -0.105390 0.000000 2.281330 
# 
# From -- ./inp_files/793.got.cif
#   From: 2010.05.17/outbox.cif.g08.bks.cpg/sg5_1_cif.got.tgz:793.got - 2010.06.03 18:56:24.
