data_PCOD9129830
_publ_section_title
;
Structure prediction by ZEFSAII (Michael W. Deem and Ramdas Pophale) SiO2 
 PCOD9129830
Probable space group: C 2
;
_chemical_formula_sum "Si O2"
_cell_formula_units_Z 16
_cell_length_a 16.830119
_cell_length_b 9.186956
_cell_length_c 8.615044
_cell_angle_alpha 90.000000
_cell_angle_beta 35.041582
_cell_angle_gamma 90.000000
_cell_volume 764.816783
_symmetry_space_group_name_H-M "C 2"
_symmetry_group_IT_number 5
_symmetry_cell_setting 'monoclinic'
loop_
_space_group_symop_operation_xyz
x,y,z
-x,y,-z
1/2+x,1/2+y,z
1/2-x,1/2+y,-z
loop_
_atom_site_type_symbol
_atom_site_label
_atom_site_fract_x
_atom_site_fract_y
_atom_site_fract_z
Si Si1 0.388119 0.142090 0.785244
Si Si2 0.096158 0.655004 0.720096
Si Si3 0.648351 0.838670 0.689704
Si Si4 0.848806 0.334948 0.687844
O O1 0.500000 0.226043 0.500000
O O2 0.486723 0.095840 0.770075
O O3 0.337218 0.000942 0.771333
O O4 0.267084 0.239357 0.044281
O O5 0.220278 0.751072 0.455558
O O6 0.160868 0.511793 0.695711
O O7 0.000000 0.736743 0.000000
O O8 0.658442 0.820618 0.486642
O O9 0.500000 0.793719 0.000000
O O10 0.000000 0.285063 0.500000
#
# Coordination Sequence:
#
# PCOD9129830 Si02
#       4
#     4   4   4   4
#     4  11  24  44  69  95 135 175 215 272 329 388
#     4  11  23  45  66  95 135 175 219 269 322 390
#     4  11  25  44  69  97 135 173 220 273 325 389
#     4  11  24  46  66  99 135 172 219 272 329 390
#
# _framework density 20.920043
#
# number of rings (size 3 to 8) (size 9 to 14) (size 15 to 20)
#    0.000    1.000    7.500    0.000    3.500    2.000 
#    4.500    0.000    0.000    0.000    0.000    0.000 
#    0.000    0.000    0.000    0.000    0.000    0.000 
#
# Total GULP energy -44627.529764 kJ/mol
# GULP energy per Si atom -5578.441221 kJ/mol
# Density = 2.087243 g / cm^3
# Si number density = 20.920043 Si / 1000 Ang^3
#
#
#
# Elastic Constant Matrix: (Units=GPa)
#
#
# Indices 1 2 3 4 5 6 
#
# 1 61.8219 26.2821 28.9330 0.0000 8.3232 0.0000
# 2 26.2821 72.1012 80.9051 0.0000 -16.3002 0.0000
# 3 28.9330 80.9051 214.2242 0.0000 -5.6553 0.0000
# 4 0.0000 0.0000 0.0000 51.2834 0.0000 -4.0941
# 5 8.3232 -16.3002 -5.6553 0.0000 38.8332 0.0000
# 6 0.0000 0.0000 0.0000 -4.0941 0.0000 21.0541
#
#
#
# Elastic Compliance Matrix: (Units=1/GPa)
#
#
# Indices 1 2 3 4 5 6 
#
# 1 0.021654 -0.011126 0.001036 0.000000 -0.009161 0.000000
# 2 -0.011126 0.033220 -0.010653 0.000000 0.014777 0.000000
# 3 0.001036 -0.010653 0.008460 0.000000 -0.003462 0.000000
# 4 0.000000 0.000000 0.000000 0.019807 0.000000 0.003852
# 5 -0.009161 0.014777 -0.003462 0.000000 0.033413 0.000000
# 6 0.000000 0.000000 0.000000 0.003852 0.000000 0.048246
#
#
# Mechanical properties :
#
#
# Convention : Reuss Voigt Hill
#
# Bulk Modulus (GPa) = 45.77428 68.93197 57.35312
# Shear Modulus (GPa) = 23.41149 36.36927 29.89038
#
# Velocity S-wave (km/s) = 3.34891 4.17404 3.78404
# Velocity P-wave (km/s) = 6.07303 7.50013 6.82399
#
# Compressibility (1/GPa) = 0.02184633
#
# Stress axis : x y z
#
# Youngs Moduli (GPa) = 46.18025 30.10241 118.20198
#
# Poissons Ratio (x) = 0.33493 -0.12241
# Poissons Ratio (y) = 0.51382 1.25923
# Poissons Ratio (z) = -0.04782 0.32069
#
# Static dielectric constant tensor:
#      x y z
#    x 1.837560 0.000000 0.059690 
#    y 0.000000 1.752860 0.000000 
#    z 0.059690 0.000000 1.778470 
# 
# From -- ./inp_files/13615.got.cif
#   From: 2010.05.17/outbox.cif.g08.bks.cpg/sg5_7_cif.got.tgz:13615.got - 2010.06.03 18:56:24.
