data_PCOD9129613
_publ_section_title
;
Structure prediction by ZEFSAII (Michael W. Deem and Ramdas Pophale) SiO2 
 PCOD9129613
Probable space group: C 2
;
_chemical_formula_sum "Si O2"
_cell_formula_units_Z 24
_cell_length_a 8.343866
_cell_length_b 18.230362
_cell_length_c 9.324328
_cell_angle_alpha 90.000000
_cell_angle_beta 51.132745
_cell_angle_gamma 90.000000
_cell_volume 1104.321732
_symmetry_space_group_name_H-M "C 2"
_symmetry_group_IT_number 5
_symmetry_cell_setting 'monoclinic'
loop_
_space_group_symop_operation_xyz
x,y,z
-x,y,-z
1/2+x,1/2+y,z
1/2-x,1/2+y,-z
loop_
_atom_site_type_symbol
_atom_site_label
_atom_site_fract_x
_atom_site_fract_y
_atom_site_fract_z
Si Si1 0.040981 0.891210 0.808109
Si Si2 0.507796 0.553556 0.146503
Si Si3 0.824892 0.616768 0.478169
Si Si4 0.800623 0.269907 0.522440
Si Si5 0.022051 0.510429 0.143787
Si Si6 0.164171 0.349930 0.801939
O O1 0.859993 0.872214 0.792493
O O2 0.218202 0.837191 0.660869
O O3 0.109091 0.976199 0.759986
O O4 0.000000 0.877284 0.000000
O O5 0.403632 0.603764 0.326084
O O6 0.500000 0.596239 0.000000
O O7 0.732413 0.517255 0.988525
O O8 0.839254 0.697761 0.405074
O O9 0.000000 0.610307 0.500000
O O10 0.887008 0.555895 0.328845
O O11 0.807924 0.300803 0.354851
O O12 0.000000 0.245926 0.500000
O O13 0.940218 0.427274 0.187580
O O14 0.000000 0.545240 0.000000
O O15 0.000000 0.312891 0.000000
#
# Coordination Sequence:
#
# PCOD9129613 Si02
#       6
#     4   4   4   4   4   4
#     4  11  23  44  73 100 135 175 230 284 340 404
#     4  11  23  43  75 105 131 176 232 286 344 407
#     4  12  27  47  68  97 143 187 228 281 346 415
#     4  12  29  44  66 101 139 184 230 280 345 414
#     4  11  24  44  73 105 134 173 231 288 346 405
#     4  11  22  45  71 101 135 176 227 285 341 402
#
# _framework density 21.732797999999999
#
# number of rings (size 3 to 8) (size 9 to 14) (size 15 to 20)
#    0.000    0.667    5.000    3.500    4.667    2.667 
#    3.000    0.000    0.000    0.000    0.000    0.000 
#    0.000    0.000    0.000    0.000    0.000    0.000 
#
# Total GULP energy -66811.401889 kJ/mol
# GULP energy per Si atom -5567.616824 kJ/mol
# Density = 2.168333 g / cm^3
# Si number density = 21.732798 Si / 1000 Ang^3
#
#
#
# Elastic Constant Matrix: (Units=GPa)
#
#
# Indices 1 2 3 4 5 6 
#
# 1 63.7008 -7.3509 -4.2603 0.0000 10.9743 0.0000
# 2 -7.3509 55.4682 22.4385 0.0000 5.7187 0.0000
# 3 -4.2603 22.4385 78.7899 0.0000 12.4272 0.0000
# 4 0.0000 0.0000 0.0000 -7.6444 0.0000 -49.8782
# 5 10.9743 5.7187 12.4272 0.0000 29.7309 0.0000
# 6 0.0000 0.0000 0.0000 -49.8782 0.0000 75.7124
#
#
#
# Elastic Compliance Matrix: (Units=1/GPa)
#
#
# Indices 1 2 3 4 5 6 
#
# 1 0.017370 0.002505 0.001406 0.000000 -0.007481 0.000000
# 2 0.002505 0.020808 -0.005367 0.000000 -0.002683 0.000000
# 3 0.001406 -0.005367 0.015219 0.000000 -0.005848 0.000000
# 4 0.000000 0.000000 0.000000 -0.024689 0.000000 -0.016265
# 5 -0.007481 -0.002683 -0.005848 0.000000 0.039357 0.000000
# 6 0.000000 0.000000 0.000000 -0.016265 0.000000 0.002493
#
#
# Mechanical properties :
#
#
# Convention : Reuss Voigt Hill
#
# Bulk Modulus (GPa) = 19.80838 24.40151 22.10494
# Shear Modulus (GPa) = 55.37147 32.03523 43.70335
#
# Velocity S-wave (km/s) = 5.05308 3.84350 4.48922
# Velocity P-wave (km/s) = 6.57108 5.56318 6.08803
#
# Compressibility (1/GPa) = 0.05048369
#
# Stress axis : x y z
#
# Youngs Moduli (GPa) = 57.56967 48.05820 65.70781
#
# Poissons Ratio (x) = -0.12036 -0.09238
# Poissons Ratio (y) = -0.14419 0.35267
# Poissons Ratio (z) = -0.08094 0.25794
#
# Static dielectric constant tensor:
#      x y z
#    x 1.902930 0.000000 0.024350 
#    y 0.000000 1.731650 0.000000 
#    z 0.024350 0.000000 1.790640 
# 
# From -- ./inp_files/16731.got.cif
#   From: 2010.05.17/outbox.cif.g08.bks.cpg/sg5_9_cif.got.tgz:16731.got - 2010.06.03 18:56:24.
