data_PCOD9129040
_publ_section_title
;
Structure prediction by ZEFSAII (Michael W. Deem and Ramdas Pophale) SiO2 
 PCOD9129040
Probable space group: C 2
;
_chemical_formula_sum "Si O2"
_cell_formula_units_Z 20
_cell_length_a 24.410584
_cell_length_b 4.720250
_cell_length_c 14.627703
_cell_angle_alpha 90.000000
_cell_angle_beta 152.062919
_cell_angle_gamma 90.000000
_cell_volume 789.642389
_symmetry_space_group_name_H-M "C 2"
_symmetry_group_IT_number 5
_symmetry_cell_setting 'monoclinic'
loop_
_space_group_symop_operation_xyz
x,y,z
-x,y,-z
1/2+x,1/2+y,z
1/2-x,1/2+y,-z
loop_
_atom_site_type_symbol
_atom_site_label
_atom_site_fract_x
_atom_site_fract_y
_atom_site_fract_z
Si Si1 0.500000 0.719810 0.000000
Si Si2 0.726922 0.040685 0.407150
Si Si3 0.644967 0.437017 0.054589
Si Si4 0.000000 0.190145 0.500000
Si Si5 0.331249 0.700751 0.102753
Si Si6 0.298903 0.426768 0.320041
O O1 0.398007 0.916497 0.807245
O O2 0.445913 0.530977 0.002054
O O3 0.773063 0.863414 0.561684
O O4 0.810255 0.993790 0.443711
O O5 0.684311 0.111576 0.119545
O O6 0.764845 0.601840 0.256985
O O7 0.617475 0.556324 0.913068
O O8 0.078076 0.338664 0.692361
O O9 0.087913 0.007276 0.568587
O O10 0.263970 0.443815 0.054076
#
# Coordination Sequence:
#
# PCOD9129040 Si02
#       6
#     2   4   4   2   4   4
#     4  10  26  46  74 100 142 186 224 284 352 396
#     4  11  25  47  69 104 139 180 234 284 337 414
#     4  11  23  48  69 101 142 179 228 288 336 411
#     4  12  26  46  74 100 138 188 228 280 358 392
#     4  12  25  47  69 101 139 180 233 286 337 408
#     4  11  25  45  71 102 140 177 235 282 335 421
#
# _framework density 25.327919999999999
#
# number of rings (size 3 to 8) (size 9 to 14) (size 15 to 20)
#    0.000    0.800    4.000    2.400    2.800   10.400 
#    3.600    0.000    0.000    0.000    0.000    0.000 
#    0.000    0.000    0.000    0.000    0.000    0.000 
#
# Total GULP energy -56018.048922 kJ/mol
# GULP energy per Si atom -5601.804892 kJ/mol
# Density = 2.527027 g / cm^3
# Si number density = 25.327920 Si / 1000 Ang^3
#
#
#
# Elastic Constant Matrix: (Units=GPa)
#
#
# Indices 1 2 3 4 5 6 
#
# 1 170.5136 -11.3786 38.6523 0.0000 -0.9893 0.0000
# 2 -11.3786 74.0018 9.1600 0.0000 0.6658 0.0000
# 3 38.6523 9.1600 98.2908 0.0000 -5.3204 0.0000
# 4 0.0000 0.0000 0.0000 27.9986 0.0000 -14.6995
# 5 -0.9893 0.6658 -5.3204 0.0000 52.3766 0.0000
# 6 0.0000 0.0000 0.0000 -14.6995 0.0000 29.8917
#
#
#
# Elastic Compliance Matrix: (Units=1/GPa)
#
#
# Indices 1 2 3 4 5 6 
#
# 1 0.006570 0.001348 -0.002718 0.000000 -0.000169 0.000000
# 2 0.001348 0.013952 -0.001849 0.000000 -0.000340 0.000000
# 3 -0.002718 -0.001849 0.011477 0.000000 0.001138 0.000000
# 4 0.000000 0.000000 0.000000 0.048146 0.000000 0.023676
# 5 -0.000169 -0.000340 0.001138 0.000000 0.019209 0.000000
# 6 0.000000 0.000000 0.000000 0.023676 0.000000 0.045097
#
#
# Mechanical properties :
#
#
# Convention : Reuss Voigt Hill
#
# Bulk Modulus (GPa) = 39.12207 46.18594 42.65401
# Shear Modulus (GPa) = 31.36571 42.47824 36.92198
#
# Velocity S-wave (km/s) = 3.52289 4.09972 3.82220
# Velocity P-wave (km/s) = 5.65928 6.37848 6.02961
#
# Compressibility (1/GPa) = 0.02556102
#
# Stress axis : x y z
#
# Youngs Moduli (GPa) = 152.21127 71.67234 87.13263
#
# Poissons Ratio (x) = -0.09663 0.23686
# Poissons Ratio (y) = -0.20521 0.16109
# Poissons Ratio (z) = 0.41376 0.13251
#
# Static dielectric constant tensor:
#      x y z
#    x 1.987190 0.000000 -0.035000 
#    y 0.000000 1.887910 0.000000 
#    z -0.035000 0.000000 2.025110 
# 
# From -- ./inp_files/45371.got.cif
#   From: 2010.05.17/outbox.cif.g08.bks.cpg/sg5_23_cif.got.tgz:45371.got - 2010.06.03 18:56:24.
