data_PCOD9129659
_publ_section_title
;
Structure prediction by ZEFSAII (Michael W. Deem and Ramdas Pophale) SiO2 
 PCOD9129659
Probable space group: C 2
;
_chemical_formula_sum "Si O2"
_cell_formula_units_Z 26
_cell_length_a 8.982023
_cell_length_b 20.730435
_cell_length_c 7.309405
_cell_angle_alpha 90.000000
_cell_angle_beta 125.957096
_cell_angle_gamma 90.000000
_cell_volume 1101.687290
_symmetry_space_group_name_H-M "C 2"
_symmetry_group_IT_number 5
_symmetry_cell_setting 'monoclinic'
loop_
_space_group_symop_operation_xyz
x,y,z
-x,y,-z
1/2+x,1/2+y,z
1/2-x,1/2+y,-z
loop_
_atom_site_type_symbol
_atom_site_label
_atom_site_fract_x
_atom_site_fract_y
_atom_site_fract_z
Si Si1 0.157147 0.743320 0.379876
Si Si2 0.171882 0.883651 0.369389
Si Si3 0.500000 0.994061 0.000000
Si Si4 0.254595 0.737832 0.014002
Si Si5 0.055263 0.142270 0.321252
Si Si6 0.237166 0.382043 0.987300
Si Si7 0.309956 0.518246 0.468594
O O1 0.211233 0.814741 0.486106
O O2 0.209345 0.741959 0.200412
O O3 0.276467 0.691050 0.567021
O O4 0.940061 0.731682 0.227687
O O5 0.249344 0.883898 0.221376
O O6 0.249227 0.947462 0.513531
O O7 0.949896 0.887163 0.204370
O O8 0.371986 0.943760 0.019457
O O9 0.639980 0.038626 0.217641
O O10 0.387749 0.676262 0.095546
O O11 0.330232 0.809156 0.017969
O O12 0.000000 0.139284 0.500000
O O13 0.132070 0.070783 0.338032
O O14 0.500000 0.507677 0.500000
#
# Coordination Sequence:
#
# PCOD9129659 Si02
#       7
#     4   4   2   4   4   4   4
#     4   8  15  29  53  82 106 141 193 244 279 335
#     4   9  18  38  61  86 119 156 196 247 301 347
#     4  12  24  36  56  94 120 154 200 244 298 356
#     4   8  15  30  52  81 108 141 189 239 286 338
#     4   9  18  30  50  80 113 151 191 233 286 350
#     4   9  19  36  62  90 115 150 198 247 297 352
#     4  11  23  37  53  88 127 162 194 243 303 350
#
# _framework density 23.600166000000002
#
# number of rings (size 3 to 8) (size 9 to 14) (size 15 to 20)
#    0.000    2.769    1.538    1.846    2.154    4.308 
#    0.000    0.000    0.000    1.846   12.000    0.000 
#    0.000    0.000    0.000    0.000    0.000    0.000 
#
# Total GULP energy -72607.129596 kJ/mol
# GULP energy per Si atom -5585.163815 kJ/mol
# Density = 2.354645 g / cm^3
# Si number density = 23.600166 Si / 1000 Ang^3
#
#
#
# Elastic Constant Matrix: (Units=GPa)
#
#
# Indices 1 2 3 4 5 6 
#
# 1 66.6813 13.8131 12.9601 0.0000 10.0806 0.0000
# 2 13.8131 122.4347 33.3581 0.0000 8.3968 0.0000
# 3 12.9601 33.3581 79.6416 0.0000 16.2805 0.0000
# 4 0.0000 0.0000 0.0000 21.9946 0.0000 4.4141
# 5 10.0806 8.3968 16.2805 0.0000 14.1960 0.0000
# 6 0.0000 0.0000 0.0000 4.4141 0.0000 7.7518
#
#
#
# Elastic Compliance Matrix: (Units=1/GPa)
#
#
# Indices 1 2 3 4 5 6 
#
# 1 0.016950 -0.001144 0.000056 0.000000 -0.011424 0.000000
# 2 -0.001144 0.009317 -0.003600 0.000000 -0.000570 0.000000
# 3 0.000056 -0.003600 0.017801 0.000000 -0.018326 0.000000
# 4 0.000000 0.000000 0.000000 0.051332 0.000000 -0.029230
# 5 -0.011424 -0.000570 -0.018326 0.000000 0.099908 0.000000
# 6 0.000000 0.000000 0.000000 -0.029230 0.000000 0.145647
#
#
# Mechanical properties :
#
#
# Convention : Reuss Voigt Hill
#
# Bulk Modulus (GPa) = 28.82472 43.22447 36.02459
# Shear Modulus (GPa) = 13.81625 22.69692 18.25658
#
# Velocity S-wave (km/s) = 2.42219 3.10454 2.78435
# Velocity P-wave (km/s) = 4.47917 5.58623 5.06305
#
# Compressibility (1/GPa) = 0.03469245
#
# Stress axis : x y z
#
# Youngs Moduli (GPa) = 58.99779 107.33637 56.17688
#
# Poissons Ratio (x) = 0.12281 -0.00316
# Poissons Ratio (y) = 0.06750 0.20221
# Poissons Ratio (z) = -0.00332 0.38636
#
# Static dielectric constant tensor:
#      x y z
#    x 1.926220 0.000000 -0.050150 
#    y 0.000000 1.915660 0.000000 
#    z -0.050150 0.000000 1.939210 
# 
# From -- ./inp_files/16741.got.cif
#   From: 2010.05.17/outbox.cif.g08.bks.cpg/sg5_9_cif.got.tgz:16741.got - 2010.06.03 18:56:24.
