data_PCOD9129157
_publ_section_title
;
Structure prediction by ZEFSAII (Michael W. Deem and Ramdas Pophale) SiO2 
 PCOD9129157
Probable space group: C 2
;
_chemical_formula_sum "Si O2"
_cell_formula_units_Z 24
_cell_length_a 20.344963
_cell_length_b 11.090423
_cell_length_c 8.185276
_cell_angle_alpha 90.000000
_cell_angle_beta 136.433968
_cell_angle_gamma 90.000000
_cell_volume 1272.850420
_symmetry_space_group_name_H-M "C 2"
_symmetry_group_IT_number 5
_symmetry_cell_setting 'monoclinic'
loop_
_space_group_symop_operation_xyz
x,y,z
-x,y,-z
1/2+x,1/2+y,z
1/2-x,1/2+y,-z
loop_
_atom_site_type_symbol
_atom_site_label
_atom_site_fract_x
_atom_site_fract_y
_atom_site_fract_z
Si Si1 0.405594 0.565940 0.757142
Si Si2 0.550939 0.315913 0.339820
Si Si3 0.243532 0.679056 0.276144
Si Si4 0.156361 0.815913 0.859651
Si Si5 0.594406 0.065886 0.242857
Si Si6 0.756468 0.952769 0.723855
O O1 0.437019 0.437013 0.741248
O O2 0.348275 0.635303 0.512671
O O3 0.330833 0.539725 0.767978
O O4 0.500000 0.626479 0.000000
O O5 0.631096 0.315913 0.625790
O O6 0.445930 0.315912 0.231786
O O7 0.562981 0.194813 0.258752
O O8 0.169167 0.592100 0.232022
O O9 0.231645 0.815912 0.323984
O O10 0.215170 0.701917 0.036816
O O11 0.215169 0.929908 0.036816
O O12 0.651725 0.996522 0.487329
O O13 0.500000 0.005348 0.000000
#
# Coordination Sequence:
#
# PCOD9129157 Si02
#       6
#     4   4   4   4   4   4
#     4  11  18  31  54  72  96 128 160 204 240 278
#     4  11  18  31  54  72  96 128 160 204 240 278
#     4   9  19  34  48  73  98 125 167 197 234 291
#     4   9  19  34  48  73  98 125 167 197 234 291
#     4  11  18  31  54  72  96 128 160 204 240 278
#     4   9  19  34  48  73  98 125 167 197 234 291
#
# _framework density 18.855318
#
# number of rings (size 3 to 8) (size 9 to 14) (size 15 to 20)
#    1.000    1.000    5.000    0.500    0.000    2.000 
#    0.000    0.000    0.000    0.000    0.000    7.000 
#    0.000    0.000    0.000    0.000    0.000    0.000 
#
# Total GULP energy -66804.781277 kJ/mol
# GULP energy per Si atom -5567.065106 kJ/mol
# Density = 1.881240 g / cm^3
# Si number density = 18.855318 Si / 1000 Ang^3
#
#
#
# Elastic Constant Matrix: (Units=GPa)
#
#
# Indices 1 2 3 4 5 6 
#
# 1 16.0878 -8.3700 19.9627 0.0000 5.7564 0.0000
# 2 -8.3700 20.1448 23.2141 0.0000 3.5658 0.0000
# 3 19.9627 23.2141 198.5285 0.0000 8.3949 0.0000
# 4 0.0000 0.0000 0.0000 39.6063 0.0000 -3.8254
# 5 5.7564 3.5658 8.3949 0.0000 32.3523 0.0000
# 6 0.0000 0.0000 0.0000 -3.8254 0.0000 -1.7659
#
#
#
# Elastic Compliance Matrix: (Units=1/GPa)
#
#
# Indices 1 2 3 4 5 6 
#
# 1 0.162056 0.104460 -0.027101 0.000000 -0.033316 0.000000
# 2 0.104460 0.125401 -0.024061 0.000000 -0.026165 0.000000
# 3 -0.027101 -0.024061 0.010373 0.000000 0.004782 0.000000
# 4 0.000000 0.000000 0.000000 0.020880 0.000000 -0.045231
# 5 -0.033316 -0.026165 0.004782 0.000000 0.038480 0.000000
# 6 0.000000 0.000000 0.000000 -0.045231 0.000000 -0.468306
#
#
# Mechanical properties :
#
#
# Convention : Reuss Voigt Hill
#
# Bulk Modulus (GPa) = 2.47263 33.81942 18.14602
# Shear Modulus (GPa) = -60.31113 27.36882 -16.47115
#
# Velocity S-wave (km/s) = -5.66178 3.81401 -2.95880
# Velocity P-wave (km/s) = 6.43636 6.11317 1.42407
#
# Compressibility (1/GPa) = 0.40442748
#
# Stress axis : x y z
#
# Youngs Moduli (GPa) = 6.17071 7.97441 96.40053
#
# Poissons Ratio (x) = -0.83301 2.61256
# Poissons Ratio (y) = -0.64460 2.31947
# Poissons Ratio (z) = 0.16723 0.19187
#
# Static dielectric constant tensor:
#      x y z
#    x 1.637660 0.000000 0.011660 
#    y 0.000000 1.653840 0.000000 
#    z 0.011660 0.000000 1.703510 
# 
# From -- ./inp_files/29539.got.cif
#   From: 2010.05.17/outbox.cif.g08.bks.cpg/sg5_15_cif.got.tgz:29539.got - 2010.06.03 18:56:24.
