data_PCOD9129574
_publ_section_title
;
Structure prediction by ZEFSAII (Michael W. Deem and Ramdas Pophale) SiO2 
 PCOD9129574
Probable space group: C 2
;
_chemical_formula_sum "Si O2"
_cell_formula_units_Z 32
_cell_length_a 25.433142
_cell_length_b 6.598978
_cell_length_c 16.146764
_cell_angle_alpha 90.000000
_cell_angle_beta 32.051035
_cell_angle_gamma 90.000000
_cell_volume 1438.104219
_symmetry_space_group_name_H-M "C 2"
_symmetry_group_IT_number 5
_symmetry_cell_setting 'monoclinic'
loop_
_space_group_symop_operation_xyz
x,y,z
-x,y,-z
1/2+x,1/2+y,z
1/2-x,1/2+y,-z
loop_
_atom_site_type_symbol
_atom_site_label
_atom_site_fract_x
_atom_site_fract_y
_atom_site_fract_z
Si Si1 0.414014 0.862720 0.681940
Si Si2 0.795485 0.761326 0.833414
Si Si3 0.041529 0.735210 0.114307
Si Si4 0.119417 0.037478 0.141009
Si Si5 0.072012 0.461860 0.830409
Si Si6 0.376730 0.536852 0.280155
Si Si7 0.765281 0.132331 0.768918
Si Si8 0.727184 0.711615 0.425363
O O1 0.500000 0.841843 0.500000
O O2 0.432562 0.718927 0.737159
O O3 0.317971 0.765958 0.767524
O O4 0.383118 0.098268 0.730282
O O5 0.808421 0.918787 0.891681
O O6 0.793146 0.900191 0.754489
O O7 0.690492 0.649766 0.981004
O O8 0.980227 0.525558 0.186677
O O9 0.968178 0.883042 0.161710
O O10 0.057595 0.861579 0.177452
O O11 0.148933 0.681613 0.933920
O O12 0.178670 0.562608 0.693494
O O13 0.091272 0.226171 0.816029
O O14 0.000000 0.531904 0.000000
O O15 0.351661 0.630995 0.403697
O O16 0.276823 0.426263 0.382806
O O17 0.804070 0.198606 0.627762
#
# Coordination Sequence:
#
# PCOD9129574 Si02
#       8
#     4   4   4   4   4   4   4   4
#     4  11  26  45  68 104 138 183 227 283 351 409
#     4  11  22  43  71  99 134 183 225 285 346 406
#     4  11  25  41  69 105 131 179 238 278 345 410
#     4  11  22  43  71  96 139 176 231 285 334 420
#     4  11  24  42  69 103 139 182 233 286 340 413
#     4  11  26  44  72  98 140 184 232 283 353 406
#     4  11  25  43  69 101 141 175 233 286 345 418
#     4  11  24  48  65  99 142 183 224 290 347 417
#
# _framework density 22.251515999999999
#
# number of rings (size 3 to 8) (size 9 to 14) (size 15 to 20)
#    0.000    1.000    5.000    0.750    5.250    3.000 
#    0.000    0.000    0.000    0.000    0.000    0.000 
#    0.000    0.000    0.000    0.000    0.000    0.000 
#
# Total GULP energy -89290.513308 kJ/mol
# GULP energy per Si atom -5580.657082 kJ/mol
# Density = 2.220087 g / cm^3
# Si number density = 22.251516 Si / 1000 Ang^3
#
#
#
# Elastic Constant Matrix: (Units=GPa)
#
#
# Indices 1 2 3 4 5 6 
#
# 1 68.2707 24.9007 -6.7690 0.0004 14.6900 -0.0006
# 2 24.9007 115.4717 24.4600 0.0058 9.3701 -0.0092
# 3 -6.7690 24.4600 64.9949 0.0001 6.3822 -0.0031
# 4 0.0004 0.0058 0.0001 28.5510 -0.0014 1.8937
# 5 14.6900 9.3701 6.3822 -0.0014 33.3838 0.0003
# 6 -0.0006 -0.0092 -0.0031 1.8937 0.0003 23.7195
#
#
#
# Elastic Compliance Matrix: (Units=1/GPa)
#
#
# Indices 1 2 3 4 5 6 
#
# 1 0.018252 -0.004212 0.004238 0.000000 -0.007660 0.000000
# 2 -0.004212 0.010516 -0.004370 -0.000002 -0.000262 0.000004
# 3 0.004238 -0.004370 0.017870 0.000000 -0.004055 0.000001
# 4 0.000000 -0.000002 0.000000 0.035212 0.000002 -0.002811
# 5 -0.007660 -0.000262 -0.004055 0.000002 0.034174 -0.000001
# 6 0.000000 0.000004 0.000001 -0.002811 -0.000001 0.042384
#
#
# Mechanical properties :
#
#
# Convention : Reuss Voigt Hill
#
# Bulk Modulus (GPa) = 26.35090 37.10233 31.72662
# Shear Modulus (GPa) = 27.81710 30.87389 29.34549
#
# Velocity S-wave (km/s) = 3.53954 3.72895 3.63548
# Velocity P-wave (km/s) = 5.34532 5.93720 5.64902
#
# Compressibility (1/GPa) = 0.03794936
#
# Stress axis : x y z
#
# Youngs Moduli (GPa) = 54.78769 95.09764 55.95946
#
# Poissons Ratio (x) = 0.40057 -0.23717
# Poissons Ratio (y) = 0.23078 0.24456
# Poissons Ratio (z) = -0.23220 0.41560
#
# Static dielectric constant tensor:
#      x y z
#    x 1.855190 0.000000 0.020940 
#    y 0.000000 1.874420 0.000000 
#    z 0.020940 0.000000 1.795250 
# 
# From -- ./inp_files/63728.got.cif
#   From: 2010.05.17/outbox.cif.g08.bks.cpg/sg5_32_cif.got.tgz:63728.got - 2010.06.03 18:56:24.
