data_PCOD9129066
_publ_section_title
;
Structure prediction by ZEFSAII (Michael W. Deem and Ramdas Pophale) SiO2 
 PCOD9129066
Probable space group: C 2
;
_chemical_formula_sum "Si O2"
_cell_formula_units_Z 24
_cell_length_a 22.176495
_cell_length_b 5.672753
_cell_length_c 22.044761
_cell_angle_alpha 90.000000
_cell_angle_beta 23.439251
_cell_angle_gamma 90.000000
_cell_volume 1103.141728
_symmetry_space_group_name_H-M "C 2"
_symmetry_group_IT_number 5
_symmetry_cell_setting 'monoclinic'
loop_
_space_group_symop_operation_xyz
x,y,z
-x,y,-z
1/2+x,1/2+y,z
1/2-x,1/2+y,-z
loop_
_atom_site_type_symbol
_atom_site_label
_atom_site_fract_x
_atom_site_fract_y
_atom_site_fract_z
Si Si1 0.138093 0.333890 0.287720
Si Si2 0.728822 0.681436 0.742041
Si Si3 0.500000 0.459091 0.500000
Si Si4 0.426950 0.894273 0.372888
Si Si5 0.062417 0.889860 0.702149
Si Si6 0.029182 0.869862 0.076312
Si Si7 0.000000 0.500019 0.000000
O O1 0.174977 0.485792 0.312761
O O2 0.086898 0.093884 0.366472
O O3 0.001759 0.400192 0.369767
O O4 0.294137 0.364523 0.105868
O O5 0.589609 0.577852 0.832137
O O6 0.643220 0.832066 0.872593
O O7 0.862303 0.833387 0.590517
O O8 0.244530 0.891478 0.543741
O O9 0.474007 0.644594 0.296177
O O10 0.472394 0.144611 0.300582
O O11 0.984406 0.859036 0.839410
O O12 0.971819 0.657642 0.085375
#
# Coordination Sequence:
#
# PCOD9129066 Si02
#       7
#     4   4   2   4   4   4   2
#     4  12  26  46  70 112 143 188 254 305 361 453
#     4  12  25  44  70 109 152 192 232 305 380 440
#     4  12  28  42  72 112 150 194 238 306 374 438
#     4  10  26  48  71 103 143 191 255 306 368 440
#     4  10  26  48  72 102 141 197 246 312 372 435
#     4  12  25  45  73 108 147 190 248 300 376 445
#     4  12  22  44  68 108 152 190 230 302 384 440
#
# _framework density 21.756045
#
# number of rings (size 3 to 8) (size 9 to 14) (size 15 to 20)
#    0.000    0.667    5.000    0.500   11.667    2.667 
#    0.000    0.000    0.000    0.000    0.000    0.000 
#    0.000    0.000    0.000    0.000    0.000    0.000 
#
# Total GULP energy -66847.351519 kJ/mol
# GULP energy per Si atom -5570.612627 kJ/mol
# Density = 2.170653 g / cm^3
# Si number density = 21.756045 Si / 1000 Ang^3
#
#
#
# Elastic Constant Matrix: (Units=GPa)
#
#
# Indices 1 2 3 4 5 6 
#
# 1 44.3734 0.3306 -1.5557 -0.0056 -9.0118 0.0086
# 2 0.3306 84.8783 40.8505 -0.0074 -7.9567 -0.0001
# 3 -1.5557 40.8505 73.2844 0.0138 2.8124 0.0009
# 4 -0.0056 -0.0074 0.0138 26.5284 -0.0013 -3.1072
# 5 -9.0118 -7.9567 2.8124 -0.0013 35.4135 0.0043
# 6 0.0086 -0.0001 0.0009 -3.1072 0.0043 5.7645
#
#
#
# Elastic Compliance Matrix: (Units=1/GPa)
#
#
# Indices 1 2 3 4 5 6 
#
# 1 0.023784 0.000486 -0.000003 0.000001 0.006162 -0.000040
# 2 0.000486 0.016806 -0.009536 0.000010 0.004657 0.000003
# 3 -0.000003 -0.009536 0.019102 -0.000014 -0.003660 -0.000008
# 4 0.000001 0.000010 -0.000014 0.040236 0.000002 0.021688
# 5 0.006162 0.004657 -0.003660 0.000002 0.031143 -0.000031
# 6 -0.000040 0.000003 -0.000008 0.021688 -0.000031 0.185165
#
#
# Mechanical properties :
#
#
# Convention : Reuss Voigt Hill
#
# Bulk Modulus (GPa) = 24.04668 31.30964 27.67816
# Shear Modulus (GPa) = 14.35946 24.40200 19.38073
#
# Velocity S-wave (km/s) = 2.57188 3.35269 2.98790
# Velocity P-wave (km/s) = 4.46052 5.42309 4.96519
#
# Compressibility (1/GPa) = 0.04158578
#
# Stress axis : x y z
#
# Youngs Moduli (GPa) = 42.04558 59.50258 52.35127
#
# Poissons Ratio (x) = -0.02893 0.00014
# Poissons Ratio (y) = -0.02044 0.49925
# Poissons Ratio (z) = 0.00011 0.56744
#
# Static dielectric constant tensor:
#      x y z
#    x 1.864460 -0.000010 0.056630 
#    y -0.000010 1.930850 -0.000010 
#    z 0.056630 -0.000010 1.824930 
# 
# From -- ./inp_files/69557.got.cif
#   From: 2010.05.17/outbox.cif.g08.bks.cpg/sg5_35_cif.got.tgz:69557.got - 2010.06.03 18:56:24.
