data_PCOD9129886
_publ_section_title
;
Structure prediction by ZEFSAII (Michael W. Deem and Ramdas Pophale) SiO2 
 PCOD9129886
Probable space group: C 2
;
_chemical_formula_sum "Si O2"
_cell_formula_units_Z 16
_cell_length_a 8.269135
_cell_length_b 12.965930
_cell_length_c 9.119995
_cell_angle_alpha 90.000000
_cell_angle_beta 47.479462
_cell_angle_gamma 90.000000
_cell_volume 720.686751
_symmetry_space_group_name_H-M "C 2"
_symmetry_group_IT_number 5
_symmetry_cell_setting 'monoclinic'
loop_
_space_group_symop_operation_xyz
x,y,z
-x,y,-z
1/2+x,1/2+y,z
1/2-x,1/2+y,-z
loop_
_atom_site_type_symbol
_atom_site_label
_atom_site_fract_x
_atom_site_fract_y
_atom_site_fract_z
Si Si1 0.000000 0.910190 0.500000
Si Si2 0.757322 0.255753 0.483788
Si Si3 0.521561 0.082512 0.232352
Si Si4 0.365884 0.585116 0.776009
Si Si5 0.000000 0.413998 0.500000
O O1 0.790618 0.835697 0.617181
O O2 0.993152 0.982698 0.646958
O O3 0.544489 0.185537 0.640599
O O4 0.962600 0.179141 0.337197
O O5 0.804621 0.332365 0.590609
O O6 0.325921 0.083704 0.230407
O O7 0.524918 0.988173 0.344391
O O8 0.746356 0.083993 0.004436
#
# Coordination Sequence:
#
# PCOD9129886 Si02
#       5
#     2   4   4   4   2
#     4  12  24  46  72  98 140 184 222 280 340 400
#     4  12  23  46  71  98 141 182 224 277 340 404
#     4  11  24  44  70 103 141 174 225 286 339 399
#     4  11  23  47  68 101 143 176 223 288 334 400
#     4  12  22  44  72 100 136 178 224 276 342 404
#
# _framework density 22.201042999999999
#
# number of rings (size 3 to 8) (size 9 to 14) (size 15 to 20)
#    0.000    0.500    7.500    0.750    0.000    2.000 
#    0.000    8.750    0.000    0.000    0.000    0.000 
#    0.000    0.000    0.000    0.000    0.000    0.000 
#
# Total GULP energy -44623.258986 kJ/mol
# GULP energy per Si atom -5577.907373 kJ/mol
# Density = 2.215051 g / cm^3
# Si number density = 22.201043 Si / 1000 Ang^3
#
#
#
# Elastic Constant Matrix: (Units=GPa)
#
#
# Indices 1 2 3 4 5 6 
#
# 1 72.4983 76.7545 40.5503 -0.0003 -5.9332 0.0002
# 2 76.7545 197.7316 88.8951 0.0000 -5.4832 0.0000
# 3 40.5503 88.8951 167.4231 -0.0002 -14.4245 0.0003
# 4 -0.0003 0.0000 -0.0002 3.0788 0.0003 9.8961
# 5 -5.9332 -5.4832 -14.4245 0.0003 22.3765 -0.0003
# 6 0.0002 0.0000 0.0003 9.8961 -0.0003 69.2008
#
#
#
# Elastic Compliance Matrix: (Units=1/GPa)
#
#
# Indices 1 2 3 4 5 6 
#
# 1 0.023855 -0.008804 -0.000788 0.000004 0.003660 -0.000001
# 2 -0.008804 0.009902 -0.003301 -0.000002 -0.002036 0.000000
# 3 -0.000788 -0.003301 0.008289 0.000000 0.004326 0.000000
# 4 0.000004 -0.000002 0.000000 0.601116 -0.000008 -0.085963
# 5 0.003660 -0.002036 0.004326 -0.000008 0.047950 0.000001
# 6 -0.000001 0.000000 0.000000 -0.085963 0.000001 0.026744
#
#
# Mechanical properties :
#
#
# Convention : Reuss Voigt Hill
#
# Bulk Modulus (GPa) = 61.49794 94.45033 77.97413
# Shear Modulus (GPa) = 6.67502 34.36143 20.51823
#
# Velocity S-wave (km/s) = 1.73584 3.93840 3.04337
# Velocity P-wave (km/s) = 5.63721 7.95719 6.89547
#
# Compressibility (1/GPa) = 0.01626071
#
# Stress axis : x y z
#
# Youngs Moduli (GPa) = 41.92079 100.98555 120.64280
#
# Poissons Ratio (x) = 0.88909 0.09502
# Poissons Ratio (y) = 0.36908 0.39822
# Poissons Ratio (z) = 0.03302 0.33333
#
# Static dielectric constant tensor:
#      x y z
#    x 1.955720 0.000000 0.021220 
#    y 0.000000 1.838520 0.000000 
#    z 0.021220 0.000000 1.773570 
# 
# From -- ./inp_files/13740.got.cif
#   From: 2010.05.17/outbox.cif.g08.bks.cpg/sg5_7_cif.got.tgz:13740.got - 2010.06.03 18:56:24.
