data_PCOD9129652
_publ_section_title
;
Structure prediction by ZEFSAII (Michael W. Deem and Ramdas Pophale) SiO2 
 PCOD9129652
Probable space group: C 2
;
_chemical_formula_sum "Si O2"
_cell_formula_units_Z 24
_cell_length_a 30.432572
_cell_length_b 8.171899
_cell_length_c 9.180503
_cell_angle_alpha 90.000000
_cell_angle_beta 151.806264
_cell_angle_gamma 90.000000
_cell_volume 1078.668593
_symmetry_space_group_name_H-M "C 2"
_symmetry_group_IT_number 5
_symmetry_cell_setting 'monoclinic'
loop_
_space_group_symop_operation_xyz
x,y,z
-x,y,-z
1/2+x,1/2+y,z
1/2-x,1/2+y,-z
loop_
_atom_site_type_symbol
_atom_site_label
_atom_site_fract_x
_atom_site_fract_y
_atom_site_fract_z
Si Si1 0.411730 0.643090 0.342862
Si Si2 0.354770 0.804531 0.767725
Si Si3 0.900711 0.061414 0.644089
Si Si4 0.599835 0.199852 0.370106
Si Si5 0.530302 0.994082 0.433221
Si Si6 0.728006 0.537665 0.270313
O O1 0.500000 0.603418 0.500000
O O2 0.420232 0.613156 0.537709
O O3 0.405190 0.841785 0.324349
O O4 0.329339 0.526892 0.045596
O O5 0.366504 0.709062 0.647378
O O6 0.335236 0.666087 0.829192
O O7 0.255470 0.895048 0.460083
O O8 0.442026 0.912442 0.084729
O O9 0.855185 0.881790 0.501970
O O10 0.000000 0.023271 0.000000
O O11 0.670188 0.092651 0.481988
O O12 0.581870 0.119520 0.476173
O O13 0.500000 0.194137 0.000000
O O14 0.500000 0.071567 0.500000
#
# Coordination Sequence:
#
# PCOD9129652 Si02
#       6
#     4   4   4   4   4   4
#     4  11  23  44  70 102 143 193 248 303 369 437
#     4  12  24  46  73 105 148 201 247 305 372 443
#     4  11  23  42  71 100 147 196 245 301 375 439
#     4  11  25  43  68 109 143 193 250 302 368 446
#     4  11  22  47  76 101 147 197 246 302 373 439
#     4  12  25  44  71 107 145 190 259 298 371 441
#
# _framework density 22.249649999999999
#
# number of rings (size 3 to 8) (size 9 to 14) (size 15 to 20)
#    0.000    0.667    6.667    2.000    0.000    4.667 
#    6.000    0.000    0.000    0.000    0.000    0.000 
#    0.000    0.000    0.000    0.000    0.000    0.000 
#
# Total GULP energy -66851.733356 kJ/mol
# GULP energy per Si atom -5570.977780 kJ/mol
# Density = 2.219901 g / cm^3
# Si number density = 22.249650 Si / 1000 Ang^3
#
#
#
# Elastic Constant Matrix: (Units=GPa)
#
#
# Indices 1 2 3 4 5 6 
#
# 1 109.9187 1.1126 13.9344 0.0000 -25.0727 0.0000
# 2 1.1126 43.9813 11.6335 0.0000 -4.5462 0.0000
# 3 13.9344 11.6335 86.5805 0.0000 -6.2763 0.0000
# 4 0.0000 0.0000 0.0000 25.4067 0.0000 -6.6172
# 5 -25.0727 -4.5462 -6.2763 0.0000 32.4135 0.0000
# 6 0.0000 0.0000 0.0000 -6.6172 0.0000 33.7162
#
#
#
# Elastic Compliance Matrix: (Units=1/GPa)
#
#
# Indices 1 2 3 4 5 6 
#
# 1 0.011203 0.000947 -0.001311 0.000000 0.008545 0.000000
# 2 0.000947 0.023896 -0.003111 0.000000 0.003481 0.000000
# 3 -0.001311 -0.003111 0.012246 0.000000 0.000921 0.000000
# 4 0.000000 0.000000 0.000000 0.041480 0.000000 0.008141
# 5 0.008545 0.003481 0.000921 0.000000 0.038128 0.000000
# 6 0.000000 0.000000 0.000000 0.008141 0.000000 0.031257
#
#
# Mechanical properties :
#
#
# Convention : Reuss Voigt Hill
#
# Bulk Modulus (GPa) = 24.75572 32.64904 28.70238
# Shear Modulus (GPa) = 27.99169 32.56062 30.27615
#
# Velocity S-wave (km/s) = 3.55078 3.82962 3.69283
# Velocity P-wave (km/s) = 5.28784 5.85324 5.57771
#
# Compressibility (1/GPa) = 0.04039470
#
# Stress axis : x y z
#
# Youngs Moduli (GPa) = 89.25888 41.84857 81.66163
#
# Poissons Ratio (x) = -0.03961 0.10705
# Poissons Ratio (y) = -0.08449 0.25403
# Poissons Ratio (z) = 0.11700 0.13018
#
# Static dielectric constant tensor:
#      x y z
#    x 1.828610 0.000000 -0.053180 
#    y 0.000000 2.001400 0.000000 
#    z -0.053180 0.000000 1.883990 
# 
# From -- ./inp_files/32543.got.cif
#   From: 2010.05.17/outbox.cif.g08.bks.cpg/sg5_17_cif.got.tgz:32543.got - 2010.06.03 18:56:24.
