data_PCOD9129459
_publ_section_title
;
Structure prediction by ZEFSAII (Michael W. Deem and Ramdas Pophale) SiO2 
 PCOD9129459
Probable space group: C 2
;
_chemical_formula_sum "Si O2"
_cell_formula_units_Z 30
_cell_length_a 30.675038
_cell_length_b 8.090145
_cell_length_c 12.499707
_cell_angle_alpha 90.000000
_cell_angle_beta 155.377621
_cell_angle_gamma 90.000000
_cell_volume 1292.402928
_symmetry_space_group_name_H-M "C 2"
_symmetry_group_IT_number 5
_symmetry_cell_setting 'monoclinic'
loop_
_space_group_symop_operation_xyz
x,y,z
-x,y,-z
1/2+x,1/2+y,z
1/2-x,1/2+y,-z
loop_
_atom_site_type_symbol
_atom_site_label
_atom_site_fract_x
_atom_site_fract_y
_atom_site_fract_z
Si Si1 0.241192 0.698440 0.772782
Si Si2 0.015012 0.870237 0.909950
Si Si3 0.843564 0.025745 0.386387
Si Si4 0.475441 0.734829 0.324211
Si Si5 0.216511 0.076785 0.346858
Si Si6 0.714011 0.717877 0.555043
Si Si7 0.486716 0.035486 0.750752
Si Si8 0.500000 0.835690 0.000000
O O1 0.221673 0.866889 0.797278
O O2 0.256578 0.718678 0.677709
O O3 0.136436 0.584120 0.549323
O O4 0.360831 0.646221 0.067323
O O5 0.907774 0.937204 0.624336
O O6 0.039968 0.715301 0.887135
O O7 0.096843 0.018261 0.081450
O O8 0.000000 0.819833 0.000000
O O9 0.774253 0.154105 0.299127
O O10 0.929727 0.117148 0.506687
O O11 0.500000 0.781445 0.500000
O O12 0.475212 0.900538 0.250337
O O13 0.263179 0.909706 0.404340
O O14 0.263691 0.117431 0.567530
O O15 0.594860 0.720971 0.247392
O O16 0.507799 0.948635 0.912057
#
# Coordination Sequence:
#
# PCOD9129459 Si02
#       8
#     4   4   4   4   4   4   4   2
#     4  11  25  47  69 105 143 182 249 300 364 440
#     4  11  22  39  64  95 147 187 223 288 352 431
#     4  11  23  45  65  98 139 184 238 301 355 420
#     4  12  27  51  78 101 139 194 255 314 369 422
#     4  12  23  36  60  99 141 189 238 275 350 448
#     4  12  24  34  58  95 142 192 230 277 351 427
#     4  11  25  44  68 107 146 189 237 296 360 439
#     4  12  20  38  64  90 148 184 214 282 356 420
#
# _framework density 23.212577
#
# number of rings (size 3 to 8) (size 9 to 14) (size 15 to 20)
#    0.000    0.533    6.000    2.400    5.600    1.067 
#    0.000    2.667    0.000    0.000    0.000    0.000 
#    0.000    0.000    0.000    0.000    0.000    0.000 
#
# Total GULP energy -83612.237361 kJ/mol
# GULP energy per Si atom -5574.149157 kJ/mol
# Density = 2.315974 g / cm^3
# Si number density = 23.212577 Si / 1000 Ang^3
#
#
#
# Elastic Constant Matrix: (Units=GPa)
#
#
# Indices 1 2 3 4 5 6 
#
# 1 78.6215 31.5734 29.3173 0.0000 -5.6318 0.0000
# 2 31.5734 87.7403 -9.8516 0.0000 2.4278 0.0000
# 3 29.3173 -9.8516 46.2772 0.0000 10.7126 0.0000
# 4 0.0000 0.0000 0.0000 23.0554 0.0000 13.0781
# 5 -5.6318 2.4278 10.7126 0.0000 37.4080 0.0000
# 6 0.0000 0.0000 0.0000 13.0781 0.0000 25.1465
#
#
#
# Elastic Compliance Matrix: (Units=1/GPa)
#
#
# Indices 1 2 3 4 5 6 
#
# 1 0.026817 -0.012457 -0.022237 0.000000 0.011214 0.000000
# 2 -0.012457 0.017550 0.013201 0.000000 -0.006795 0.000000
# 3 -0.022237 0.013201 0.042283 0.000000 -0.016313 0.000000
# 4 0.000000 0.000000 0.000000 0.061524 0.000000 -0.031997
# 5 0.011214 -0.006795 -0.016313 0.000000 0.033533 0.000000
# 6 0.000000 0.000000 0.000000 -0.031997 0.000000 0.056408
#
#
# Mechanical properties :
#
#
# Convention : Reuss Voigt Hill
#
# Bulk Modulus (GPa) = 22.90229 34.96858 28.93543
# Shear Modulus (GPa) = 16.91161 27.89531 22.40346
#
# Velocity S-wave (km/s) = 2.70210 3.47036 3.11005
# Velocity P-wave (km/s) = 4.42977 5.58167 5.03875
#
# Compressibility (1/GPa) = 0.04366376
#
# Stress axis : x y z
#
# Youngs Moduli (GPa) = 37.29000 56.97952 23.65042
#
# Poissons Ratio (x) = 0.70980 0.52590
# Poissons Ratio (y) = 0.46452 -0.31220
# Poissons Ratio (z) = 0.82920 -0.75217
#
# Static dielectric constant tensor:
#      x y z
#    x 2.028010 0.000000 0.165580 
#    y 0.000000 1.975740 0.000000 
#    z 0.165580 0.000000 2.036660 
# 
# From -- ./inp_files/48360.got.cif
#   From: 2010.05.17/outbox.cif.g08.bks.cpg/sg5_25_cif.got.tgz:48360.got - 2010.06.03 18:56:24.
