data_PCOD9129841
_publ_section_title
;
Structure prediction by ZEFSAII (Michael W. Deem and Ramdas Pophale) SiO2 
 PCOD9129841
Probable space group: C 2
;
_chemical_formula_sum "Si O2"
_cell_formula_units_Z 30
_cell_length_a 11.209799
_cell_length_b 17.355786
_cell_length_c 11.616496
_cell_angle_alpha 90.000000
_cell_angle_beta 38.982063
_cell_angle_gamma 90.000000
_cell_volume 1421.743046
_symmetry_space_group_name_H-M "C 2"
_symmetry_group_IT_number 5
_symmetry_cell_setting 'monoclinic'
loop_
_space_group_symop_operation_xyz
x,y,z
-x,y,-z
1/2+x,1/2+y,z
1/2-x,1/2+y,-z
loop_
_atom_site_type_symbol
_atom_site_label
_atom_site_fract_x
_atom_site_fract_y
_atom_site_fract_z
Si Si1 0.082750 0.079770 0.810996
Si Si2 0.375589 0.443239 0.866376
Si Si3 0.500000 0.064080 0.500000
Si Si4 0.911601 0.310147 0.450906
Si Si5 0.293200 0.538218 0.705246
Si Si6 0.974205 0.465853 0.287333
Si Si7 0.508844 0.281879 0.853205
Si Si8 0.188110 0.177314 0.148413
O O1 0.299157 0.107008 0.651754
O O2 0.952441 0.131720 0.828686
O O3 0.051679 0.994304 0.780976
O O4 0.000000 0.078444 0.000000
O O5 0.323938 0.471419 0.777401
O O6 0.425353 0.355295 0.849769
O O7 0.188190 0.459981 0.080815
O O8 0.487760 0.013292 0.394373
O O9 0.894061 0.380043 0.373873
O O10 0.715851 0.272355 0.641922
O O11 0.000000 0.346680 0.500000
O O12 0.062154 0.246693 0.294966
O O13 0.500000 0.554960 0.500000
O O14 0.152387 0.509755 0.712226
O O15 0.237610 0.616693 0.812500
O O16 0.500000 0.296695 0.000000
O O17 0.367062 0.210867 0.946447
#
# Coordination Sequence:
#
# PCOD9129841 Si02
#       8
#     4   4   2   4   4   4   4   4
#     4  11  24  45  68 100 140 181 237 292 361 425
#     4  11  23  45  72 104 138 182 240 301 350 433
#     4  12  24  42  74 102 136 186 236 296 342 426
#     4  12  23  44  68 101 139 183 238 297 355 426
#     4  11  25  46  70 107 149 187 238 298 364 433
#     4  12  23  43  74 105 139 183 243 295 360 419
#     4  12  24  42  73 101 138 186 240 294 358 425
#     4  11  26  46  68 104 144 185 237 300 360 435
#
# _framework density 21.100859
#
# number of rings (size 3 to 8) (size 9 to 14) (size 15 to 20)
#    0.000    0.533    4.667    4.400    0.000    3.200 
#    2.400    0.000    1.467    0.000    0.000    0.000 
#    0.000    0.000    0.000    0.000    0.000    0.000 
#
# Total GULP energy -83905.486509 kJ/mol
# GULP energy per Si atom -5593.699101 kJ/mol
# Density = 2.105283 g / cm^3
# Si number density = 21.100859 Si / 1000 Ang^3
#
#
#
# Elastic Constant Matrix: (Units=GPa)
#
#
# Indices 1 2 3 4 5 6 
#
# 1 108.4645 43.0013 43.0435 -0.0018 -5.0454 0.0009
# 2 43.0013 88.0625 4.6450 -0.0010 -3.2543 0.0011
# 3 43.0435 4.6450 82.5687 -0.0021 -29.6154 0.0027
# 4 -0.0018 -0.0010 -0.0021 15.6751 0.0019 7.4599
# 5 -5.0454 -3.2543 -29.6154 0.0019 46.9651 -0.0015
# 6 0.0009 0.0011 0.0027 7.4599 -0.0015 22.0069
#
#
#
# Elastic Compliance Matrix: (Units=1/GPa)
#
#
# Indices 1 2 3 4 5 6 
#
# 1 0.015659 -0.007324 -0.009472 0.000000 -0.004798 0.000000
# 2 -0.007324 0.014824 0.003968 0.000001 0.002742 -0.000001
# 3 -0.009472 0.003968 0.021399 0.000002 0.012751 -0.000002
# 4 0.000000 0.000001 0.000002 0.076067 -0.000003 -0.025785
# 5 -0.004798 0.002742 0.012751 -0.000003 0.029008 0.000001
# 6 0.000000 -0.000001 -0.000002 -0.025785 0.000001 0.054181
#
#
# Mechanical properties :
#
#
# Convention : Reuss Voigt Hill
#
# Bulk Modulus (GPa) = 38.13069 51.16393 44.64731
# Shear Modulus (GPa) = 20.36354 29.48981 24.92668
#
# Velocity S-wave (km/s) = 3.10991 3.74246 3.44075
# Velocity P-wave (km/s) = 5.56824 6.55550 6.08194
#
# Compressibility (1/GPa) = 0.02622560
#
# Stress axis : x y z
#
# Youngs Moduli (GPa) = 63.86089 67.45814 46.73020
#
# Poissons Ratio (x) = 0.49407 0.44263
# Poissons Ratio (y) = 0.46772 -0.18541
# Poissons Ratio (z) = 0.60490 -0.26766
#
# Static dielectric constant tensor:
#      x y z
#    x 1.751140 0.000000 -0.007450 
#    y 0.000000 1.761240 0.000000 
#    z -0.007450 0.000000 1.788820 
# 
# From -- ./inp_files/40447.got.cif
#   From: 2010.05.17/outbox.cif.g08.bks.cpg/sg5_21_cif.got.tgz:40447.got - 2010.06.03 18:56:24.
