data_PCOD9129087
_publ_section_title
;
Structure prediction by ZEFSAII (Michael W. Deem and Ramdas Pophale) SiO2 
 PCOD9129087
Probable space group: C 2
;
_chemical_formula_sum "Si O2"
_cell_formula_units_Z 28
_cell_length_a 26.693911
_cell_length_b 5.151005
_cell_length_c 18.829427
_cell_angle_alpha 90.000000
_cell_angle_beta 152.433566
_cell_angle_gamma 90.000000
_cell_volume 1198.154568
_symmetry_space_group_name_H-M "C 2"
_symmetry_group_IT_number 5
_symmetry_cell_setting 'monoclinic'
loop_
_space_group_symop_operation_xyz
x,y,z
-x,y,-z
1/2+x,1/2+y,z
1/2-x,1/2+y,-z
loop_
_atom_site_type_symbol
_atom_site_label
_atom_site_fract_x
_atom_site_fract_y
_atom_site_fract_z
Si Si1 0.574647 0.322750 0.958853
Si Si2 0.529945 0.247053 0.319859
Si Si3 0.197857 0.939575 0.905990
Si Si4 0.000000 0.152860 0.000000
Si Si5 0.500000 0.827853 0.500000
Si Si6 0.884042 0.228717 0.498096
Si Si7 0.309545 0.971279 0.793763
Si Si8 0.286666 0.158966 0.213899
O O1 0.679803 0.486660 0.064573
O O2 0.619640 0.061585 0.050182
O O3 0.494714 0.254748 0.794727
O O4 0.524708 0.480696 0.962009
O O5 0.415513 0.324977 0.211112
O O6 0.606067 0.482335 0.438262
O O7 0.573640 0.980216 0.407486
O O8 0.207161 0.893735 0.833965
O O9 0.283962 0.736109 0.048575
O O10 0.895404 0.330976 0.852367
O O11 0.455074 0.690390 0.514966
O O12 0.396881 0.998862 0.347228
O O13 0.757698 0.217092 0.317600
O O14 0.224934 0.770560 0.721470
#
# Coordination Sequence:
#
# PCOD9129087 Si02
#       8
#     4   4   4   2   2   4   4   4
#     4  11  24  48  78 109 144 196 263 319 378 456
#     4  12  27  44  71 111 157 199 244 314 382 440
#     4  12  24  39  62 102 150 200 245 292 357 441
#     4  10  26  48  88 108 136 194 274 334 390 444
#     4  12  24  44  66 110 154 218 242 290 360 462
#     4  12  28  45  73 109 163 202 249 300 377 461
#     4  11  25  47  79 106 143 200 259 320 376 460
#     4  11  24  39  68 105 152 200 259 295 360 451
#
# _framework density 23.369271000000001
#
# number of rings (size 3 to 8) (size 9 to 14) (size 15 to 20)
#    0.000    0.571    4.286    3.000    8.000    0.571 
#    0.000    0.000    6.286    0.000    0.000    0.000 
#    0.000    0.000    0.000    0.000    0.000    0.000 
#
# Total GULP energy -78390.943592 kJ/mol
# GULP energy per Si atom -5599.353114 kJ/mol
# Density = 2.331608 g / cm^3
# Si number density = 23.369271 Si / 1000 Ang^3
#
#
#
# Elastic Constant Matrix: (Units=GPa)
#
#
# Indices 1 2 3 4 5 6 
#
# 1 110.0266 24.1488 49.0702 0.0006 5.1620 0.0001
# 2 24.1488 89.9742 37.2311 -0.0022 -7.3624 -0.0009
# 3 49.0702 37.2311 108.8501 -0.0010 -22.9852 -0.0006
# 4 0.0006 -0.0022 -0.0010 38.4782 -0.0003 4.0358
# 5 5.1620 -7.3624 -22.9852 -0.0003 37.9539 -0.0003
# 6 0.0001 -0.0009 -0.0006 4.0358 -0.0003 35.0134
#
#
#
# Elastic Compliance Matrix: (Units=1/GPa)
#
#
# Indices 1 2 3 4 5 6 
#
# 1 0.012505 -0.001155 -0.006477 0.000000 -0.005847 0.000000
# 2 -0.001155 0.013055 -0.003872 0.000001 0.000344 0.000000
# 3 -0.006477 -0.003872 0.015432 0.000000 0.009476 0.000000
# 4 0.000000 0.000001 0.000000 0.026307 0.000001 -0.003032
# 5 -0.005847 0.000344 0.009476 0.000001 0.032948 0.000000
# 6 0.000000 0.000000 0.000000 -0.003032 0.000000 0.028910
#
#
# Mechanical properties :
#
#
# Convention : Reuss Voigt Hill
#
# Bulk Modulus (GPa) = 55.60369 58.86125 57.23247
# Shear Modulus (GPa) = 31.61360 35.51579 33.56470
#
# Velocity S-wave (km/s) = 3.68201 3.90265 3.79393
# Velocity P-wave (km/s) = 6.47468 6.74905 6.61329
#
# Compressibility (1/GPa) = 0.01798442
#
# Stress axis : x y z
#
# Youngs Moduli (GPa) = 79.96655 76.60143 64.79945
#
# Poissons Ratio (x) = 0.08844 0.41972
# Poissons Ratio (y) = 0.09233 0.25090
# Poissons Ratio (z) = 0.51797 0.29660
#
# Static dielectric constant tensor:
#      x y z
#    x 1.863540 0.000000 -0.017710 
#    y 0.000000 1.910240 0.000000 
#    z -0.017710 0.000000 1.944120 
# 
# From -- ./inp_files/55340.got.cif
#   From: 2010.05.17/outbox.cif.g08.bks.cpg/sg5_28_cif.got.tgz:55340.got - 2010.06.03 18:56:24.
