data_PCOD9129610
_publ_section_title
;
Structure prediction by ZEFSAII (Michael W. Deem and Ramdas Pophale) SiO2 
 PCOD9129610
Probable space group: C 2
;
_chemical_formula_sum "Si O2"
_cell_formula_units_Z 32
_cell_length_a 10.280942
_cell_length_b 9.669480
_cell_length_c 13.318060
_cell_angle_alpha 90.000000
_cell_angle_beta 90.048309
_cell_angle_gamma 90.000000
_cell_volume 1323.966027
_symmetry_space_group_name_H-M "C 2"
_symmetry_group_IT_number 5
_symmetry_cell_setting 'monoclinic'
loop_
_space_group_symop_operation_xyz
x,y,z
-x,y,-z
1/2+x,1/2+y,z
1/2-x,1/2+y,-z
loop_
_atom_site_type_symbol
_atom_site_label
_atom_site_fract_x
_atom_site_fract_y
_atom_site_fract_z
Si Si1 0.416762 0.170640 0.400794
Si Si2 0.680969 0.335732 0.036193
Si Si3 0.316382 0.041633 0.907983
Si Si4 0.293406 0.942349 0.306933
Si Si5 0.538987 0.827139 0.855299
Si Si6 0.430061 0.533549 0.808354
Si Si7 0.819064 0.653142 0.688081
Si Si8 0.090204 0.984940 0.601334
O O1 0.500000 0.169626 0.500000
O O2 0.526478 0.134075 0.318581
O O3 0.364988 0.324804 0.390861
O O4 0.320613 0.042885 0.397748
O O5 0.655077 0.173422 0.020563
O O6 0.827271 0.334030 0.083043
O O7 0.580400 0.402878 0.115857
O O8 0.699838 0.444841 0.946944
O O9 0.281421 0.107806 0.800192
O O10 0.437981 0.941459 0.891331
O O11 0.416354 0.865783 0.257627
O O12 0.200074 0.815546 0.331190
O O13 0.221124 0.041077 0.226883
O O14 0.476141 0.675388 0.858788
O O15 0.508827 0.514449 0.704194
O O16 0.719984 0.577125 0.613160
O O17 0.000000 0.004393 0.500000
#
# Coordination Sequence:
#
# PCOD9129610 Si02
#       8
#     4   4   4   4   4   4   4   4
#     4  11  26  43  68 105 138 185 238 286 350 412
#     4  11  25  45  68 100 140 176 232 289 344 424
#     4  12  23  45  71 100 134 183 229 283 355 412
#     4  11  23  42  69  98 136 180 226 288 344 411
#     4  11  23  44  66  96 135 180 225 282 344 414
#     4  11  22  45  69  98 138 182 227 285 346 409
#     4  12  24  47  69 100 147 178 233 294 343 419
#     4  11  25  45  70 102 141 187 232 287 349 415
#
# _framework density 24.169802000000001
#
# number of rings (size 3 to 8) (size 9 to 14) (size 15 to 20)
#    0.000    0.750    6.250    1.125    3.500    0.500 
#    0.000    4.375    0.000    0.000    0.000    0.000 
#    0.000    0.000    0.000    0.000    0.000    0.000 
#
# Total GULP energy -89435.542526 kJ/mol
# GULP energy per Si atom -5589.721408 kJ/mol
# Density = 2.411479 g / cm^3
# Si number density = 24.169802 Si / 1000 Ang^3
#
#
#
# Elastic Constant Matrix: (Units=GPa)
#
#
# Indices 1 2 3 4 5 6 
#
# 1 78.7236 53.0770 6.3257 0.0000 3.8019 0.0000
# 2 53.0770 169.6616 22.1657 0.0000 15.4547 0.0000
# 3 6.3257 22.1657 63.3622 0.0000 -15.2757 0.0000
# 4 0.0000 0.0000 0.0000 25.0640 0.0000 11.7534
# 5 3.8019 15.4547 -15.2757 0.0000 29.3028 0.0000
# 6 0.0000 0.0000 0.0000 11.7534 0.0000 32.4459
#
#
#
# Elastic Compliance Matrix: (Units=1/GPa)
#
#
# Indices 1 2 3 4 5 6 
#
# 1 0.016116 -0.005172 0.000405 0.000000 0.000848 0.000000
# 2 -0.005172 0.008555 -0.003892 0.000000 -0.005870 0.000000
# 3 0.000405 -0.003892 0.020113 0.000000 0.012485 0.000000
# 4 0.000000 0.000000 0.000000 0.048062 0.000000 -0.017410
# 5 0.000848 -0.005870 0.012485 0.000000 0.043621 0.000000
# 6 0.000000 0.000000 0.000000 -0.017410 0.000000 0.037127
#
#
# Mechanical properties :
#
#
# Convention : Reuss Voigt Hill
#
# Bulk Modulus (GPa) = 36.40737 52.76491 44.58614
# Shear Modulus (GPa) = 24.99147 32.70782 28.84964
#
# Velocity S-wave (km/s) = 3.21907 3.68265 3.45863
# Velocity P-wave (km/s) = 5.37703 6.32146 5.86827
#
# Compressibility (1/GPa) = 0.02746696
#
# Stress axis : x y z
#
# Youngs Moduli (GPa) = 62.04944 116.88844 49.71850
#
# Poissons Ratio (x) = 0.60453 -0.02012
# Poissons Ratio (y) = 0.32091 0.19348
# Poissons Ratio (z) = -0.02511 0.45488
#
# Static dielectric constant tensor:
#      x y z
#    x 2.796950 0.000000 -0.405010 
#    y 0.000000 1.885540 0.000000 
#    z -0.405010 0.000000 2.196810 
# 
# From -- ./inp_files/52462.got.cif
#   From: 2010.05.17/outbox.cif.g08.bks.cpg/sg5_27_cif.got.tgz:52462.got - 2010.06.03 18:56:24.
