data_PCOD9129551
_publ_section_title
;
Structure prediction by ZEFSAII (Michael W. Deem and Ramdas Pophale) SiO2 
 PCOD9129551
Probable space group: C 2
;
_chemical_formula_sum "Si O2"
_cell_formula_units_Z 20
_cell_length_a 12.387630
_cell_length_b 14.323629
_cell_length_c 5.032197
_cell_angle_alpha 90.000000
_cell_angle_beta 101.939097
_cell_angle_gamma 90.000000
_cell_volume 873.576987
_symmetry_space_group_name_H-M "C 2"
_symmetry_group_IT_number 5
_symmetry_cell_setting 'monoclinic'
loop_
_space_group_symop_operation_xyz
x,y,z
-x,y,-z
1/2+x,1/2+y,z
1/2-x,1/2+y,-z
loop_
_atom_site_type_symbol
_atom_site_label
_atom_site_fract_x
_atom_site_fract_y
_atom_site_fract_z
Si Si1 0.760264 0.133010 0.150463
Si Si2 0.217114 0.929193 0.964371
Si Si3 0.420351 0.813038 0.210514
Si Si4 0.618916 0.141335 0.565242
Si Si5 0.609344 0.354207 0.417640
O O1 0.840896 0.221866 0.206988
O O2 0.710258 0.102767 0.409998
O O3 0.664856 0.153634 0.884788
O O4 0.811327 0.037782 0.064959
O O5 0.339276 0.901452 0.126092
O O6 0.134453 0.883873 0.133921
O O7 0.205538 0.884292 0.667816
O O8 0.500000 0.824357 0.500000
O O9 0.500000 0.799238 0.000000
O O10 0.500000 0.092535 0.500000
O O11 0.601339 0.243207 0.426617
O O12 0.500000 0.394624 0.500000
#
# Coordination Sequence:
#
# PCOD9129551 Si02
#       5
#     4   4   4   4   4
#     4  12  25  44  69 101 139 181 234 284 340 420
#     4  12  25  44  69 101 139 181 234 284 340 420
#     4  12  26  46  69  96 143 190 228 278 350 416
#     4  11  22  42  71  99 132 171 222 287 353 402
#     4  11  22  42  71  99 132 171 222 287 353 402
#
# _framework density 22.894375
#
# number of rings (size 3 to 8) (size 9 to 14) (size 15 to 20)
#    0.000    0.400    4.000    4.800    0.000    8.000 
#    0.000    0.000    0.000    0.000    0.000    0.000 
#    0.000    0.000    0.000    0.000    0.000    0.000 
#
# Total GULP energy -55937.526435 kJ/mol
# GULP energy per Si atom -5593.752643 kJ/mol
# Density = 2.284227 g / cm^3
# Si number density = 22.894375 Si / 1000 Ang^3
#
#
#
# Elastic Constant Matrix: (Units=GPa)
#
#
# Indices 1 2 3 4 5 6 
#
# 1 73.9907 -20.5690 17.2254 0.0000 4.0618 0.0000
# 2 -20.5690 43.8352 -13.9469 0.0000 -2.7164 0.0000
# 3 17.2254 -13.9469 114.3218 0.0000 2.5073 0.0000
# 4 0.0000 0.0000 0.0000 14.2981 0.0000 -2.4411
# 5 4.0618 -2.7164 2.5073 0.0000 42.7223 0.0000
# 6 0.0000 0.0000 0.0000 -2.4411 0.0000 8.7885
#
#
#
# Elastic Compliance Matrix: (Units=1/GPa)
#
#
# Indices 1 2 3 4 5 6 
#
# 1 0.015838 0.006886 -0.001525 0.000000 -0.000978 0.000000
# 2 0.006886 0.026805 0.002212 0.000000 0.000920 0.000000
# 3 -0.001525 0.002212 0.009253 0.000000 -0.000257 0.000000
# 4 0.000000 0.000000 0.000000 0.073421 0.000000 0.020393
# 5 -0.000978 0.000920 -0.000257 0.000000 0.023574 0.000000
# 6 0.000000 0.000000 0.000000 0.020393 0.000000 0.119449
#
#
# Mechanical properties :
#
#
# Convention : Reuss Voigt Hill
#
# Bulk Modulus (GPa) = 14.91590 21.95187 18.43389
# Shear Modulus (GPa) = 18.14620 29.79100 23.96860
#
# Velocity S-wave (km/s) = 2.81838 3.61118 3.23913
# Velocity P-wave (km/s) = 4.13766 5.19583 4.69664
#
# Compressibility (1/GPa) = 0.06704254
#
# Stress axis : x y z
#
# Youngs Moduli (GPa) = 63.13849 37.30681 108.07835
#
# Poissons Ratio (x) = -0.25690 0.16481
# Poissons Ratio (y) = -0.43477 -0.23911
# Poissons Ratio (z) = 0.09628 -0.08254
#
# Static dielectric constant tensor:
#      x y z
#    x 1.937620 0.000000 0.009730 
#    y 0.000000 1.856630 0.000000 
#    z 0.009730 0.000000 1.829700 
# 
# From -- ./inp_files/4827.got.cif
#   From: 2010.05.17/outbox.cif.g08.bks.cpg/sg5_3_cif.got.tgz:4827.got - 2010.06.03 18:56:24.
