data_PCOD9129623
_publ_section_title
;
Structure prediction by ZEFSAII (Michael W. Deem and Ramdas Pophale) SiO2 
 PCOD9129623
Probable space group: C 2
;
_chemical_formula_sum "Si O2"
_cell_formula_units_Z 24
_cell_length_a 12.144962
_cell_length_b 8.967541
_cell_length_c 8.398426
_cell_angle_alpha 90.000000
_cell_angle_beta 82.148289
_cell_angle_gamma 90.000000
_cell_volume 906.101174
_symmetry_space_group_name_H-M "C 2"
_symmetry_group_IT_number 5
_symmetry_cell_setting 'monoclinic'
loop_
_space_group_symop_operation_xyz
x,y,z
-x,y,-z
1/2+x,1/2+y,z
1/2-x,1/2+y,-z
loop_
_atom_site_type_symbol
_atom_site_label
_atom_site_fract_x
_atom_site_fract_y
_atom_site_fract_z
Si Si1 0.700149 0.187190 0.819926
Si Si2 0.417385 0.612100 0.635629
Si Si3 0.535986 0.925306 0.811469
Si Si4 0.174343 0.624971 0.189776
Si Si5 0.921842 0.080507 0.165196
Si Si6 0.128861 0.821972 0.499062
O O1 0.833600 0.186805 0.774887
O O2 0.643425 0.029595 0.786611
O O3 0.665439 0.281344 0.670470
O O4 0.665058 0.206245 0.014885
O O5 0.500000 0.699763 0.500000
O O6 0.501306 0.505539 0.716322
O O7 0.347559 0.496524 0.543073
O O8 0.429530 0.012963 0.758466
O O9 0.568233 0.753518 0.779233
O O10 0.500000 0.922456 0.000000
O O11 0.294720 0.544508 0.154238
O O12 0.183927 0.730750 0.341661
O O13 0.000000 0.059773 0.000000
O O14 0.000000 0.781295 0.500000
#
# Coordination Sequence:
#
# PCOD9129623 Si02
#       6
#     4   4   4   4   4   4
#     4  11  22  46  70 104 142 183 243 303 356 445
#     4  11  25  46  64 103 149 184 236 301 367 445
#     4   9  21  40  71 105 135 179 247 296 360 440
#     4  11  22  45  76 102 139 193 239 303 373 430
#     4  11  22  46  68 104 145 184 243 302 365 445
#     4  11  24  45  67 104 143 181 239 299 361 442
#
# _framework density 26.487110999999999
#
# number of rings (size 3 to 8) (size 9 to 14) (size 15 to 20)
#    0.000    1.333    3.333    2.000    0.000    0.000 
#   18.000    0.000    0.000    0.000    0.000    0.000 
#    0.000    0.000    0.000    0.000    0.000    0.000 
#
# Total GULP energy -66899.537228 kJ/mol
# GULP energy per Si atom -5574.961436 kJ/mol
# Density = 2.642682 g / cm^3
# Si number density = 26.487111 Si / 1000 Ang^3
#
#
#
# Elastic Constant Matrix: (Units=GPa)
#
#
# Indices 1 2 3 4 5 6 
#
# 1 149.6601 -1.7660 22.5970 0.0000 -12.8408 0.0000
# 2 -1.7660 57.7012 18.6400 0.0000 -6.4392 0.0000
# 3 22.5970 18.6400 139.6774 0.0000 -0.3945 0.0000
# 4 0.0000 0.0000 0.0000 35.9380 0.0000 9.6887
# 5 -12.8408 -6.4392 -0.3945 0.0000 51.9734 0.0000
# 6 0.0000 0.0000 0.0000 9.6887 0.0000 23.2011
#
#
#
# Elastic Compliance Matrix: (Units=1/GPa)
#
#
# Indices 1 2 3 4 5 6 
#
# 1 0.007036 0.000821 -0.001243 0.000000 0.001831 0.000000
# 2 0.000821 0.018468 -0.002590 0.000000 0.002471 0.000000
# 3 -0.001243 -0.002590 0.007704 0.000000 -0.000569 0.000000
# 4 0.000000 0.000000 0.000000 0.031356 0.000000 -0.013094
# 5 0.001831 0.002471 -0.000569 0.000000 0.019995 0.000000
# 6 0.000000 0.000000 0.000000 -0.013094 0.000000 0.048569
#
#
# Mechanical properties :
#
#
# Convention : Reuss Voigt Hill
#
# Bulk Modulus (GPa) = 36.78512 47.33121 42.05817
# Shear Modulus (GPa) = 33.73480 42.72702 38.23091
#
# Velocity S-wave (km/s) = 3.57267 4.02073 3.80330
# Velocity P-wave (km/s) = 5.56208 6.28199 5.93296
#
# Compressibility (1/GPa) = 0.02718490
#
# Stress axis : x y z
#
# Youngs Moduli (GPa) = 142.12202 54.14655 129.79440
#
# Poissons Ratio (x) = -0.04446 0.16130
# Poissons Ratio (y) = -0.11670 0.33623
# Poissons Ratio (z) = 0.17662 0.14027
#
# Static dielectric constant tensor:
#      x y z
#    x 2.304380 0.000000 0.046690 
#    y 0.000000 2.196800 0.000000 
#    z 0.046690 0.000000 2.283440 
# 
# From -- ./inp_files/19357.got.cif
#   From: 2010.05.17/outbox.cif.g08.bks.cpg/sg5_10_cif.got.tgz:19357.got - 2010.06.03 18:56:24.
