data_PCOD9129023
_publ_section_title
;
Structure prediction by ZEFSAII (Michael W. Deem and Ramdas Pophale) SiO2 
 PCOD9129023
Probable space group: C 2
;
_chemical_formula_sum "Si O2"
_cell_formula_units_Z 14
_cell_length_a 9.460775
_cell_length_b 7.208794
_cell_length_c 9.017288
_cell_angle_alpha 90.000000
_cell_angle_beta 113.256515
_cell_angle_gamma 90.000000
_cell_volume 565.016176
_symmetry_space_group_name_H-M "C 2"
_symmetry_group_IT_number 5
_symmetry_cell_setting 'monoclinic'
loop_
_space_group_symop_operation_xyz
x,y,z
-x,y,-z
1/2+x,1/2+y,z
1/2-x,1/2+y,-z
loop_
_atom_site_type_symbol
_atom_site_label
_atom_site_fract_x
_atom_site_fract_y
_atom_site_fract_z
Si Si1 0.216403 0.645280 0.704705
Si Si2 0.826540 0.231797 0.429386
Si Si3 0.022661 0.630731 0.168344
Si Si4 0.500000 0.771954 0.000000
O O1 0.175441 0.438089 0.637117
O O2 0.265400 0.739775 0.572011
O O3 0.070130 0.720023 0.735406
O O4 0.358705 0.658137 0.877425
O O5 0.701477 0.121461 0.281253
O O6 0.000000 0.157814 0.500000
O O7 0.956839 0.423084 0.109917
O O8 0.000000 0.727147 0.000000
#
# Coordination Sequence:
#
# PCOD9129023 Si02
#       4
#     4   4   4   2
#     4  12  26  47  75 107 146 191 238 297 358 427
#     4  12  27  47  73 110 146 190 240 292 362 428
#     4  10  27  47  76 107 143 187 241 297 357 423
#     4  10  26  44  78 108 144 182 244 296 358 422
#
# _framework density 24.778053
#
# number of rings (size 3 to 8) (size 9 to 14) (size 15 to 20)
#    0.857    0.000    0.000    6.000   10.000    4.571 
#    0.000    1.429    0.000    0.000    0.000    0.000 
#    0.000    0.000    0.000    0.000    0.000    0.000 
#
# Total GULP energy -39158.330293 kJ/mol
# GULP energy per Si atom -5594.047185 kJ/mol
# Density = 2.472166 g / cm^3
# Si number density = 24.778053 Si / 1000 Ang^3
#
#
#
# Elastic Constant Matrix: (Units=GPa)
#
#
# Indices 1 2 3 4 5 6 
#
# 1 171.9699 7.6167 107.6767 0.0000 -11.1418 0.0000
# 2 7.6167 33.9910 32.7882 0.0000 -8.1838 0.0000
# 3 107.6767 32.7882 195.4816 0.0000 25.6842 0.0000
# 4 0.0000 0.0000 0.0000 42.7665 0.0000 13.2669
# 5 -11.1418 -8.1838 25.6842 0.0000 61.2873 0.0000
# 6 0.0000 0.0000 0.0000 13.2669 0.0000 10.8517
#
#
#
# Elastic Compliance Matrix: (Units=1/GPa)
#
#
# Indices 1 2 3 4 5 6 
#
# 1 0.010891 0.006712 -0.007940 0.000000 0.006204 0.000000
# 2 0.006712 0.042901 -0.012494 0.000000 0.012185 0.000000
# 3 -0.007940 -0.012494 0.012693 0.000000 -0.008431 0.000000
# 4 0.000000 0.000000 0.000000 0.037669 0.000000 -0.046053
# 5 0.006204 0.012185 -0.008431 0.000000 0.022605 0.000000
# 6 0.000000 0.000000 0.000000 -0.046053 0.000000 0.148455
#
#
# Mechanical properties :
#
#
# Convention : Reuss Voigt Hill
#
# Bulk Modulus (GPa) = 25.61403 77.51174 51.56288
# Shear Modulus (GPa) = 15.83924 39.87183 27.85553
#
# Velocity S-wave (km/s) = 2.53107 4.01578 3.35655
# Velocity P-wave (km/s) = 4.34760 7.26996 5.98974
#
# Compressibility (1/GPa) = 0.03904111
#
# Stress axis : x y z
#
# Youngs Moduli (GPa) = 91.81645 23.30940 78.78551
#
# Poissons Ratio (x) = -0.15646 0.62558
# Poissons Ratio (y) = -0.61631 0.98436
# Poissons Ratio (z) = 0.72904 0.29123
#
# Static dielectric constant tensor:
#      x y z
#    x 1.983780 0.000000 -0.039550 
#    y 0.000000 1.985400 0.000000 
#    z -0.039550 0.000000 1.953940 
# 
# From -- ./inp_files/13494.got.cif
#   From: 2010.05.17/outbox.cif.g08.bks.cpg/sg5_7_cif.got.tgz:13494.got - 2010.06.03 18:56:24.
