data_PCOD9129646
_publ_section_title
;
Structure prediction by ZEFSAII (Michael W. Deem and Ramdas Pophale) SiO2 
 PCOD9129646
Probable space group: C 2
;
_chemical_formula_sum "Si O2"
_cell_formula_units_Z 32
_cell_length_a 13.853906
_cell_length_b 16.863517
_cell_length_c 6.338258
_cell_angle_alpha 90.000000
_cell_angle_beta 88.406935
_cell_angle_gamma 90.000000
_cell_volume 1480.206857
_symmetry_space_group_name_H-M "C 2"
_symmetry_group_IT_number 5
_symmetry_cell_setting 'monoclinic'
loop_
_space_group_symop_operation_xyz
x,y,z
-x,y,-z
1/2+x,1/2+y,z
1/2-x,1/2+y,-z
loop_
_atom_site_type_symbol
_atom_site_label
_atom_site_fract_x
_atom_site_fract_y
_atom_site_fract_z
Si Si1 0.606855 0.870840 0.900172
Si Si2 0.193794 0.626364 0.938420
Si Si3 0.895307 0.083518 0.119527
Si Si4 0.158035 0.501731 0.590054
Si Si5 0.088516 0.655062 0.358767
Si Si6 0.294194 0.262003 0.389095
Si Si7 0.399981 0.728313 0.396492
Si Si8 0.780724 0.927394 0.210932
O O1 0.608274 0.925139 0.689899
O O2 0.615682 0.781256 0.812859
O O3 0.500000 0.881229 0.000000
O O4 0.695863 0.898261 0.050253
O O5 0.193119 0.548088 0.795339
O O6 0.176096 0.700267 0.790279
O O7 0.301995 0.625806 0.020575
O O8 0.108984 0.630025 0.117342
O O9 0.900067 0.134767 0.336237
O O10 0.860062 0.991420 0.128332
O O11 0.000000 0.090858 0.000000
O O12 0.102999 0.571550 0.475175
O O13 0.232225 0.472554 0.410656
O O14 0.166476 0.724230 0.396609
O O15 0.000000 0.689405 0.500000
O O16 0.180415 0.254562 0.431571
O O17 0.324167 0.348060 0.311230
O O18 0.500000 0.747903 0.500000
#
# Coordination Sequence:
#
# PCOD9129646 Si02
#       8
#     4   4   4   4   4   4   4   4
#     4  12  26  41  72 108 143 185 234 308 370 432
#     4  11  22  47  70  98 139 188 239 294 357 425
#     4  12  24  44  70 100 140 192 242 294 360 437
#     4  11  23  40  71  99 142 177 227 286 368 426
#     4  11  25  44  69 101 137 183 236 292 359 437
#     4  11  24  43  71  97 139 188 234 299 356 429
#     4  12  24  46  71 106 141 190 250 303 363 429
#     4  12  25  47  66 104 146 183 236 297 366 431
#
# _framework density 21.618601000000002
#
# number of rings (size 3 to 8) (size 9 to 14) (size 15 to 20)
#    0.000    0.500    5.000    3.375    3.500    1.500 
#    2.250    0.625    0.000    0.000    0.000    0.000 
#    0.000    0.000    0.000    0.000    0.000    0.000 
#
# Total GULP energy -89163.363212 kJ/mol
# GULP energy per Si atom -5572.710201 kJ/mol
# Density = 2.156940 g / cm^3
# Si number density = 21.618601 Si / 1000 Ang^3
#
#
#
# Elastic Constant Matrix: (Units=GPa)
#
#
# Indices 1 2 3 4 5 6 
#
# 1 66.9781 21.2837 33.4888 0.0000 -18.8745 0.0000
# 2 21.2837 121.5975 10.2904 0.0000 13.4341 0.0000
# 3 33.4888 10.2904 84.8231 0.0000 -5.9994 0.0000
# 4 0.0000 0.0000 0.0000 20.6738 0.0000 -11.3146
# 5 -18.8745 13.4341 -5.9994 0.0000 17.9760 0.0000
# 6 0.0000 0.0000 0.0000 -11.3146 0.0000 47.4014
#
#
#
# Elastic Compliance Matrix: (Units=1/GPa)
#
#
# Indices 1 2 3 4 5 6 
#
# 1 0.033702 -0.009449 -0.009379 0.000000 0.039318 0.000000
# 2 -0.009449 0.011830 0.000992 0.000000 -0.018432 0.000000
# 3 -0.009379 0.000992 0.014976 0.000000 -0.005590 0.000000
# 4 0.000000 0.000000 0.000000 0.055639 0.000000 0.013281
# 5 0.039318 -0.018432 -0.005590 0.000000 0.108822 0.000000
# 6 0.000000 0.000000 0.000000 0.013281 0.000000 0.024267
#
#
# Mechanical properties :
#
#
# Convention : Reuss Voigt Hill
#
# Bulk Modulus (GPa) = 40.26329 44.83605 42.54967
# Shear Modulus (GPa) = 17.05400 31.09930 24.07665
#
# Velocity S-wave (km/s) = 2.81171 3.79693 3.34084
# Velocity P-wave (km/s) = 5.40423 6.32509 5.88271
#
# Compressibility (1/GPa) = 0.02483652
#
# Stress axis : x y z
#
# Youngs Moduli (GPa) = 29.67179 84.52968 66.77230
#
# Poissons Ratio (x) = 0.79874 0.62623
# Poissons Ratio (y) = 0.28037 -0.06622
# Poissons Ratio (z) = 0.27828 -0.08384
#
# Static dielectric constant tensor:
#      x y z
#    x 1.398400 0.000000 0.249340 
#    y 0.000000 1.848520 0.000000 
#    z 0.249340 0.000000 1.746910 
# 
# From -- ./inp_files/7301.got.cif
#   From: 2010.05.17/outbox.cif.g08.bks.cpg/sg5_4_cif.got.tgz:7301.got - 2010.06.03 18:56:24.
