data_PCOD9129824
_publ_section_title
;
Structure prediction by ZEFSAII (Michael W. Deem and Ramdas Pophale) SiO2 
 PCOD9129824
Probable space group: C 2
;
_chemical_formula_sum "Si O2"
_cell_formula_units_Z 24
_cell_length_a 13.823944
_cell_length_b 8.849067
_cell_length_c 8.382921
_cell_angle_alpha 90.000000
_cell_angle_beta 92.329652
_cell_angle_gamma 90.000000
_cell_volume 1024.626836
_symmetry_space_group_name_H-M "C 2"
_symmetry_group_IT_number 5
_symmetry_cell_setting 'monoclinic'
loop_
_space_group_symop_operation_xyz
x,y,z
-x,y,-z
1/2+x,1/2+y,z
1/2-x,1/2+y,-z
loop_
_atom_site_type_symbol
_atom_site_label
_atom_site_fract_x
_atom_site_fract_y
_atom_site_fract_z
Si Si1 0.905948 0.668520 0.210187
Si Si2 0.902036 0.803232 0.847657
Si Si3 0.211178 0.156200 0.800550
Si Si4 0.092744 0.155551 0.101253
Si Si5 0.775787 0.342594 0.672527
Si Si6 0.402515 0.867686 0.390117
O O1 0.821503 0.744163 0.310622
O O2 0.902584 0.491094 0.248427
O O3 0.015015 0.725041 0.251897
O O4 0.897153 0.725261 0.024831
O O5 0.795855 0.775113 0.774532
O O6 0.925033 0.980172 0.860481
O O7 0.119303 0.203506 0.687501
O O8 0.253245 0.993070 0.768511
O O9 0.179192 0.160354 0.980061
O O10 0.133152 0.250549 0.249980
O O11 0.000000 0.216981 0.000000
O O12 0.812622 0.394418 0.503246
O O13 0.500000 0.878894 0.500000
#
# Coordination Sequence:
#
# PCOD9129824 Si02
#       6
#     4   4   4   4   4   4
#     4  11  23  46  74 104 151 192 254 307 370 446
#     4  11  23  44  76 112 142 192 255 316 371 430
#     4  12  24  44  71 107 144 194 256 314 369 442
#     4  12  22  42  70 108 145 190 251 315 369 439
#     4  12  25  45  71 108 150 197 249 307 383 449
#     4  12  28  48  67 108 154 207 247 301 383 459
#
# _framework density 23.423162000000001
#
# number of rings (size 3 to 8) (size 9 to 14) (size 15 to 20)
#    0.000    0.333    5.000    4.000    2.333    0.000 
#    0.000    0.833    0.000    0.000    0.000    0.000 
#    0.000    0.000    0.000    0.000    0.000    0.000 
#
# Total GULP energy -67119.814382 kJ/mol
# GULP energy per Si atom -5593.317865 kJ/mol
# Density = 2.336985 g / cm^3
# Si number density = 23.423162 Si / 1000 Ang^3
#
#
#
# Elastic Constant Matrix: (Units=GPa)
#
#
# Indices 1 2 3 4 5 6 
#
# 1 104.6593 33.2773 28.0876 0.0000 -23.2055 0.0000
# 2 33.2773 99.4642 33.7805 0.0000 4.8415 0.0000
# 3 28.0876 33.7805 49.7438 0.0000 -0.3002 0.0000
# 4 0.0000 0.0000 0.0000 14.2314 0.0000 3.2212
# 5 -23.2055 4.8415 -0.3002 0.0000 29.1265 0.0000
# 6 0.0000 0.0000 0.0000 3.2212 0.0000 29.4320
#
#
#
# Elastic Compliance Matrix: (Units=1/GPa)
#
#
# Indices 1 2 3 4 5 6 
#
# 1 0.015105 -0.003633 -0.005986 0.000000 0.012576 0.000000
# 2 -0.003633 0.014092 -0.007551 0.000000 -0.005315 0.000000
# 3 -0.005986 -0.007551 0.028591 0.000000 -0.003219 0.000000
# 4 0.000000 0.000000 0.000000 0.072052 0.000000 -0.007886
# 5 0.012576 -0.005315 -0.003219 0.000000 0.045203 0.000000
# 6 0.000000 0.000000 0.000000 -0.007886 0.000000 0.034840
#
#
# Mechanical properties :
#
#
# Convention : Reuss Voigt Hill
#
# Bulk Modulus (GPa) = 42.64527 49.35088 45.99807
# Shear Modulus (GPa) = 19.83822 25.13945 22.48884
#
# Velocity S-wave (km/s) = 2.91340 3.27964 3.10193
# Velocity P-wave (km/s) = 5.43720 5.95453 5.70173
#
# Compressibility (1/GPa) = 0.02344926
#
# Stress axis : x y z
#
# Youngs Moduli (GPa) = 66.20398 70.96030 34.97571
#
# Poissons Ratio (x) = 0.25778 0.20937
# Poissons Ratio (y) = 0.24050 0.26410
# Poissons Ratio (z) = 0.39630 0.53581
#
# Static dielectric constant tensor:
#      x y z
#    x 1.940710 0.000000 0.048960 
#    y 0.000000 1.871550 0.000000 
#    z 0.048960 0.000000 1.945880 
# 
# From -- ./inp_files/22891.got.cif
#   From: 2010.05.17/outbox.cif.g08.bks.cpg/sg5_12_cif.got.tgz:22891.got - 2010.06.03 18:56:24.
