data_PCOD9129253
_publ_section_title
;
Structure prediction by ZEFSAII (Michael W. Deem and Ramdas Pophale) SiO2 
 PCOD9129253
Probable space group: C 2
;
_chemical_formula_sum "Si O2"
_cell_formula_units_Z 32
_cell_length_a 15.542515
_cell_length_b 22.170992
_cell_length_c 8.993019
_cell_angle_alpha 90.000000
_cell_angle_beta 27.232564
_cell_angle_gamma 90.000000
_cell_volume 1418.081295
_symmetry_space_group_name_H-M "C 2"
_symmetry_group_IT_number 5
_symmetry_cell_setting 'monoclinic'
loop_
_space_group_symop_operation_xyz
x,y,z
-x,y,-z
1/2+x,1/2+y,z
1/2-x,1/2+y,-z
loop_
_atom_site_type_symbol
_atom_site_label
_atom_site_fract_x
_atom_site_fract_y
_atom_site_fract_z
Si Si1 0.796590 0.219880 0.740447
Si Si2 0.674941 0.512688 0.620913
Si Si3 0.682160 0.110297 0.118626
Si Si4 0.656958 0.416713 0.388383
Si Si5 0.535588 0.979939 0.272091
Si Si6 0.434589 0.283203 0.431257
Si Si7 0.289876 0.138386 0.369639
Si Si8 0.821143 0.168108 0.170496
O O1 0.811857 0.197655 0.545734
O O2 0.000000 0.238056 0.500000
O O3 0.733526 0.156995 0.912652
O O4 0.618770 0.263671 0.050559
O O5 0.633823 0.461149 0.563208
O O6 0.718114 0.571211 0.452540
O O7 0.849367 0.495214 0.461860
O O8 0.500000 0.523393 0.000000
O O9 0.500000 0.127401 0.500000
O O10 0.654958 0.042157 0.109813
O O11 0.841306 0.127828 0.994684
O O12 0.500000 0.423522 0.500000
O O13 0.643020 0.349668 0.478419
O O14 0.847474 0.432628 0.006133
O O15 0.500000 0.960600 0.500000
O O16 0.500000 0.284950 0.500000
O O17 0.269175 0.233806 0.695101
O O18 0.316225 0.133820 0.506942
O O19 0.500000 0.147637 0.000000
O O20 0.000000 0.167744 0.000000
#
# Coordination Sequence:
#
# PCOD9129253 Si02
#       8
#     4   4   4   4   4   4   4   4
#     4  12  23  39  67 101 141 186 240 293 374 439
#     4  12  26  46  70 111 155 194 254 305 372 452
#     4  11  20  41  68 100 149 186 223 293 376 451
#     4  11  26  48  74 100 144 206 257 310 367 439
#     4  11  24  44  80 111 145 196 247 311 382 449
#     4  11  24  49  70  93 145 195 245 303 365 452
#     4  12  23  39  65 106 148 176 227 312 374 437
#     4  12  23  39  67 103 143 186 231 292 384 442
#
# _framework density 22.565702999999999
#
# number of rings (size 3 to 8) (size 9 to 14) (size 15 to 20)
#    0.000    0.500    3.750    6.000    0.000    6.000 
#    2.250    5.000    0.000    0.000    0.000    0.000 
#    0.000    0.000    0.000    0.000    0.000    0.000 
#
# Total GULP energy -89252.489247 kJ/mol
# GULP energy per Si atom -5578.280578 kJ/mol
# Density = 2.251434 g / cm^3
# Si number density = 22.565703 Si / 1000 Ang^3
#
#
#
# Elastic Constant Matrix: (Units=GPa)
#
#
# Indices 1 2 3 4 5 6 
#
# 1 101.6527 35.4090 24.0141 -0.0033 -6.0658 -0.0001
# 2 35.4090 117.9703 0.3972 -0.0049 -11.3168 0.0003
# 3 24.0141 0.3972 65.7299 -0.0132 -15.1347 0.0008
# 4 -0.0033 -0.0049 -0.0132 27.8687 0.0050 3.1408
# 5 -6.0658 -11.3168 -15.1347 0.0050 47.4909 -0.0002
# 6 -0.0001 0.0003 0.0008 3.1408 -0.0002 34.4827
#
#
#
# Elastic Compliance Matrix: (Units=1/GPa)
#
#
# Indices 1 2 3 4 5 6 
#
# 1 0.012172 -0.003715 -0.004609 -0.000001 -0.000799 0.000000
# 2 -0.003715 0.009821 0.001864 0.000002 0.002460 0.000000
# 3 -0.004609 0.001864 0.018188 0.000007 0.005652 -0.000001
# 4 -0.000001 0.000002 0.000007 0.036255 -0.000001 -0.003302
# 5 -0.000799 0.002460 0.005652 -0.000001 0.023342 0.000000
# 6 0.000000 0.000000 -0.000001 -0.003302 0.000000 0.029301
#
#
# Mechanical properties :
#
#
# Convention : Reuss Voigt Hill
#
# Bulk Modulus (GPa) = 36.67965 44.99929 40.83947
# Shear Modulus (GPa) = 33.09395 37.00398 35.04897
#
# Velocity S-wave (km/s) = 3.83372 4.05388 3.94534
# Velocity P-wave (km/s) = 5.99053 6.47276 6.23631
#
# Compressibility (1/GPa) = 0.02726307
#
# Stress axis : x y z
#
# Youngs Moduli (GPa) = 82.15277 101.81838 54.98238
#
# Poissons Ratio (x) = 0.37823 0.25340
# Poissons Ratio (y) = 0.30518 -0.10250
# Poissons Ratio (z) = 0.37862 -0.18981
#
# Static dielectric constant tensor:
#      x y z
#    x 1.981330 0.000000 -0.101820 
#    y 0.000000 1.873200 0.000000 
#    z -0.101820 0.000000 1.645730 
# 
# From -- ./inp_files/25629.got.cif
#   From: 2010.05.17/outbox.cif.g08.bks.cpg/sg5_13_cif.got.tgz:25629.got - 2010.06.03 18:56:24.
