data_PCOD9129069
_publ_section_title
;
Structure prediction by ZEFSAII (Michael W. Deem and Ramdas Pophale) SiO2 
 PCOD9129069
Probable space group: C 2
;
_chemical_formula_sum "Si O2"
_cell_formula_units_Z 28
_cell_length_a 18.153242
_cell_length_b 6.894575
_cell_length_c 11.022275
_cell_angle_alpha 90.000000
_cell_angle_beta 108.344169
_cell_angle_gamma 90.000000
_cell_volume 1309.432016
_symmetry_space_group_name_H-M "C 2"
_symmetry_group_IT_number 5
_symmetry_cell_setting 'monoclinic'
loop_
_space_group_symop_operation_xyz
x,y,z
-x,y,-z
1/2+x,1/2+y,z
1/2-x,1/2+y,-z
loop_
_atom_site_type_symbol
_atom_site_label
_atom_site_fract_x
_atom_site_fract_y
_atom_site_fract_z
Si Si1 0.418714 0.492600 0.983121
Si Si2 0.172970 0.923277 0.300588
Si Si3 0.685365 0.205806 0.679926
Si Si4 0.438605 0.298898 0.565093
Si Si5 0.563299 0.145749 0.817126
Si Si6 0.161110 0.344260 0.950800
Si Si7 0.749305 0.602870 0.798850
O O1 0.387846 0.424220 0.839667
O O2 0.500000 0.593720 0.000000
O O3 0.433045 0.314575 0.081460
O O4 0.354358 0.635908 0.998681
O O5 0.121090 0.935858 0.394015
O O6 0.211541 0.713956 0.294375
O O7 0.237253 0.090483 0.316089
O O8 0.619420 0.168868 0.544923
O O9 0.644517 0.151307 0.785025
O O10 0.699201 0.434539 0.709537
O O11 0.500000 0.387555 0.500000
O O12 0.491734 0.185627 0.690596
O O13 0.575868 0.935073 0.880203
O O14 0.208723 0.275340 0.855905
O O15 0.200762 0.484943 0.072258
#
# Coordination Sequence:
#
# PCOD9129069 Si02
#       7
#     4   4   4   4   4   4   4
#     4  12  24  40  67 103 143 179 224 286 355 422
#     4  12  24  43  72 104 137 179 238 291 342 411
#     4  11  24  45  70 102 136 184 239 281 338 412
#     4  10  26  48  72  92 142 196 226 285 350 407
#     4  11  22  46  69  96 145 181 223 281 353 416
#     4  12  23  39  68 108 141 174 221 284 363 413
#     4  12  23  38  69 109 137 174 227 292 347 407
#
# _framework density 21.383316000000001
#
# number of rings (size 3 to 8) (size 9 to 14) (size 15 to 20)
#    0.000    0.571    7.143    1.714    2.000    1.714 
#    0.000    1.429    0.000    0.000    0.000    0.000 
#    0.000    0.000    0.000    0.000    0.000    0.000 
#
# Total GULP energy -78007.012621 kJ/mol
# GULP energy per Si atom -5571.929473 kJ/mol
# Density = 2.133465 g / cm^3
# Si number density = 21.383316 Si / 1000 Ang^3
#
#
#
# Elastic Constant Matrix: (Units=GPa)
#
#
# Indices 1 2 3 4 5 6 
#
# 1 121.3837 29.8403 36.5581 0.0000 -14.7885 0.0000
# 2 29.8403 65.3252 16.0021 0.0000 1.1202 0.0000
# 3 36.5581 16.0021 92.3702 0.0000 -2.0383 0.0000
# 4 0.0000 0.0000 0.0000 12.1476 0.0000 0.5098
# 5 -14.7885 1.1202 -2.0383 0.0000 38.2222 0.0000
# 6 0.0000 0.0000 0.0000 0.5098 0.0000 35.5011
#
#
#
# Elastic Compliance Matrix: (Units=1/GPa)
#
#
# Indices 1 2 3 4 5 6 
#
# 1 0.010806 -0.004158 -0.003466 0.000000 0.004118 0.000000
# 2 -0.004158 0.017601 -0.001452 0.000000 -0.002202 0.000000
# 3 -0.003466 -0.001452 0.012435 0.000000 -0.000635 0.000000
# 4 0.000000 0.000000 0.000000 0.082371 0.000000 -0.001183
# 5 0.004118 -0.002202 -0.000635 0.000000 0.027787 0.000000
# 6 0.000000 0.000000 0.000000 -0.001183 0.000000 0.028185
#
#
# Mechanical properties :
#
#
# Convention : Reuss Voigt Hill
#
# Bulk Modulus (GPa) = 44.07078 49.32002 46.69540
# Shear Modulus (GPa) = 24.40227 30.28608 27.34418
#
# Velocity S-wave (km/s) = 3.38180 3.76751 3.57986
# Velocity P-wave (km/s) = 5.99195 6.48385 6.24275
#
# Compressibility (1/GPa) = 0.02269077
#
# Stress axis : x y z
#
# Youngs Moduli (GPa) = 92.54181 56.81574 80.41717
#
# Poissons Ratio (x) = 0.23623 0.27869
# Poissons Ratio (y) = 0.38477 0.11678
# Poissons Ratio (z) = 0.32071 0.08251
#
# Static dielectric constant tensor:
#      x y z
#    x 1.685310 0.000000 -0.064470 
#    y 0.000000 1.779100 0.000000 
#    z -0.064470 0.000000 1.824770 
# 
# From -- ./inp_files/45710.got.cif
#   From: 2010.05.17/outbox.cif.g08.bks.cpg/sg5_23_cif.got.tgz:45710.got - 2010.06.03 18:56:24.
