data_PCOD9129643
_publ_section_title
;
Structure prediction by ZEFSAII (Michael W. Deem and Ramdas Pophale) SiO2 
 PCOD9129643
Probable space group: C 2
;
_chemical_formula_sum "Si O2"
_cell_formula_units_Z 18
_cell_length_a 14.237412
_cell_length_b 7.394539
_cell_length_c 8.141554
_cell_angle_alpha 90.000000
_cell_angle_beta 128.768585
_cell_angle_gamma 90.000000
_cell_volume 668.292588
_symmetry_space_group_name_H-M "C 2"
_symmetry_group_IT_number 5
_symmetry_cell_setting 'monoclinic'
loop_
_space_group_symop_operation_xyz
x,y,z
-x,y,-z
1/2+x,1/2+y,z
1/2-x,1/2+y,-z
loop_
_atom_site_type_symbol
_atom_site_label
_atom_site_fract_x
_atom_site_fract_y
_atom_site_fract_z
Si Si1 0.500000 0.515861 0.000000
Si Si2 0.917992 0.179732 0.574264
Si Si3 0.758999 0.881204 0.225905
Si Si4 0.392763 0.085071 0.522748
Si Si5 0.391556 0.215722 0.050955
O O1 0.515131 0.629804 0.183386
O O2 0.391308 0.378448 0.922180
O O3 0.866059 0.379724 0.535805
O O4 0.000000 0.192725 0.500000
O O5 0.832520 0.019138 0.422049
O O6 0.773375 0.695645 0.344553
O O7 0.819137 0.804571 0.123759
O O8 0.654917 0.017191 0.051659
O O9 0.500000 0.087102 0.500000
O O10 0.469972 0.182112 0.747387
#
# Coordination Sequence:
#
# PCOD9129643 Si02
#       5
#     2   4   4   4   4
#     4  12  24  48  78 120 154 214 260 326 406 462
#     4  11  22  46  80 109 157 208 254 330 400 460
#     4  11  23  46  73 117 153 205 265 319 384 487
#     4   9  21  44  72 108 152 201 252 326 391 454
#     4  11  25  44  80 115 155 206 266 318 399 469
#
# _framework density 26.934308999999999
#
# number of rings (size 3 to 8) (size 9 to 14) (size 15 to 20)
#    0.000    1.333    4.444    0.667    9.333    0.889 
#    0.000    6.667    0.000    0.000    0.000    0.000 
#    0.000    0.000    0.000    0.000    0.000    0.000 
#
# Total GULP energy -50284.109004 kJ/mol
# GULP energy per Si atom -5587.123223 kJ/mol
# Density = 2.687301 g / cm^3
# Si number density = 26.934309 Si / 1000 Ang^3
#
#
#
# Elastic Constant Matrix: (Units=GPa)
#
#
# Indices 1 2 3 4 5 6 
#
# 1 82.6614 60.6955 52.5734 0.0000 -18.5131 0.0000
# 2 60.6955 237.2892 87.6437 0.0000 -9.9253 0.0000
# 3 52.5734 87.6437 167.8702 0.0000 -23.5612 0.0000
# 4 0.0000 0.0000 0.0000 133.6638 0.0000 159.6631
# 5 -18.5131 -9.9253 -23.5612 0.0000 20.9343 0.0000
# 6 0.0000 0.0000 0.0000 159.6631 0.0000 305.9199
#
#
#
# Elastic Compliance Matrix: (Units=1/GPa)
#
#
# Indices 1 2 3 4 5 6 
#
# 1 0.018922 -0.003439 -0.002388 0.000000 0.012415 0.000000
# 2 -0.003439 0.005855 -0.002395 0.000000 -0.002961 0.000000
# 3 -0.002388 -0.002395 0.008907 0.000000 0.006777 0.000000
# 4 0.000000 0.000000 0.000000 0.019867 0.000000 -0.010369
# 5 0.012415 -0.002961 0.006777 0.000000 0.064971 0.000000
# 6 0.000000 0.000000 0.000000 -0.010369 0.000000 0.008681
#
#
# Mechanical properties :
#
#
# Convention : Reuss Voigt Hill
#
# Bulk Modulus (GPa) = 58.00809 98.84955 78.42882
# Shear Modulus (GPa) = 33.46883 111.23080 72.34981
#
# Velocity S-wave (km/s) = 3.52889 6.43325 5.18844
# Velocity P-wave (km/s) = 6.17962 9.58969 8.06691
#
# Compressibility (1/GPa) = 0.01723898
#
# Stress axis : x y z
#
# Youngs Moduli (GPa) = 52.84897 170.80266 112.27581
#
# Poissons Ratio (x) = 0.58732 0.26813
# Poissons Ratio (y) = 0.18173 0.26895
# Poissons Ratio (z) = 0.12621 0.40914
#
# Static dielectric constant tensor:
#      x y z
#    x 0.751100 0.000000 0.053030 
#    y 0.000000 2.078170 0.000000 
#    z 0.053030 0.000000 2.184490 
# 
# From -- ./inp_files/28411.got.cif
#   From: 2010.05.17/outbox.cif.g08.bks.cpg/sg5_15_cif.got.tgz:28411.got - 2010.06.03 18:56:24.
