data_PCOD9129865
_publ_section_title
;
Structure prediction by ZEFSAII (Michael W. Deem and Ramdas Pophale) SiO2 
 PCOD9129865
Probable space group: C 2
;
_chemical_formula_sum "Si O2"
_cell_formula_units_Z 32
_cell_length_a 30.020193
_cell_length_b 8.343805
_cell_length_c 12.061934
_cell_angle_alpha 90.000000
_cell_angle_beta 151.766980
_cell_angle_gamma 90.000000
_cell_volume 1429.254292
_symmetry_space_group_name_H-M "C 2"
_symmetry_group_IT_number 5
_symmetry_cell_setting 'monoclinic'
loop_
_space_group_symop_operation_xyz
x,y,z
-x,y,-z
1/2+x,1/2+y,z
1/2-x,1/2+y,-z
loop_
_atom_site_type_symbol
_atom_site_label
_atom_site_fract_x
_atom_site_fract_y
_atom_site_fract_z
Si Si1 0.248739 0.434980 0.678403
Si Si2 0.456736 0.580315 0.521911
Si Si3 0.419105 0.228355 0.493923
Si Si4 0.730148 0.882102 0.127754
Si Si5 0.092769 0.424589 0.160826
Si Si6 0.394248 0.679509 0.987230
Si Si7 0.369694 0.139555 0.960234
Si Si8 0.329531 0.894864 0.251176
O O1 0.157605 0.395968 0.407822
O O2 0.297207 0.595717 0.741807
O O3 0.327737 0.305675 0.832061
O O4 0.229456 0.433149 0.767485
O O5 0.500000 0.630888 0.500000
O O6 0.429351 0.393297 0.447001
O O7 0.385661 0.727440 0.393013
O O8 0.528375 0.574053 0.782028
O O9 0.330234 0.294282 0.376017
O O10 0.387360 0.062502 0.365658
O O11 0.521200 0.172122 0.766495
O O12 0.641969 0.792454 0.991620
O O13 0.702765 0.061424 0.108245
O O14 0.723693 0.872330 0.981137
O O15 0.064733 0.267113 0.029662
O O16 0.139239 0.526465 0.166028
O O17 0.000000 0.511004 0.000000
#
# Coordination Sequence:
#
# PCOD9129865 Si02
#       8
#     4   4   4   4   4   4   4   4
#     4  12  24  46  71 103 143 186 246 302 377 440
#     4  12  26  43  69 107 149 191 248 302 366 460
#     4  12  27  43  72 109 146 203 250 299 376 458
#     4  11  26  45  69 110 149 194 245 300 377 450
#     4  11  25  47  75 100 137 187 247 308 377 445
#     4  11  23  46  70  99 143 184 234 305 370 436
#     4  11  26  47  75 106 146 194 247 318 377 452
#     4  12  27  45  73 104 155 198 242 311 373 449
#
# _framework density 22.389296000000002
#
# number of rings (size 3 to 8) (size 9 to 14) (size 15 to 20)
#    0.000    0.500    3.750    4.500    7.000    0.000 
#    0.000    0.625    0.000    0.000    0.000    0.000 
#    0.000    0.000    0.000    0.000    0.000    0.000 
#
# Total GULP energy -89134.208297 kJ/mol
# GULP energy per Si atom -5570.888019 kJ/mol
# Density = 2.233834 g / cm^3
# Si number density = 22.389296 Si / 1000 Ang^3
#
#
#
# Elastic Constant Matrix: (Units=GPa)
#
#
# Indices 1 2 3 4 5 6 
#
# 1 71.6310 -5.4685 -0.7480 0.0000 -6.3497 0.0000
# 2 -5.4685 81.6171 0.2751 0.0000 4.8119 0.0000
# 3 -0.7480 0.2751 66.8191 0.0000 -4.0869 0.0000
# 4 0.0000 0.0000 0.0000 25.5285 0.0000 12.4854
# 5 -6.3497 4.8119 -4.0869 0.0000 29.0391 0.0000
# 6 0.0000 0.0000 0.0000 12.4854 0.0000 32.6622
#
#
#
# Elastic Compliance Matrix: (Units=1/GPa)
#
#
# Indices 1 2 3 4 5 6 
#
# 1 0.014293 0.000777 0.000343 0.000000 0.003045 0.000000
# 2 0.000777 0.012418 -0.000159 0.000000 -0.001910 0.000000
# 3 0.000343 -0.000159 0.015107 0.000000 0.002227 0.000000
# 4 0.000000 0.000000 0.000000 0.048179 0.000000 -0.018417
# 5 0.003045 -0.001910 0.002227 0.000000 0.035732 0.000000
# 6 0.000000 0.000000 0.000000 -0.018417 0.000000 0.037656
#
#
# Mechanical properties :
#
#
# Convention : Reuss Voigt Hill
#
# Bulk Modulus (GPa) = 22.86294 23.13159 22.99726
# Shear Modulus (GPa) = 28.40214 32.51320 30.45767
#
# Velocity S-wave (km/s) = 3.56555 3.81488 3.69232
# Velocity P-wave (km/s) = 5.21388 5.45512 5.33586
#
# Compressibility (1/GPa) = 0.04373891
#
# Stress axis : x y z
#
# Youngs Moduli (GPa) = 69.96312 80.53119 66.19661
#
# Poissons Ratio (x) = -0.06257 -0.02271
# Poissons Ratio (y) = -0.05436 0.01054
# Poissons Ratio (z) = -0.02400 0.01282
#
# Static dielectric constant tensor:
#      x y z
#    x 1.795740 0.000000 -0.007950 
#    y 0.000000 1.986540 0.000000 
#    z -0.007950 0.000000 1.547640 
# 
# From -- ./inp_files/48405.got.cif
#   From: 2010.05.17/outbox.cif.g08.bks.cpg/sg5_25_cif.got.tgz:48405.got - 2010.06.03 18:56:24.
