data_PCOD9129337
_publ_section_title
;
Structure prediction by ZEFSAII (Michael W. Deem and Ramdas Pophale) SiO2 
 PCOD9129337
Probable space group: C 2
;
_chemical_formula_sum "Si O2"
_cell_formula_units_Z 22
_cell_length_a 8.477280
_cell_length_b 17.115777
_cell_length_c 9.494741
_cell_angle_alpha 90.000000
_cell_angle_beta 52.155298
_cell_angle_gamma 90.000000
_cell_volume 1087.891366
_symmetry_space_group_name_H-M "C 2"
_symmetry_group_IT_number 5
_symmetry_cell_setting 'monoclinic'
loop_
_space_group_symop_operation_xyz
x,y,z
-x,y,-z
1/2+x,1/2+y,z
1/2-x,1/2+y,-z
loop_
_atom_site_type_symbol
_atom_site_label
_atom_site_fract_x
_atom_site_fract_y
_atom_site_fract_z
Si Si1 0.691808 0.005680 0.799712
Si Si2 0.438642 0.353171 0.745322
Si Si3 0.000000 0.766184 0.000000
Si Si4 0.603192 0.669013 0.297860
Si Si5 0.881704 0.406756 0.419962
Si Si6 0.607777 0.768683 0.790924
O O1 0.840285 0.078467 0.721242
O O2 0.798093 0.928580 0.803408
O O3 0.629167 0.982070 0.675244
O O4 0.500000 0.023483 0.000000
O O5 0.444179 0.319731 0.898505
O O6 0.657914 0.379197 0.579301
O O7 0.336322 0.287072 0.703940
O O8 0.189978 0.713988 0.849577
O O9 0.500000 0.695458 0.500000
O O10 0.449900 0.689739 0.256813
O O11 0.965829 0.337071 0.274968
O O12 0.000000 0.416950 0.500000
O O13 0.500000 0.773346 0.000000
#
# Coordination Sequence:
#
# PCOD9129337 Si02
#       6
#     4   4   2   4   4   4
#     4  11  25  47  67  99 146 187 234 296 351 415
#     4  11  23  41  70 100 137 177 243 284 346 420
#     4  12  24  42  66 110 132 182 232 296 348 422
#     4  12  25  46  69  98 146 188 230 295 358 418
#     4  11  23  41  72 107 136 186 237 293 351 419
#     4  11  21  40  66 101 136 179 228 289 347 413
#
# _framework density 20.222607
#
# number of rings (size 3 to 8) (size 9 to 14) (size 15 to 20)
#    0.000    0.727    2.727    8.182    2.545    0.000 
#    1.636    5.455    0.000    0.000    0.000    0.000 
#    0.000    0.000    0.000    0.000    0.000    0.000 
#
# Total GULP energy -61503.150652 kJ/mol
# GULP energy per Si atom -5591.195514 kJ/mol
# Density = 2.017658 g / cm^3
# Si number density = 20.222607 Si / 1000 Ang^3
#
#
#
# Elastic Constant Matrix: (Units=GPa)
#
#
# Indices 1 2 3 4 5 6 
#
# 1 150.4210 48.3262 60.3996 0.0000 26.3204 0.0000
# 2 48.3262 70.7429 41.2890 0.0000 23.9892 0.0000
# 3 60.3996 41.2890 153.4749 0.0000 7.0382 0.0000
# 4 0.0000 0.0000 0.0000 15.9044 0.0000 6.5034
# 5 26.3204 23.9892 7.0382 0.0000 50.8831 0.0000
# 6 0.0000 0.0000 0.0000 6.5034 0.0000 31.3300
#
#
#
# Elastic Compliance Matrix: (Units=1/GPa)
#
#
# Indices 1 2 3 4 5 6 
#
# 1 0.009417 -0.004105 -0.002483 0.000000 -0.002593 0.000000
# 2 -0.004105 0.021798 -0.003900 0.000000 -0.007614 0.000000
# 3 -0.002483 -0.003900 0.008452 0.000000 0.001954 0.000000
# 4 0.000000 0.000000 0.000000 0.068708 0.000000 -0.014262
# 5 -0.002593 -0.007614 0.001954 0.000000 0.024313 0.000000
# 6 0.000000 0.000000 0.000000 -0.014262 0.000000 0.034879
#
#
# Mechanical properties :
#
#
# Convention : Reuss Voigt Hill
#
# Bulk Modulus (GPa) = 53.49683 74.96316 64.22999
# Shear Modulus (GPa) = 25.67089 34.59844 30.13467
#
# Velocity S-wave (km/s) = 3.56675 4.14077 3.86443
# Velocity P-wave (km/s) = 6.59346 7.74666 7.19321
#
# Compressibility (1/GPa) = 0.01869269
#
# Stress axis : x y z
#
# Youngs Moduli (GPa) = 106.18549 45.87625 118.30984
#
# Poissons Ratio (x) = 0.18832 0.29376
# Poissons Ratio (y) = 0.43589 0.46135
# Poissons Ratio (z) = 0.26366 0.17890
#
# Static dielectric constant tensor:
#      x y z
#    x 1.726050 0.000000 -0.022910 
#    y 0.000000 1.714220 0.000000 
#    z -0.022910 0.000000 1.744760 
# 
# From -- ./inp_files/16012.got.cif
#   From: 2010.05.17/outbox.cif.g08.bks.cpg/sg5_9_cif.got.tgz:16012.got - 2010.06.03 18:56:24.
