data_PCOD9129544
_publ_section_title
;
Structure prediction by ZEFSAII (Michael W. Deem and Ramdas Pophale) SiO2 
 PCOD9129544
Probable space group: C 2
;
_chemical_formula_sum "Si O2"
_cell_formula_units_Z 30
_cell_length_a 8.701770
_cell_length_b 13.193258
_cell_length_c 10.909401
_cell_angle_alpha 90.000000
_cell_angle_beta 106.032582
_cell_angle_gamma 90.000000
_cell_volume 1203.736156
_symmetry_space_group_name_H-M "C 2"
_symmetry_group_IT_number 5
_symmetry_cell_setting 'monoclinic'
loop_
_space_group_symop_operation_xyz
x,y,z
-x,y,-z
1/2+x,1/2+y,z
1/2-x,1/2+y,-z
loop_
_atom_site_type_symbol
_atom_site_label
_atom_site_fract_x
_atom_site_fract_y
_atom_site_fract_z
Si Si1 0.680971 0.819350 0.327030
Si Si2 0.668755 0.835847 0.804355
Si Si3 0.866239 0.129749 0.077983
Si Si4 0.788714 0.716180 0.589267
Si Si5 0.422055 0.268781 0.214391
Si Si6 0.000000 0.630015 0.000000
Si Si7 0.916472 0.975058 0.769972
Si Si8 0.177044 0.007659 0.520064
O O1 0.511683 0.866802 0.259544
O O2 0.689305 0.750329 0.449292
O O3 0.743272 0.757867 0.222925
O O4 0.796667 0.910841 0.390035
O O5 0.667107 0.749778 0.908944
O O6 0.718214 0.769796 0.694833
O O7 0.783431 0.933706 0.837868
O O8 0.683064 0.083969 0.041189
O O9 0.974748 0.075212 0.205103
O O10 0.000000 0.114392 0.000000
O O11 0.792868 0.595773 0.586747
O O12 0.972300 0.749552 0.640603
O O13 0.457057 0.383898 0.186918
O O14 0.482786 0.197345 0.119804
O O15 0.817285 0.976678 0.621035
O O16 0.000000 0.048358 0.500000
#
# Coordination Sequence:
#
# PCOD9129544 Si02
#       8
#     4   4   4   4   4   2   4   4
#     4  12  22  42  68 112 145 188 248 298 382 477
#     4  11  24  47  72 106 155 197 239 317 394 452
#     4  12  27  50  79 110 147 203 269 322 384 461
#     4  11  22  42  70 100 149 190 239 310 383 457
#     4  11  24  45  72 100 147 198 252 317 382 449
#     4  12  26  50  80 100 146 212 258 320 396 440
#     4  11  24  46  72 109 150 192 248 315 383 462
#     4  12  22  38  70 106 145 193 239 302 386 472
#
# _framework density 24.922405999999999
#
# number of rings (size 3 to 8) (size 9 to 14) (size 15 to 20)
#    0.000    0.533    6.667    4.000    0.933    0.000 
#   12.000    0.000    1.467    0.000    0.000    0.000 
#    0.000    0.000    0.000    0.000    0.000    0.000 
#
# Total GULP energy -83692.378340 kJ/mol
# GULP energy per Si atom -5579.491889 kJ/mol
# Density = 2.486568 g / cm^3
# Si number density = 24.922406 Si / 1000 Ang^3
#
#
#
# Elastic Constant Matrix: (Units=GPa)
#
#
# Indices 1 2 3 4 5 6 
#
# 1 147.9870 26.5331 42.7565 0.0000 11.4909 0.0000
# 2 26.5331 61.8295 1.9246 0.0000 7.3505 0.0000
# 3 42.7565 1.9246 65.1137 0.0000 2.5808 0.0000
# 4 0.0000 0.0000 0.0000 25.9548 0.0000 2.7246
# 5 11.4909 7.3505 2.5808 0.0000 36.6476 0.0000
# 6 0.0000 0.0000 0.0000 2.7246 0.0000 29.9134
#
#
#
# Elastic Compliance Matrix: (Units=1/GPa)
#
#
# Indices 1 2 3 4 5 6 
#
# 1 0.009236 -0.003570 -0.005889 0.000000 -0.001765 0.000000
# 2 -0.003570 0.017957 0.001917 0.000000 -0.002617 0.000000
# 3 -0.005889 0.001917 0.019164 0.000000 0.000112 0.000000
# 4 0.000000 0.000000 0.000000 0.038900 0.000000 -0.003543
# 5 -0.001765 -0.002617 0.000112 0.000000 0.028357 0.000000
# 6 0.000000 0.000000 0.000000 -0.003543 0.000000 0.033753
#
#
# Mechanical properties :
#
#
# Convention : Reuss Voigt Hill
#
# Bulk Modulus (GPa) = 31.97700 46.37320 39.17510
# Shear Modulus (GPa) = 28.92244 32.08423 30.50333
#
# Velocity S-wave (km/s) = 3.41031 3.59188 3.50227
# Velocity P-wave (km/s) = 5.32592 5.98745 5.66635
#
# Compressibility (1/GPa) = 0.03127248
#
# Stress axis : x y z
#
# Youngs Moduli (GPa) = 108.27078 55.68823 52.18170
#
# Poissons Ratio (x) = 0.19883 0.30732
# Poissons Ratio (y) = 0.38657 -0.10005
# Poissons Ratio (z) = 0.63764 -0.10678
#
# Static dielectric constant tensor:
#      x y z
#    x 2.053430 0.000000 -0.019980 
#    y 0.000000 1.972760 0.000000 
#    z -0.019980 0.000000 2.020910 
# 
# From -- ./inp_files/36447.got.cif
#   From: 2010.05.17/outbox.cif.g08.bks.cpg/sg5_19_cif.got.tgz:36447.got - 2010.06.03 18:56:24.
