data_PCOD9129691
_publ_section_title
;
Structure prediction by ZEFSAII (Michael W. Deem and Ramdas Pophale) SiO2 
 PCOD9129691
Probable space group: C 2
;
_chemical_formula_sum "Si O2"
_cell_formula_units_Z 22
_cell_length_a 6.471150
_cell_length_b 17.201973
_cell_length_c 10.206518
_cell_angle_alpha 90.000000
_cell_angle_beta 115.394338
_cell_angle_gamma 90.000000
_cell_volume 1026.376473
_symmetry_space_group_name_H-M "C 2"
_symmetry_group_IT_number 5
_symmetry_cell_setting 'monoclinic'
loop_
_space_group_symop_operation_xyz
x,y,z
-x,y,-z
1/2+x,1/2+y,z
1/2-x,1/2+y,-z
loop_
_atom_site_type_symbol
_atom_site_label
_atom_site_fract_x
_atom_site_fract_y
_atom_site_fract_z
Si Si1 0.534366 0.625000 0.353847
Si Si2 0.493685 0.351919 0.847116
Si Si3 0.797625 0.498192 0.864517
Si Si4 0.194896 0.762942 0.653250
Si Si5 0.000000 0.536109 0.500000
Si Si6 0.983638 0.402705 0.691558
O O1 0.500000 0.641547 0.500000
O O2 0.340884 0.565804 0.249260
O O3 0.589032 0.703991 0.288529
O O4 0.775318 0.581759 0.401977
O O5 0.612615 0.437914 0.875091
O O6 0.602727 0.291841 0.770216
O O7 0.231510 0.367587 0.736197
O O8 0.500000 0.324203 0.000000
O O9 0.950253 0.434551 0.827733
O O10 0.000000 0.539282 0.000000
O O11 0.290573 0.840328 0.611402
O O12 0.000000 0.732974 0.500000
O O13 0.065848 0.478970 0.402640
#
# Coordination Sequence:
#
# PCOD9129691 Si02
#       6
#     4   4   4   4   2   4
#     4  12  26  44  70 105 149 188 235 299 359 425
#     4  11  23  44  76 101 139 186 239 299 351 423
#     4  11  23  43  74 107 139 182 237 295 361 423
#     4  11  27  43  70 105 145 187 238 291 360 422
#     4  12  22  40  72 104 134 180 248 290 358 414
#     4  11  23  40  72 104 132 184 237 297 348 425
#
# _framework density 21.434632000000001
#
# number of rings (size 3 to 8) (size 9 to 14) (size 15 to 20)
#    0.000    0.727    6.364    1.091    6.364    0.000 
#    0.000    0.909   12.000    0.000    0.000    0.000 
#    0.000    0.000    0.000    0.000    0.000    0.000 
#
# Total GULP energy -61308.366739 kJ/mol
# GULP energy per Si atom -5573.487885 kJ/mol
# Density = 2.138585 g / cm^3
# Si number density = 21.434632 Si / 1000 Ang^3
#
#
#
# Elastic Constant Matrix: (Units=GPa)
#
#
# Indices 1 2 3 4 5 6 
#
# 1 94.9882 54.4326 34.8260 0.0000 -3.1509 0.0000
# 2 54.4326 86.5763 29.5650 0.0000 -6.5167 0.0000
# 3 34.8260 29.5650 83.3265 0.0000 0.7766 0.0000
# 4 0.0000 0.0000 0.0000 13.6193 0.0000 -0.3180
# 5 -3.1509 -6.5167 0.7766 0.0000 38.6311 0.0000
# 6 0.0000 0.0000 0.0000 -0.3180 0.0000 44.9596
#
#
#
# Elastic Compliance Matrix: (Units=1/GPa)
#
#
# Indices 1 2 3 4 5 6 
#
# 1 0.017494 -0.009686 -0.003874 0.000000 -0.000129 0.000000
# 2 -0.009686 0.018715 -0.002615 0.000000 0.002420 0.000000
# 3 -0.003874 -0.002615 0.014558 0.000000 -0.001050 0.000000
# 4 0.000000 0.000000 0.000000 0.073437 0.000000 0.000519
# 5 -0.000129 0.002420 -0.001050 0.000000 0.026305 0.000000
# 6 0.000000 0.000000 0.000000 0.000519 0.000000 0.022246
#
#
# Mechanical properties :
#
#
# Convention : Reuss Voigt Hill
#
# Bulk Modulus (GPa) = 54.29412 55.83759 55.06586
# Shear Modulus (GPa) = 23.66948 29.17981 26.42464
#
# Velocity S-wave (km/s) = 3.32665 3.69364 3.51494
# Velocity P-wave (km/s) = 6.33566 6.65562 6.49761
#
# Compressibility (1/GPa) = 0.01841820
#
# Stress axis : x y z
#
# Youngs Moduli (GPa) = 57.16255 53.43248 68.69295
#
# Poissons Ratio (x) = 0.51753 0.26610
# Poissons Ratio (y) = 0.55366 0.17962
# Poissons Ratio (z) = 0.22143 0.13971
#
# Static dielectric constant tensor:
#      x y z
#    x 1.690570 0.000000 0.060550 
#    y 0.000000 1.786650 0.000000 
#    z 0.060550 0.000000 1.813450 
# 
# From -- ./inp_files/33212.got.cif
#   From: 2010.05.17/outbox.cif.g08.bks.cpg/sg5_17_cif.got.tgz:33212.got - 2010.06.03 18:56:24.
