data_PCOD9129786
_publ_section_title
;
Structure prediction by ZEFSAII (Michael W. Deem and Ramdas Pophale) SiO2 
 PCOD9129786
Probable space group: C 2
;
_chemical_formula_sum "Si O2"
_cell_formula_units_Z 30
_cell_length_a 28.042037
_cell_length_b 5.805778
_cell_length_c 8.844717
_cell_angle_alpha 90.000000
_cell_angle_beta 119.897371
_cell_angle_gamma 90.000000
_cell_volume 1248.339628
_symmetry_space_group_name_H-M "C 2"
_symmetry_group_IT_number 5
_symmetry_cell_setting 'monoclinic'
loop_
_space_group_symop_operation_xyz
x,y,z
-x,y,-z
1/2+x,1/2+y,z
1/2-x,1/2+y,-z
loop_
_atom_site_type_symbol
_atom_site_label
_atom_site_fract_x
_atom_site_fract_y
_atom_site_fract_z
Si Si1 0.198476 0.325550 0.873140
Si Si2 0.965106 0.164912 0.145072
Si Si3 0.927962 0.397133 0.795653
Si Si4 0.719351 0.331126 0.441744
Si Si5 0.000000 0.780139 0.000000
Si Si6 0.316936 0.188404 0.941793
Si Si7 0.606562 0.456561 0.731986
Si Si8 0.139555 0.649744 0.545050
O O1 0.261725 0.279684 0.938701
O O2 0.177354 0.525772 0.728663
O O3 0.159834 0.110190 0.778895
O O4 0.186938 0.417078 0.024889
O O5 0.016580 0.336483 0.211204
O O6 0.937149 0.128117 0.261434
O O7 0.925357 0.229813 0.937880
O O8 0.993231 0.929631 0.138041
O O9 0.881015 0.451610 0.602325
O O10 0.944591 0.637096 0.896805
O O11 0.745411 0.589852 0.475940
O O12 0.690074 0.269385 0.238500
O O13 0.675145 0.327220 0.505069
O O14 0.372131 0.289886 0.100588
O O15 0.594472 0.294982 0.569167
#
# Coordination Sequence:
#
# PCOD9129786 Si02
#       8
#     4   4   4   4   2   4   4   4
#     4  11  23  44  63  94 142 184 236 290 369 430
#     4   9  21  42  69 102 128 188 241 294 367 451
#     4   9  21  42  68  97 141 177 234 312 362 441
#     4  12  28  45  70 110 151 197 250 310 369 451
#     4   8  18  40  68  94 134 166 232 292 360 426
#     4  11  24  40  67  94 140 192 233 299 356 443
#     4  11  25  42  70 100 138 188 246 297 371 458
#     4  11  26  43  65 107 144 185 240 314 376 436
#
# _framework density 24.031922000000002
#
# number of rings (size 3 to 8) (size 9 to 14) (size 15 to 20)
#    0.000    1.867    2.667    0.800    7.467    5.333 
#    0.000    4.000    0.000    0.000    0.000    0.000 
#    0.000    0.000    0.000    0.000    0.000    0.000 
#
# Total GULP energy -83708.964831 kJ/mol
# GULP energy per Si atom -5580.597655 kJ/mol
# Density = 2.397722 g / cm^3
# Si number density = 24.031922 Si / 1000 Ang^3
#
#
#
# Elastic Constant Matrix: (Units=GPa)
#
#
# Indices 1 2 3 4 5 6 
#
# 1 75.0188 7.3471 7.0778 0.0000 -20.6164 0.0000
# 2 7.3471 68.4596 19.7592 0.0000 -7.7152 0.0000
# 3 7.0778 19.7592 63.1089 0.0000 -10.7898 0.0000
# 4 0.0000 0.0000 0.0000 24.9048 0.0000 -7.5642
# 5 -20.6164 -7.7152 -10.7898 0.0000 28.5480 0.0000
# 6 0.0000 0.0000 0.0000 -7.5642 0.0000 15.0062
#
#
#
# Elastic Compliance Matrix: (Units=1/GPa)
#
#
# Indices 1 2 3 4 5 6 
#
# 1 0.016651 -0.000535 0.000354 0.000000 0.012014 0.000000
# 2 -0.000535 0.016259 -0.004646 0.000000 0.002252 0.000000
# 3 0.000354 -0.004646 0.018270 0.000000 0.005906 0.000000
# 4 0.000000 0.000000 0.000000 0.047412 0.000000 0.023899
# 5 0.012014 0.002252 0.005906 0.000000 0.046545 0.000000
# 6 0.000000 0.000000 0.000000 0.023899 0.000000 0.078686
#
#
# Mechanical properties :
#
#
# Convention : Reuss Voigt Hill
#
# Bulk Modulus (GPa) = 24.08107 30.55060 27.31583
# Shear Modulus (GPa) = 20.21688 25.18535 22.70111
#
# Velocity S-wave (km/s) = 2.90358 3.24079 3.07681
# Velocity P-wave (km/s) = 4.61338 5.17143 4.90035
#
# Compressibility (1/GPa) = 0.04152640
#
# Stress axis : x y z
#
# Youngs Moduli (GPa) = 60.05802 61.50351 54.73417
#
# Poissons Ratio (x) = 0.03292 -0.01939
# Poissons Ratio (y) = 0.03215 0.25428
# Poissons Ratio (z) = -0.02127 0.28573
#
# Static dielectric constant tensor:
#      x y z
#    x 1.956620 0.000000 -0.015250 
#    y 0.000000 2.001760 0.000000 
#    z -0.015250 0.000000 1.949510 
# 
# From -- ./inp_files/32310.got.cif
#   From: 2010.05.17/outbox.cif.g08.bks.cpg/sg5_17_cif.got.tgz:32310.got - 2010.06.03 18:56:24.
