data_PCOD9129616
_publ_section_title
;
Structure prediction by ZEFSAII (Michael W. Deem and Ramdas Pophale) SiO2 
 PCOD9129616
Probable space group: C 2
;
_chemical_formula_sum "Si O2"
_cell_formula_units_Z 24
_cell_length_a 14.325118
_cell_length_b 6.736643
_cell_length_c 14.016927
_cell_angle_alpha 90.000000
_cell_angle_beta 52.153443
_cell_angle_gamma 90.000000
_cell_volume 1068.151582
_symmetry_space_group_name_H-M "C 2"
_symmetry_group_IT_number 5
_symmetry_cell_setting 'monoclinic'
loop_
_space_group_symop_operation_xyz
x,y,z
-x,y,-z
1/2+x,1/2+y,z
1/2-x,1/2+y,-z
loop_
_atom_site_type_symbol
_atom_site_label
_atom_site_fract_x
_atom_site_fract_y
_atom_site_fract_z
Si Si1 0.298586 0.141960 0.094501
Si Si2 0.090496 0.144782 0.771448
Si Si3 0.877987 0.849815 0.870307
Si Si4 0.000000 0.370770 0.000000
Si Si5 0.500000 0.879486 0.500000
Si Si6 0.952349 0.535921 0.323351
Si Si7 0.237617 0.783954 0.671529
O O1 0.309179 0.229672 0.193213
O O2 0.191840 0.988678 0.158510
O O3 0.415239 0.016575 0.996008
O O4 0.292680 0.299246 0.012732
O O5 0.063439 0.318148 0.713218
O O6 0.206534 0.016707 0.677002
O O7 0.985839 0.984147 0.838579
O O8 0.083986 0.245231 0.879031
O O9 0.935384 0.657820 0.786471
O O10 0.378307 0.755242 0.584727
O O11 0.476435 0.007141 0.419781
O O12 0.836385 0.658344 0.359930
#
# Coordination Sequence:
#
# PCOD9129616 Si02
#       7
#     4   4   4   2   2   4   4
#     4  12  23  43  70 112 149 192 240 307 379 457
#     4  11  22  45  73 104 148 188 241 312 371 453
#     4  11  25  42  70 109 152 189 244 302 385 459
#     4  12  20  38  74 104 140 188 226 298 384 442
#     4  12  30  48  80 104 150 208 254 318 366 444
#     4  11  26  51  71 110 144 198 259 309 382 444
#     4  11  27  49  74 109 150 194 262 309 374 449
#
# _framework density 22.468720000000001
#
# number of rings (size 3 to 8) (size 9 to 14) (size 15 to 20)
#    0.000    0.667    3.333    4.000    7.000    0.000 
#    0.000    4.167    0.000    0.000    0.000    0.000 
#    0.000    0.000    0.000    0.000    0.000    0.000 
#
# Total GULP energy -67086.945167 kJ/mol
# GULP energy per Si atom -5590.578764 kJ/mol
# Density = 2.241758 g / cm^3
# Si number density = 22.468720 Si / 1000 Ang^3
#
#
#
# Elastic Constant Matrix: (Units=GPa)
#
#
# Indices 1 2 3 4 5 6 
#
# 1 112.8783 35.0508 52.7294 0.0000 9.8508 0.0000
# 2 35.0508 100.7858 42.1715 0.0000 12.6933 0.0000
# 3 52.7294 42.1715 94.0678 0.0000 20.1660 0.0000
# 4 0.0000 0.0000 0.0000 11.4780 0.0000 2.4261
# 5 9.8508 12.6933 20.1660 0.0000 52.9266 0.0000
# 6 0.0000 0.0000 0.0000 2.4261 0.0000 38.3982
#
#
#
# Elastic Compliance Matrix: (Units=1/GPa)
#
#
# Indices 1 2 3 4 5 6 
#
# 1 0.012247 -0.001729 -0.006196 0.000000 0.000496 0.000000
# 2 -0.001729 0.012498 -0.004421 0.000000 -0.000991 0.000000
# 3 -0.006196 -0.004421 0.017000 0.000000 -0.004264 0.000000
# 4 0.000000 0.000000 0.000000 0.088303 0.000000 -0.005579
# 5 0.000496 -0.000991 -0.004264 0.000000 0.020664 0.000000
# 6 0.000000 0.000000 0.000000 -0.005579 0.000000 0.026395
#
#
# Mechanical properties :
#
#
# Convention : Reuss Voigt Hill
#
# Bulk Modulus (GPa) = 58.64413 63.07055 60.85734
# Shear Modulus (GPa) = 24.09809 32.41256 28.25532
#
# Velocity S-wave (km/s) = 3.27848 3.80223 3.55003
# Velocity P-wave (km/s) = 6.36304 6.88529 6.62931
#
# Compressibility (1/GPa) = 0.01705200
#
# Stress axis : x y z
#
# Youngs Moduli (GPa) = 81.65109 80.01155 58.82285
#
# Poissons Ratio (x) = 0.13834 0.36449
# Poissons Ratio (y) = 0.14118 0.26008
# Poissons Ratio (z) = 0.50594 0.35376
#
# Static dielectric constant tensor:
#      x y z
#    x 1.843680 0.000000 -0.030740 
#    y 0.000000 1.828130 0.000000 
#    z -0.030740 0.000000 1.854110 
# 
# From -- ./inp_files/53772.got.cif
#   From: 2010.05.17/outbox.cif.g08.bks.cpg/sg5_27_cif.got.tgz:53772.got - 2010.06.03 18:56:24.
