data_PCOD9129485
_publ_section_title
;
Structure prediction by ZEFSAII (Michael W. Deem and Ramdas Pophale) SiO2 
 PCOD9129485
Probable space group: C 2
;
_chemical_formula_sum "Si O2"
_cell_formula_units_Z 20
_cell_length_a 11.600372
_cell_length_b 7.789928
_cell_length_c 8.489755
_cell_angle_alpha 90.000000
_cell_angle_beta 97.919156
_cell_angle_gamma 90.000000
_cell_volume 759.869431
_symmetry_space_group_name_H-M "C 2"
_symmetry_group_IT_number 5
_symmetry_cell_setting 'monoclinic'
loop_
_space_group_symop_operation_xyz
x,y,z
-x,y,-z
1/2+x,1/2+y,z
1/2-x,1/2+y,-z
loop_
_atom_site_type_symbol
_atom_site_label
_atom_site_fract_x
_atom_site_fract_y
_atom_site_fract_z
Si Si1 0.851526 0.134110 0.228662
Si Si2 0.221800 0.705380 0.535959
Si Si3 0.463140 0.955432 0.332648
Si Si4 0.613649 0.153875 0.126401
Si Si5 0.398789 0.485220 0.696230
O O1 0.786171 0.161957 0.383046
O O2 0.905915 0.320813 0.204057
O O3 0.740789 0.086597 0.100392
O O4 0.962981 0.013348 0.266863
O O5 0.127658 0.591196 0.611996
O O6 0.331373 0.667776 0.675709
O O7 0.152228 0.874580 0.462479
O O8 0.500000 0.857709 0.500000
O O9 0.568892 0.055152 0.274444
O O10 0.628185 0.356494 0.165622
O O11 0.500000 0.133882 0.000000
#
# Coordination Sequence:
#
# PCOD9129485 Si02
#       5
#     4   4   4   4   4
#     4  11  25  42  69 105 143 177 237 289 345 413
#     4  11  22  40  67 109 140 174 221 294 349 412
#     4  12  22  43  71 101 136 186 229 289 351 408
#     4  11  27  48  68  98 144 190 238 285 340 416
#     4  11  24  42  72  99 149 179 224 287 356 405
#
# _framework density 26.320312999999999
#
# number of rings (size 3 to 8) (size 9 to 14) (size 15 to 20)
#    0.000    0.800    8.000    1.800    5.600    1.600 
#    0.000    1.000    0.000    0.000    0.000    0.000 
#    0.000    0.000    0.000    0.000    0.000    0.000 
#
# Total GULP energy -55715.647434 kJ/mol
# GULP energy per Si atom -5571.564743 kJ/mol
# Density = 2.626041 g / cm^3
# Si number density = 26.320313 Si / 1000 Ang^3
#
#
#
# Elastic Constant Matrix: (Units=GPa)
#
#
# Indices 1 2 3 4 5 6 
#
# 1 209.9227 51.2009 41.2847 0.0000 64.9673 0.0000
# 2 51.2009 87.4743 23.2881 0.0000 13.7628 0.0000
# 3 41.2847 23.2881 56.6249 0.0000 41.8625 0.0000
# 4 0.0000 0.0000 0.0000 18.2276 0.0000 13.6447
# 5 64.9673 13.7628 41.8625 0.0000 53.1823 0.0000
# 6 0.0000 0.0000 0.0000 13.6447 0.0000 55.7199
#
#
#
# Elastic Compliance Matrix: (Units=1/GPa)
#
#
# Indices 1 2 3 4 5 6 
#
# 1 0.009415 -0.004816 0.006453 0.000000 -0.015335 0.000000
# 2 -0.004816 0.015390 -0.010102 0.000000 0.009852 0.000000
# 3 0.006453 -0.010102 0.050244 0.000000 -0.044818 0.000000
# 4 0.000000 0.000000 0.000000 0.067176 0.000000 -0.016450
# 5 -0.015335 0.009852 -0.044818 0.000000 0.070265 0.000000
# 6 0.000000 0.000000 0.000000 -0.016450 0.000000 0.021975
#
#
# Mechanical properties :
#
#
# Convention : Reuss Voigt Hill
#
# Bulk Modulus (GPa) = 17.20607 65.06324 41.13466
# Shear Modulus (GPa) = 18.46596 41.30917 29.88756
#
# Velocity S-wave (km/s) = 2.65162 3.96596 3.37342
# Velocity P-wave (km/s) = 3.99076 6.76352 5.55299
#
# Compressibility (1/GPa) = 0.05811903
#
# Stress axis : x y z
#
# Youngs Moduli (GPa) = 106.21348 64.97620 19.90296
#
# Poissons Ratio (x) = 0.31294 -0.12844
# Poissons Ratio (y) = 0.51154 0.20106
# Poissons Ratio (z) = -0.68541 0.65639
#
# Static dielectric constant tensor:
#      x y z
#    x 2.092130 0.000000 0.163840 
#    y 0.000000 2.170280 0.000000 
#    z 0.163840 0.000000 2.308100 
# 
# From -- ./inp_files/38109.got.cif
#   From: 2010.05.17/outbox.cif.g08.bks.cpg/sg5_20_cif.got.tgz:38109.got - 2010.06.03 18:56:24.
