data_PCOD9129864
_publ_section_title
;
Structure prediction by ZEFSAII (Michael W. Deem and Ramdas Pophale) SiO2 
 PCOD9129864
Probable space group: C 2
;
_chemical_formula_sum "Si O2"
_cell_formula_units_Z 28
_cell_length_a 26.862527
_cell_length_b 6.719299
_cell_length_c 8.199013
_cell_angle_alpha 90.000000
_cell_angle_beta 114.487674
_cell_angle_gamma 90.000000
_cell_volume 1346.783794
_symmetry_space_group_name_H-M "C 2"
_symmetry_group_IT_number 5
_symmetry_cell_setting 'monoclinic'
loop_
_space_group_symop_operation_xyz
x,y,z
-x,y,-z
1/2+x,1/2+y,z
1/2-x,1/2+y,-z
loop_
_atom_site_type_symbol
_atom_site_label
_atom_site_fract_x
_atom_site_fract_y
_atom_site_fract_z
Si Si1 0.052085 0.453100 0.687334
Si Si2 0.261049 0.720829 0.816011
Si Si3 0.325477 0.538495 0.191373
Si Si4 0.895425 0.774928 0.054149
Si Si5 0.161027 0.431977 0.621756
Si Si6 0.347916 0.952931 0.759253
Si Si7 0.442594 0.671792 0.011391
O O1 0.055453 0.634160 0.819615
O O2 0.109269 0.476804 0.667609
O O3 0.052196 0.252605 0.795566
O O4 0.000000 0.459817 0.500000
O O5 0.219342 0.535220 0.743150
O O6 0.295036 0.811037 0.711772
O O7 0.224324 0.900928 0.826324
O O8 0.306651 0.671449 0.012484
O O9 0.369751 0.388292 0.175678
O O10 0.336717 0.692261 0.352732
O O11 0.918233 0.951220 0.974601
O O12 0.852554 0.635922 0.895066
O O13 0.149527 0.511358 0.425270
O O14 0.400288 0.818809 0.868343
O O15 0.500000 0.680794 0.000000
#
# Coordination Sequence:
#
# PCOD9129864 Si02
#       7
#     4   4   4   4   4   4   4
#     4  11  24  46  70 100 136 177 230 291 348 418
#     4  12  24  40  70  97 136 181 222 278 348 411
#     4  12  22  43  68  98 131 182 229 277 340 418
#     4  11  23  46  70  98 135 183 232 280 355 417
#     4  12  26  42  68 103 137 179 233 288 341 417
#     4  11  27  43  66 103 142 178 227 291 349 419
#     4  11  24  46  72  97 136 183 228 288 353 417
#
# _framework density 20.790268999999999
#
# number of rings (size 3 to 8) (size 9 to 14) (size 15 to 20)
#    0.000    0.571    5.714    2.571    2.000    5.143 
#    2.571    0.000    0.000    0.000    0.000    0.000 
#    0.000    0.000    0.000    0.000    0.000    0.000 
#
# Total GULP energy -78140.351847 kJ/mol
# GULP energy per Si atom -5581.453703 kJ/mol
# Density = 2.074295 g / cm^3
# Si number density = 20.790269 Si / 1000 Ang^3
#
#
#
# Elastic Constant Matrix: (Units=GPa)
#
#
# Indices 1 2 3 4 5 6 
#
# 1 112.1339 22.4633 0.4753 0.0000 -1.4043 0.0000
# 2 22.4633 101.9888 10.3037 0.0000 9.3403 0.0000
# 3 0.4753 10.3037 71.2849 0.0000 8.7527 0.0000
# 4 0.0000 0.0000 0.0000 14.1840 0.0000 -2.1001
# 5 -1.4043 9.3403 8.7527 0.0000 26.4949 0.0000
# 6 0.0000 0.0000 0.0000 -2.1001 0.0000 25.4707
#
#
#
# Elastic Compliance Matrix: (Units=1/GPa)
#
#
# Indices 1 2 3 4 5 6 
#
# 1 0.009371 -0.002187 0.000102 0.000000 0.001234 0.000000
# 2 -0.002187 0.010721 -0.001101 0.000000 -0.003532 0.000000
# 3 0.000102 -0.001101 0.014736 0.000000 -0.004474 0.000000
# 4 0.000000 0.000000 0.000000 0.071373 0.000000 0.005885
# 5 0.001234 -0.003532 -0.004474 0.000000 0.040532 0.000000
# 6 0.000000 0.000000 0.000000 0.005885 0.000000 0.039746
#
#
# Mechanical properties :
#
#
# Convention : Reuss Voigt Hill
#
# Bulk Modulus (GPa) = 35.14273 39.09914 37.12093
# Shear Modulus (GPa) = 24.71108 30.04093 27.37601
#
# Velocity S-wave (km/s) = 3.45133 3.80538 3.63267
# Velocity P-wave (km/s) = 5.72908 6.17698 5.95724
#
# Compressibility (1/GPa) = 0.02845539
#
# Stress axis : x y z
#
# Youngs Moduli (GPa) = 106.71084 93.27059 67.86040
#
# Poissons Ratio (x) = 0.20402 -0.00693
# Poissons Ratio (y) = 0.23341 0.07475
# Poissons Ratio (z) = -0.01090 0.10274
#
# Static dielectric constant tensor:
#      x y z
#    x 1.769890 0.000000 -0.000240 
#    y 0.000000 1.763240 0.000000 
#    z -0.000240 0.000000 1.770580 
# 
# From -- ./inp_files/32337.got.cif
#   From: 2010.05.17/outbox.cif.g08.bks.cpg/sg5_17_cif.got.tgz:32337.got - 2010.06.03 18:56:24.
