data_PCOD9129520
_publ_section_title
;
Structure prediction by ZEFSAII (Michael W. Deem and Ramdas Pophale) SiO2 
 PCOD9129520
Probable space group: C 2
;
_chemical_formula_sum "Si O2"
_cell_formula_units_Z 28
_cell_length_a 21.667672
_cell_length_b 7.099183
_cell_length_c 15.278043
_cell_angle_alpha 90.000000
_cell_angle_beta 148.484498
_cell_angle_gamma 90.000000
_cell_volume 1228.471664
_symmetry_space_group_name_H-M "C 2"
_symmetry_group_IT_number 5
_symmetry_cell_setting 'monoclinic'
loop_
_space_group_symop_operation_xyz
x,y,z
-x,y,-z
1/2+x,1/2+y,z
1/2-x,1/2+y,-z
loop_
_atom_site_type_symbol
_atom_site_label
_atom_site_fract_x
_atom_site_fract_y
_atom_site_fract_z
Si Si1 0.308728 0.163670 0.454920
Si Si2 0.636058 0.271086 0.673559
Si Si3 0.356396 0.300943 0.007378
Si Si4 0.807731 0.518746 0.092028
Si Si5 0.403084 0.477920 0.702862
Si Si6 0.968026 0.305154 0.658295
Si Si7 0.130211 0.206765 0.635288
O O1 0.304966 0.216994 0.347860
O O2 0.337531 0.344332 0.551374
O O3 0.192217 0.051665 0.343411
O O4 0.414262 0.014659 0.599205
O O5 0.500000 0.216532 0.500000
O O6 0.676835 0.167136 0.810333
O O7 0.637673 0.496737 0.681862
O O8 0.342665 0.103273 0.040894
O O9 0.484865 0.355324 0.129135
O O10 0.322138 0.441206 0.045824
O O11 0.248938 0.311444 0.808512
O O12 0.897356 0.341142 0.209111
O O13 0.456225 0.670620 0.726624
O O14 0.883962 0.203397 0.485836
O O15 0.000000 0.288864 0.500000
#
# Coordination Sequence:
#
# PCOD9129520 Si02
#       7
#     4   4   4   4   4   4   4
#     4  12  24  45  73 101 143 191 244 285 354 432
#     4  11  22  41  70 106 141 183 239 293 357 426
#     4  12  25  42  68 110 150 183 237 298 355 417
#     4  12  24  41  70 109 149 179 235 306 357 413
#     4  12  26  46  72 106 140 195 243 292 349 430
#     4  12  23  44  74 102 145 190 235 290 359 425
#     4  11  24  41  69 106 149 188 231 291 364 427
#
# _framework density 22.792549000000001
#
# number of rings (size 3 to 8) (size 9 to 14) (size 15 to 20)
#    0.000    0.286    7.143    2.571    2.000    0.000 
#    0.000    2.857    0.000    1.714    0.000    0.000 
#    0.000    0.000    0.000    0.000    0.000    0.000 
#
# Total GULP energy -78185.042947 kJ/mol
# GULP energy per Si atom -5584.645925 kJ/mol
# Density = 2.274067 g / cm^3
# Si number density = 22.792549 Si / 1000 Ang^3
#
#
#
# Elastic Constant Matrix: (Units=GPa)
#
#
# Indices 1 2 3 4 5 6 
#
# 1 89.5718 3.6321 39.2264 0.0000 20.4629 0.0000
# 2 3.6321 83.3010 5.7966 0.0000 -0.3572 0.0000
# 3 39.2264 5.7966 92.3421 0.0000 12.4001 0.0000
# 4 0.0000 0.0000 0.0000 33.9186 0.0000 3.5867
# 5 20.4629 -0.3572 12.4001 0.0000 36.0113 0.0000
# 6 0.0000 0.0000 0.0000 3.5867 0.0000 43.3783
#
#
#
# Elastic Compliance Matrix: (Units=1/GPa)
#
#
# Indices 1 2 3 4 5 6 
#
# 1 0.015117 -0.000305 -0.005503 0.000000 -0.006698 0.000000
# 2 -0.000305 0.012069 -0.000700 0.000000 0.000534 0.000000
# 3 -0.005503 -0.000700 0.013412 0.000000 -0.001498 0.000000
# 4 0.000000 0.000000 0.000000 0.029742 0.000000 -0.002459
# 5 -0.006698 0.000534 -0.001498 0.000000 0.032096 0.000000
# 6 0.000000 0.000000 0.000000 -0.002459 0.000000 0.023256
#
#
# Mechanical properties :
#
#
# Convention : Reuss Voigt Hill
#
# Bulk Modulus (GPa) = 36.25494 40.28056 38.26775
# Shear Modulus (GPa) = 33.80616 37.09896 35.45256
#
# Velocity S-wave (km/s) = 3.85543 4.03883 3.94819
# Velocity P-wave (km/s) = 5.97998 6.28176 6.13273
#
# Compressibility (1/GPa) = 0.02758245
#
# Stress axis : x y z
#
# Youngs Moduli (GPa) = 66.15217 82.85739 74.56000
#
# Poissons Ratio (x) = 0.02526 0.41030
# Poissons Ratio (y) = 0.02017 0.05218
# Poissons Ratio (z) = 0.36403 0.05798
#
# Static dielectric constant tensor:
#      x y z
#    x 1.863290 0.000000 -0.034930 
#    y 0.000000 1.921380 0.000000 
#    z -0.034930 0.000000 1.898200 
# 
# From -- ./inp_files/56930.got.cif
#   From: 2010.05.17/outbox.cif.g08.bks.cpg/sg5_29_cif.got.tgz:56930.got - 2010.06.03 18:56:24.
