data_PCOD9129926
_publ_section_title
;
Structure prediction by ZEFSAII (Michael W. Deem and Ramdas Pophale) SiO2 
 PCOD9129926
Probable space group: C 2
;
_chemical_formula_sum "Si O2"
_cell_formula_units_Z 14
_cell_length_a 5.377574
_cell_length_b 19.372005
_cell_length_c 5.349968
_cell_angle_alpha 90.000000
_cell_angle_beta 88.518699
_cell_angle_gamma 90.000000
_cell_volume 557.143404
_symmetry_space_group_name_H-M "C 2"
_symmetry_group_IT_number 5
_symmetry_cell_setting 'monoclinic'
loop_
_space_group_symop_operation_xyz
x,y,z
-x,y,-z
1/2+x,1/2+y,z
1/2-x,1/2+y,-z
loop_
_atom_site_type_symbol
_atom_site_label
_atom_site_fract_x
_atom_site_fract_y
_atom_site_fract_z
Si Si1 0.252510 0.346900 0.646693
Si Si2 0.500000 0.943606 0.000000
Si Si3 0.244470 0.693066 0.163318
Si Si4 0.341675 0.542581 0.264664
O O1 0.500000 0.368018 0.500000
O O2 0.271772 0.265218 0.694453
O O3 0.000000 0.357684 0.500000
O O4 0.212418 0.392426 0.894123
O O5 0.610196 0.993619 0.208798
O O6 0.260111 0.621782 0.313874
O O7 0.500000 0.697447 0.000000
O O8 0.000000 0.687745 0.000000
O O9 0.500000 0.520959 0.500000
O O10 0.500000 0.542358 0.000000
#
# Coordination Sequence:
#
# PCOD9129926 Si02
#       4
#     4   2   4   4
#     4  12  29  49  84 118 167 221 279 342 425 498
#     4  12  30  52  78 124 176 214 280 350 422 514
#     4  11  23  51  81 121 160 216 282 347 413 497
#     4  11  28  51  85 120 170 222 283 347 425 501
#
# _framework density 25.128177000000001
#
# number of rings (size 3 to 8) (size 9 to 14) (size 15 to 20)
#    0.000    0.571    2.857    2.571    8.000    2.286 
#    0.000    0.000    0.000    0.000    0.000    0.000 
#    0.000    0.000    0.000    0.000    0.000    0.000 
#
# Total GULP energy -39287.530034 kJ/mol
# GULP energy per Si atom -5612.504291 kJ/mol
# Density = 2.507098 g / cm^3
# Si number density = 25.128177 Si / 1000 Ang^3
#
#
#
# Elastic Constant Matrix: (Units=GPa)
#
#
# Indices 1 2 3 4 5 6 
#
# 1 186.9150 47.5212 62.7037 0.0000 3.5055 0.0000
# 2 47.5212 231.7832 52.0953 0.0000 -0.9061 0.0000
# 3 62.7037 52.0953 115.3273 0.0000 18.3392 0.0000
# 4 0.0000 0.0000 0.0000 -117.8678 0.0000 -28.3327
# 5 3.5055 -0.9061 18.3392 0.0000 66.3251 0.0000
# 6 0.0000 0.0000 0.0000 -28.3327 0.0000 1.0041
#
#
#
# Elastic Compliance Matrix: (Units=1/GPa)
#
#
# Indices 1 2 3 4 5 6 
#
# 1 0.006642 -0.000586 -0.003441 0.000000 0.000592 0.000000
# 2 -0.000586 0.004885 -0.001991 0.000000 0.000648 0.000000
# 3 -0.003441 -0.001991 0.011941 0.000000 -0.003147 0.000000
# 4 0.000000 0.000000 0.000000 -0.001090 0.000000 -0.030760
# 5 0.000592 0.000648 -0.003147 0.000000 0.015925 0.000000
# 6 0.000000 0.000000 0.000000 -0.030760 0.000000 0.127966
#
#
# Mechanical properties :
#
#
# Convention : Reuss Voigt Hill
#
# Bulk Modulus (GPa) = 87.46823 95.40731 91.43777
# Shear Modulus (GPa) = 27.45512 14.67265 21.06388
#
# Velocity S-wave (km/s) = 3.30904 2.41905 2.89841
# Velocity P-wave (km/s) = 7.03449 6.77149 6.90424
#
# Compressibility (1/GPa) = 0.01143272
#
# Stress axis : x y z
#
# Youngs Moduli (GPa) = 150.55222 204.72775 83.74163
#
# Poissons Ratio (x) = 0.12000 0.28814
# Poissons Ratio (y) = 0.08825 0.16671
# Poissons Ratio (z) = 0.51802 0.40757
#
# Static dielectric constant tensor:
#      x y z
#    x 1.993650 0.000000 0.037510 
#    y 0.000000 1.963420 0.000000 
#    z 0.037510 0.000000 2.050510 
# 
# From -- ./inp_files/360.got.cif
#   From: 2010.05.17/outbox.cif.g08.bks.cpg/sg5_1_cif.got.tgz:360.got - 2010.06.03 18:56:24.
