data_PCOD9129973
_publ_section_title
;
Structure prediction by ZEFSAII (Michael W. Deem and Ramdas Pophale) SiO2 
 PCOD9129973
Probable space group: C 2
;
_chemical_formula_sum "Si O2"
_cell_formula_units_Z 20
_cell_length_a 20.938223
_cell_length_b 5.388006
_cell_length_c 7.909160
_cell_angle_alpha 90.000000
_cell_angle_beta 60.255186
_cell_angle_gamma 90.000000
_cell_volume 774.711327
_symmetry_space_group_name_H-M "C 2"
_symmetry_group_IT_number 5
_symmetry_cell_setting 'monoclinic'
loop_
_space_group_symop_operation_xyz
x,y,z
-x,y,-z
1/2+x,1/2+y,z
1/2-x,1/2+y,-z
loop_
_atom_site_type_symbol
_atom_site_label
_atom_site_fract_x
_atom_site_fract_y
_atom_site_fract_z
Si Si1 0.730636 0.031770 0.121681
Si Si2 0.423916 0.272901 0.667655
Si Si3 0.421148 0.224075 0.053637
Si Si4 0.802232 0.348335 0.283162
Si Si5 0.363074 0.541375 0.447150
O O1 0.645541 0.091230 0.265583
O O2 0.783006 0.092176 0.212404
O O3 0.756191 0.257784 0.964526
O O4 0.500000 0.162112 0.500000
O O5 0.405713 0.498238 0.563606
O O6 0.429271 0.347846 0.857464
O O7 0.356739 0.024132 0.110430
O O8 0.401042 0.393635 0.242190
O O9 0.500000 0.107900 0.000000
O O10 0.721334 0.454069 0.416389
O O11 0.848058 0.312931 0.394556
#
# Coordination Sequence:
#
# PCOD9129973 Si02
#       5
#     4   4   4   4   4
#     4  11  24  46  77 111 151 201 259 318 379 463
#     4  11  24  47  71 110 149 202 250 320 385 461
#     4  12  24  47  73 103 151 193 248 318 383 454
#     4  11  24  43  75 107 143 197 255 311 384 456
#     4  11  24  45  74 102 146 190 253 313 374 460
#
# _framework density 25.816067
#
# number of rings (size 3 to 8) (size 9 to 14) (size 15 to 20)
#    0.000    0.800    6.000    1.200    0.000    0.800 
#    3.600    1.000    0.000    0.000    0.000    0.000 
#    0.000    0.000    0.000    0.000    0.000    0.000 
#
# Total GULP energy -55954.494961 kJ/mol
# GULP energy per Si atom -5595.449496 kJ/mol
# Density = 2.575731 g / cm^3
# Si number density = 25.816067 Si / 1000 Ang^3
#
#
#
# Elastic Constant Matrix: (Units=GPa)
#
#
# Indices 1 2 3 4 5 6 
#
# 1 166.8905 23.1778 78.5525 0.0000 -0.6903 0.0000
# 2 23.1778 38.5405 30.1651 0.0000 8.4198 0.0000
# 3 78.5525 30.1651 157.6031 0.0000 0.7870 0.0000
# 4 0.0000 0.0000 0.0000 42.1207 0.0000 16.3398
# 5 -0.6903 8.4198 0.7870 0.0000 72.8621 0.0000
# 6 0.0000 0.0000 0.0000 16.3398 0.0000 35.5915
#
#
#
# Elastic Compliance Matrix: (Units=1/GPa)
#
#
# Indices 1 2 3 4 5 6 
#
# 1 0.007963 -0.002068 -0.003575 0.000000 0.000353 0.000000
# 2 -0.002068 0.031956 -0.005067 0.000000 -0.003658 0.000000
# 3 -0.003575 -0.005067 0.009095 0.000000 0.000453 0.000000
# 4 0.000000 0.000000 0.000000 0.028886 0.000000 -0.013261
# 5 0.000353 -0.003658 0.000453 0.000000 0.014146 0.000000
# 6 0.000000 0.000000 0.000000 -0.013261 0.000000 0.034185
#
#
# Mechanical properties :
#
#
# Convention : Reuss Voigt Hill
#
# Bulk Modulus (GPa) = 36.24137 69.64719 52.94428
# Shear Modulus (GPa) = 31.87805 45.52411 38.70108
#
# Velocity S-wave (km/s) = 3.51780 4.20384 3.87603
# Velocity P-wave (km/s) = 5.52890 7.11336 6.37058
#
# Compressibility (1/GPa) = 0.02759278
#
# Stress axis : x y z
#
# Youngs Moduli (GPa) = 125.57568 31.29344 109.95640
#
# Poissons Ratio (x) = 0.06472 0.39310
# Poissons Ratio (y) = 0.25970 0.55718
# Poissons Ratio (z) = 0.44894 0.15857
#
# Static dielectric constant tensor:
#      x y z
#    x 2.008790 0.000000 0.114550 
#    y 0.000000 2.052950 0.000000 
#    z 0.114550 0.000000 2.242160 
# 
# From -- ./inp_files/28261.got.cif
#   From: 2010.05.17/outbox.cif.g08.bks.cpg/sg5_15_cif.got.tgz:28261.got - 2010.06.03 18:56:24.
