data_PCOD9129108
_publ_section_title
;
Structure prediction by ZEFSAII (Michael W. Deem and Ramdas Pophale) SiO2 
 PCOD9129108
Probable space group: C 2
;
_chemical_formula_sum "Si O2"
_cell_formula_units_Z 16
_cell_length_a 12.762270
_cell_length_b 9.588277
_cell_length_c 4.841171
_cell_angle_alpha 90.000000
_cell_angle_beta 98.598562
_cell_angle_gamma 90.000000
_cell_volume 585.746728
_symmetry_space_group_name_H-M "C 2"
_symmetry_group_IT_number 5
_symmetry_cell_setting 'monoclinic'
loop_
_space_group_symop_operation_xyz
x,y,z
-x,y,-z
1/2+x,1/2+y,z
1/2-x,1/2+y,-z
loop_
_atom_site_type_symbol
_atom_site_label
_atom_site_fract_x
_atom_site_fract_y
_atom_site_fract_z
Si Si1 0.661666 0.072440 0.933300
Si Si2 0.129464 0.991857 0.729801
Si Si3 0.636665 0.673801 0.220635
Si Si4 0.500000 0.894567 0.500000
Si Si5 0.500000 0.270985 0.000000
O O1 0.736011 0.171546 0.771839
O O2 0.578570 0.985226 0.722606
O O3 0.596046 0.168411 0.119088
O O4 0.748570 0.978017 0.123135
O O5 0.121978 0.039199 0.413913
O O6 0.055878 0.867475 0.797082
O O7 0.098622 0.129564 0.900162
O O8 0.578300 0.801585 0.339340
#
# Coordination Sequence:
#
# PCOD9129108 Si02
#       5
#     4   4   4   2   2
#     4  10  30  42  74 116 144 202 244 314 374 454
#     4  10  26  51  74 109 150 197 254 313 373 449
#     4  10  26  51  74 109 150 197 254 313 373 449
#     4  12  26  48  78 108 158 196 256 308 392 440
#     4  12  26  48  78 108 158 196 256 308 392 440
#
# _framework density 27.315560999999999
#
# number of rings (size 3 to 8) (size 9 to 14) (size 15 to 20)
#    1.500    0.000    0.000    1.500   10.500    4.000 
#    0.000    0.000    0.000    0.000    0.000    0.000 
#    0.000    0.000    0.000    0.000    0.000    0.000 
#
# Total GULP energy -44788.284966 kJ/mol
# GULP energy per Si atom -5598.535621 kJ/mol
# Density = 2.725339 g / cm^3
# Si number density = 27.315561 Si / 1000 Ang^3
#
#
#
# Elastic Constant Matrix: (Units=GPa)
#
#
# Indices 1 2 3 4 5 6 
#
# 1 245.3493 113.8704 57.1790 0.0000 -2.8502 0.0000
# 2 113.8704 134.7581 36.4002 0.0000 1.3938 0.0000
# 3 57.1790 36.4002 111.3007 0.0000 19.6785 0.0000
# 4 0.0000 0.0000 0.0000 24.3379 0.0000 -13.1980
# 5 -2.8502 1.3938 19.6785 0.0000 60.1802 0.0000
# 6 0.0000 0.0000 0.0000 -13.1980 0.0000 84.4541
#
#
#
# Elastic Compliance Matrix: (Units=1/GPa)
#
#
# Indices 1 2 3 4 5 6 
#
# 1 0.007102 -0.005455 -0.002066 0.000000 0.001138 0.000000
# 2 -0.005455 0.012360 -0.001213 0.000000 -0.000148 0.000000
# 3 -0.002066 -0.001213 0.011097 0.000000 -0.003698 0.000000
# 4 0.000000 0.000000 0.000000 0.044892 0.000000 0.007016
# 5 0.001138 -0.000148 -0.003698 0.000000 0.017883 0.000000
# 6 0.000000 0.000000 0.000000 0.007016 0.000000 0.012937
#
#
# Mechanical properties :
#
#
# Convention : Reuss Voigt Hill
#
# Bulk Modulus (GPa) = 76.39662 100.70080 88.54871
# Shear Modulus (GPa) = 39.03077 52.72502 45.87789
#
# Velocity S-wave (km/s) = 3.78416 4.39819 4.10268
# Velocity P-wave (km/s) = 6.86455 7.92073 7.41147
#
# Compressibility (1/GPa) = 0.01308958
#
# Stress axis : x y z
#
# Youngs Moduli (GPa) = 140.79837 80.90827 90.11681
#
# Poissons Ratio (x) = 0.44137 0.18617
# Poissons Ratio (y) = 0.76809 0.10935
# Poissons Ratio (z) = 0.29087 0.09818
#
# Static dielectric constant tensor:
#      x y z
#    x 2.213430 0.000000 0.007940 
#    y 0.000000 2.160460 0.000000 
#    z 0.007940 0.000000 2.006520 
# 
# From -- ./inp_files/6342.got.cif
#   From: 2010.05.17/outbox.cif.g08.bks.cpg/sg5_4_cif.got.tgz:6342.got - 2010.06.03 18:56:24.
