data_PCOD9129274
_publ_section_title
;
Structure prediction by ZEFSAII (Michael W. Deem and Ramdas Pophale) SiO2 
 PCOD9129274
Probable space group: C 2
;
_chemical_formula_sum "Si O2"
_cell_formula_units_Z 26
_cell_length_a 14.806964
_cell_length_b 15.334764
_cell_length_c 8.152949
_cell_angle_alpha 90.000000
_cell_angle_beta 144.757954
_cell_angle_gamma 90.000000
_cell_volume 1068.212368
_symmetry_space_group_name_H-M "C 2"
_symmetry_group_IT_number 5
_symmetry_cell_setting 'monoclinic'
loop_
_space_group_symop_operation_xyz
x,y,z
-x,y,-z
1/2+x,1/2+y,z
1/2-x,1/2+y,-z
loop_
_atom_site_type_symbol
_atom_site_label
_atom_site_fract_x
_atom_site_fract_y
_atom_site_fract_z
Si Si1 0.172705 0.797730 0.339625
Si Si2 0.736254 0.974485 0.570614
Si Si3 0.739782 0.883177 0.936587
Si Si4 0.507603 0.732022 0.333549
Si Si5 0.580024 0.039877 0.805168
Si Si6 0.500000 0.618651 0.000000
Si Si7 0.468676 0.224636 0.269201
O O1 0.214929 0.893158 0.469356
O O2 0.315488 0.762016 0.444867
O O3 0.135092 0.731412 0.428344
O O4 0.000000 0.799252 0.000000
O O5 0.743083 0.925060 0.758454
O O6 0.561469 0.007678 0.290974
O O7 0.856867 0.053417 0.747172
O O8 0.599454 0.818615 0.791377
O O9 0.719440 0.970391 0.013193
O O10 0.884028 0.817433 0.149340
O O11 0.500000 0.685777 0.500000
O O12 0.461589 0.676512 0.104943
O O13 0.500000 0.034580 0.500000
O O14 0.622426 0.137816 0.921084
O O15 0.500000 0.204101 0.500000
#
# Coordination Sequence:
#
# PCOD9129274 Si02
#       7
#     4   4   4   4   4   2   4
#     4  12  22  44  74  94 140 195 240 285 378 437
#     4  11  20  44  66 102 134 194 233 290 366 452
#     4  11  21  42  73  96 140 195 238 292 374 439
#     4  12  25  46  73 110 146 192 245 307 370 438
#     4   9  20  37  67  94 130 181 234 283 362 436
#     4  12  28  40  80 110 144 186 260 304 368 436
#     4  11  24  40  69 103 138 183 245 304 359 437
#
# _framework density 24.339728999999998
#
# number of rings (size 3 to 8) (size 9 to 14) (size 15 to 20)
#    0.000    0.923    5.385    1.385    8.615    0.000 
#    0.000    3.077    5.077    0.000    0.000    0.000 
#    0.000    0.000    0.000    0.000    0.000    0.000 
#
# Total GULP energy -72515.043272 kJ/mol
# GULP energy per Si atom -5578.080252 kJ/mol
# Density = 2.428433 g / cm^3
# Si number density = 24.339729 Si / 1000 Ang^3
#
#
#
# Elastic Constant Matrix: (Units=GPa)
#
#
# Indices 1 2 3 4 5 6 
#
# 1 141.2731 46.4953 19.0835 0.0000 18.9948 0.0000
# 2 46.4953 160.2077 17.3545 0.0000 4.6426 0.0000
# 3 19.0835 17.3545 27.9947 0.0000 12.2004 0.0000
# 4 0.0000 0.0000 0.0000 55.3520 0.0000 48.6170
# 5 18.9948 4.6426 12.2004 0.0000 35.3496 0.0000
# 6 0.0000 0.0000 0.0000 48.6170 0.0000 96.1764
#
#
#
# Elastic Compliance Matrix: (Units=1/GPa)
#
#
# Indices 1 2 3 4 5 6 
#
# 1 0.008627 -0.002065 -0.003176 0.000000 -0.003268 0.000000
# 2 -0.002065 0.007198 -0.003680 0.000000 0.001434 0.000000
# 3 -0.003176 -0.003680 0.046156 0.000000 -0.013740 0.000000
# 4 0.000000 0.000000 0.000000 0.032493 0.000000 -0.016425
# 5 -0.003268 0.001434 -0.013740 0.000000 0.034599 0.000000
# 6 0.000000 0.000000 0.000000 -0.016425 0.000000 0.018700
#
#
# Mechanical properties :
#
#
# Convention : Reuss Voigt Hill
#
# Bulk Modulus (GPa) = 22.65603 55.03800 38.84702
# Shear Modulus (GPa) = 27.72749 53.81174 40.76961
#
# Velocity S-wave (km/s) = 3.37885 4.70708 4.09714
# Velocity P-wave (km/s) = 4.95485 7.22521 6.19493
#
# Compressibility (1/GPa) = 0.04413835
#
# Stress axis : x y z
#
# Youngs Moduli (GPa) = 115.92184 138.92371 21.66589
#
# Poissons Ratio (x) = 0.28685 0.06882
# Poissons Ratio (y) = 0.23936 0.07973
# Poissons Ratio (z) = 0.36820 0.51121
#
# Static dielectric constant tensor:
#      x y z
#    x 2.055570 0.000000 -0.104060 
#    y 0.000000 1.978800 0.000000 
#    z -0.104060 0.000000 1.985060 
# 
# From -- ./inp_files/24832.got.cif
#   From: 2010.05.17/outbox.cif.g08.bks.cpg/sg5_13_cif.got.tgz:24832.got - 2010.06.03 18:56:24.
