data_PCOD9129442
_publ_section_title
;
Structure prediction by ZEFSAII (Michael W. Deem and Ramdas Pophale) SiO2 
 PCOD9129442
Probable space group: C 2
;
_chemical_formula_sum "Si O2"
_cell_formula_units_Z 24
_cell_length_a 20.578719
_cell_length_b 12.076908
_cell_length_c 20.039252
_cell_angle_alpha 90.000000
_cell_angle_beta 166.255521
_cell_angle_gamma 90.000000
_cell_volume 1183.281162
_symmetry_space_group_name_H-M "C 2"
_symmetry_group_IT_number 5
_symmetry_cell_setting 'monoclinic'
loop_
_space_group_symop_operation_xyz
x,y,z
-x,y,-z
1/2+x,1/2+y,z
1/2-x,1/2+y,-z
loop_
_atom_site_type_symbol
_atom_site_label
_atom_site_fract_x
_atom_site_fract_y
_atom_site_fract_z
Si Si1 0.571104 0.182760 0.211769
Si Si2 0.423689 0.048668 0.195163
Si Si3 0.579498 0.396274 0.305362
Si Si4 0.119836 0.346623 0.045338
Si Si5 0.111309 0.084167 0.685805
Si Si6 0.409139 0.252880 0.554027
O O1 0.434088 0.117725 0.137169
O O2 0.600752 0.307307 0.267281
O O3 0.854198 0.122389 0.474397
O O4 0.353054 0.172799 0.934994
O O5 0.552335 0.129773 0.379154
O O6 0.623095 0.945442 0.386223
O O7 0.127878 0.997265 0.914177
O O8 0.497912 0.330783 0.291276
O O9 0.240017 0.468273 0.148255
O O10 0.382274 0.269424 0.298442
O O11 0.000000 0.352489 0.000000
O O12 0.884951 0.297025 0.763157
O O13 0.000000 0.073380 0.500000
#
# Coordination Sequence:
#
# PCOD9129442 Si02
#       6
#     4   4   4   4   4   4
#     4  11  23  38  60  89 120 153 194 244 294 350
#     4  11  22  38  61  87 118 155 194 242 296 349
#     4  11  22  38  61  87 118 155 194 242 296 349
#     4  12  23  38  60  88 120 154 192 240 297 353
#     4  12  23  38  60  88 120 154 192 240 297 353
#     4  11  23  38  60  89 120 153 194 244 294 350
#
# _framework density 20.282584
#
# number of rings (size 3 to 8) (size 9 to 14) (size 15 to 20)
#    0.000    0.667    0.000   11.000    0.000    5.333 
#    0.000    0.000    0.000   20.000    0.000    0.000 
#    0.000    0.000    0.000    0.000    0.000    0.000 
#
# Total GULP energy -67058.074926 kJ/mol
# GULP energy per Si atom -5588.172910 kJ/mol
# Density = 2.023642 g / cm^3
# Si number density = 20.282584 Si / 1000 Ang^3
#
#
#
# Elastic Constant Matrix: (Units=GPa)
#
#
# Indices 1 2 3 4 5 6 
#
# 1 45.8409 13.4429 6.6256 0.1136 8.9601 0.0258
# 2 13.4429 38.7735 -6.4389 0.2323 -5.4162 0.0718
# 3 6.6256 -6.4389 100.8801 0.1061 -1.3073 0.0202
# 4 0.1136 0.2323 0.1061 -5.5239 0.0647 -16.5801
# 5 8.9601 -5.4162 -1.3073 0.0647 39.3489 0.0139
# 6 0.0258 0.0718 0.0202 -16.5801 0.0139 19.7472
#
#
#
# Elastic Compliance Matrix: (Units=1/GPa)
#
#
# Indices 1 2 3 4 5 6 
#
# 1 0.026856 -0.010809 -0.002553 -0.000022 -0.007688 -0.000006
# 2 -0.010809 0.030947 0.002773 0.000435 0.006812 0.000259
# 3 -0.002553 0.002773 0.010274 0.000094 0.001304 0.000061
# 4 -0.000022 0.000435 0.000094 -0.051420 0.000168 -0.043175
# 5 -0.007688 0.006812 0.001304 0.000168 0.028145 0.000105
# 6 -0.000006 0.000259 0.000061 -0.043175 0.000105 0.014389
#
#
# Mechanical properties :
#
#
# Convention : Reuss Voigt Hill
#
# Bulk Modulus (GPa) = 21.32237 23.63929 22.48083
# Shear Modulus (GPa) = 52.08161 22.17209 37.12685
#
# Velocity S-wave (km/s) = 5.07284 3.30988 4.28305
# Velocity P-wave (km/s) = 6.69680 5.12712 5.96383
#
# Compressibility (1/GPa) = 0.04689910
#
# Stress axis : x y z
#
# Youngs Moduli (GPa) = 37.23555 32.31299 97.33081
#
# Poissons Ratio (x) = 0.34927 0.24852
# Poissons Ratio (y) = 0.40247 -0.26989
# Poissons Ratio (z) = 0.09508 -0.08960
#
# Static dielectric constant tensor:
#      x y z
#    x 1.783580 -0.000010 -0.002360 
#    y -0.000010 1.751420 0.000010 
#    z -0.002360 0.000010 1.729930 
# 
# From -- ./inp_files/69715.got.cif
#   From: 2010.05.17/outbox.cif.g08.bks.cpg/sg5_35_cif.got.tgz:69715.got - 2010.06.03 18:56:24.
