data_PCOD9129971
_publ_section_title
;
Structure prediction by ZEFSAII (Michael W. Deem and Ramdas Pophale) SiO2 
 PCOD9129971
Probable space group: C 2
;
_chemical_formula_sum "Si O2"
_cell_formula_units_Z 24
_cell_length_a 18.144346
_cell_length_b 5.198365
_cell_length_c 25.964072
_cell_angle_alpha 90.000000
_cell_angle_beta 158.467669
_cell_angle_gamma 90.000000
_cell_volume 898.830799
_symmetry_space_group_name_H-M "C 2"
_symmetry_group_IT_number 5
_symmetry_cell_setting 'monoclinic'
loop_
_space_group_symop_operation_xyz
x,y,z
-x,y,-z
1/2+x,1/2+y,z
1/2-x,1/2+y,-z
loop_
_atom_site_type_symbol
_atom_site_label
_atom_site_fract_x
_atom_site_fract_y
_atom_site_fract_z
Si Si1 0.692931 0.098440 0.013624
Si Si2 0.061413 0.919803 0.691804
Si Si3 0.468880 0.915846 0.259361
Si Si4 0.597255 0.435815 0.219581
Si Si5 0.651933 0.306706 0.554676
Si Si6 0.955508 0.211942 0.917293
O O1 0.485277 0.155341 0.849245
O O2 0.646500 0.855393 0.018253
O O3 0.766433 0.327213 0.098498
O O4 0.884508 0.046608 0.102609
O O5 0.029938 0.676399 0.708371
O O6 0.296865 0.931491 0.831373
O O7 0.959112 0.840274 0.571711
O O8 0.989127 0.178017 0.673608
O O9 0.638412 0.936894 0.325643
O O10 0.767845 0.530353 0.370073
O O11 0.644031 0.555265 0.193977
O O12 0.500000 0.408630 0.500000
O O13 0.000000 0.071320 0.000000
#
# Coordination Sequence:
#
# PCOD9129971 Si02
#       6
#     4   4   4   4   4   4
#     4  11  24  43  73 109 144 200 241 314 378 434
#     4  12  26  51  72 111 150 199 247 303 373 447
#     4  11  27  50  79 105 153 195 248 307 372 443
#     4  11  24  45  71 104 152 190 250 308 376 446
#     4  11  25  49  74 110 147 201 250 305 369 448
#     4  12  24  42  71 107 143 187 247 309 363 443
#
# _framework density 26.701353999999998
#
# number of rings (size 3 to 8) (size 9 to 14) (size 15 to 20)
#    0.000    0.667    5.000    2.000    2.333    0.667 
#    3.000    3.333    0.000    0.000    0.000    0.000 
#    0.000    0.000    0.000    0.000    0.000    0.000 
#
# Total GULP energy -67108.756943 kJ/mol
# GULP energy per Si atom -5592.396412 kJ/mol
# Density = 2.664058 g / cm^3
# Si number density = 26.701354 Si / 1000 Ang^3
#
#
#
# Elastic Constant Matrix: (Units=GPa)
#
#
# Indices 1 2 3 4 5 6 
#
# 1 201.1883 66.5811 62.7284 0.0101 -7.8034 -0.0345
# 2 66.5811 119.0012 24.1354 0.0207 -11.1247 -0.0824
# 3 62.7284 24.1354 116.7052 0.0107 -32.0253 -0.0155
# 4 0.0101 0.0207 0.0107 23.4330 -0.0053 -5.0184
# 5 -7.8034 -11.1247 -32.0253 -0.0053 60.7628 0.0023
# 6 -0.0345 -0.0824 -0.0155 -5.0184 0.0023 47.0983
#
#
#
# Elastic Compliance Matrix: (Units=1/GPa)
#
#
# Indices 1 2 3 4 5 6 
#
# 1 0.007158 -0.003429 -0.003576 0.000001 -0.001593 -0.000002
# 2 -0.003429 0.010444 0.000102 -0.000004 0.001525 0.000015
# 3 -0.003576 0.000102 0.012098 -0.000003 0.005936 0.000001
# 4 0.000001 -0.000004 -0.000003 0.043671 0.000002 0.004653
# 5 -0.001593 0.001525 0.005936 0.000002 0.019661 0.000003
# 6 -0.000002 0.000015 0.000001 0.004653 0.000003 0.021728
#
#
# Mechanical properties :
#
#
# Convention : Reuss Voigt Hill
#
# Bulk Modulus (GPa) = 62.91317 82.64275 72.77796
# Shear Modulus (GPa) = 37.35142 45.15547 41.25344
#
# Velocity S-wave (km/s) = 3.74419 4.11680 3.93491
# Velocity P-wave (km/s) = 6.50422 7.32225 6.92532
#
# Compressibility (1/GPa) = 0.01589492
#
# Stress axis : x y z
#
# Youngs Moduli (GPa) = 139.69983 95.75202 82.65641
#
# Poissons Ratio (x) = 0.32831 0.29554
# Poissons Ratio (y) = 0.47900 -0.00841
# Poissons Ratio (z) = 0.49950 -0.00974
#
# Static dielectric constant tensor:
#      x y z
#    x 2.070860 -0.000010 -0.038160 
#    y -0.000010 2.137050 0.000000 
#    z -0.038160 0.000000 2.155200 
# 
# From -- ./inp_files/72191.got.cif
#   From: 2010.05.17/outbox.cif.g08.bks.cpg/sg5_37_cif.got.tgz:72191.got - 2010.06.03 18:56:24.
