data_PCOD9129959
_publ_section_title
;
Structure prediction by ZEFSAII (Michael W. Deem and Ramdas Pophale) SiO2 
 PCOD9129959
Probable space group: C 2
;
_chemical_formula_sum "Si O2"
_cell_formula_units_Z 22
_cell_length_a 15.898736
_cell_length_b 12.420253
_cell_length_c 5.259143
_cell_angle_alpha 90.000000
_cell_angle_beta 98.117292
_cell_angle_gamma 90.000000
_cell_volume 1028.098957
_symmetry_space_group_name_H-M "C 2"
_symmetry_group_IT_number 5
_symmetry_cell_setting 'monoclinic'
loop_
_space_group_symop_operation_xyz
x,y,z
-x,y,-z
1/2+x,1/2+y,z
1/2-x,1/2+y,-z
loop_
_atom_site_type_symbol
_atom_site_label
_atom_site_fract_x
_atom_site_fract_y
_atom_site_fract_z
Si Si1 0.707459 0.642570 0.099555
Si Si2 0.384758 0.217157 0.097524
Si Si3 0.168600 0.909225 0.291816
Si Si4 0.000000 0.392887 0.500000
Si Si5 0.171379 0.268658 0.561593
Si Si6 0.500000 0.033426 0.000000
Si Si7 0.000000 0.856064 0.500000
O O1 0.804131 0.673939 0.217862
O O2 0.688355 0.517423 0.142899
O O3 0.655803 0.707595 0.289801
O O4 0.694122 0.686666 0.805797
O O5 0.459722 0.274055 0.281656
O O6 0.419636 0.111959 0.978620
O O7 0.354530 0.311618 0.903122
O O8 0.255554 0.860775 0.449427
O O9 0.083027 0.920373 0.429557
O O10 0.083536 0.324458 0.591364
O O11 0.011095 0.464895 0.256207
#
# Coordination Sequence:
#
# PCOD9129959 Si02
#       7
#     4   4   4   2   4   2   2
#     4  11  26  45  72 101 140 192 226 288 363 411
#     4  11  24  43  68 108 140 177 240 296 341 421
#     4  11  25  43  72 102 143 182 234 294 355 414
#     4  12  27  47  70 102 138 192 235 291 352 414
#     4  11  26  48  69 101 144 180 241 291 340 432
#     4  12  24  42  76 100 134 182 242 290 354 406
#     4  12  21  45  70 100 150 176 229 305 340 412
#
# _framework density 21.398717000000001
#
# number of rings (size 3 to 8) (size 9 to 14) (size 15 to 20)
#    0.000    0.727    3.636    2.727    2.545    5.091 
#    3.273    0.000    0.000    0.000    0.000    0.000 
#    0.000    0.000    0.000    0.000    0.000    0.000 
#
# Total GULP energy -61398.566047 kJ/mol
# GULP energy per Si atom -5581.687822 kJ/mol
# Density = 2.135001 g / cm^3
# Si number density = 21.398717 Si / 1000 Ang^3
#
#
#
# Elastic Constant Matrix: (Units=GPa)
#
#
# Indices 1 2 3 4 5 6 
#
# 1 110.6550 37.4493 -3.8376 0.0000 -2.4776 0.0000
# 2 37.4493 82.4059 4.4503 0.0000 -10.1301 0.0000
# 3 -3.8376 4.4503 52.3189 0.0000 -8.0327 0.0000
# 4 0.0000 0.0000 0.0000 40.0922 0.0000 -17.7823
# 5 -2.4776 -10.1301 -8.0327 0.0000 33.2829 0.0000
# 6 0.0000 0.0000 0.0000 -17.7823 0.0000 31.2030
#
#
#
# Elastic Compliance Matrix: (Units=1/GPa)
#
#
# Indices 1 2 3 4 5 6 
#
# 1 0.010762 -0.005007 0.001147 0.000000 -0.000446 0.000000
# 2 -0.005007 0.014949 -0.001036 0.000000 0.003927 0.000000
# 3 0.001147 -0.001036 0.019991 0.000000 0.004595 0.000000
# 4 0.000000 0.000000 0.000000 0.033380 0.000000 0.019023
# 5 -0.000446 0.003927 0.004595 0.000000 0.032316 0.000000
# 6 0.000000 0.000000 0.000000 0.019023 0.000000 0.042889
#
#
# Mechanical properties :
#
#
# Convention : Reuss Voigt Hill
#
# Bulk Modulus (GPa) = 27.84807 35.72265 31.78536
# Shear Modulus (GPa) = 28.40095 34.73681 31.56888
#
# Velocity S-wave (km/s) = 3.64706 4.03341 3.84509
# Velocity P-wave (km/s) = 5.54770 6.19849 5.88210
#
# Compressibility (1/GPa) = 0.03590913
#
# Stress axis : x y z
#
# Youngs Moduli (GPa) = 92.92349 66.89242 50.02189
#
# Poissons Ratio (x) = 0.33495 -0.05736
# Poissons Ratio (y) = 0.46530 0.05182
# Poissons Ratio (z) = -0.10656 0.06930
#
# Static dielectric constant tensor:
#      x y z
#    x 1.892180 0.000000 -0.026870 
#    y 0.000000 1.739430 0.000000 
#    z -0.026870 0.000000 1.808270 
# 
# From -- ./inp_files/6600.got.cif
#   From: 2010.05.17/outbox.cif.g08.bks.cpg/sg5_4_cif.got.tgz:6600.got - 2010.06.03 18:56:24.
