data_PCOD9129555
_publ_section_title
;
Structure prediction by ZEFSAII (Michael W. Deem and Ramdas Pophale) SiO2 
 PCOD9129555
Probable space group: C 2
;
_chemical_formula_sum "Si O2"
_cell_formula_units_Z 28
_cell_length_a 26.614049
_cell_length_b 7.825167
_cell_length_c 8.765204
_cell_angle_alpha 90.000000
_cell_angle_beta 141.153464
_cell_angle_gamma 90.000000
_cell_volume 1144.980206
_symmetry_space_group_name_H-M "C 2"
_symmetry_group_IT_number 5
_symmetry_cell_setting 'monoclinic'
loop_
_space_group_symop_operation_xyz
x,y,z
-x,y,-z
1/2+x,1/2+y,z
1/2-x,1/2+y,-z
loop_
_atom_site_type_symbol
_atom_site_label
_atom_site_fract_x
_atom_site_fract_y
_atom_site_fract_z
Si Si1 0.429301 0.000000 0.714975
Si Si2 0.635230 0.777741 0.962475
Si Si3 0.953443 0.630304 0.256367
Si Si4 0.674330 0.319989 0.543723
Si Si5 0.858725 0.172432 0.685401
Si Si6 0.217046 0.761735 0.159854
Si Si7 0.312537 0.526929 0.145735
O O1 0.472399 0.062016 0.666179
O O2 0.359686 0.136505 0.581746
O O3 0.403934 0.803152 0.677165
O O4 0.500000 0.029761 0.000000
O O5 0.729659 0.812846 0.215691
O O6 0.610565 0.706720 0.071140
O O7 0.628489 0.654667 0.801336
O O8 0.591506 0.951626 0.817080
O O9 0.000000 0.724243 0.500000
O O10 0.876807 0.741597 0.025369
O O11 0.641481 0.474023 0.360426
O O12 0.649816 0.382459 0.657036
O O13 0.767465 0.233102 0.432563
O O14 0.253450 0.629711 0.119498
O O15 0.230434 0.936970 0.099551
#
# Coordination Sequence:
#
# PCOD9129555 Si02
#       7
#     4   4   4   4   4   4   4
#     4  12  28  50  75 109 161 195 243 325 400 436
#     4  12  25  47  73 111 146 198 262 309 373 458
#     4  12  27  46  70 110 153 195 242 313 391 447
#     4  11  26  46  78 106 148 203 257 304 382 462
#     4  11  27  46  77 108 149 203 258 311 376 466
#     4  11  23  44  72 107 143 196 257 304 373 454
#     4  11  22  42  74 102 144 190 261 309 359 444
#
# _framework density 24.454568999999999
#
# number of rings (size 3 to 8) (size 9 to 14) (size 15 to 20)
#    0.000    0.571    5.714    1.714   12.000    0.571 
#    2.571    0.714    0.000    0.000    0.000    0.000 
#    0.000    0.000    0.000    0.000    0.000    0.000 
#
# Total GULP energy -78170.780111 kJ/mol
# GULP energy per Si atom -5583.627151 kJ/mol
# Density = 2.439891 g / cm^3
# Si number density = 24.454569 Si / 1000 Ang^3
#
#
#
# Elastic Constant Matrix: (Units=GPa)
#
#
# Indices 1 2 3 4 5 6 
#
# 1 77.6665 0.6106 2.7688 0.0000 4.1341 0.0000
# 2 0.6106 83.7444 -1.0418 0.0000 5.8685 0.0000
# 3 2.7688 -1.0418 81.2347 0.0000 3.3442 0.0000
# 4 0.0000 0.0000 0.0000 40.8231 0.0000 4.5793
# 5 4.1341 5.8685 3.3442 0.0000 36.0777 0.0000
# 6 0.0000 0.0000 0.0000 4.5793 0.0000 35.3472
#
#
#
# Elastic Compliance Matrix: (Units=1/GPa)
#
#
# Indices 1 2 3 4 5 6 
#
# 1 0.012966 0.000002 -0.000382 0.000000 -0.001451 0.000000
# 2 0.000002 0.012083 0.000237 0.000000 -0.001988 0.000000
# 3 -0.000382 0.000237 0.012373 0.000000 -0.001142 0.000000
# 4 0.000000 0.000000 0.000000 0.024857 0.000000 -0.003220
# 5 -0.001451 -0.001988 -0.001142 0.000000 0.028313 0.000000
# 6 0.000000 0.000000 0.000000 -0.003220 0.000000 0.028708
#
#
# Mechanical properties :
#
#
# Convention : Reuss Voigt Hill
#
# Bulk Modulus (GPa) = 26.92764 27.48009 27.20387
# Shear Modulus (GPa) = 37.88845 38.47014 38.17929
#
# Velocity S-wave (km/s) = 3.94044 3.97057 3.95553
# Velocity P-wave (km/s) = 5.63364 5.68174 5.65774
#
# Compressibility (1/GPa) = 0.03713656
#
# Stress axis : x y z
#
# Youngs Moduli (GPa) = 77.12243 82.75879 80.82067
#
# Poissons Ratio (x) = -0.00020 0.03089
# Poissons Ratio (y) = -0.00018 -0.01913
# Poissons Ratio (z) = 0.02948 -0.01959
#
# Static dielectric constant tensor:
#      x y z
#    x 1.892560 0.000000 0.012560 
#    y 0.000000 1.973880 0.000000 
#    z 0.012560 0.000000 1.938330 
# 
# From -- ./inp_files/31774.got.cif
#   From: 2010.05.17/outbox.cif.g08.bks.cpg/sg5_16_cif.got.tgz:31774.got - 2010.06.03 18:56:24.
