data_PCOD9129297
_publ_section_title
;
Structure prediction by ZEFSAII (Michael W. Deem and Ramdas Pophale) SiO2 
 PCOD9129297
Probable space group: C 2
;
_chemical_formula_sum "Si O2"
_cell_formula_units_Z 32
_cell_length_a 14.269735
_cell_length_b 19.389317
_cell_length_c 9.776268
_cell_angle_alpha 90.000000
_cell_angle_beta 143.070033
_cell_angle_gamma 90.000000
_cell_volume 1625.208915
_symmetry_space_group_name_H-M "C 2"
_symmetry_group_IT_number 5
_symmetry_cell_setting 'monoclinic'
loop_
_space_group_symop_operation_xyz
x,y,z
-x,y,-z
1/2+x,1/2+y,z
1/2-x,1/2+y,-z
loop_
_atom_site_type_symbol
_atom_site_label
_atom_site_fract_x
_atom_site_fract_y
_atom_site_fract_z
Si Si1 0.864219 0.433870 0.145381
Si Si2 0.166507 0.670853 0.738166
Si Si3 0.228056 0.434406 0.657250
Si Si4 0.878767 0.578673 0.049102
Si Si5 0.635025 0.779089 0.862367
Si Si6 0.152965 0.081603 0.266277
Si Si7 0.724640 0.780194 0.647528
Si Si8 0.794125 0.634059 0.676442
O O1 0.768584 0.443334 0.174585
O O2 0.842582 0.498249 0.021689
O O3 0.833108 0.357686 0.053413
O O4 0.046182 0.435129 0.402460
O O5 0.142661 0.615189 0.830967
O O6 0.224079 0.627753 0.674615
O O7 0.000000 0.702474 0.500000
O O8 0.287388 0.725927 0.942024
O O9 0.306604 0.500735 0.683034
O O10 0.285957 0.357317 0.690434
O O11 0.056252 0.593447 0.207970
O O12 0.774175 0.612662 0.809718
O O13 0.704553 0.773503 0.788814
O O14 0.448575 0.772657 0.620751
O O15 0.150395 0.112305 0.414693
O O16 0.000000 0.089953 0.000000
O O17 0.822274 0.715940 0.705956
#
# Coordination Sequence:
#
# PCOD9129297 Si02
#       8
#     4   4   4   4   4   4   4   4
#     4   9  16  35  63  86 106 153 215 245 287 357
#     4  12  21  39  63  86 119 165 206 247 304 368
#     4   9  17  34  61  85 112 156 202 246 294 361
#     4  11  21  36  64  85 115 158 206 249 291 365
#     4   9  19  34  62  88 112 157 207 251 294 362
#     4  12  24  38  59  92 124 156 204 256 308 357
#     4   9  18  36  58  87 120 152 198 251 307 357
#     4  11  22  37  57  90 122 152 198 253 303 355
#
# _framework density 19.689775000000001
#
# number of rings (size 3 to 8) (size 9 to 14) (size 15 to 20)
#    0.000    1.750    5.000    2.250    0.000    0.000 
#    2.250    1.250    8.250    0.000    0.000    0.000 
#    0.000    0.000    0.000    0.000    0.000    0.000 
#
# Total GULP energy -89269.299959 kJ/mol
# GULP energy per Si atom -5579.331247 kJ/mol
# Density = 1.964496 g / cm^3
# Si number density = 19.689775 Si / 1000 Ang^3
#
#
#
# Elastic Constant Matrix: (Units=GPa)
#
#
# Indices 1 2 3 4 5 6 
#
# 1 9.2976 15.2221 2.1749 0.0000 -2.3811 0.0000
# 2 15.2221 157.5131 36.9208 0.0000 -7.7088 0.0000
# 3 2.1749 36.9208 97.1018 0.0000 -10.9449 0.0000
# 4 0.0000 0.0000 0.0000 21.3476 0.0000 4.4396
# 5 -2.3811 -7.7088 -10.9449 0.0000 15.7771 0.0000
# 6 0.0000 0.0000 0.0000 4.4396 0.0000 19.7281
#
#
#
# Elastic Compliance Matrix: (Units=1/GPa)
#
#
# Indices 1 2 3 4 5 6 
#
# 1 0.131832 -0.012826 0.003754 0.000000 0.016234 0.000000
# 2 -0.012826 0.008260 -0.002839 0.000000 0.000131 0.000000
# 3 0.003754 -0.002839 0.012151 0.000000 0.007609 0.000000
# 4 0.000000 0.000000 0.000000 0.049144 0.000000 -0.011059
# 5 0.016234 0.000131 0.007609 0.000000 0.071176 0.000000
# 6 0.000000 0.000000 0.000000 -0.011059 0.000000 0.053178
#
#
# Mechanical properties :
#
#
# Convention : Reuss Voigt Hill
#
# Bulk Modulus (GPa) = 7.78684 41.39425 24.59054
# Shear Modulus (GPa) = 12.74311 25.34353 19.04332
#
# Velocity S-wave (km/s) = 2.54676 3.59157 3.11331
# Velocity P-wave (km/s) = 3.55124 6.18611 5.04378
#
# Compressibility (1/GPa) = 0.12842187
#
# Stress axis : x y z
#
# Youngs Moduli (GPa) = 7.58543 121.06654 82.29514
#
# Poissons Ratio (x) = 1.55275 -0.30890
# Poissons Ratio (y) = 0.09729 0.23360
# Poissons Ratio (z) = -0.02847 0.34366
#
# Static dielectric constant tensor:
#      x y z
#    x 1.703970 0.000000 0.034270 
#    y 0.000000 1.701440 0.000000 
#    z 0.034270 0.000000 1.715700 
# 
# From -- ./inp_files/25451.got.cif
#   From: 2010.05.17/outbox.cif.g08.bks.cpg/sg5_13_cif.got.tgz:25451.got - 2010.06.03 18:56:24.
