data_PCOD9129895
_publ_section_title
;
Structure prediction by ZEFSAII (Michael W. Deem and Ramdas Pophale) SiO2 
 PCOD9129895
Probable space group: C 2
;
_chemical_formula_sum "Si O2"
_cell_formula_units_Z 20
_cell_length_a 11.543398
_cell_length_b 7.254057
_cell_length_c 16.374764
_cell_angle_alpha 90.000000
_cell_angle_beta 34.399108
_cell_angle_gamma 90.000000
_cell_volume 774.645303
_symmetry_space_group_name_H-M "C 2"
_symmetry_group_IT_number 5
_symmetry_cell_setting 'monoclinic'
loop_
_space_group_symop_operation_xyz
x,y,z
-x,y,-z
1/2+x,1/2+y,z
1/2-x,1/2+y,-z
loop_
_atom_site_type_symbol
_atom_site_label
_atom_site_fract_x
_atom_site_fract_y
_atom_site_fract_z
Si Si1 0.629592 0.459740 0.998456
Si Si2 0.597675 0.871636 0.521363
Si Si3 0.125976 0.001177 0.344959
Si Si4 0.508738 0.174939 0.696466
Si Si5 0.531903 0.841164 0.078419
O O1 0.746484 0.365100 0.006061
O O2 0.815509 0.570781 0.846774
O O3 0.500000 0.363474 0.000000
O O4 0.486645 0.623936 0.115821
O O5 0.500000 0.967589 0.500000
O O6 0.448588 0.705091 0.637704
O O7 0.804626 0.777805 0.367857
O O8 0.623477 0.019351 0.576196
O O9 0.368424 0.973132 0.216752
O O10 0.000000 0.962966 0.500000
O O11 0.074717 0.841895 0.310490
O O12 0.500000 0.880456 0.000000
#
# Coordination Sequence:
#
# PCOD9129895 Si02
#       5
#     4   4   4   4   4
#     4  11  25  46  72 103 144 189 247 294 358 433
#     4  11  25  42  70 108 143 185 236 294 366 431
#     4  11  23  47  74 106 145 186 240 304 360 428
#     4  12  23  46  71 105 145 189 238 300 359 430
#     4  11  25  49  70 100 149 191 236 301 358 429
#
# _framework density 25.818268
#
# number of rings (size 3 to 8) (size 9 to 14) (size 15 to 20)
#    0.000    0.800    6.000    3.000    0.000    5.600 
#    3.600    0.000    0.000    0.000    0.000    0.000 
#    0.000    0.000    0.000    0.000    0.000    0.000 
#
# Total GULP energy -55879.745796 kJ/mol
# GULP energy per Si atom -5587.974580 kJ/mol
# Density = 2.575950 g / cm^3
# Si number density = 25.818268 Si / 1000 Ang^3
#
#
#
# Elastic Constant Matrix: (Units=GPa)
#
#
# Indices 1 2 3 4 5 6 
#
# 1 176.2639 19.5330 21.2656 -0.0001 -26.3166 0.0000
# 2 19.5330 58.1033 -4.9233 -0.0002 0.0277 0.0001
# 3 21.2656 -4.9233 73.0265 -0.0008 -14.3381 0.0004
# 4 -0.0001 -0.0002 -0.0008 33.9456 0.0001 2.1166
# 5 -26.3166 0.0277 -14.3381 0.0001 42.4995 0.0000
# 6 0.0000 0.0001 0.0004 2.1166 0.0000 36.9101
#
#
#
# Elastic Compliance Matrix: (Units=1/GPa)
#
#
# Indices 1 2 3 4 5 6 
#
# 1 0.006645 -0.002352 -0.001377 0.000000 0.003652 0.000000
# 2 -0.002352 0.018149 0.001735 0.000000 -0.000883 0.000000
# 3 -0.001377 0.001735 0.015040 0.000000 0.004221 0.000000
# 4 0.000000 0.000000 0.000000 0.029565 0.000000 -0.001695
# 5 0.003652 -0.000883 0.004221 0.000000 0.027216 0.000000
# 6 0.000000 0.000000 0.000000 -0.001695 0.000000 0.027190
#
#
# Mechanical properties :
#
#
# Convention : Reuss Voigt Hill
#
# Bulk Modulus (GPa) = 27.89653 42.12715 35.01184
# Shear Modulus (GPa) = 35.78037 40.77229 38.27633
#
# Velocity S-wave (km/s) = 3.72675 3.97823 3.85454
# Velocity P-wave (km/s) = 5.41725 6.11997 5.77930
#
# Compressibility (1/GPa) = 0.03584676
#
# Stress axis : x y z
#
# Youngs Moduli (GPa) = 150.48129 55.09944 66.48849
#
# Poissons Ratio (x) = 0.12962 0.09153
# Poissons Ratio (y) = 0.35399 -0.11537
# Poissons Ratio (z) = 0.20717 -0.09561
#
# Static dielectric constant tensor:
#      x y z
#    x 2.230980 0.000000 -0.013960 
#    y 0.000000 1.978490 0.000000 
#    z -0.013960 0.000000 2.156860 
# 
# From -- ./inp_files/18255.got.cif
#   From: 2010.05.17/outbox.cif.g08.bks.cpg/sg5_10_cif.got.tgz:18255.got - 2010.06.03 18:56:24.
