data_PCOD9129284
_publ_section_title
;
Structure prediction by ZEFSAII (Michael W. Deem and Ramdas Pophale) SiO2 
 PCOD9129284
Probable space group: C 2
;
_chemical_formula_sum "Si O2"
_cell_formula_units_Z 26
_cell_length_a 16.377543
_cell_length_b 5.248273
_cell_length_c 18.937000
_cell_angle_alpha 90.000000
_cell_angle_beta 52.194896
_cell_angle_gamma 90.000000
_cell_volume 1286.052307
_symmetry_space_group_name_H-M "C 2"
_symmetry_group_IT_number 5
_symmetry_cell_setting 'monoclinic'
loop_
_space_group_symop_operation_xyz
x,y,z
-x,y,-z
1/2+x,1/2+y,z
1/2-x,1/2+y,-z
loop_
_atom_site_type_symbol
_atom_site_label
_atom_site_fract_x
_atom_site_fract_y
_atom_site_fract_z
Si Si1 0.208192 0.267730 0.985579
Si Si2 0.601308 0.093157 0.697996
Si Si3 0.000000 0.895075 0.000000
Si Si4 0.008630 0.523583 0.113118
Si Si5 0.681024 0.744178 0.843708
Si Si6 0.730169 0.591993 0.668456
Si Si7 0.813818 0.693962 0.485233
O O1 0.084258 0.285757 0.063449
O O2 0.250137 0.502635 0.008598
O O3 0.234517 0.309106 0.889005
O O4 0.680593 0.313830 0.682336
O O5 0.593249 0.143358 0.618615
O O6 0.502028 0.111942 0.800930
O O7 0.647696 0.810157 0.687026
O O8 0.049167 0.722802 0.035190
O O9 0.906489 0.044127 0.085629
O O10 0.892036 0.467179 0.148444
O O11 0.746235 0.641721 0.742919
O O12 0.822876 0.637343 0.563656
O O13 0.729317 0.479938 0.504443
#
# Coordination Sequence:
#
# PCOD9129284 Si02
#       7
#     4   4   2   4   4   4   4
#     4  12  26  38  51  75 114 146 174 220 270 308
#     4   9  17  27  47  73 100 130 165 209 261 307
#     4  12  16  32  56  76 104 130 190 222 246 296
#     4  11  21  34  55  77 101 142 184 217 253 316
#     4  11  21  34  55  77 101 142 184 217 253 316
#     4   9  17  27  47  73 100 130 165 209 261 307
#     4   8  14  26  40  68 105 126 149 206 270 306
#
# _framework density 20.216908
#
# number of rings (size 3 to 8) (size 9 to 14) (size 15 to 20)
#    0.000    1.846    4.615    0.923    0.000    0.000 
#    0.000    0.000    0.000    0.000    0.000    1.077 
#    0.000    7.385    0.000    0.000    0.000    0.000 
#
# Total GULP energy -72395.402610 kJ/mol
# GULP energy per Si atom -5568.877124 kJ/mol
# Density = 2.017089 g / cm^3
# Si number density = 20.216908 Si / 1000 Ang^3
#
#
#
# Elastic Constant Matrix: (Units=GPa)
#
#
# Indices 1 2 3 4 5 6 
#
# 1 35.4131 9.5526 24.3173 0.0005 15.7380 0.0084
# 2 9.5526 90.1897 3.1934 0.0131 0.8607 0.0158
# 3 24.3173 3.1934 188.0661 0.0003 48.1807 0.0002
# 4 0.0005 0.0131 0.0003 30.5919 -0.0004 4.0649
# 5 15.7380 0.8607 48.1807 -0.0004 20.5700 0.0011
# 6 0.0084 0.0158 0.0002 4.0649 0.0011 22.3703
#
#
#
# Elastic Compliance Matrix: (Units=1/GPa)
#
#
# Indices 1 2 3 4 5 6 
#
# 1 0.049109 -0.004953 0.008269 0.000002 -0.056734 -0.000013
# 2 -0.004953 0.011594 -0.001008 -0.000004 0.005665 -0.000006
# 3 0.008269 -0.001008 0.014691 0.000000 -0.040694 0.000000
# 4 0.000002 -0.000004 0.000000 0.033497 0.000000 -0.006087
# 5 -0.056734 0.005665 -0.040694 0.000000 0.187101 0.000008
# 6 -0.000013 -0.000006 0.000000 -0.006087 0.000008 0.045808
#
#
# Mechanical properties :
#
#
# Convention : Reuss Voigt Hill
#
# Bulk Modulus (GPa) = 12.49833 43.08839 27.79336
# Shear Modulus (GPa) = 13.74180 33.14682 23.44431
#
# Velocity S-wave (km/s) = 2.60997 4.05354 3.40904
# Velocity P-wave (km/s) = 3.90872 6.57781 5.41044
#
# Compressibility (1/GPa) = 0.08001071
#
# Stress axis : x y z
#
# Youngs Moduli (GPa) = 20.36268 86.25179 68.07095
#
# Poissons Ratio (x) = 0.42720 -0.56287
# Poissons Ratio (y) = 0.10085 0.06859
# Poissons Ratio (z) = -0.16838 0.08691
#
# Static dielectric constant tensor:
#      x y z
#    x 1.760760 0.000000 0.034460 
#    y 0.000000 1.752250 0.000000 
#    z 0.034460 0.000000 1.814240 
# 
# From -- ./inp_files/13140.got.cif
#   From: 2010.05.17/outbox.cif.g08.bks.cpg/sg5_7_cif.got.tgz:13140.got - 2010.06.03 18:56:24.
