data_PCOD9129753
_publ_section_title
;
Structure prediction by ZEFSAII (Michael W. Deem and Ramdas Pophale) SiO2 
 PCOD9129753
Probable space group: C 2
;
_chemical_formula_sum "Si O2"
_cell_formula_units_Z 24
_cell_length_a 21.922458
_cell_length_b 5.420509
_cell_length_c 9.838751
_cell_angle_alpha 90.000000
_cell_angle_beta 67.580414
_cell_angle_gamma 90.000000
_cell_volume 1080.778274
_symmetry_space_group_name_H-M "C 2"
_symmetry_group_IT_number 5
_symmetry_cell_setting 'monoclinic'
loop_
_space_group_symop_operation_xyz
x,y,z
-x,y,-z
1/2+x,1/2+y,z
1/2-x,1/2+y,-z
loop_
_atom_site_type_symbol
_atom_site_label
_atom_site_fract_x
_atom_site_fract_y
_atom_site_fract_z
Si Si1 0.092025 0.500000 0.184208
Si Si2 0.405288 0.774499 0.292619
Si Si3 0.687786 0.375541 0.147308
Si Si4 0.573242 0.623916 0.421861
Si Si5 0.170231 0.228897 0.908891
Si Si6 0.520155 0.280439 0.829232
O O1 0.163945 0.592420 0.166236
O O2 0.058782 0.344515 0.329513
O O3 0.046256 0.732241 0.197028
O O4 0.106283 0.356238 0.032977
O O5 0.399090 0.721981 0.458089
O O6 0.346340 0.712676 0.236523
O O7 0.456404 0.558491 0.208126
O O8 0.429872 0.057168 0.252406
O O9 0.635427 0.494267 0.295882
O O10 0.762744 0.385096 0.131939
O O11 0.680331 0.494754 0.002469
O O12 0.500000 0.499852 0.500000
O O13 0.500000 0.241743 0.000000
#
# Coordination Sequence:
#
# PCOD9129753 Si02
#       6
#     4   4   4   4   4   4
#     4  11  23  42  73  98 144 189 243 300 364 433
#     4  12  27  45  71 110 149 185 242 307 367 437
#     4  11  24  45  73 100 142 193 247 299 364 439
#     4  11  25  45  69 108 146 191 239 298 376 440
#     4  11  24  46  71 107 139 193 251 302 357 437
#     4  12  24  43  73 107 141 188 247 307 367 420
#
# _framework density 22.206222
#
# number of rings (size 3 to 8) (size 9 to 14) (size 15 to 20)
#    0.000    0.667    5.000    2.500    4.667    0.667 
#    3.000    0.000    0.000    0.000    0.000    0.000 
#    0.000    0.000    0.000    0.000    0.000    0.000 
#
# Total GULP energy -66943.302924 kJ/mol
# GULP energy per Si atom -5578.608577 kJ/mol
# Density = 2.215568 g / cm^3
# Si number density = 22.206222 Si / 1000 Ang^3
#
#
#
# Elastic Constant Matrix: (Units=GPa)
#
#
# Indices 1 2 3 4 5 6 
#
# 1 118.6365 14.7548 42.4437 0.0000 7.5243 0.0000
# 2 14.7548 43.1232 9.3392 0.0000 -8.9360 0.0000
# 3 42.4437 9.3392 130.0583 0.0000 11.6502 0.0000
# 4 0.0000 0.0000 0.0000 19.3520 0.0000 -1.1597
# 5 7.5243 -8.9360 11.6502 0.0000 35.5229 0.0000
# 6 0.0000 0.0000 0.0000 -1.1597 0.0000 37.8128
#
#
#
# Elastic Compliance Matrix: (Units=1/GPa)
#
#
# Indices 1 2 3 4 5 6 
#
# 1 0.009972 -0.003207 -0.002846 0.000000 -0.001986 0.000000
# 2 -0.003207 0.026231 -0.001534 0.000000 0.007781 0.000000
# 3 -0.002846 -0.001534 0.008972 0.000000 -0.002726 0.000000
# 4 0.000000 0.000000 0.000000 0.051769 0.000000 0.001588
# 5 -0.001986 0.007781 -0.002726 0.000000 0.031423 0.000000
# 6 0.000000 0.000000 0.000000 0.001588 0.000000 0.026495
#
#
# Mechanical properties :
#
#
# Convention : Reuss Voigt Hill
#
# Bulk Modulus (GPa) = 33.33235 47.21040 40.27138
# Shear Modulus (GPa) = 27.77204 33.55622 30.66413
#
# Velocity S-wave (km/s) = 3.54028 3.89153 3.72005
# Velocity P-wave (km/s) = 5.63510 6.44190 6.05196
#
# Compressibility (1/GPa) = 0.03000088
#
# Stress axis : x y z
#
# Youngs Moduli (GPa) = 100.27902 38.12239 111.45793
#
# Poissons Ratio (x) = 0.12226 0.31723
# Poissons Ratio (y) = 0.32160 0.17098
# Poissons Ratio (z) = 0.28541 0.05848
#
# Static dielectric constant tensor:
#      x y z
#    x 1.835150 0.000000 0.009380 
#    y 0.000000 1.906220 0.000000 
#    z 0.009380 0.000000 1.824230 
# 
# From -- ./inp_files/30249.got.cif
#   From: 2010.05.17/outbox.cif.g08.bks.cpg/sg5_16_cif.got.tgz:30249.got - 2010.06.03 18:56:24.
