data_PCOD9129355
_publ_section_title
;
Structure prediction by ZEFSAII (Michael W. Deem and Ramdas Pophale) SiO2 
 PCOD9129355
Probable space group: C 2
;
_chemical_formula_sum "Si O2"
_cell_formula_units_Z 26
_cell_length_a 26.022918
_cell_length_b 9.329845
_cell_length_c 8.054990
_cell_angle_alpha 90.000000
_cell_angle_beta 40.949082
_cell_angle_gamma 90.000000
_cell_volume 1281.722355
_symmetry_space_group_name_H-M "C 2"
_symmetry_group_IT_number 5
_symmetry_cell_setting 'monoclinic'
loop_
_space_group_symop_operation_xyz
x,y,z
-x,y,-z
1/2+x,1/2+y,z
1/2-x,1/2+y,-z
loop_
_atom_site_type_symbol
_atom_site_label
_atom_site_fract_x
_atom_site_fract_y
_atom_site_fract_z
Si Si1 0.943958 0.299910 0.978544
Si Si2 0.661850 0.690166 0.241552
Si Si3 0.407143 0.088798 0.187349
Si Si4 0.284789 0.990535 0.761772
Si Si5 0.500000 0.730250 0.500000
Si Si6 0.305388 0.316133 0.300140
Si Si7 0.667853 0.596733 0.602713
O O1 0.987907 0.315187 0.699500
O O2 0.890394 0.439058 0.132712
O O3 0.899846 0.149581 0.107682
O O4 0.000000 0.304191 0.000000
O O5 0.583538 0.655383 0.328374
O O6 0.647454 0.638478 0.465106
O O7 0.678548 0.861297 0.216692
O O8 0.736008 0.606527 0.985164
O O9 0.352304 0.067606 0.485166
O O10 0.383577 0.221813 0.128337
O O11 0.500000 0.098894 0.000000
O O12 0.223041 0.907067 0.790365
O O13 0.311477 0.432571 0.429582
O O14 0.240222 0.194869 0.479228
#
# Coordination Sequence:
#
# PCOD9129355 Si02
#       7
#     4   4   4   4   2   4   4
#     4  11  21  43  68  99 138 178 239 279 356 417
#     4  11  25  42  66 103 140 181 235 282 353 413
#     4  11  23  44  67  97 136 184 231 289 351 417
#     4  11  24  45  67 101 137 184 233 291 342 430
#     4  12  24  40  74 106 132 188 220 302 340 418
#     4  11  22  40  66  98 126 182 232 282 350 403
#     4  11  21  41  67  96 137 183 232 287 339 426
#
# _framework density 20.285205000000001
#
# number of rings (size 3 to 8) (size 9 to 14) (size 15 to 20)
#    0.000    0.923    6.154    1.846    2.154    3.077 
#    2.769    0.000    0.000    0.923    0.000    0.000 
#    0.000    0.000    0.000    0.000    0.000    0.000 
#
# Total GULP energy -72462.616896 kJ/mol
# GULP energy per Si atom -5574.047454 kJ/mol
# Density = 2.023903 g / cm^3
# Si number density = 20.285205 Si / 1000 Ang^3
#
#
#
# Elastic Constant Matrix: (Units=GPa)
#
#
# Indices 1 2 3 4 5 6 
#
# 1 94.6332 34.4061 36.9546 0.0000 -14.2950 0.0000
# 2 34.4061 70.3096 22.6396 0.0000 -4.7397 0.0000
# 3 36.9546 22.6396 113.5739 0.0000 12.0430 0.0000
# 4 0.0000 0.0000 0.0000 26.2734 0.0000 -7.7284
# 5 -14.2950 -4.7397 12.0430 0.0000 32.7962 0.0000
# 6 0.0000 0.0000 0.0000 -7.7284 0.0000 20.4654
#
#
#
# Elastic Compliance Matrix: (Units=1/GPa)
#
#
# Indices 1 2 3 4 5 6 
#
# 1 0.015649 -0.005587 -0.004803 0.000000 0.007777 0.000000
# 2 -0.005587 0.017576 -0.001766 0.000000 0.000753 0.000000
# 3 -0.004803 -0.001766 0.011413 0.000000 -0.006539 0.000000
# 4 0.000000 0.000000 0.000000 0.042818 0.000000 0.016169
# 5 0.007777 0.000753 -0.006539 0.000000 0.036391 0.000000
# 6 0.000000 0.000000 0.000000 0.016169 0.000000 0.054969
#
#
# Mechanical properties :
#
#
# Convention : Reuss Voigt Hill
#
# Bulk Modulus (GPa) = 49.19522 51.83524 50.51523
# Shear Modulus (GPa) = 23.82067 28.20810 26.01439
#
# Velocity S-wave (km/s) = 3.43051 3.73309 3.58499
# Velocity P-wave (km/s) = 6.32421 6.64755 6.48789
#
# Compressibility (1/GPa) = 0.02032718
#
# Stress axis : x y z
#
# Youngs Moduli (GPa) = 63.90348 56.89550 87.62019
#
# Poissons Ratio (x) = 0.31787 0.42081
# Poissons Ratio (y) = 0.35703 0.15470
# Poissons Ratio (z) = 0.30691 0.10045
#
# Static dielectric constant tensor:
#      x y z
#    x 1.781820 0.000000 -0.024400 
#    y 0.000000 1.752110 0.000000 
#    z -0.024400 0.000000 1.791680 
# 
# From -- ./inp_files/31633.got.cif
#   From: 2010.05.17/outbox.cif.g08.bks.cpg/sg5_16_cif.got.tgz:31633.got - 2010.06.03 18:56:24.
