data_PCOD9129573
_publ_section_title
;
Structure prediction by ZEFSAII (Michael W. Deem and Ramdas Pophale) SiO2 
 PCOD9129573
Probable space group: C 2
;
_chemical_formula_sum "Si O2"
_cell_formula_units_Z 14
_cell_length_a 12.523166
_cell_length_b 7.312840
_cell_length_c 12.414360
_cell_angle_alpha 90.000000
_cell_angle_beta 37.593005
_cell_angle_gamma 90.000000
_cell_volume 693.567700
_symmetry_space_group_name_H-M "C 2"
_symmetry_group_IT_number 5
_symmetry_cell_setting 'monoclinic'
loop_
_space_group_symop_operation_xyz
x,y,z
-x,y,-z
1/2+x,1/2+y,z
1/2-x,1/2+y,-z
loop_
_atom_site_type_symbol
_atom_site_label
_atom_site_fract_x
_atom_site_fract_y
_atom_site_fract_z
Si Si1 0.500000 0.079340 0.000000
Si Si2 0.942972 0.727849 0.272664
Si Si3 0.548519 0.881906 0.579513
Si Si4 0.115361 0.997144 0.300765
O O1 0.485978 0.198512 0.903564
O O2 0.679483 0.967273 0.843173
O O3 0.742098 0.793721 0.424385
O O4 0.955927 0.537202 0.327109
O O5 0.047522 0.875621 0.257779
O O6 0.500000 0.959551 0.500000
O O7 0.418783 0.710592 0.698869
O O8 0.000000 0.959609 0.500000
#
# Coordination Sequence:
#
# PCOD9129573 Si02
#       4
#     2   4   4   4
#     4  12  26  44  66 104 136 168 226 274 322 402
#     4  12  24  43  70  98 135 176 217 274 332 387
#     4  11  22  43  71  96 131 175 221 267 329 393
#     4  11  24  48  66  97 138 174 220 273 327 394
#
# _framework density 20.185483999999999
#
# number of rings (size 3 to 8) (size 9 to 14) (size 15 to 20)
#    0.000    0.571    8.571    0.857    4.000    0.000 
#    0.000    2.857    0.000    0.000    0.000    0.000 
#    0.000    0.000    0.000    0.000    0.000    0.000 
#
# Total GULP energy -39140.613538 kJ/mol
# GULP energy per Si atom -5591.516220 kJ/mol
# Density = 2.013954 g / cm^3
# Si number density = 20.185484 Si / 1000 Ang^3
#
#
#
# Elastic Constant Matrix: (Units=GPa)
#
#
# Indices 1 2 3 4 5 6 
#
# 1 158.5819 44.8178 78.4357 0.0000 13.6952 0.0000
# 2 44.8178 61.7993 37.4269 0.0000 27.4774 0.0000
# 3 78.4357 37.4269 130.9160 0.0000 0.7401 0.0000
# 4 0.0000 0.0000 0.0000 -2.1470 0.0000 3.7938
# 5 13.6952 27.4774 0.7401 0.0000 62.9793 0.0000
# 6 0.0000 0.0000 0.0000 3.7938 0.0000 48.4340
#
#
#
# Elastic Compliance Matrix: (Units=1/GPa)
#
#
# Indices 1 2 3 4 5 6 
#
# 1 0.009829 -0.004166 -0.004696 0.000000 -0.000264 0.000000
# 2 -0.004166 0.027215 -0.005222 0.000000 -0.010906 0.000000
# 3 -0.004696 -0.005222 0.011927 0.000000 0.003160 0.000000
# 4 0.000000 0.000000 0.000000 -0.409139 0.000000 0.032047
# 5 -0.000264 -0.010906 0.003160 0.000000 0.020657 0.000000
# 6 0.000000 0.000000 0.000000 0.032047 0.000000 0.018136
#
#
# Mechanical properties :
#
#
# Convention : Reuss Voigt Hill
#
# Bulk Modulus (GPa) = 48.07455 74.73977 61.40716
# Shear Modulus (GPa) = -17.46601 34.56105 8.54752
#
# Velocity S-wave (km/s) = -2.94475 4.14233 2.06002
# Velocity P-wave (km/s) = 3.50800 7.74503 6.01213
#
# Compressibility (1/GPa) = 0.02080103
#
# Stress axis : x y z
#
# Youngs Moduli (GPa) = 101.73937 36.74445 83.84131
#
# Poissons Ratio (x) = 0.15310 0.39374
# Poissons Ratio (y) = 0.42390 0.43785
# Poissons Ratio (z) = 0.47779 0.19189
#
# Static dielectric constant tensor:
#      x y z
#    x 1.714020 0.000000 -0.015770 
#    y 0.000000 1.683340 0.000000 
#    z -0.015770 0.000000 1.724180 
# 
# From -- ./inp_files/13595.got.cif
#   From: 2010.05.17/outbox.cif.g08.bks.cpg/sg5_7_cif.got.tgz:13595.got - 2010.06.03 18:56:24.
