data_PCOD9129126
_publ_section_title
;
Structure prediction by ZEFSAII (Michael W. Deem and Ramdas Pophale) SiO2 
 PCOD9129126
Probable space group: C 2
;
_chemical_formula_sum "Si O2"
_cell_formula_units_Z 16
_cell_length_a 6.970420
_cell_length_b 9.081496
_cell_length_c 9.683844
_cell_angle_alpha 90.000000
_cell_angle_beta 83.615542
_cell_angle_gamma 90.000000
_cell_volume 609.203372
_symmetry_space_group_name_H-M "C 2"
_symmetry_group_IT_number 5
_symmetry_cell_setting 'monoclinic'
loop_
_space_group_symop_operation_xyz
x,y,z
-x,y,-z
1/2+x,1/2+y,z
1/2-x,1/2+y,-z
loop_
_atom_site_type_symbol
_atom_site_label
_atom_site_fract_x
_atom_site_fract_y
_atom_site_fract_z
Si Si1 0.500000 0.653331 0.000000
Si Si2 0.500000 0.633806 0.500000
Si Si3 0.891405 0.622994 0.866999
Si Si4 0.003971 0.846402 0.352060
Si Si5 0.067583 0.336956 0.267840
O O1 0.320933 0.565767 0.075893
O O2 0.574358 0.752647 0.121174
O O3 0.583174 0.508049 0.388590
O O4 0.435322 0.749626 0.387699
O O5 0.991448 0.502296 0.763353
O O6 0.882067 0.771834 0.780981
O O7 0.000000 0.644996 0.000000
O O8 0.780279 0.847517 0.320404
O O9 0.000000 0.762113 0.500000
#
# Coordination Sequence:
#
# PCOD9129126 Si02
#       5
#     2   2   4   4   4
#     4  12  28  48  78 118 158 200 260 316 388 462
#     4  10  28  46  76 114 154 206 254 320 380 468
#     4  12  27  52  79 117 156 204 259 321 382 464
#     4  10  27  48  75 114 158 202 255 322 384 457
#     4  12  26  49  76 115 156 205 259 317 385 460
#
# _framework density 26.263805999999999
#
# number of rings (size 3 to 8) (size 9 to 14) (size 15 to 20)
#    0.750    0.000    3.750    1.500    8.750    6.000 
#    2.250    0.000    0.000    1.500    0.000    0.000 
#    0.000    0.000    0.000    0.000    0.000    0.000 
#
# Total GULP energy -44677.838768 kJ/mol
# GULP energy per Si atom -5584.729846 kJ/mol
# Density = 2.620403 g / cm^3
# Si number density = 26.263806 Si / 1000 Ang^3
#
#
#
# Elastic Constant Matrix: (Units=GPa)
#
#
# Indices 1 2 3 4 5 6 
#
# 1 117.8822 9.2433 61.5509 0.0000 -5.6662 0.0000
# 2 9.2433 127.3002 86.3316 0.0000 -6.1906 0.0000
# 3 61.5509 86.3316 212.9788 0.0000 35.8317 0.0000
# 4 0.0000 0.0000 0.0000 43.8552 0.0000 -6.6925
# 5 -5.6662 -6.1906 35.8317 0.0000 48.2748 0.0000
# 6 0.0000 0.0000 0.0000 -6.6925 0.0000 4.8481
#
#
#
# Elastic Compliance Matrix: (Units=1/GPa)
#
#
# Indices 1 2 3 4 5 6 
#
# 1 0.011460 0.003287 -0.005647 0.000000 0.005958 0.000000
# 2 0.003287 0.013116 -0.007558 0.000000 0.007678 0.000000
# 3 -0.005647 -0.007558 0.011045 0.000000 -0.009830 0.000000
# 4 0.000000 0.000000 0.000000 0.028888 0.000000 0.039878
# 5 0.005958 0.007678 -0.009830 0.000000 0.029695 0.000000
# 6 0.000000 0.000000 0.000000 0.039878 0.000000 0.261316
#
#
# Mechanical properties :
#
#
# Convention : Reuss Voigt Hill
#
# Bulk Modulus (GPa) = 63.35162 85.82367 74.58764
# Shear Modulus (GPa) = 13.13655 39.46465 26.30060
#
# Velocity S-wave (km/s) = 2.23889 3.88058 3.16792
# Velocity P-wave (km/s) = 5.55492 7.26822 6.46854
#
# Compressibility (1/GPa) = 0.01578492
#
# Stress axis : x y z
#
# Youngs Moduli (GPa) = 87.25944 76.24276 90.54019
#
# Poissons Ratio (x) = -0.25062 0.51126
# Poissons Ratio (y) = -0.28683 0.68433
# Poissons Ratio (z) = 0.49273 0.57627
#
# Static dielectric constant tensor:
#      x y z
#    x 2.110140 0.000000 0.018740 
#    y 0.000000 2.021570 0.000000 
#    z 0.018740 0.000000 1.964400 
# 
# From -- ./inp_files/13632.got.cif
#   From: 2010.05.17/outbox.cif.g08.bks.cpg/sg5_7_cif.got.tgz:13632.got - 2010.06.03 18:56:24.
