data_PCOD9129931
_publ_section_title
;
Structure prediction by ZEFSAII (Michael W. Deem and Ramdas Pophale) SiO2 
 PCOD9129931
Probable space group: C 2
;
_chemical_formula_sum "Si O2"
_cell_formula_units_Z 28
_cell_length_a 12.740980
_cell_length_b 4.999968
_cell_length_c 19.334566
_cell_angle_alpha 90.000000
_cell_angle_beta 72.436377
_cell_angle_gamma 90.000000
_cell_volume 1174.279934
_symmetry_space_group_name_H-M "C 2"
_symmetry_group_IT_number 5
_symmetry_cell_setting 'monoclinic'
loop_
_space_group_symop_operation_xyz
x,y,z
-x,y,-z
1/2+x,1/2+y,z
1/2-x,1/2+y,-z
loop_
_atom_site_type_symbol
_atom_site_label
_atom_site_fract_x
_atom_site_fract_y
_atom_site_fract_z
Si Si1 0.786457 0.364000 0.164054
Si Si2 0.964205 0.239190 0.577209
Si Si3 0.179323 0.501646 0.497523
Si Si4 0.390194 0.501946 0.027554
Si Si5 0.437275 0.413616 0.720580
Si Si6 0.495710 0.943247 0.212142
Si Si7 0.328075 0.782105 0.918057
O O1 0.843503 0.126751 0.107714
O O2 0.688285 0.323128 0.238459
O O3 0.726835 0.565956 0.122727
O O4 0.888709 0.479661 0.186819
O O5 0.860592 0.415488 0.571757
O O6 0.000000 0.079997 0.500000
O O7 0.069705 0.434181 0.563516
O O8 0.944620 0.048583 0.644677
O O9 0.226385 0.795528 0.497042
O O10 0.280544 0.370420 0.020259
O O11 0.500000 0.325730 0.000000
O O12 0.415232 0.705595 0.959953
O O13 0.484332 0.643465 0.763331
O O14 0.505178 0.149313 0.724858
O O15 0.604375 0.989440 0.142906
#
# Coordination Sequence:
#
# PCOD9129931 Si02
#       7
#     4   4   4   4   4   4   4
#     4  11  25  41  64  92 131 171 217 262 336 386
#     4   8  23  42  68 100 130 171 220 271 323 382
#     4   9  20  38  64  95 130 163 209 265 318 378
#     4  12  23  38  64  91 122 169 218 269 326 378
#     4  11  25  46  64  99 133 173 217 272 319 397
#     4  11  26  43  68  92 136 173 217 261 334 389
#     4  11  24  40  62  94 126 168 219 276 316 390
#
# _framework density 23.844396
#
# number of rings (size 3 to 8) (size 9 to 14) (size 15 to 20)
#    0.857    0.571    4.286    0.000    2.000    8.571 
#    0.000    0.000    0.000    0.000    0.000    0.000 
#    0.000    0.000    0.000    0.000    0.000    0.000 
#
# Total GULP energy -78026.670918 kJ/mol
# GULP energy per Si atom -5573.333637 kJ/mol
# Density = 2.379013 g / cm^3
# Si number density = 23.844396 Si / 1000 Ang^3
#
#
#
# Elastic Constant Matrix: (Units=GPa)
#
#
# Indices 1 2 3 4 5 6 
#
# 1 104.7953 12.9737 28.4636 -0.0001 3.6110 -0.0001
# 2 12.9737 61.2621 -1.5616 -0.0007 -0.7063 -0.0004
# 3 28.4636 -1.5616 84.9956 0.0002 8.5469 0.0002
# 4 -0.0001 -0.0007 0.0002 22.0060 -0.0001 2.0113
# 5 3.6110 -0.7063 8.5469 -0.0001 11.7159 -0.0002
# 6 -0.0001 -0.0004 0.0002 2.0113 -0.0002 20.8101
#
#
#
# Elastic Compliance Matrix: (Units=1/GPa)
#
#
# Indices 1 2 3 4 5 6 
#
# 1 0.010844 -0.002398 -0.003588 0.000000 -0.000869 0.000000
# 2 -0.002398 0.016869 0.001010 0.000000 0.001019 0.000000
# 3 -0.003588 0.001010 0.013887 0.000000 -0.008964 0.000000
# 4 0.000000 0.000000 0.000000 0.045847 0.000000 -0.004431
# 5 -0.000869 0.001019 -0.008964 0.000000 0.092223 0.000001
# 6 0.000000 0.000000 0.000000 -0.004431 0.000001 0.048482
#
#
# Mechanical properties :
#
#
# Convention : Reuss Voigt Hill
#
# Bulk Modulus (GPa) = 31.59728 36.75603 34.17665
# Shear Modulus (GPa) = 20.10847 24.98488 22.54668
#
# Velocity S-wave (km/s) = 2.90715 3.24053 3.07836
# Velocity P-wave (km/s) = 4.95469 5.42677 5.19609
#
# Compressibility (1/GPa) = 0.03164829
#
# Stress axis : x y z
#
# Youngs Moduli (GPa) = 92.21881 59.28165 72.01072
#
# Poissons Ratio (x) = 0.14215 0.25838
# Poissons Ratio (y) = 0.22113 -0.07276
# Poissons Ratio (z) = 0.33088 -0.05990
#
# Static dielectric constant tensor:
#      x y z
#    x 1.888190 0.000000 -0.002850 
#    y 0.000000 2.038040 0.000000 
#    z -0.002850 0.000000 1.957480 
# 
# From -- ./inp_files/64958.got.cif
#   From: 2010.05.17/outbox.cif.g08.bks.cpg/sg5_33_cif.got.tgz:64958.got - 2010.06.03 18:56:24.
