data_PCOD9129494
_publ_section_title
;
Structure prediction by ZEFSAII (Michael W. Deem and Ramdas Pophale) SiO2 
 PCOD9129494
Probable space group: C 2
;
_chemical_formula_sum "Si O2"
_cell_formula_units_Z 30
_cell_length_a 25.978846
_cell_length_b 9.332144
_cell_length_c 8.071951
_cell_angle_alpha 90.000000
_cell_angle_beta 51.572914
_cell_angle_gamma 90.000000
_cell_volume 1533.074361
_symmetry_space_group_name_H-M "C 2"
_symmetry_group_IT_number 5
_symmetry_cell_setting 'monoclinic'
loop_
_space_group_symop_operation_xyz
x,y,z
-x,y,-z
1/2+x,1/2+y,z
1/2-x,1/2+y,-z
loop_
_atom_site_type_symbol
_atom_site_label
_atom_site_fract_x
_atom_site_fract_y
_atom_site_fract_z
Si Si1 0.746216 0.567980 0.671194
Si Si2 0.894765 0.520019 0.452826
Si Si3 0.575233 0.223186 0.303945
Si Si4 0.894731 0.458781 0.968292
Si Si5 0.746167 0.410593 0.344103
Si Si6 0.424791 0.755581 0.604896
Si Si7 0.000000 0.489499 0.000000
Si Si8 0.832244 0.989386 0.835465
O O1 0.820752 0.511720 0.540233
O O2 0.717231 0.489269 0.565619
O O3 0.750020 0.739285 0.638693
O O4 0.710096 0.535256 0.918327
O O5 0.896858 0.626702 0.602503
O O6 0.919921 0.363699 0.459909
O O7 0.948266 0.575754 0.215229
O O8 0.500000 0.257621 0.500000
O O9 0.620998 0.360191 0.199783
O O10 0.580174 0.115164 0.139261
O O11 0.896949 0.352078 0.810025
O O12 0.948208 0.403216 0.992052
O O13 0.820690 0.466902 0.176834
O O14 0.710021 0.443362 0.241571
O O15 0.500000 0.720884 0.500000
O O16 0.378929 0.618736 0.683896
#
# Coordination Sequence:
#
# PCOD9129494 Si02
#       8
#     4   4   4   4   4   4   2   4
#     4  12  28  45  69 102 138 183 230 283 350 412
#     4  11  22  40  71  94 128 175 232 275 334 411
#     4  11  22  43  67  97 129 178 224 279 342 407
#     4  11  22  40  71  94 128 175 232 275 334 411
#     4  12  28  45  69 102 138 183 230 283 350 412
#     4  11  22  43  67  97 129 178 224 279 342 407
#     4  12  20  38  68 102 124 166 230 298 320 398
#     4  12  27  44  68  99 144 178 224 286 352 413
#
# _framework density 19.568522999999999
#
# number of rings (size 3 to 8) (size 9 to 14) (size 15 to 20)
#    0.000    0.533    6.667    2.800    3.733    0.000 
#    0.000    0.000    0.000    3.200    0.000    0.000 
#    0.000    0.000    0.000    0.000    0.000    0.000 
#
# Total GULP energy -83723.917792 kJ/mol
# GULP energy per Si atom -5581.594519 kJ/mol
# Density = 1.952398 g / cm^3
# Si number density = 19.568523 Si / 1000 Ang^3
#
#
#
# Elastic Constant Matrix: (Units=GPa)
#
#
# Indices 1 2 3 4 5 6 
#
# 1 88.7296 40.4255 45.2026 0.0000 -4.6190 0.0000
# 2 40.4255 118.2951 41.3518 0.0000 4.6860 0.0000
# 3 45.2026 41.3518 87.1539 0.0000 1.0940 0.0000
# 4 0.0000 0.0000 0.0000 20.0727 0.0000 -0.3152
# 5 -4.6190 4.6860 1.0940 0.0000 40.4773 0.0000
# 6 0.0000 0.0000 0.0000 -0.3152 0.0000 20.0598
#
#
#
# Elastic Compliance Matrix: (Units=1/GPa)
#
#
# Indices 1 2 3 4 5 6 
#
# 1 0.016462 -0.003270 -0.007018 0.000000 0.002447 0.000000
# 2 -0.003270 0.010828 -0.003422 0.000000 -0.001534 0.000000
# 3 -0.007018 -0.003422 0.016748 0.000000 -0.000857 0.000000
# 4 0.000000 0.000000 0.000000 0.049831 0.000000 0.000783
# 5 0.002447 -0.001534 -0.000857 0.000000 0.025185 0.000000
# 6 0.000000 0.000000 0.000000 0.000783 0.000000 0.049863
#
#
# Mechanical properties :
#
#
# Convention : Reuss Voigt Hill
#
# Bulk Modulus (GPa) = 60.17148 60.90425 60.53786
# Shear Modulus (GPa) = 24.76755 27.26854 26.01804
#
# Velocity S-wave (km/s) = 3.56150 3.73700 3.65031
# Velocity P-wave (km/s) = 6.90857 7.05772 6.98354
#
# Compressibility (1/GPa) = 0.01661917
#
# Stress axis : x y z
#
# Youngs Moduli (GPa) = 60.74510 92.35408 59.70765
#
# Poissons Ratio (x) = 0.30195 0.41900
# Poissons Ratio (y) = 0.19861 0.20435
# Poissons Ratio (z) = 0.42628 0.31608
#
# Static dielectric constant tensor:
#      x y z
#    x 1.798800 0.000000 0.135700 
#    y 0.000000 1.667040 0.000000 
#    z 0.135700 0.000000 1.837800 
# 
# From -- ./inp_files/31649.got.cif
#   From: 2010.05.17/outbox.cif.g08.bks.cpg/sg5_16_cif.got.tgz:31649.got - 2010.06.03 18:56:24.
