data_PCOD9129229
_publ_section_title
;
Structure prediction by ZEFSAII (Michael W. Deem and Ramdas Pophale) SiO2 
 PCOD9129229
Probable space group: C 2
;
_chemical_formula_sum "Si O2"
_cell_formula_units_Z 26
_cell_length_a 9.505151
_cell_length_b 19.965191
_cell_length_c 8.622718
_cell_angle_alpha 90.000000
_cell_angle_beta 48.232722
_cell_angle_gamma 90.000000
_cell_volume 1220.483674
_symmetry_space_group_name_H-M "C 2"
_symmetry_group_IT_number 5
_symmetry_cell_setting 'monoclinic'
loop_
_space_group_symop_operation_xyz
x,y,z
-x,y,-z
1/2+x,1/2+y,z
1/2-x,1/2+y,-z
loop_
_atom_site_type_symbol
_atom_site_label
_atom_site_fract_x
_atom_site_fract_y
_atom_site_fract_z
Si Si1 0.379139 0.379240 0.929688
Si Si2 0.210830 0.896761 0.495415
Si Si3 0.500000 0.516557 0.500000
Si Si4 0.000000 0.467419 0.500000
Si Si5 0.801028 0.029436 0.059043
Si Si6 0.000000 0.230900 0.500000
Si Si7 0.991746 0.301501 0.178270
Si Si8 0.275259 0.123567 0.150205
O O1 0.530481 0.356992 0.689954
O O2 0.500000 0.376463 0.000000
O O3 0.317065 0.457569 0.955835
O O4 0.194899 0.334013 0.064733
O O5 0.119709 0.966851 0.516931
O O6 0.356195 0.917658 0.521438
O O7 0.333452 0.859557 0.277230
O O8 0.663908 0.563765 0.316204
O O9 0.124180 0.513941 0.298387
O O10 0.767805 0.098751 0.992955
O O11 0.000000 0.034794 0.000000
O O12 0.936429 0.267310 0.385181
O O13 0.173273 0.187451 0.301302
O O14 0.000000 0.267393 0.000000
O O15 0.500000 0.125918 0.000000
#
# Coordination Sequence:
#
# PCOD9129229 Si02
#       8
#     4   4   2   2   4   2   4   4
#     4  11  20  37  64 105 151 188 219 294 373 436
#     4  12  21  35  62 102 145 179 218 286 364 437
#     4  11  22  36  63 104 141 161 222 294 374 427
#     4  12  19  32  59  98 149 187 214 270 364 444
#     4  11  21  37  64 106 146 184 227 290 375 430
#     4  11  29  54  68  98 144 206 260 292 344 423
#     4  12  27  45  73 105 143 195 249 298 354 432
#     4  11  25  45  71  94 137 195 241 300 347 430
#
# _framework density 21.303028999999999
#
# number of rings (size 3 to 8) (size 9 to 14) (size 15 to 20)
#    0.000    0.615    6.154    3.231    0.000    3.692 
#    0.000    0.000    0.000    1.846    0.000    0.000 
#    0.000    0.000    0.000    0.000    0.000    0.000 
#
# Total GULP energy -72425.916907 kJ/mol
# GULP energy per Si atom -5571.224377 kJ/mol
# Density = 2.125454 g / cm^3
# Si number density = 21.303029 Si / 1000 Ang^3
#
#
#
# Elastic Constant Matrix: (Units=GPa)
#
#
# Indices 1 2 3 4 5 6 
#
# 1 103.8403 37.0608 37.8892 0.0000 -18.3933 0.0000
# 2 37.0608 52.8003 37.4882 0.0000 -0.2107 0.0000
# 3 37.8892 37.4882 159.2178 0.0000 -24.5553 0.0000
# 4 0.0000 0.0000 0.0000 24.0038 0.0000 16.4708
# 5 -18.3933 -0.2107 -24.5553 0.0000 47.8670 0.0000
# 6 0.0000 0.0000 0.0000 16.4708 0.0000 18.3416
#
#
#
# Elastic Compliance Matrix: (Units=1/GPa)
#
#
# Indices 1 2 3 4 5 6 
#
# 1 0.014118 -0.009699 -0.000267 0.000000 0.005245 0.000000
# 2 -0.009699 0.029774 -0.005708 0.000000 -0.006524 0.000000
# 3 -0.000267 -0.005708 0.008327 0.000000 0.004144 0.000000
# 4 0.000000 0.000000 0.000000 0.108543 0.000000 -0.097472
# 5 0.005245 -0.006524 0.004144 0.000000 0.025004 0.000000
# 6 0.000000 0.000000 0.000000 -0.097472 0.000000 0.142051
#
#
# Mechanical properties :
#
#
# Convention : Reuss Voigt Hill
#
# Bulk Modulus (GPa) = 47.91456 60.08165 53.99811
# Shear Modulus (GPa) = 13.65654 31.60382 22.63018
#
# Velocity S-wave (km/s) = 2.53467 3.85585 3.26283
# Velocity P-wave (km/s) = 5.57734 6.93455 6.29264
#
# Compressibility (1/GPa) = 0.02087048
#
# Stress axis : x y z
#
# Youngs Moduli (GPa) = 70.82932 33.58609 120.08436
#
# Poissons Ratio (x) = 0.32576 0.03207
# Poissons Ratio (y) = 0.68699 0.68550
# Poissons Ratio (z) = 0.01892 0.19173
#
# Static dielectric constant tensor:
#      x y z
#    x 1.776580 0.000000 0.106940 
#    y 0.000000 1.793350 0.000000 
#    z 0.106940 0.000000 1.928730 
# 
# From -- ./inp_files/16912.got.cif
#   From: 2010.05.17/outbox.cif.g08.bks.cpg/sg5_9_cif.got.tgz:16912.got - 2010.06.03 18:56:24.
