data_PCOD9129013
_publ_section_title
;
Structure prediction by ZEFSAII (Michael W. Deem and Ramdas Pophale) SiO2 
 PCOD9129013
Probable space group: C 2
;
_chemical_formula_sum "Si O2"
_cell_formula_units_Z 28
_cell_length_a 14.346257
_cell_length_b 17.044426
_cell_length_c 5.364992
_cell_angle_alpha 90.000000
_cell_angle_beta 111.743197
_cell_angle_gamma 90.000000
_cell_volume 1218.533036
_symmetry_space_group_name_H-M "C 2"
_symmetry_group_IT_number 5
_symmetry_cell_setting 'monoclinic'
loop_
_space_group_symop_operation_xyz
x,y,z
-x,y,-z
1/2+x,1/2+y,z
1/2-x,1/2+y,-z
loop_
_atom_site_type_symbol
_atom_site_label
_atom_site_fract_x
_atom_site_fract_y
_atom_site_fract_z
Si Si1 0.331470 0.467470 0.935562
Si Si2 0.298466 0.756084 0.954391
Si Si3 0.307801 0.052560 0.555677
Si Si4 0.675576 0.231396 0.329337
Si Si5 0.937100 0.107868 0.190726
Si Si6 0.000000 0.506675 0.500000
Si Si7 0.500000 0.336015 0.000000
Si Si8 0.630586 0.921047 0.993495
O O1 0.296216 0.525574 0.674930
O O2 0.225837 0.430367 0.903537
O O3 0.374753 0.528496 0.178700
O O4 0.413475 0.399023 0.991418
O O5 0.226181 0.748181 0.645241
O O6 0.236118 0.764001 0.149823
O O7 0.364376 0.679062 0.055460
O O8 0.369729 0.829269 0.958071
O O9 0.314837 0.136923 0.692491
O O10 0.400563 0.056926 0.451111
O O11 0.338586 0.980488 0.760404
O O12 0.566865 0.274029 0.226637
O O13 0.000000 0.126599 0.500000
O O14 0.000000 0.092306 0.000000
O O15 0.032007 0.451053 0.758448
#
# Coordination Sequence:
#
# PCOD9129013 Si02
#       8
#     4   4   4   4   4   2   2   4
#     4  11  24  49  71 107 150 199 249 309 392 459
#     4  12  27  50  74 109 150 199 246 319 385 453
#     4  11  25  48  77 103 153 206 251 318 387 470
#     4  12  28  49  76 112 154 195 251 316 390 457
#     4  12  27  45  76 108 145 193 254 311 374 464
#     4  10  26  44  72 112 134 200 268 304 372 468
#     4  12  26  46  78 114 152 194 258 322 380 460
#     4  11  25  45  76 101 150 199 251 317 382 461
#
# _framework density 22.978448
#
# number of rings (size 3 to 8) (size 9 to 14) (size 15 to 20)
#    0.000    0.571    3.571    3.000    9.000    2.857 
#    2.571    0.000    0.000    0.000    0.000    0.000 
#    0.000    0.000    0.000    0.000    0.000    0.000 
#
# Total GULP energy -78149.949870 kJ/mol
# GULP energy per Si atom -5582.139276 kJ/mol
# Density = 2.292615 g / cm^3
# Si number density = 22.978448 Si / 1000 Ang^3
#
#
#
# Elastic Constant Matrix: (Units=GPa)
#
#
# Indices 1 2 3 4 5 6 
#
# 1 77.0773 32.4995 35.7598 0.0000 16.7023 0.0000
# 2 32.4995 127.7441 13.1970 0.0000 10.5244 0.0000
# 3 35.7598 13.1970 143.3746 0.0000 21.6209 0.0000
# 4 0.0000 0.0000 0.0000 82.7449 0.0000 -16.4140
# 5 16.7023 10.5244 21.6209 0.0000 36.6903 0.0000
# 6 0.0000 0.0000 0.0000 -16.4140 0.0000 50.3524
#
#
#
# Elastic Compliance Matrix: (Units=1/GPa)
#
#
# Indices 1 2 3 4 5 6 
#
# 1 0.017018 -0.003602 -0.003183 0.000000 -0.004838 0.000000
# 2 -0.003602 0.008804 0.000243 0.000000 -0.001029 0.000000
# 3 -0.003183 0.000243 0.008274 0.000000 -0.003496 0.000000
# 4 0.000000 0.000000 0.000000 0.012921 0.000000 0.004212
# 5 -0.004838 -0.001029 -0.003496 0.000000 0.031813 0.000000
# 6 0.000000 0.000000 0.000000 0.004212 0.000000 0.021233
#
#
# Mechanical properties :
#
#
# Convention : Reuss Voigt Hill
#
# Bulk Modulus (GPa) = 47.59390 56.78985 52.19187
# Shear Modulus (GPa) = 41.61426 51.74016 46.67721
#
# Velocity S-wave (km/s) = 4.26022 4.75034 4.51194
# Velocity P-wave (km/s) = 6.70497 7.40646 7.06443
#
# Compressibility (1/GPa) = 0.02101110
#
# Stress axis : x y z
#
# Youngs Moduli (GPa) = 58.76087 113.58183 120.86706
#
# Poissons Ratio (x) = 0.40914 0.38478
# Poissons Ratio (y) = 0.21167 -0.02940
# Poissons Ratio (z) = 0.18706 -0.02762
#
# Static dielectric constant tensor:
#      x y z
#    x 1.936590 0.000000 -0.027180 
#    y 0.000000 1.871500 0.000000 
#    z -0.027180 0.000000 1.852320 
# 
# From -- ./inp_files/7358.got.cif
#   From: 2010.05.17/outbox.cif.g08.bks.cpg/sg5_4_cif.got.tgz:7358.got - 2010.06.03 18:56:24.
