data_PCOD9129385
_publ_section_title
;
Structure prediction by ZEFSAII (Michael W. Deem and Ramdas Pophale) SiO2 
 PCOD9129385
Probable space group: C 2
;
_chemical_formula_sum "Si O2"
_cell_formula_units_Z 20
_cell_length_a 26.703649
_cell_length_b 4.854643
_cell_length_c 18.264904
_cell_angle_alpha 90.000000
_cell_angle_beta 162.645854
_cell_angle_gamma 90.000000
_cell_volume 706.260782
_symmetry_space_group_name_H-M "C 2"
_symmetry_group_IT_number 5
_symmetry_cell_setting 'monoclinic'
loop_
_space_group_symop_operation_xyz
x,y,z
-x,y,-z
1/2+x,1/2+y,z
1/2-x,1/2+y,-z
loop_
_atom_site_type_symbol
_atom_site_label
_atom_site_fract_x
_atom_site_fract_y
_atom_site_fract_z
Si Si1 0.062546 0.203690 0.704074
Si Si2 0.492774 0.180300 0.698312
Si Si3 0.369785 0.368269 0.675202
Si Si4 0.176544 0.513718 0.729010
Si Si5 0.877325 0.173685 0.881781
O O1 0.191187 0.327536 0.823189
O O2 0.078679 0.393355 0.798572
O O3 0.886766 0.291376 0.420178
O O4 0.051449 0.900083 0.719323
O O5 0.489404 0.269659 0.776936
O O6 0.292802 0.145279 0.401549
O O7 0.271642 0.639158 0.510820
O O8 0.487982 0.438003 0.907922
O O9 0.304923 0.709722 0.864776
O O10 0.000000 0.674396 0.500000
O O11 0.000000 0.353356 0.000000
#
# Coordination Sequence:
#
# PCOD9129385 Si02
#       5
#     4   4   4   4   4
#     4   8  19  37  68  91 135 177 225 296 343 415
#     4  11  21  43  67  98 135 186 234 290 357 422
#     4  12  27  45  67 105 153 186 242 308 355 442
#     4   7  18  38  67 100 135 181 241 286 351 441
#     4  11  23  45  73 106 141 199 237 295 378 425
#
# _framework density 28.318149999999999
#
# number of rings (size 3 to 8) (size 9 to 14) (size 15 to 20)
#    1.200    0.800    2.000    1.200    2.800    9.600 
#    0.000    2.000    0.000    0.000    0.000    0.000 
#    0.000    0.000    0.000    0.000    0.000    0.000 
#
# Total GULP energy -55781.727313 kJ/mol
# GULP energy per Si atom -5578.172731 kJ/mol
# Density = 2.825370 g / cm^3
# Si number density = 28.318150 Si / 1000 Ang^3
#
#
#
# Elastic Constant Matrix: (Units=GPa)
#
#
# Indices 1 2 3 4 5 6 
#
# 1 160.0666 24.7353 50.4694 0.0005 21.5882 0.0003
# 2 24.7353 103.5520 32.3747 0.0039 3.6000 -0.0014
# 3 50.4694 32.3747 110.4818 -0.0001 11.8678 0.0001
# 4 0.0005 0.0039 -0.0001 19.8574 0.0003 -9.3841
# 5 21.5882 3.6000 11.8678 0.0003 85.4218 -0.0005
# 6 0.0003 -0.0014 0.0001 -9.3841 -0.0005 27.9346
#
#
#
# Elastic Compliance Matrix: (Units=1/GPa)
#
#
# Indices 1 2 3 4 5 6 
#
# 1 0.007527 -0.000794 -0.003050 0.000000 -0.001445 0.000000
# 2 -0.000794 0.010715 -0.002792 -0.000002 0.000137 0.000000
# 3 -0.003050 -0.002792 0.011337 0.000001 -0.000686 0.000000
# 4 0.000000 -0.000002 0.000001 0.059862 0.000000 0.020110
# 5 -0.001445 0.000137 -0.000686 0.000000 0.012161 0.000000
# 6 0.000000 0.000000 0.000000 0.020110 0.000000 0.042553
#
#
# Mechanical properties :
#
#
# Convention : Reuss Voigt Hill
#
# Bulk Modulus (GPa) = 61.32839 65.47324 63.40081
# Shear Modulus (GPa) = 30.70069 44.41081 37.55575
#
# Velocity S-wave (km/s) = 3.29619 3.96445 3.64566
# Velocity P-wave (km/s) = 6.01585 6.64278 6.33707
#
# Compressibility (1/GPa) = 0.01630566
#
# Stress axis : x y z
#
# Youngs Moduli (GPa) = 132.85875 93.32970 88.21018
#
# Poissons Ratio (x) = 0.07410 0.26908
# Poissons Ratio (y) = 0.10549 0.24626
# Poissons Ratio (z) = 0.40528 0.26055
#
# Static dielectric constant tensor:
#      x y z
#    x 2.235660 0.000000 0.078180 
#    y 0.000000 2.205370 0.000000 
#    z 0.078180 0.000000 2.424240 
# 
# From -- ./inp_files/63545.got.cif
#   From: 2010.05.17/outbox.cif.g08.bks.cpg/sg5_32_cif.got.tgz:63545.got - 2010.06.03 18:56:24.
