data_PCOD9129969
_publ_section_title
;
Structure prediction by ZEFSAII (Michael W. Deem and Ramdas Pophale) SiO2 
 PCOD9129969
Probable space group: C 2
;
_chemical_formula_sum "Si O2"
_cell_formula_units_Z 22
_cell_length_a 13.565622
_cell_length_b 5.121744
_cell_length_c 20.551154
_cell_angle_alpha 90.000000
_cell_angle_beta 146.175775
_cell_angle_gamma 90.000000
_cell_volume 794.828801
_symmetry_space_group_name_H-M "C 2"
_symmetry_group_IT_number 5
_symmetry_cell_setting 'monoclinic'
loop_
_space_group_symop_operation_xyz
x,y,z
-x,y,-z
1/2+x,1/2+y,z
1/2-x,1/2+y,-z
loop_
_atom_site_type_symbol
_atom_site_label
_atom_site_fract_x
_atom_site_fract_y
_atom_site_fract_z
Si Si1 0.674423 0.360570 0.778735
Si Si2 0.484862 0.855822 0.630408
Si Si3 0.334092 0.787949 0.678315
Si Si4 0.632108 0.161104 0.892011
Si Si5 0.460060 0.531680 0.867560
Si Si6 0.000000 0.149616 0.500000
O O1 0.645317 0.649958 0.734744
O O2 0.642511 0.368650 0.838289
O O3 0.853077 0.196525 0.861486
O O4 0.531394 0.155804 0.670668
O O5 0.341421 0.754363 0.604609
O O6 0.448073 0.815502 0.534711
O O7 0.342126 0.564030 0.737065
O O8 0.518750 0.936198 0.795542
O O9 0.167787 0.965194 0.604516
O O10 0.515899 0.229247 0.892185
O O11 0.836181 0.128604 0.021874
#
# Coordination Sequence:
#
# PCOD9129969 Si02
#       6
#     4   4   4   4   4   2
#     4  11  25  46  74 109 150 192 252 306 378 451
#     4  11  26  49  73 109 146 196 254 316 371 445
#     4  11  25  47  73 108 149 195 253 308 381 444
#     4  11  24  43  72 110 150 197 247 309 377 456
#     4  12  22  43  74 106 151 198 241 310 375 453
#     4  12  26  52  78 108 152 206 260 322 376 452
#
# _framework density 27.678919
#
# number of rings (size 3 to 8) (size 9 to 14) (size 15 to 20)
#    0.000    0.727    5.455    1.636    0.000    3.636 
#    6.545    1.818    0.000    0.000    0.000    0.000 
#    0.000    0.000    0.000    0.000    0.000    0.000 
#
# Total GULP energy -61472.694449 kJ/mol
# GULP energy per Si atom -5588.426768 kJ/mol
# Density = 2.761592 g / cm^3
# Si number density = 27.678919 Si / 1000 Ang^3
#
#
#
# Elastic Constant Matrix: (Units=GPa)
#
#
# Indices 1 2 3 4 5 6 
#
# 1 133.2671 13.7024 23.3314 0.0000 5.4427 0.0005
# 2 13.7024 80.7244 17.4723 -0.0010 2.0718 0.0043
# 3 23.3314 17.4723 115.2645 0.0001 3.3024 0.0001
# 4 0.0000 -0.0010 0.0001 38.5542 -0.0003 5.8418
# 5 5.4427 2.0718 3.3024 -0.0003 50.6779 0.0000
# 6 0.0005 0.0043 0.0001 5.8418 0.0000 49.7354
#
#
#
# Elastic Compliance Matrix: (Units=1/GPa)
#
#
# Indices 1 2 3 4 5 6 
#
# 1 0.007886 -0.001012 -0.001422 0.000000 -0.000713 0.000000
# 2 -0.001012 0.012946 -0.001749 0.000000 -0.000307 -0.000001
# 3 -0.001422 -0.001749 0.009240 0.000000 -0.000378 0.000000
# 4 0.000000 0.000000 0.000000 0.026407 0.000000 -0.003102
# 5 -0.000713 -0.000307 -0.000378 0.000000 0.019846 0.000000
# 6 0.000000 -0.000001 0.000000 -0.003102 0.000000 0.020471
#
#
# Mechanical properties :
#
#
# Convention : Reuss Voigt Hill
#
# Bulk Modulus (GPa) = 46.07330 48.69645 47.38488
# Shear Modulus (GPa) = 44.48491 46.11018 45.29754
#
# Velocity S-wave (km/s) = 4.01331 4.08597 4.04980
# Velocity P-wave (km/s) = 6.17716 6.31599 6.24696
#
# Compressibility (1/GPa) = 0.02170454
#
# Stress axis : x y z
#
# Youngs Moduli (GPa) = 126.80781 77.24364 108.23093
#
# Poissons Ratio (x) = 0.07820 0.15394
# Poissons Ratio (y) = 0.12838 0.18926
# Poissons Ratio (z) = 0.18036 0.13508
#
# Static dielectric constant tensor:
#      x y z
#    x 2.236520 0.000000 -0.000010 
#    y 0.000000 2.356780 0.000000 
#    z -0.000010 0.000000 2.174510 
# 
# From -- ./inp_files/41087.got.cif
#   From: 2010.05.17/outbox.cif.g08.bks.cpg/sg5_21_cif.got.tgz:41087.got - 2010.06.03 18:56:24.
