data_PCOD9129100
_publ_section_title
;
Structure prediction by ZEFSAII (Michael W. Deem and Ramdas Pophale) SiO2 
 PCOD9129100
Probable space group: C 2
;
_chemical_formula_sum "Si O2"
_cell_formula_units_Z 22
_cell_length_a 26.718741
_cell_length_b 8.548030
_cell_length_c 9.526586
_cell_angle_alpha 90.000000
_cell_angle_beta 156.022837
_cell_angle_gamma 90.000000
_cell_volume 884.185970
_symmetry_space_group_name_H-M "C 2"
_symmetry_group_IT_number 5
_symmetry_cell_setting 'monoclinic'
loop_
_space_group_symop_operation_xyz
x,y,z
-x,y,-z
1/2+x,1/2+y,z
1/2-x,1/2+y,-z
loop_
_atom_site_type_symbol
_atom_site_label
_atom_site_fract_x
_atom_site_fract_y
_atom_site_fract_z
Si Si1 0.209729 0.949680 0.103489
Si Si2 0.163329 0.445908 0.284277
Si Si3 0.745725 0.158879 0.022891
Si Si4 0.519718 0.666289 0.776414
Si Si5 0.500000 0.195157 0.000000
Si Si6 0.848838 0.983588 0.531299
O O1 0.292153 0.892905 0.446408
O O2 0.176758 0.805009 0.916575
O O3 0.284750 0.071473 0.198474
O O4 0.095631 0.041842 0.879401
O O5 0.279430 0.513415 0.498081
O O6 0.103434 0.309638 0.038828
O O7 0.067932 0.584490 0.064577
O O8 0.889550 0.213220 0.371423
O O9 0.752807 0.024492 0.161367
O O10 0.464230 0.582858 0.772024
O O11 0.399868 0.309304 0.674692
#
# Coordination Sequence:
#
# PCOD9129100 Si02
#       6
#     4   4   4   4   2   4
#     4  12  26  47  80 108 154 204 256 313 388 456
#     4  12  27  44  79 114 146 196 260 323 367 459
#     4  10  28  48  74 105 155 207 247 312 387 459
#     4  10  26  50  74 108 156 203 248 316 384 453
#     4  12  26  40  74 114 148 192 252 310 376 446
#     4  10  27  45  74 108 152 200 254 311 379 454
#
# _framework density 24.881644000000001
#
# number of rings (size 3 to 8) (size 9 to 14) (size 15 to 20)
#    1.091    0.000    0.000    3.818   15.273    0.000 
#    0.000    0.000    0.000    0.000    0.000    0.000 
#    0.000    0.000    0.000    0.000    0.000    0.000 
#
# Total GULP energy -61515.303351 kJ/mol
# GULP energy per Si atom -5592.300305 kJ/mol
# Density = 2.482501 g / cm^3
# Si number density = 24.881644 Si / 1000 Ang^3
#
#
#
# Elastic Constant Matrix: (Units=GPa)
#
#
# Indices 1 2 3 4 5 6 
#
# 1 166.7570 65.6896 24.1041 0.0000 10.6309 0.0000
# 2 65.6896 134.8150 32.0775 0.0000 16.7724 0.0000
# 3 24.1041 32.0775 37.3618 0.0000 2.5168 0.0000
# 4 0.0000 0.0000 0.0000 38.8176 0.0000 7.3734
# 5 10.6309 16.7724 2.5168 0.0000 41.0052 0.0000
# 6 0.0000 0.0000 0.0000 7.3734 0.0000 41.2164
#
#
#
# Elastic Compliance Matrix: (Units=1/GPa)
#
#
# Indices 1 2 3 4 5 6 
#
# 1 0.007569 -0.003098 -0.002185 0.000000 -0.000561 0.000000
# 2 -0.003098 0.011068 -0.007283 0.000000 -0.003277 0.000000
# 3 -0.002185 -0.007283 0.034331 0.000000 0.001438 0.000000
# 4 0.000000 0.000000 0.000000 0.026668 0.000000 -0.004771
# 5 -0.000561 -0.003277 0.001438 0.000000 0.025785 0.000000
# 6 0.000000 0.000000 0.000000 -0.004771 0.000000 0.025116
#
#
# Mechanical properties :
#
#
# Convention : Reuss Voigt Hill
#
# Bulk Modulus (GPa) = 35.92596 64.74180 50.33388
# Shear Modulus (GPa) = 30.31287 38.67867 34.49577
#
# Velocity S-wave (km/s) = 3.49418 3.94700 3.72747
# Velocity P-wave (km/s) = 5.54519 6.84457 6.22885
#
# Compressibility (1/GPa) = 0.02783502
#
# Stress axis : x y z
#
# Youngs Moduli (GPa) = 132.12047 90.35282 29.12819
#
# Poissons Ratio (x) = 0.27993 0.06365
# Poissons Ratio (y) = 0.40934 0.21213
# Poissons Ratio (z) = 0.28872 0.65802
#
# Static dielectric constant tensor:
#      x y z
#    x 1.931820 0.000000 -0.043190 
#    y 0.000000 1.962970 0.000000 
#    z -0.043190 0.000000 2.049360 
# 
# From -- ./inp_files/26392.got.cif
#   From: 2010.05.17/outbox.cif.g08.bks.cpg/sg5_14_cif.got.tgz:26392.got - 2010.06.03 18:56:24.
