data_PCOD9129672
_publ_section_title
;
Structure prediction by ZEFSAII (Michael W. Deem and Ramdas Pophale) SiO2 
 PCOD9129672
Probable space group: C 2
;
_chemical_formula_sum "Si O2"
_cell_formula_units_Z 30
_cell_length_a 14.521171
_cell_length_b 5.427544
_cell_length_c 16.685968
_cell_angle_alpha 90.000000
_cell_angle_beta 105.448321
_cell_angle_gamma 90.000000
_cell_volume 1267.579943
_symmetry_space_group_name_H-M "C 2"
_symmetry_group_IT_number 5
_symmetry_cell_setting 'monoclinic'
loop_
_space_group_symop_operation_xyz
x,y,z
-x,y,-z
1/2+x,1/2+y,z
1/2-x,1/2+y,-z
loop_
_atom_site_type_symbol
_atom_site_label
_atom_site_fract_x
_atom_site_fract_y
_atom_site_fract_z
Si Si1 0.889823 0.995430 0.842250
Si Si2 0.196705 0.641617 0.515612
Si Si3 0.575806 0.373814 0.800110
Si Si4 0.757216 0.631011 0.865549
Si Si5 0.354292 0.010024 0.053837
Si Si6 0.000000 0.208099 0.000000
Si Si7 0.918840 0.697248 0.654486
Si Si8 0.190470 0.203179 0.315432
O O1 0.845047 0.724325 0.832530
O O2 0.986479 0.025601 0.814383
O O3 0.812944 0.167517 0.781055
O O4 0.918405 0.048972 0.939565
O O5 0.236091 0.365675 0.504125
O O6 0.097235 0.675018 0.445199
O O7 0.209804 0.686490 0.613521
O O8 0.669018 0.521032 0.795511
O O9 0.523407 0.212673 0.719762
O O10 0.614283 0.250534 0.891189
O O11 0.709043 0.868293 0.896575
O O12 0.800692 0.507046 0.955799
O O13 0.452785 0.876684 0.055648
O O14 0.864130 0.454223 0.674450
O O15 0.865210 0.954777 0.665879
#
# Coordination Sequence:
#
# PCOD9129672 Si02
#       8
#     4   4   4   4   4   2   4   4
#     4  11  23  39  59  90 123 167 217 266 332 389
#     4   8  14  28  52  85 123 158 197 262 319 381
#     4  11  23  40  59  85 126 161 216 272 324 395
#     4  12  24  40  58  86 124 169 219 270 333 389
#     4  12  23  41  58  82 121 162 217 271 324 396
#     4  12  22  38  64  84 124 166 220 274 328 392
#     4   9  18  32  58  88 126 161 208 265 326 382
#     4   9  18  34  55  88 130 158 209 265 322 392
#
# _framework density 23.667147
#
# number of rings (size 3 to 8) (size 9 to 14) (size 15 to 20)
#    0.000    1.600    2.667    3.200    1.867    1.067 
#    0.000    0.000    0.000    0.000    0.000    0.933 
#   20.000    0.000    0.000    0.000    0.000    0.000 
#
# Total GULP energy -83572.153531 kJ/mol
# GULP energy per Si atom -5571.476902 kJ/mol
# Density = 2.361328 g / cm^3
# Si number density = 23.667147 Si / 1000 Ang^3
#
#
#
# Elastic Constant Matrix: (Units=GPa)
#
#
# Indices 1 2 3 4 5 6 
#
# 1 59.5056 16.2239 29.8953 0.0000 15.3238 0.0000
# 2 16.2239 77.9871 16.8295 0.0000 5.6952 0.0000
# 3 29.8953 16.8295 151.4100 0.0000 50.0020 0.0000
# 4 0.0000 0.0000 0.0000 31.6570 0.0000 7.5084
# 5 15.3238 5.6952 50.0020 0.0000 28.3761 0.0000
# 6 0.0000 0.0000 0.0000 7.5084 0.0000 26.8050
#
#
#
# Elastic Compliance Matrix: (Units=1/GPa)
#
#
# Indices 1 2 3 4 5 6 
#
# 1 0.020436 -0.003447 -0.000564 0.000000 -0.009350 0.000000
# 2 -0.003447 0.013719 -0.001315 0.000000 0.001425 0.000000
# 3 -0.000564 -0.001315 0.015965 0.000000 -0.027563 0.000000
# 4 0.000000 0.000000 0.000000 0.033837 0.000000 -0.009478
# 5 -0.009350 0.001425 -0.027563 0.000000 0.088573 0.000000
# 6 0.000000 0.000000 0.000000 -0.009478 0.000000 0.039961
#
#
# Mechanical properties :
#
#
# Convention : Reuss Voigt Hill
#
# Bulk Modulus (GPa) = 25.33673 46.08892 35.71282
# Shear Modulus (GPa) = 21.15963 32.43123 26.79543
#
# Velocity S-wave (km/s) = 2.99331 3.70578 3.36844
# Velocity P-wave (km/s) = 4.76185 6.15032 5.50008
#
# Compressibility (1/GPa) = 0.03946840
#
# Stress axis : x y z
#
# Youngs Moduli (GPa) = 48.93286 72.88951 62.63888
#
# Poissons Ratio (x) = 0.25124 0.03533
# Poissons Ratio (y) = 0.16866 0.08237
# Poissons Ratio (z) = 0.02760 0.09585
#
# Static dielectric constant tensor:
#      x y z
#    x 1.937420 0.000000 0.060010 
#    y 0.000000 1.995190 0.000000 
#    z 0.060010 0.000000 2.080370 
# 
# From -- ./inp_files/61239.got.cif
#   From: 2010.05.17/outbox.cif.g08.bks.cpg/sg5_31_cif.got.tgz:61239.got - 2010.06.03 18:56:24.
