data_PCOD9129960
_publ_section_title
;
Structure prediction by ZEFSAII (Michael W. Deem and Ramdas Pophale) SiO2 
 PCOD9129960
Probable space group: C 2
;
_chemical_formula_sum "Si O2"
_cell_formula_units_Z 16
_cell_length_a 7.154194
_cell_length_b 7.235571
_cell_length_c 14.352753
_cell_angle_alpha 90.000000
_cell_angle_beta 121.245316
_cell_angle_gamma 90.000000
_cell_volume 635.201658
_symmetry_space_group_name_H-M "C 2"
_symmetry_group_IT_number 5
_symmetry_cell_setting 'monoclinic'
loop_
_space_group_symop_operation_xyz
x,y,z
-x,y,-z
1/2+x,1/2+y,z
1/2-x,1/2+y,-z
loop_
_atom_site_type_symbol
_atom_site_label
_atom_site_fract_x
_atom_site_fract_y
_atom_site_fract_z
Si Si1 0.834546 0.634100 0.790568
Si Si2 0.267472 0.807410 0.891853
Si Si3 0.733132 0.893382 0.604265
Si Si4 0.708239 0.277678 0.672899
O O1 0.723941 0.519240 0.845884
O O2 0.737044 0.803713 0.708424
O O3 0.832809 0.474136 0.708836
O O4 0.065558 0.708389 0.888655
O O5 0.268485 0.706854 0.792161
O O6 0.500000 0.796347 0.000000
O O7 0.500000 0.849904 0.500000
O O8 0.949040 0.821014 0.607302
O O9 0.760676 0.114298 0.617501
#
# Coordination Sequence:
#
# PCOD9129960 Si02
#       4
#     4   4   4   4
#     4   9  22  44  64  97 134 162 223 263 318 388
#     4   9  20  43  67  97 127 175 209 267 324 382
#     4  11  24  43  68  95 131 174 213 267 324 380
#     4   9  24  42  65  97 132 163 225 261 318 388
#
# _framework density 25.188853000000002
#
# number of rings (size 3 to 8) (size 9 to 14) (size 15 to 20)
#    1.500    1.000    0.000    0.000    3.500    9.000 
#    0.000    1.250    0.000    0.000    0.000    0.000 
#    0.000    0.000    0.000    0.000    0.000    0.000 
#
# Total GULP energy -44598.253897 kJ/mol
# GULP energy per Si atom -5574.781737 kJ/mol
# Density = 2.513152 g / cm^3
# Si number density = 25.188853 Si / 1000 Ang^3
#
#
#
# Elastic Constant Matrix: (Units=GPa)
#
#
# Indices 1 2 3 4 5 6 
#
# 1 90.5177 63.1622 32.0299 0.0000 32.2561 0.0000
# 2 63.1622 141.1624 36.5066 0.0000 11.9920 0.0000
# 3 32.0299 36.5066 126.7573 0.0000 44.4040 0.0000
# 4 0.0000 0.0000 0.0000 27.9263 0.0000 6.0779
# 5 32.2561 11.9920 44.4040 0.0000 36.5725 0.0000
# 6 0.0000 0.0000 0.0000 6.0779 0.0000 50.5299
#
#
#
# Elastic Compliance Matrix: (Units=1/GPa)
#
#
# Indices 1 2 3 4 5 6 
#
# 1 0.026019 -0.010903 0.005833 0.000000 -0.026455 0.000000
# 2 -0.010903 0.012225 -0.004751 0.000000 0.011376 0.000000
# 3 0.005833 -0.004751 0.015730 0.000000 -0.022685 0.000000
# 4 0.000000 0.000000 0.000000 0.036771 0.000000 -0.004423
# 5 -0.026455 0.011376 -0.022685 0.000000 0.074489 0.000000
# 6 0.000000 0.000000 0.000000 -0.004423 0.000000 0.020322
#
#
# Mechanical properties :
#
#
# Convention : Reuss Voigt Hill
#
# Bulk Modulus (GPa) = 29.12742 69.09276 49.11009
# Shear Modulus (GPa) = 23.07958 38.12166 30.60062
#
# Velocity S-wave (km/s) = 3.03027 3.89451 3.48925
# Velocity P-wave (km/s) = 4.88181 6.90741 5.98099
#
# Compressibility (1/GPa) = 0.03433191
#
# Stress axis : x y z
#
# Youngs Moduli (GPa) = 38.43376 81.80140 63.57144
#
# Poissons Ratio (x) = 0.89188 -0.37080
# Poissons Ratio (y) = 0.41904 0.30201
# Poissons Ratio (z) = -0.22418 0.38862
#
# Static dielectric constant tensor:
#      x y z
#    x 2.098550 0.000000 -0.002180 
#    y 0.000000 1.984480 0.000000 
#    z -0.002180 0.000000 1.990200 
# 
# From -- ./inp_files/49713.got.cif
#   From: 2010.05.17/outbox.cif.g08.bks.cpg/sg5_25_cif.got.tgz:49713.got - 2010.06.03 18:56:24.
