data_PCOD9129004
_publ_section_title
;
Structure prediction by ZEFSAII (Michael W. Deem and Ramdas Pophale) SiO2 
 PCOD9129004
Probable space group: C 2
;
_chemical_formula_sum "Si O2"
_cell_formula_units_Z 26
_cell_length_a 9.624367
_cell_length_b 12.567978
_cell_length_c 13.975174
_cell_angle_alpha 90.000000
_cell_angle_beta 136.353004
_cell_angle_gamma 90.000000
_cell_volume 1166.750878
_symmetry_space_group_name_H-M "C 2"
_symmetry_group_IT_number 5
_symmetry_cell_setting 'monoclinic'
loop_
_space_group_symop_operation_xyz
x,y,z
-x,y,-z
1/2+x,1/2+y,z
1/2-x,1/2+y,-z
loop_
_atom_site_type_symbol
_atom_site_label
_atom_site_fract_x
_atom_site_fract_y
_atom_site_fract_z
Si Si1 0.767280 0.922680 0.161562
Si Si2 0.110262 0.527787 0.915096
Si Si3 0.932823 0.022102 0.574019
Si Si4 0.137707 0.210956 0.991567
Si Si5 0.926245 0.231584 0.680334
Si Si6 0.500000 0.128217 0.500000
Si Si7 0.527262 0.962335 0.664627
O O1 0.965337 0.922980 0.322623
O O2 0.594425 0.981772 0.139331
O O3 0.701433 0.809344 0.090171
O O4 0.785629 0.987072 0.072207
O O5 0.122191 0.486164 0.814265
O O6 0.155298 0.652269 0.933465
O O7 0.696548 0.010355 0.451427
O O8 0.000000 0.029790 0.500000
O O9 0.004963 0.125414 0.667824
O O10 0.017769 0.239774 0.834004
O O11 0.000000 0.146483 0.000000
O O12 0.684839 0.207668 0.563806
O O13 0.992429 0.334734 0.650728
O O14 0.615840 0.040916 0.627422
#
# Coordination Sequence:
#
# PCOD9129004 Si02
#       7
#     4   4   4   4   4   2   4
#     4  11  22  44  67  98 135 172 222 279 327 398
#     4  11  22  40  69  96 130 175 223 270 334 392
#     4  11  24  42  69  98 133 174 225 277 333 404
#     4  12  23  40  73  95 132 179 221 274 338 393
#     4  11  24  43  66  96 131 182 217 274 342 390
#     4  10  26  44  62 102 136 166 234 272 326 412
#     4  11  23  42  68  94 134 174 218 283 329 391
#
# _framework density 22.284103999999999
#
# number of rings (size 3 to 8) (size 9 to 14) (size 15 to 20)
#    0.000    0.923    6.154    0.923    2.154    2.462 
#    0.000    0.000    3.385    0.000    0.000    0.000 
#    0.000    0.000    0.000    0.000    0.000    0.000 
#
# Total GULP energy -72402.966440 kJ/mol
# GULP energy per Si atom -5569.458957 kJ/mol
# Density = 2.223338 g / cm^3
# Si number density = 22.284104 Si / 1000 Ang^3
#
#
#
# Elastic Constant Matrix: (Units=GPa)
#
#
# Indices 1 2 3 4 5 6 
#
# 1 14.1268 13.6781 17.7626 0.0000 -6.8344 0.0000
# 2 13.6781 101.6374 33.0988 0.0000 3.4720 0.0000
# 3 17.7626 33.0988 92.6720 0.0000 -29.1345 0.0000
# 4 0.0000 0.0000 0.0000 37.9743 0.0000 -1.1072
# 5 -6.8344 3.4720 -29.1345 0.0000 32.6464 -0.0001
# 6 0.0000 0.0000 0.0000 -1.1072 -0.0001 42.9459
#
#
#
# Elastic Compliance Matrix: (Units=1/GPa)
#
#
# Indices 1 2 3 4 5 6 
#
# 1 0.101449 -0.010034 -0.012299 0.000000 0.011329 0.000000
# 2 -0.010034 0.013245 -0.005436 0.000000 -0.008360 0.000000
# 3 -0.012299 -0.005436 0.020102 0.000000 0.015942 0.000000
# 4 0.000000 0.000000 0.000000 0.026353 0.000000 0.000679
# 5 0.011329 -0.008360 0.015942 0.000000 0.048119 0.000000
# 6 0.000000 0.000000 0.000000 0.000679 0.000000 0.023303
#
#
# Mechanical properties :
#
#
# Convention : Reuss Voigt Hill
#
# Bulk Modulus (GPa) = 12.61723 37.50167 25.05945
# Shear Modulus (GPa) = 15.89681 32.30643 24.10162
#
# Velocity S-wave (km/s) = 2.67380 3.81169 3.29228
# Velocity P-wave (km/s) = 3.89955 6.01975 5.07168
#
# Compressibility (1/GPa) = 0.07925669
#
# Stress axis : x y z
#
# Youngs Moduli (GPa) = 9.85719 75.50018 49.74725
#
# Poissons Ratio (x) = 0.75759 0.61187
# Poissons Ratio (y) = 0.09891 0.27041
# Poissons Ratio (z) = 0.12124 0.41039
#
# Static dielectric constant tensor:
#      x y z
#    x 1.868610 0.000000 0.009090 
#    y 0.000000 1.960410 0.000000 
#    z 0.009090 0.000000 1.797260 
# 
# From -- ./inp_files/52760.got.cif
#   From: 2010.05.17/outbox.cif.g08.bks.cpg/sg5_27_cif.got.tgz:52760.got - 2010.06.03 18:56:24.
