data_PCOD9129025
_publ_section_title
;
Structure prediction by ZEFSAII (Michael W. Deem and Ramdas Pophale) SiO2 
 PCOD9129025
Probable space group: C 2
;
_chemical_formula_sum "Si O2"
_cell_formula_units_Z 16
_cell_length_a 12.964678
_cell_length_b 9.430652
_cell_length_c 14.087919
_cell_angle_alpha 90.000000
_cell_angle_beta 19.047656
_cell_angle_gamma 90.000000
_cell_volume 562.134034
_symmetry_space_group_name_H-M "C 2"
_symmetry_group_IT_number 5
_symmetry_cell_setting 'monoclinic'
loop_
_space_group_symop_operation_xyz
x,y,z
-x,y,-z
1/2+x,1/2+y,z
1/2-x,1/2+y,-z
loop_
_atom_site_type_symbol
_atom_site_label
_atom_site_fract_x
_atom_site_fract_y
_atom_site_fract_z
Si Si1 0.664888 0.982940 0.260332
Si Si2 0.840881 0.228846 0.961567
Si Si3 0.788473 0.212542 0.587845
Si Si4 0.058535 0.897156 0.561516
O O1 0.500000 0.043871 0.500000
O O2 0.418739 0.865383 0.440362
O O3 0.775718 0.093422 0.084424
O O4 0.000000 0.915163 0.000000
O O5 0.591790 0.224684 0.091753
O O6 0.747097 0.360427 0.111134
O O7 0.153193 0.056725 0.506549
O O8 0.200539 0.266799 0.626900
O O9 0.000000 0.202359 0.500000
O O10 0.000000 0.893378 0.500000
#
# Coordination Sequence:
#
# PCOD9129025 Si02
#       4
#     4   4   4   4
#     4  11  24  44  70 101 136 178 228 283 338 402
#     4  12  24  44  71 100 134 179 228 278 337 403
#     4  10  26  45  67  99 140 180 225 278 339 403
#     4  11  25  45  69 100 136 177 224 281 341 404
#
# _framework density 28.462965000000001
#
# number of rings (size 3 to 8) (size 9 to 14) (size 15 to 20)
#    0.000    1.000    0.000    6.000    0.000   18.000 
#    0.000    0.000    0.000    0.000    0.000    0.000 
#    0.000    0.000    0.000    0.000    0.000    0.000 
#
# Total GULP energy -44790.075583 kJ/mol
# GULP energy per Si atom -5598.759448 kJ/mol
# Density = 2.839818 g / cm^3
# Si number density = 28.462965 Si / 1000 Ang^3
#
#
#
# Elastic Constant Matrix: (Units=GPa)
#
#
# Indices 1 2 3 4 5 6 
#
# 1 160.1263 49.4725 23.6885 -0.0809 -10.8895 0.0014
# 2 49.4725 185.4900 22.2693 -0.2384 -10.6546 0.0590
# 3 23.6885 22.2693 108.8111 -0.2535 -22.9911 0.0546
# 4 -0.0809 -0.2384 -0.2535 44.3599 0.0674 -4.3747
# 5 -10.8895 -10.6546 -22.9911 0.0674 49.7652 -0.0157
# 6 0.0014 0.0590 0.0546 -4.3747 -0.0157 58.3975
#
#
#
# Elastic Compliance Matrix: (Units=1/GPa)
#
#
# Indices 1 2 3 4 5 6 
#
# 1 0.006967 -0.001696 -0.001024 -0.000003 0.000688 0.000002
# 2 -0.001696 0.005964 -0.000731 0.000024 0.000568 -0.000003
# 3 -0.001024 -0.000731 0.010508 0.000047 0.004474 -0.000004
# 4 -0.000003 0.000024 0.000047 0.022711 -0.000004 0.001701
# 5 0.000688 0.000568 0.004474 -0.000004 0.022434 0.000001
# 6 0.000002 -0.000003 -0.000004 0.001701 0.000001 0.017251
#
#
# Mechanical properties :
#
#
# Convention : Reuss Voigt Hill
#
# Bulk Modulus (GPa) = 60.47168 71.69868 66.08518
# Shear Modulus (GPa) = 50.89022 54.43766 52.66394
#
# Velocity S-wave (km/s) = 4.23300 4.37805 4.30613
# Velocity P-wave (km/s) = 6.72182 7.12750 6.92763
#
# Compressibility (1/GPa) = 0.01653667
#
# Stress axis : x y z
#
# Youngs Moduli (GPa) = 143.52694 167.67657 95.16232
#
# Poissons Ratio (x) = 0.28434 0.09748
# Poissons Ratio (y) = 0.24339 0.06960
# Poissons Ratio (z) = 0.14702 0.12263
#
# Static dielectric constant tensor:
#      x y z
#    x 2.338860 -0.000030 0.131210 
#    y -0.000030 2.169970 0.000030 
#    z 0.131210 0.000030 2.172440 
# 
# From -- ./inp_files/54651.got.cif
#   From: 2010.05.17/outbox.cif.g08.bks.cpg/sg5_28_cif.got.tgz:54651.got - 2010.06.03 18:56:24.
