data_PCOD9129719
_publ_section_title
;
Structure prediction by ZEFSAII (Michael W. Deem and Ramdas Pophale) SiO2 
 PCOD9129719
Probable space group: C 2
;
_chemical_formula_sum "Si O2"
_cell_formula_units_Z 26
_cell_length_a 23.854515
_cell_length_b 5.117282
_cell_length_c 8.983737
_cell_angle_alpha 90.000000
_cell_angle_beta 80.283868
_cell_angle_gamma 90.000000
_cell_volume 1080.916974
_symmetry_space_group_name_H-M "C 2"
_symmetry_group_IT_number 5
_symmetry_cell_setting 'monoclinic'
loop_
_space_group_symop_operation_xyz
x,y,z
-x,y,-z
1/2+x,1/2+y,z
1/2-x,1/2+y,-z
loop_
_atom_site_type_symbol
_atom_site_label
_atom_site_fract_x
_atom_site_fract_y
_atom_site_fract_z
Si Si1 0.500000 0.987890 0.500000
Si Si2 0.098190 0.111498 0.524788
Si Si3 0.234082 0.880660 0.098650
Si Si4 0.012231 0.856954 0.778664
Si Si5 0.611104 0.148944 0.921980
Si Si6 0.107809 0.878163 0.217268
Si Si7 0.829701 0.159171 0.246685
O O1 0.559235 0.828833 0.465357
O O2 0.501663 0.151111 0.650809
O O3 0.157239 0.162807 0.582498
O O4 0.057360 0.044656 0.680627
O O5 0.103583 0.888445 0.397400
O O6 0.171027 0.987290 0.161150
O O7 0.267404 0.758451 0.225068
O O8 0.234585 0.629612 0.987970
O O9 0.048367 0.722406 0.891280
O O10 0.951189 0.998072 0.821717
O O11 0.651404 0.382750 0.836119
O O12 0.630602 0.879734 0.844078
O O13 0.610422 0.134449 0.101726
#
# Coordination Sequence:
#
# PCOD9129719 Si02
#       7
#     2   4   4   4   4   4   4
#     4  12  18  40  70  94 150 186 228 284 378 436
#     4  11  24  42  68 103 149 182 235 303 371 441
#     4  12  25  48  72 100 143 192 245 306 354 428
#     4  11  23  42  62 106 142 186 227 303 368 439
#     4  11  24  42  72 100 147 182 239 297 363 435
#     4  12  23  44  71 106 137 189 250 292 363 440
#     4  11  23  48  67 101 142 195 227 302 369 419
#
# _framework density 24.053653000000001
#
# number of rings (size 3 to 8) (size 9 to 14) (size 15 to 20)
#    0.000    0.615    7.692    0.462    0.000    2.462 
#    0.000    7.692    0.000    0.000    0.000    0.000 
#    0.000    0.000    0.000    0.000    0.000    0.000 
#
# Total GULP energy -72432.702421 kJ/mol
# GULP energy per Si atom -5571.746340 kJ/mol
# Density = 2.399891 g / cm^3
# Si number density = 24.053653 Si / 1000 Ang^3
#
#
#
# Elastic Constant Matrix: (Units=GPa)
#
#
# Indices 1 2 3 4 5 6 
#
# 1 143.4080 1.1670 34.7601 0.0000 21.8345 0.0000
# 2 1.1670 99.2946 24.0842 0.0000 11.7788 0.0000
# 3 34.7601 24.0842 93.5961 0.0000 33.4406 0.0000
# 4 0.0000 0.0000 0.0000 19.3742 0.0000 9.9219
# 5 21.8345 11.7788 33.4406 0.0000 57.1752 0.0000
# 6 0.0000 0.0000 0.0000 9.9219 0.0000 28.2967
#
#
#
# Elastic Compliance Matrix: (Units=1/GPa)
#
#
# Indices 1 2 3 4 5 6 
#
# 1 0.007826 0.000711 -0.002490 0.000000 -0.001679 0.000000
# 2 0.000711 0.010832 -0.002727 0.000000 -0.000908 0.000000
# 3 -0.002490 -0.002727 0.014879 0.000000 -0.007190 0.000000
# 4 0.000000 0.000000 0.000000 0.062912 0.000000 -0.022059
# 5 -0.001679 -0.000908 -0.007190 0.000000 0.022524 0.000000
# 6 0.000000 0.000000 0.000000 -0.022059 0.000000 0.043075
#
#
# Mechanical properties :
#
#
# Convention : Reuss Voigt Hill
#
# Bulk Modulus (GPa) = 40.77166 50.70236 45.73701
# Shear Modulus (GPa) = 27.89637 39.38839 33.64238
#
# Velocity S-wave (km/s) = 3.40921 4.05102 3.74390
# Velocity P-wave (km/s) = 5.69948 6.55787 6.14368
#
# Compressibility (1/GPa) = 0.02452684
#
# Stress axis : x y z
#
# Youngs Moduli (GPa) = 127.77203 92.32058 67.20685
#
# Poissons Ratio (x) = -0.06565 0.16732
# Poissons Ratio (y) = -0.09086 0.18326
# Poissons Ratio (z) = 0.31811 0.25175
#
# Static dielectric constant tensor:
#      x y z
#    x 2.116710 0.000000 0.030980 
#    y 0.000000 1.902290 0.000000 
#    z 0.030980 0.000000 1.963810 
# 
# From -- ./inp_files/31367.got.cif
#   From: 2010.05.17/outbox.cif.g08.bks.cpg/sg5_16_cif.got.tgz:31367.got - 2010.06.03 18:56:24.
