data_PCOD9129344
_publ_section_title
;
Structure prediction by ZEFSAII (Michael W. Deem and Ramdas Pophale) SiO2 
 PCOD9129344
Probable space group: C 2
;
_chemical_formula_sum "Si O2"
_cell_formula_units_Z 32
_cell_length_a 29.477637
_cell_length_b 11.597178
_cell_length_c 9.849608
_cell_angle_alpha 90.000000
_cell_angle_beta 30.892470
_cell_angle_gamma 90.000000
_cell_volume 1728.796560
_symmetry_space_group_name_H-M "C 2"
_symmetry_group_IT_number 5
_symmetry_cell_setting 'monoclinic'
loop_
_space_group_symop_operation_xyz
x,y,z
-x,y,-z
1/2+x,1/2+y,z
1/2-x,1/2+y,-z
loop_
_atom_site_type_symbol
_atom_site_label
_atom_site_fract_x
_atom_site_fract_y
_atom_site_fract_z
Si Si1 0.673776 0.250000 0.770455
Si Si2 0.407576 0.489992 0.061628
Si Si3 0.886521 0.971315 0.440556
Si Si4 0.020362 0.570649 0.100693
Si Si5 0.217761 0.614793 0.927494
Si Si6 0.156118 0.707642 0.370169
Si Si7 0.418698 0.916559 0.810225
Si Si8 0.195108 0.204562 0.799631
O O1 0.627116 0.371594 0.913858
O O2 0.709365 0.194903 0.816958
O O3 0.751852 0.262036 0.461395
O O4 0.600963 0.162294 0.895239
O O5 0.384575 0.480471 0.281303
O O6 0.359271 0.598026 0.119632
O O7 0.513015 0.497721 0.776498
O O8 0.862256 0.841525 0.548024
O O9 0.814669 0.058835 0.684838
O O10 0.046392 0.470407 0.137954
O O11 0.934161 0.637621 0.375799
O O12 0.000000 0.531657 0.000000
O O13 0.190587 0.684697 0.130511
O O14 0.148835 0.510021 0.079945
O O15 0.231196 0.665942 0.281635
O O16 0.500000 0.900443 0.500000
O O17 0.367063 0.799300 0.972060
#
# Coordination Sequence:
#
# PCOD9129344 Si02
#       8
#     4   4   4   4   4   4   4   4
#     4  11  22  40  69  99 131 168 228 279 324 392
#     4  11  23  43  70  99 129 173 227 280 329 392
#     4  11  22  44  68  96 137 172 220 278 332 389
#     4  11  21  40  69 102 124 170 235 277 314 395
#     4  11  24  43  68  99 135 177 218 276 338 392
#     4  12  23  41  70 100 131 177 226 268 334 400
#     4  11  24  44  65  95 145 173 209 277 344 391
#     4  12  25  42  68 100 135 177 216 273 347 396
#
# _framework density 18.509986000000001
#
# number of rings (size 3 to 8) (size 9 to 14) (size 15 to 20)
#    0.000    0.750    7.500    0.000    1.750    2.000 
#    2.250    3.750    0.000    0.000    0.000    0.000 
#    0.000    0.000    0.000    0.000    0.000    0.000 
#
# Total GULP energy -89457.656283 kJ/mol
# GULP energy per Si atom -5591.103518 kJ/mol
# Density = 1.846786 g / cm^3
# Si number density = 18.509986 Si / 1000 Ang^3
#
#
#
# Elastic Constant Matrix: (Units=GPa)
#
#
# Indices 1 2 3 4 5 6 
#
# 1 85.3035 34.3623 32.8621 0.0000 -3.7325 0.0000
# 2 34.3623 44.4919 17.6541 0.0000 -8.6691 0.0000
# 3 32.8621 17.6541 118.2484 0.0000 -1.9466 0.0000
# 4 0.0000 0.0000 0.0000 25.2800 0.0000 -3.5832
# 5 -3.7325 -8.6691 -1.9466 0.0000 28.6116 0.0000
# 6 0.0000 0.0000 0.0000 -3.5832 0.0000 25.8734
#
#
#
# Elastic Compliance Matrix: (Units=1/GPa)
#
#
# Indices 1 2 3 4 5 6 
#
# 1 0.018126 -0.013121 -0.003108 0.000000 -0.001822 0.000000
# 2 -0.013121 0.034878 -0.001417 0.000000 0.008760 0.000000
# 3 -0.003108 -0.001417 0.009529 0.000000 -0.000186 0.000000
# 4 0.000000 0.000000 0.000000 0.040349 0.000000 0.005588
# 5 -0.001822 0.008760 -0.000186 0.000000 0.037355 0.000000
# 6 0.000000 0.000000 0.000000 0.005588 0.000000 0.039424
#
#
# Mechanical properties :
#
#
# Convention : Reuss Voigt Hill
#
# Bulk Modulus (GPa) = 36.70849 46.42229 41.56539
# Shear Modulus (GPa) = 22.31812 26.83070 24.57441
#
# Velocity S-wave (km/s) = 3.47614 3.81139 3.64762
# Velocity P-wave (km/s) = 5.99884 6.67106 6.34386
#
# Compressibility (1/GPa) = 0.02724165
#
# Stress axis : x y z
#
# Youngs Moduli (GPa) = 55.16939 28.67096 104.94211
#
# Poissons Ratio (x) = 0.37619 0.32621
# Poissons Ratio (y) = 0.72387 0.14867
# Poissons Ratio (z) = 0.17149 0.04062
#
# Static dielectric constant tensor:
#      x y z
#    x 1.623650 0.000000 -0.001690 
#    y 0.000000 1.604980 0.000000 
#    z -0.001690 0.000000 1.627720 
# 
# From -- ./inp_files/29601.got.cif
#   From: 2010.05.17/outbox.cif.g08.bks.cpg/sg5_15_cif.got.tgz:29601.got - 2010.06.03 18:56:24.
