data_PCOD9129178
_publ_section_title
;
Structure prediction by ZEFSAII (Michael W. Deem and Ramdas Pophale) SiO2 
 PCOD9129178
Probable space group: C 2
;
_chemical_formula_sum "Si O2"
_cell_formula_units_Z 20
_cell_length_a 17.906373
_cell_length_b 5.006153
_cell_length_c 13.008470
_cell_angle_alpha 90.000000
_cell_angle_beta 122.918928
_cell_angle_gamma 90.000000
_cell_volume 978.876315
_symmetry_space_group_name_H-M "C 2"
_symmetry_group_IT_number 5
_symmetry_cell_setting 'monoclinic'
loop_
_space_group_symop_operation_xyz
x,y,z
-x,y,-z
1/2+x,1/2+y,z
1/2-x,1/2+y,-z
loop_
_atom_site_type_symbol
_atom_site_label
_atom_site_fract_x
_atom_site_fract_y
_atom_site_fract_z
Si Si1 0.481220 0.389810 0.093654
Si Si2 0.069661 0.209323 0.329354
Si Si3 0.229473 0.133679 0.289984
Si Si4 0.649436 0.131411 0.135101
Si Si5 0.924227 0.711169 0.526502
O O1 0.494173 0.587702 0.197080
O O2 0.562089 0.174321 0.143719
O O3 0.500000 0.549891 0.000000
O O4 0.390258 0.231845 0.003505
O O5 0.161047 0.172051 0.333752
O O6 0.062320 0.504218 0.369440
O O7 0.071198 0.009035 0.426328
O O8 0.193538 0.346164 0.179562
O O9 0.328052 0.173728 0.403736
O O10 0.217914 0.844050 0.232244
O O11 0.000000 0.663691 0.500000
#
# Coordination Sequence:
#
# PCOD9129178 Si02
#       5
#     4   4   4   4   4
#     4   7  17  34  57  97 120 139 187 259 307 340
#     4  11  21  39  62  89 114 158 203 245 295 358
#     4  11  19  37  59  88 116 152 197 249 290 351
#     4   8  18  30  57  89 119 141 181 245 311 335
#     4  12  26  39  56  84 127 164 200 243 298 353
#
# _framework density 20.431592999999999
#
# number of rings (size 3 to 8) (size 9 to 14) (size 15 to 20)
#    1.200    0.800    0.000    5.400    0.000    8.000 
#    0.000    0.000    0.000    4.800    0.000    0.000 
#    0.000    0.000    0.000    0.000    0.000    0.000 
#
# Total GULP energy -55750.779306 kJ/mol
# GULP energy per Si atom -5575.077931 kJ/mol
# Density = 2.038509 g / cm^3
# Si number density = 20.431593 Si / 1000 Ang^3
#
#
#
# Elastic Constant Matrix: (Units=GPa)
#
#
# Indices 1 2 3 4 5 6 
#
# 1 56.5432 3.1737 30.4453 0.0000 2.2636 0.0000
# 2 3.1737 49.5123 -5.6277 0.0003 0.8722 -0.0001
# 3 30.4453 -5.6277 100.6553 0.0000 5.0296 0.0000
# 4 0.0000 0.0003 0.0000 40.6388 0.0000 -9.2305
# 5 2.2636 0.8722 5.0296 0.0000 -13.4402 -0.0001
# 6 0.0000 -0.0001 0.0000 -9.2305 -0.0001 4.3045
#
#
#
# Elastic Compliance Matrix: (Units=1/GPa)
#
#
# Indices 1 2 3 4 5 6 
#
# 1 0.021331 -0.002137 -0.006620 0.000000 0.000976 0.000000
# 2 -0.002137 0.020500 0.001712 0.000000 0.001611 0.000000
# 3 -0.006620 0.001712 0.011861 0.000000 0.003435 0.000000
# 4 0.000000 0.000000 0.000000 0.047973 0.000000 0.102871
# 5 0.000976 0.001611 0.003435 0.000000 -0.072849 -0.000002
# 6 0.000000 0.000000 0.000000 0.102871 -0.000002 0.452906
#
#
# Mechanical properties :
#
#
# Convention : Reuss Voigt Hill
#
# Bulk Modulus (GPa) = 25.25110 29.18816 27.21963
# Shear Modulus (GPa) = 9.82292 18.21527 14.01909
#
# Velocity S-wave (km/s) = 2.19503 2.98908 2.62228
# Velocity P-wave (km/s) = 4.33704 5.12149 4.74550
#
# Compressibility (1/GPa) = 0.03960223
#
# Stress axis : x y z
#
# Youngs Moduli (GPa) = 46.87994 48.78000 84.30683
#
# Poissons Ratio (x) = 0.10424 0.55814
# Poissons Ratio (y) = 0.10018 -0.14434
# Poissons Ratio (z) = 0.31036 -0.08351
#
# Static dielectric constant tensor:
#      x y z
#    x 1.701980 0.000000 -0.016040 
#    y 0.000000 1.741360 0.000000 
#    z -0.016040 0.000000 1.779280 
# 
# From -- ./inp_files/56275.got.cif
#   From: 2010.05.17/outbox.cif.g08.bks.cpg/sg5_29_cif.got.tgz:56275.got - 2010.06.03 18:56:24.
