data_PCOD9129805
_publ_section_title
;
Structure prediction by ZEFSAII (Michael W. Deem and Ramdas Pophale) SiO2 
 PCOD9129805
Probable space group: C 2
;
_chemical_formula_sum "Si O2"
_cell_formula_units_Z 20
_cell_length_a 8.798378
_cell_length_b 15.659439
_cell_length_c 8.165445
_cell_angle_alpha 90.000000
_cell_angle_beta 124.055680
_cell_angle_gamma 90.000000
_cell_volume 932.068679
_symmetry_space_group_name_H-M "C 2"
_symmetry_group_IT_number 5
_symmetry_cell_setting 'monoclinic'
loop_
_space_group_symop_operation_xyz
x,y,z
-x,y,-z
1/2+x,1/2+y,z
1/2-x,1/2+y,-z
loop_
_atom_site_type_symbol
_atom_site_label
_atom_site_fract_x
_atom_site_fract_y
_atom_site_fract_z
Si Si1 0.000000 0.283260 0.500000
Si Si2 0.215448 0.826596 0.612440
Si Si3 0.623915 0.000249 0.231848
Si Si4 0.000000 0.548961 0.500000
Si Si5 0.303628 0.181227 0.869343
Si Si6 0.802027 0.156968 0.835364
O O1 0.832600 0.321656 0.512320
O O2 0.874935 0.232010 0.293640
O O3 0.310591 0.755299 0.784516
O O4 0.000000 0.802572 0.500000
O O5 0.229803 0.924561 0.676153
O O6 0.519877 0.997794 0.343394
O O7 0.689823 0.097170 0.240892
O O8 0.500000 0.980761 0.000000
O O9 0.181974 0.606480 0.630967
O O10 0.500000 0.229736 0.000000
O O11 0.295279 0.149801 0.049842
O O12 0.000000 0.121243 0.000000
#
# Coordination Sequence:
#
# PCOD9129805 Si02
#       6
#     2   4   4   2   4   4
#     4  12  25  46  75 104 142 190 244 298 353 432
#     4  12  26  45  71 106 145 192 237 299 364 422
#     4  11  25  45  71 103 147 186 234 302 363 421
#     4  12  23  48  73 104 142 182 248 292 353 440
#     4  11  23  44  71 103 134 187 240 290 355 428
#     4  12  23  42  73 101 137 187 236 291 355 425
#
# _framework density 21.457644999999999
#
# number of rings (size 3 to 8) (size 9 to 14) (size 15 to 20)
#    0.000    0.400    7.000    3.600    1.400    0.000 
#    0.000    0.000    0.000    0.000    0.000    0.000 
#    0.000    0.000    0.000    0.000    0.000    0.000 
#
# Total GULP energy -55682.059757 kJ/mol
# GULP energy per Si atom -5568.205976 kJ/mol
# Density = 2.140881 g / cm^3
# Si number density = 21.457645 Si / 1000 Ang^3
#
#
#
# Elastic Constant Matrix: (Units=GPa)
#
#
# Indices 1 2 3 4 5 6 
#
# 1 122.2955 13.3738 46.6927 0.0000 -0.6428 0.0000
# 2 13.3738 53.4594 24.3303 0.0000 5.5780 0.0000
# 3 46.6927 24.3303 127.8252 0.0000 9.8728 0.0000
# 4 0.0000 0.0000 0.0000 22.6620 0.0000 13.8483
# 5 -0.6428 5.5780 9.8728 0.0000 57.9069 0.0000
# 6 0.0000 0.0000 0.0000 13.8483 0.0000 4.6575
#
#
#
# Elastic Compliance Matrix: (Units=1/GPa)
#
#
# Indices 1 2 3 4 5 6 
#
# 1 0.009573 -0.000938 -0.003378 0.000000 0.000773 0.000000
# 2 -0.000938 0.020673 -0.003483 0.000000 -0.001408 0.000000
# 3 -0.003378 -0.003483 0.009827 0.000000 -0.001377 0.000000
# 4 0.000000 0.000000 0.000000 -0.054014 0.000000 0.160602
# 5 0.000773 -0.001408 -0.001377 0.000000 0.017648 0.000000
# 6 0.000000 0.000000 0.000000 0.160602 0.000000 -0.262818
#
#
# Mechanical properties :
#
#
# Convention : Reuss Voigt Hill
#
# Bulk Modulus (GPa) = 40.86084 52.48599 46.67342
# Shear Modulus (GPa) = -21.24460 31.65750 5.20645
#
# Velocity S-wave (km/s) = -3.14995 3.84519 1.55938
# Velocity P-wave (km/s) = 2.41956 6.65037 5.00408
#
# Compressibility (1/GPa) = 0.02447331
#
# Stress axis : x y z
#
# Youngs Moduli (GPa) = 104.45680 48.37289 101.76476
#
# Poissons Ratio (x) = 0.04538 0.34377
# Poissons Ratio (y) = 0.09799 0.35449
# Poissons Ratio (z) = 0.35287 0.16850
#
# Static dielectric constant tensor:
#      x y z
#    x 1.468950 0.000000 -0.182950 
#    y 0.000000 1.795180 0.000000 
#    z -0.182950 0.000000 1.681880 
# 
# From -- ./inp_files/15946.got.cif
#   From: 2010.05.17/outbox.cif.g08.bks.cpg/sg5_8_cif.got.tgz:15946.got - 2010.06.03 18:56:24.
