data_PCOD9129235
_publ_section_title
;
Structure prediction by ZEFSAII (Michael W. Deem and Ramdas Pophale) SiO2 
 PCOD9129235
Probable space group: C 2
;
_chemical_formula_sum "Si O2"
_cell_formula_units_Z 28
_cell_length_a 18.708856
_cell_length_b 8.016240
_cell_length_c 21.986798
_cell_angle_alpha 90.000000
_cell_angle_beta 20.227475
_cell_angle_gamma 90.000000
_cell_volume 1140.091874
_symmetry_space_group_name_H-M "C 2"
_symmetry_group_IT_number 5
_symmetry_cell_setting 'monoclinic'
loop_
_space_group_symop_operation_xyz
x,y,z
-x,y,-z
1/2+x,1/2+y,z
1/2-x,1/2+y,-z
loop_
_atom_site_type_symbol
_atom_site_label
_atom_site_fract_x
_atom_site_fract_y
_atom_site_fract_z
Si Si1 0.070755 0.393300 0.003759
Si Si2 0.861543 0.270008 0.866781
Si Si3 0.837294 0.038472 0.170672
Si Si4 0.470161 0.083863 0.204715
Si Si5 0.990460 0.729416 0.643039
Si Si6 0.304002 0.567784 0.330987
Si Si7 0.177653 0.258963 0.513351
O O1 0.314621 0.359907 0.803318
O O2 0.997214 0.487654 0.120868
O O3 0.000000 0.486564 0.000000
O O4 0.951926 0.214573 0.096732
O O5 0.930934 0.457578 0.825401
O O6 0.960009 0.237644 0.721444
O O7 0.979205 0.142225 0.818747
O O8 0.621393 0.242590 0.073425
O O9 0.656378 0.083641 0.268237
O O10 0.783571 0.982535 0.281331
O O11 0.000000 0.937356 0.000000
O O12 0.242962 0.130124 0.408769
O O13 0.153275 0.730363 0.457093
O O14 0.145691 0.729677 0.576303
O O15 0.223719 0.437010 0.445777
#
# Coordination Sequence:
#
# PCOD9129235 Si02
#       7
#     4   4   4   4   4   4   4
#     4   9  19  38  63  92 122 162 221 257 313 387
#     4  11  23  38  64  95 127 165 215 262 322 383
#     4   9  19  36  63  95 121 163 221 261 308 390
#     4  12  23  41  65  91 130 171 207 267 322 379
#     4   9  19  37  61  90 124 161 207 266 308 372
#     4  11  20  38  63  96 126 163 213 270 321 378
#     4  11  25  40  61  97 136 160 210 266 332 381
#
# _framework density 24.559425000000001
#
# number of rings (size 3 to 8) (size 9 to 14) (size 15 to 20)
#    0.000    2.000    1.429    4.714    2.000    1.143 
#    5.143    0.714    3.143    0.000    0.000    0.000 
#    0.000    0.000    0.000    0.000    0.000    0.000 
#
# Total GULP energy -78046.357745 kJ/mol
# GULP energy per Si atom -5574.739839 kJ/mol
# Density = 2.450353 g / cm^3
# Si number density = 24.559425 Si / 1000 Ang^3
#
#
#
# Elastic Constant Matrix: (Units=GPa)
#
#
# Indices 1 2 3 4 5 6 
#
# 1 85.4152 5.7793 47.1316 -0.0015 33.2840 0.0003
# 2 5.7793 69.4259 11.0363 -0.0019 10.8359 -0.0004
# 3 47.1316 11.0363 118.6079 -0.0088 32.9665 0.0001
# 4 -0.0015 -0.0019 -0.0088 35.1280 0.0016 11.8401
# 5 33.2840 10.8359 32.9665 0.0016 45.8015 0.0008
# 6 0.0003 -0.0004 0.0001 11.8401 0.0008 9.1889
#
#
#
# Elastic Compliance Matrix: (Units=1/GPa)
#
#
# Indices 1 2 3 4 5 6 
#
# 1 0.018037 0.000780 -0.004432 0.000000 -0.010102 0.000000
# 2 0.000780 0.015015 -0.000703 0.000001 -0.003613 0.000000
# 3 -0.004432 -0.000703 0.011646 0.000005 -0.004996 -0.000006
# 4 0.000000 0.000001 0.000005 0.050323 -0.000004 -0.064843
# 5 -0.010102 -0.003613 -0.004996 -0.000004 0.033625 0.000003
# 6 0.000000 0.000000 -0.000006 -0.064843 0.000003 0.192379
#
#
# Mechanical properties :
#
#
# Convention : Reuss Voigt Hill
#
# Bulk Modulus (GPa) = 27.78756 44.59371 36.19063
# Shear Modulus (GPa) = 14.63142 31.99046 23.31094
#
# Velocity S-wave (km/s) = 2.44346 3.61303 3.08419
# Velocity P-wave (km/s) = 4.39313 5.96676 5.23936
#
# Compressibility (1/GPa) = 0.03598733
#
# Stress axis : x y z
#
# Youngs Moduli (GPa) = 55.44241 66.60202 85.86465
#
# Poissons Ratio (x) = -0.05193 0.38057
# Poissons Ratio (y) = -0.04323 0.06034
# Poissons Ratio (z) = 0.24573 0.04680
#
# Static dielectric constant tensor:
#      x y z
#    x 2.048400 0.000000 0.051820 
#    y 0.000000 2.091960 0.000000 
#    z 0.051820 0.000000 2.078530 
# 
# From -- ./inp_files/69410.got.cif
#   From: 2010.05.17/outbox.cif.g08.bks.cpg/sg5_35_cif.got.tgz:69410.got - 2010.06.03 18:56:24.
