data_PCOD9129497
_publ_section_title
;
Structure prediction by ZEFSAII (Michael W. Deem and Ramdas Pophale) SiO2 
 PCOD9129497
Probable space group: C 2
;
_chemical_formula_sum "Si O2"
_cell_formula_units_Z 28
_cell_length_a 18.650500
_cell_length_b 6.265118
_cell_length_c 11.353999
_cell_angle_alpha 90.000000
_cell_angle_beta 108.824894
_cell_angle_gamma 90.000000
_cell_volume 1255.721712
_symmetry_space_group_name_H-M "C 2"
_symmetry_group_IT_number 5
_symmetry_cell_setting 'monoclinic'
loop_
_space_group_symop_operation_xyz
x,y,z
-x,y,-z
1/2+x,1/2+y,z
1/2-x,1/2+y,-z
loop_
_atom_site_type_symbol
_atom_site_label
_atom_site_fract_x
_atom_site_fract_y
_atom_site_fract_z
Si Si1 0.677590 0.959320 0.911359
Si Si2 0.379841 0.257886 0.308806
Si Si3 0.085009 0.393361 0.494826
Si Si4 0.101135 0.612360 0.253332
Si Si5 0.534339 0.498301 0.347476
Si Si6 0.254506 0.590003 0.186490
Si Si7 0.521555 0.790738 0.889702
O O1 0.713822 0.823695 0.825216
O O2 0.610162 0.831163 0.936765
O O3 0.635938 0.158714 0.828731
O O4 0.736657 0.008476 0.044748
O O5 0.464952 0.353279 0.357889
O O6 0.316402 0.441704 0.282753
O O7 0.372491 0.060166 0.395968
O O8 0.105168 0.482154 0.377268
O O9 0.083073 0.135728 0.467713
O O10 0.000000 0.419072 0.500000
O O11 0.177061 0.595837 0.218294
O O12 0.030938 0.503028 0.146825
O O13 0.084678 0.849915 0.290121
O O14 0.494761 0.665607 0.238837
O O15 0.500000 0.676754 0.000000
#
# Coordination Sequence:
#
# PCOD9129497 Si02
#       7
#     4   4   4   4   4   4   4
#     4  12  24  44  72 109 150 202 246 298 373 453
#     4  12  25  47  75 105 147 198 247 308 375 441
#     4  11  25  46  76 105 137 191 262 313 363 435
#     4  11  25  46  70 108 146 190 251 319 358 435
#     4  11  24  42  75 109 136 193 256 311 362 432
#     4  12  27  44  74 111 159 198 242 300 381 444
#     4  11  22  40  73 108 146 189 254 303 363 439
#
# _framework density 22.297936
#
# number of rings (size 3 to 8) (size 9 to 14) (size 15 to 20)
#    0.000    0.571    7.143    0.857    2.000    5.143 
#    2.571    0.000    0.000    0.000    0.000    0.000 
#    0.000    0.000    0.000    0.000    0.000    0.000 
#
# Total GULP energy -78119.486411 kJ/mol
# GULP energy per Si atom -5579.963315 kJ/mol
# Density = 2.224718 g / cm^3
# Si number density = 22.297936 Si / 1000 Ang^3
#
#
#
# Elastic Constant Matrix: (Units=GPa)
#
#
# Indices 1 2 3 4 5 6 
#
# 1 94.1738 25.7379 19.2826 0.0000 -12.1411 0.0000
# 2 25.7379 89.9188 41.6630 0.0000 8.4523 0.0000
# 3 19.2826 41.6630 120.0378 0.0000 6.1312 0.0000
# 4 0.0000 0.0000 0.0000 38.6021 0.0000 6.5736
# 5 -12.1411 8.4523 6.1312 0.0000 30.2733 0.0000
# 6 0.0000 0.0000 0.0000 6.5736 0.0000 26.9533
#
#
#
# Elastic Compliance Matrix: (Units=1/GPa)
#
#
# Indices 1 2 3 4 5 6 
#
# 1 0.012674 -0.003730 -0.001065 0.000000 0.006340 0.000000
# 2 -0.003730 0.014589 -0.004224 0.000000 -0.004714 0.000000
# 3 -0.001065 -0.004224 0.010033 0.000000 -0.001280 0.000000
# 4 0.000000 0.000000 0.000000 0.027028 0.000000 -0.006592
# 5 0.006340 -0.004714 -0.001280 0.000000 0.037150 0.000000
# 6 0.000000 0.000000 0.000000 -0.006592 0.000000 0.038709
#
#
# Mechanical properties :
#
#
# Convention : Reuss Voigt Hill
#
# Bulk Modulus (GPa) = 51.92615 53.05527 52.49071
# Shear Modulus (GPa) = 30.36944 33.66221 32.01583
#
# Velocity S-wave (km/s) = 3.69451 3.88964 3.79333
# Velocity P-wave (km/s) = 6.44494 6.63460 6.54045
#
# Compressibility (1/GPa) = 0.01925812
#
# Stress axis : x y z
#
# Youngs Moduli (GPa) = 78.90472 68.54539 99.67010
#
# Poissons Ratio (x) = 0.25568 0.10615
# Poissons Ratio (y) = 0.29432 0.42097
# Poissons Ratio (z) = 0.08404 0.28951
#
# Static dielectric constant tensor:
#      x y z
#    x 1.756420 0.000000 0.014430 
#    y 0.000000 1.921200 0.000000 
#    z 0.014430 0.000000 1.880370 
# 
# From -- ./inp_files/45704.got.cif
#   From: 2010.05.17/outbox.cif.g08.bks.cpg/sg5_23_cif.got.tgz:45704.got - 2010.06.03 18:56:24.
