data_PCOD9129104
_publ_section_title
;
Structure prediction by ZEFSAII (Michael W. Deem and Ramdas Pophale) SiO2 
 PCOD9129104
Probable space group: C 2
;
_chemical_formula_sum "Si O2"
_cell_formula_units_Z 20
_cell_length_a 7.979903
_cell_length_b 5.210340
_cell_length_c 20.131348
_cell_angle_alpha 90.000000
_cell_angle_beta 62.249039
_cell_angle_gamma 90.000000
_cell_volume 740.747005
_symmetry_space_group_name_H-M "C 2"
_symmetry_group_IT_number 5
_symmetry_cell_setting 'monoclinic'
loop_
_space_group_symop_operation_xyz
x,y,z
-x,y,-z
1/2+x,1/2+y,z
1/2-x,1/2+y,-z
loop_
_atom_site_type_symbol
_atom_site_label
_atom_site_fract_x
_atom_site_fract_y
_atom_site_fract_z
Si Si1 0.500000 0.819911 0.000000
Si Si2 0.208290 0.732667 0.791001
Si Si3 0.000000 0.125615 0.500000
Si Si4 0.624525 0.893748 0.689167
Si Si5 0.376977 0.573577 0.893016
Si Si6 0.010713 0.636228 0.586884
O O1 0.507089 0.692185 0.926155
O O2 0.703992 0.953376 0.966436
O O3 0.154512 0.480904 0.759540
O O4 0.259334 0.723523 0.859146
O O5 0.407432 0.812006 0.722538
O O6 0.017866 0.899199 0.823338
O O7 0.012119 0.354269 0.554428
O O8 0.083033 0.888142 0.533164
O O9 0.638656 0.112843 0.629792
O O10 0.792923 0.702481 0.642744
#
# Coordination Sequence:
#
# PCOD9129104 Si02
#       6
#     2   4   2   4   4   4
#     4  12  24  42  68 102 140 188 240 300 364 436
#     4  12  25  45  70 103 143 192 244 304 368 440
#     4  10  26  50  80 112 154 198 252 314 384 454
#     4  12  26  47  74 107 146 194 250 310 374 448
#     4  12  24  43  68 101 142 188 242 302 366 438
#     4  11  26  49  78 113 152 199 254 316 382 455
#
# _framework density 26.999769000000001
#
# number of rings (size 3 to 8) (size 9 to 14) (size 15 to 20)
#    0.000    0.400    0.000    8.400    0.000    8.000 
#    0.000    0.000    0.000    0.000    0.000    0.000 
#    0.000    0.000    0.000    0.000    0.000    0.000 
#
# Total GULP energy -55734.726730 kJ/mol
# GULP energy per Si atom -5573.472673 kJ/mol
# Density = 2.693832 g / cm^3
# Si number density = 26.999769 Si / 1000 Ang^3
#
#
#
# Elastic Constant Matrix: (Units=GPa)
#
#
# Indices 1 2 3 4 5 6 
#
# 1 121.4228 29.3799 27.9439 0.0000 -30.3112 0.0000
# 2 29.3799 110.7991 46.4933 0.0000 -32.7119 0.0000
# 3 27.9439 46.4933 82.4028 0.0000 19.5735 0.0000
# 4 0.0000 0.0000 0.0000 -7.2987 0.0000 -29.5209
# 5 -30.3112 -32.7119 19.5735 0.0000 40.0558 0.0000
# 6 0.0000 0.0000 0.0000 -29.5209 0.0000 -32.4151
#
#
#
# Elastic Compliance Matrix: (Units=1/GPa)
#
#
# Indices 1 2 3 4 5 6 
#
# 1 0.025186 0.026470 -0.037489 0.000000 0.058995 0.000000
# 2 0.026470 0.060615 -0.067532 0.000000 0.102533 0.000000
# 3 -0.037489 -0.067532 0.093662 0.000000 -0.129288 0.000000
# 4 0.000000 0.000000 0.000000 0.051056 0.000000 -0.046497
# 5 0.058995 0.102533 -0.129288 0.000000 0.216520 0.000000
# 6 0.000000 0.000000 0.000000 -0.046497 0.000000 0.011496
#
#
# Mechanical properties :
#
#
# Convention : Reuss Voigt Hill
#
# Bulk Modulus (GPa) = 44.72033 58.02877 51.37455
# Shear Modulus (GPa) = 8.02453 14.12225 11.07339
#
# Velocity S-wave (km/s) = 1.72584 2.28951 2.02736
# Velocity P-wave (km/s) = 4.53548 5.34117 4.95473
#
# Compressibility (1/GPa) = 0.02236120
#
# Stress axis : x y z
#
# Youngs Moduli (GPa) = 39.70503 16.49751 10.67671
#
# Poissons Ratio (x) = -0.43670 0.40026
# Poissons Ratio (y) = -1.05101 0.72102
# Poissons Ratio (z) = 1.48852 1.11411
#
# Static dielectric constant tensor:
#      x y z
#    x 2.440380 0.000000 -0.777340 
#    y 0.000000 2.154400 0.000000 
#    z -0.777340 0.000000 3.585730 
# 
# From -- ./inp_files/64146.got.cif
#   From: 2010.05.17/outbox.cif.g08.bks.cpg/sg5_33_cif.got.tgz:64146.got - 2010.06.03 18:56:24.
