data_PCOD9129523
_publ_section_title
;
Structure prediction by ZEFSAII (Michael W. Deem and Ramdas Pophale) SiO2 
 PCOD9129523
Probable space group: C 2
;
_chemical_formula_sum "Si O2"
_cell_formula_units_Z 20
_cell_length_a 12.131465
_cell_length_b 7.254369
_cell_length_c 17.401891
_cell_angle_alpha 90.000000
_cell_angle_beta 30.395352
_cell_angle_gamma 90.000000
_cell_volume 774.869873
_symmetry_space_group_name_H-M "C 2"
_symmetry_group_IT_number 5
_symmetry_cell_setting 'monoclinic'
loop_
_space_group_symop_operation_xyz
x,y,z
-x,y,-z
1/2+x,1/2+y,z
1/2-x,1/2+y,-z
loop_
_atom_site_type_symbol
_atom_site_label
_atom_site_fract_x
_atom_site_fract_y
_atom_site_fract_z
Si Si1 0.361899 0.843140 0.518921
Si Si2 0.422264 0.869181 0.319740
Si Si3 0.763562 0.564443 0.063378
Si Si4 0.782010 0.141192 0.087992
Si Si5 0.788478 0.616386 0.270211
O O1 0.500000 0.964895 0.500000
O O2 0.278145 0.870702 0.483400
O O3 0.546593 0.681441 0.393627
O O4 0.170563 0.769248 0.687853
O O5 0.577029 0.694655 0.210116
O O6 0.590812 0.029362 0.242965
O O7 0.308189 0.928938 0.308295
O O8 0.764479 0.360952 0.097014
O O9 0.715243 0.564951 0.000774
O O10 0.019862 0.626717 0.906235
O O11 0.000000 0.090574 0.000000
#
# Coordination Sequence:
#
# PCOD9129523 Si02
#       5
#     4   4   4   4   4
#     4   8  21  41  65  91 134 176 216 272 315 394
#     4  11  22  41  70  95 132 178 212 281 329 379
#     4  11  22  42  65  99 137 162 223 285 315 393
#     4  11  25  37  64 103 129 174 214 263 342 389
#     4   8  20  41  61  96 127 172 220 254 339 381
#
# _framework density 25.810787000000001
#
# number of rings (size 3 to 8) (size 9 to 14) (size 15 to 20)
#    1.200    0.800    4.000    0.000    5.600    0.000 
#    7.200    0.000    0.000    1.200    0.000    0.000 
#    0.000    0.000    0.000    0.000    0.000    0.000 
#
# Total GULP energy -55691.677323 kJ/mol
# GULP energy per Si atom -5569.167732 kJ/mol
# Density = 2.575204 g / cm^3
# Si number density = 25.810787 Si / 1000 Ang^3
#
#
#
# Elastic Constant Matrix: (Units=GPa)
#
#
# Indices 1 2 3 4 5 6 
#
# 1 69.0824 -4.2929 14.4766 0.0002 11.0260 -0.0002
# 2 -4.2929 63.9697 2.3921 -0.0004 -6.4290 0.0001
# 3 14.4766 2.3921 75.0990 -0.0012 26.5121 0.0007
# 4 0.0002 -0.0004 -0.0012 26.6367 0.0004 -9.9400
# 5 11.0260 -6.4290 26.5121 0.0004 60.2311 0.0000
# 6 -0.0002 0.0001 0.0007 -9.9400 0.0000 20.2729
#
#
#
# Elastic Compliance Matrix: (Units=1/GPa)
#
#
# Indices 1 2 3 4 5 6 
#
# 1 0.015300 0.000951 -0.002400 0.000000 -0.001643 0.000000
# 2 0.000951 0.015969 -0.001459 0.000000 0.002173 0.000000
# 3 -0.002400 -0.001459 0.016250 0.000001 -0.006869 0.000000
# 4 0.000000 0.000000 0.000001 0.045949 -0.000001 0.022529
# 5 -0.001643 0.002173 -0.006869 -0.000001 0.020159 0.000000
# 6 0.000000 0.000000 0.000000 0.022529 0.000000 0.060373
#
#
# Mechanical properties :
#
#
# Convention : Reuss Voigt Hill
#
# Bulk Modulus (GPa) = 23.97843 25.92254 24.95048
# Shear Modulus (GPa) = 25.81096 34.46651 30.13874
#
# Velocity S-wave (km/s) = 3.16572 3.65821 3.42084
# Velocity P-wave (km/s) = 4.76158 5.28285 5.02897
#
# Compressibility (1/GPa) = 0.04170414
#
# Stress axis : x y z
#
# Youngs Moduli (GPa) = 65.36096 62.62074 61.53915
#
# Poissons Ratio (x) = -0.05957 0.14767
# Poissons Ratio (y) = -0.06218 0.08979
# Poissons Ratio (z) = 0.15684 0.09137
#
# Static dielectric constant tensor:
#      x y z
#    x 2.209320 0.000000 0.058280 
#    y 0.000000 2.140960 0.000000 
#    z 0.058280 0.000000 2.091930 
# 
# From -- ./inp_files/65782.got.cif
#   From: 2010.05.17/outbox.cif.g08.bks.cpg/sg5_33_cif.got.tgz:65782.got - 2010.06.03 18:56:24.
