data_PCOD9129733
_publ_section_title
;
Structure prediction by ZEFSAII (Michael W. Deem and Ramdas Pophale) SiO2 
 PCOD9129733
Probable space group: C 2
;
_chemical_formula_sum "Si O2"
_cell_formula_units_Z 24
_cell_length_a 11.583023
_cell_length_b 8.935039
_cell_length_c 20.416814
_cell_angle_alpha 90.000000
_cell_angle_beta 147.419345
_cell_angle_gamma 90.000000
_cell_volume 1137.839518
_symmetry_space_group_name_H-M "C 2"
_symmetry_group_IT_number 5
_symmetry_cell_setting 'monoclinic'
loop_
_space_group_symop_operation_xyz
x,y,z
-x,y,-z
1/2+x,1/2+y,z
1/2-x,1/2+y,-z
loop_
_atom_site_type_symbol
_atom_site_label
_atom_site_fract_x
_atom_site_fract_y
_atom_site_fract_z
Si Si1 0.856619 0.908530 0.749880
Si Si2 0.756636 0.393469 0.631569
Si Si3 0.764755 0.717006 0.582741
Si Si4 0.268449 0.938413 0.871493
Si Si5 0.571267 0.699260 0.690341
Si Si6 0.784063 0.728577 0.262009
O O1 0.759823 0.852215 0.632927
O O2 0.778518 0.792757 0.767331
O O3 0.109121 0.915388 0.856195
O O4 0.771545 0.068063 0.734274
O O5 0.500000 0.367680 0.500000
O O6 0.809881 0.565219 0.643399
O O7 0.907951 0.293856 0.657498
O O8 0.801841 0.347119 0.727056
O O9 0.559469 0.681233 0.440103
O O10 0.960758 0.741230 0.626767
O O11 0.301439 0.781070 0.849292
O O12 0.500000 0.000229 0.000000
O O13 0.142927 0.051766 0.762878
#
# Coordination Sequence:
#
# PCOD9129733 Si02
#       6
#     4   4   4   4   4   4
#     4  11  24  43  67  99 133 172 226 282 332 404
#     4  12  22  38  65  99 140 178 209 270 347 412
#     4  11  24  39  66 103 143 174 211 271 346 417
#     4  11  27  48  69  93 132 186 236 280 329 388
#     4  12  24  41  68 100 138 179 219 275 342 399
#     4  11  23  42  67  98 135 175 223 277 333 400
#
# _framework density 21.092606
#
# number of rings (size 3 to 8) (size 9 to 14) (size 15 to 20)
#    0.000    0.667    5.000    3.500    2.333    4.000 
#    0.000    0.833    0.000    0.000    0.000    0.000 
#    0.000    0.000    0.000    0.000    0.000    0.000 
#
# Total GULP energy -67023.613319 kJ/mol
# GULP energy per Si atom -5585.301110 kJ/mol
# Density = 2.104460 g / cm^3
# Si number density = 21.092606 Si / 1000 Ang^3
#
#
#
# Elastic Constant Matrix: (Units=GPa)
#
#
# Indices 1 2 3 4 5 6 
#
# 1 145.4046 58.1601 21.5501 0.0000 33.7954 0.0000
# 2 58.1601 118.1777 24.7794 0.0001 3.8400 0.0000
# 3 21.5501 24.7794 71.4704 0.0003 19.5999 -0.0001
# 4 0.0000 0.0001 0.0003 15.4707 -0.0001 -1.6478
# 5 33.7954 3.8400 19.5999 -0.0001 22.5208 0.0000
# 6 0.0000 0.0000 -0.0001 -1.6478 0.0000 57.7471
#
#
#
# Elastic Compliance Matrix: (Units=1/GPa)
#
#
# Indices 1 2 3 4 5 6 
#
# 1 0.015309 -0.007789 0.005281 0.000000 -0.026241 0.000000
# 2 -0.007789 0.013131 -0.006299 0.000000 0.014931 0.000000
# 3 0.005281 -0.006299 0.021623 -0.000001 -0.025669 0.000000
# 4 0.000000 0.000000 -0.000001 0.064835 0.000001 0.001850
# 5 -0.026241 0.014931 -0.025669 0.000001 0.103575 0.000000
# 6 0.000000 0.000000 0.000000 0.001850 0.000000 0.017370
#
#
# Mechanical properties :
#
#
# Convention : Reuss Voigt Hill
#
# Bulk Modulus (GPa) = 30.81767 60.44797 45.63282
# Shear Modulus (GPa) = 18.91986 34.51862 26.71924
#
# Velocity S-wave (km/s) = 2.99823 4.04979 3.56302
# Velocity P-wave (km/s) = 5.16025 7.11255 6.21355
#
# Compressibility (1/GPa) = 0.03244892
#
# Stress axis : x y z
#
# Youngs Moduli (GPa) = 65.31998 76.15809 46.24780
#
# Poissons Ratio (x) = 0.59319 -0.24422
# Poissons Ratio (y) = 0.50877 0.29130
# Poissons Ratio (z) = -0.34494 0.47969
#
# Static dielectric constant tensor:
#      x y z
#    x 1.775460 0.000000 -0.002620 
#    y 0.000000 1.776560 0.000000 
#    z -0.002620 0.000000 1.792290 
# 
# From -- ./inp_files/68299.got.cif
#   From: 2010.05.17/outbox.cif.g08.bks.cpg/sg5_35_cif.got.tgz:68299.got - 2010.06.03 18:56:24.
