data_PCOD9129349
_publ_section_title
;
Structure prediction by ZEFSAII (Michael W. Deem and Ramdas Pophale) SiO2 
 PCOD9129349
Probable space group: C 2
;
_chemical_formula_sum "Si O2"
_cell_formula_units_Z 20
_cell_length_a 6.816116
_cell_length_b 15.098270
_cell_length_c 9.703391
_cell_angle_alpha 90.000000
_cell_angle_beta 122.866170
_cell_angle_gamma 90.000000
_cell_volume 838.757043
_symmetry_space_group_name_H-M "C 2"
_symmetry_group_IT_number 5
_symmetry_cell_setting 'monoclinic'
loop_
_space_group_symop_operation_xyz
x,y,z
-x,y,-z
1/2+x,1/2+y,z
1/2-x,1/2+y,-z
loop_
_atom_site_type_symbol
_atom_site_label
_atom_site_fract_x
_atom_site_fract_y
_atom_site_fract_z
Si Si1 0.098941 0.012400 0.186875
Si Si2 0.707365 0.342075 0.847701
Si Si3 0.373260 0.623883 0.322581
Si Si4 0.894664 0.447186 0.691321
Si Si5 0.000000 0.728068 0.000000
Si Si6 0.500000 0.322554 0.500000
O O1 0.061583 0.089925 0.282704
O O2 0.943952 0.928800 0.173655
O O3 0.360105 0.976624 0.273184
O O4 0.000000 0.041497 0.000000
O O5 0.918716 0.388192 0.840849
O O6 0.590897 0.283357 0.677529
O O7 0.676041 0.282974 0.969791
O O8 0.500000 0.670404 0.500000
O O9 0.249703 0.535853 0.334384
O O10 0.170401 0.674167 0.164866
O O11 0.719560 0.384900 0.539285
#
# Coordination Sequence:
#
# PCOD9129349 Si02
#       6
#     4   4   4   4   2   2
#     4  11  21  40  73 104 132 192 238 296 360 411
#     4   9  21  42  64 102 138 187 232 288 359 418
#     4  11  24  45  69 105 145 188 237 290 367 431
#     4   9  19  43  73  99 138 173 256 296 335 432
#     4  12  24  48  68 104 164 182 230 300 364 438
#     4   8  18  42  68 100 132 182 250 294 348 404
#
# _framework density 23.844805999999998
#
# number of rings (size 3 to 8) (size 9 to 14) (size 15 to 20)
#    1.200    0.800    2.000    1.200    0.000    5.600 
#    3.600   10.000    0.000    0.000    0.000    0.000 
#    0.000    0.000    0.000    0.000    0.000    0.000 
#
# Total GULP energy -55757.685750 kJ/mol
# GULP energy per Si atom -5575.768575 kJ/mol
# Density = 2.379053 g / cm^3
# Si number density = 23.844806 Si / 1000 Ang^3
#
#
#
# Elastic Constant Matrix: (Units=GPa)
#
#
# Indices 1 2 3 4 5 6 
#
# 1 169.1174 19.8242 30.7251 0.0000 15.3388 0.0000
# 2 19.8242 33.1157 31.7606 0.0000 1.0049 0.0000
# 3 30.7251 31.7606 143.0983 0.0000 -10.2297 0.0000
# 4 0.0000 0.0000 0.0000 -67.5560 0.0000 8.4206
# 5 15.3388 1.0049 -10.2297 0.0000 36.2533 0.0000
# 6 0.0000 0.0000 0.0000 8.4206 0.0000 16.3924
#
#
#
# Elastic Compliance Matrix: (Units=1/GPa)
#
#
# Indices 1 2 3 4 5 6 
#
# 1 0.006719 -0.002970 -0.001001 0.000000 -0.003043 0.000000
# 2 -0.002970 0.040126 -0.008428 0.000000 -0.002234 0.000000
# 3 -0.001001 -0.008428 0.009308 0.000000 0.003284 0.000000
# 4 0.000000 0.000000 0.000000 -0.013912 0.000000 0.007146
# 5 -0.003043 -0.002234 0.003284 0.000000 0.029860 0.000000
# 6 0.000000 0.000000 0.000000 0.007146 0.000000 0.057333
#
#
# Mechanical properties :
#
#
# Convention : Reuss Voigt Hill
#
# Bulk Modulus (GPa) = 31.89211 56.66124 44.27667
# Shear Modulus (GPa) = 30.36125 14.55272 22.45698
#
# Velocity S-wave (km/s) = 3.57218 2.47312 3.07220
# Velocity P-wave (km/s) = 5.51524 5.65413 5.58512
#
# Compressibility (1/GPa) = 0.03135572
#
# Stress axis : x y z
#
# Youngs Moduli (GPa) = 148.83065 24.92161 107.42909
#
# Poissons Ratio (x) = 0.07401 0.10754
# Poissons Ratio (y) = 0.44200 0.90541
# Poissons Ratio (z) = 0.14899 0.21004
#
# Static dielectric constant tensor:
#      x y z
#    x 1.932480 0.000000 0.077480 
#    y 0.000000 1.866610 0.000000 
#    z 0.077480 0.000000 2.276550 
# 
# From -- ./inp_files/16237.got.cif
#   From: 2010.05.17/outbox.cif.g08.bks.cpg/sg5_9_cif.got.tgz:16237.got - 2010.06.03 18:56:24.
