data_PCOD9129364
_publ_section_title
;
Structure prediction by ZEFSAII (Michael W. Deem and Ramdas Pophale) SiO2 
 PCOD9129364
Probable space group: C 2
;
_chemical_formula_sum "Si O2"
_cell_formula_units_Z 22
_cell_length_a 18.088851
_cell_length_b 5.268948
_cell_length_c 12.219253
_cell_angle_alpha 90.000000
_cell_angle_beta 114.790540
_cell_angle_gamma 90.000000
_cell_volume 1057.285023
_symmetry_space_group_name_H-M "C 2"
_symmetry_group_IT_number 5
_symmetry_cell_setting 'monoclinic'
loop_
_space_group_symop_operation_xyz
x,y,z
-x,y,-z
1/2+x,1/2+y,z
1/2-x,1/2+y,-z
loop_
_atom_site_type_symbol
_atom_site_label
_atom_site_fract_x
_atom_site_fract_y
_atom_site_fract_z
Si Si1 0.500000 0.282560 0.000000
Si Si2 0.565490 0.661536 0.859540
Si Si3 0.404465 0.944295 0.798019
Si Si4 0.691055 0.671252 0.767305
Si Si5 0.261484 0.180923 0.576658
Si Si6 0.793471 0.173102 0.878784
O O1 0.475488 0.441339 0.091945
O O2 0.576347 0.112324 0.082848
O O3 0.493831 0.868053 0.813951
O O4 0.600693 0.643791 0.759650
O O5 0.648218 0.699856 0.980731
O O6 0.353462 0.702912 0.810651
O O7 0.348857 0.097676 0.680321
O O8 0.700456 0.684904 0.642219
O O9 0.736358 0.416966 0.834125
O O10 0.740051 0.919476 0.840379
O O11 0.263030 0.453307 0.520005
#
# Coordination Sequence:
#
# PCOD9129364 Si02
#       6
#     2   4   4   4   4   4
#     4  12  22  40  70 104 146 174 210 270 360 414
#     4  12  23  38  65 103 143 170 218 275 338 412
#     4  11  24  40  71 100 133 184 222 270 343 412
#     4  11  26  40  69  98 135 176 232 271 334 393
#     4  11  25  48  72  89 128 181 238 276 325 391
#     4  11  21  42  62 103 140 181 206 267 342 423
#
# _framework density 20.808009999999999
#
# number of rings (size 3 to 8) (size 9 to 14) (size 15 to 20)
#    0.000    0.727    3.636    5.455    5.091    0.000 
#    0.000    0.909    0.000    0.000    0.000    0.000 
#    0.000    0.000    0.000    0.000    0.000    0.000 
#
# Total GULP energy -61423.980725 kJ/mol
# GULP energy per Si atom -5583.998248 kJ/mol
# Density = 2.076065 g / cm^3
# Si number density = 20.808010 Si / 1000 Ang^3
#
#
#
# Elastic Constant Matrix: (Units=GPa)
#
#
# Indices 1 2 3 4 5 6 
#
# 1 132.0831 45.7675 30.3654 0.0000 -30.6845 0.0000
# 2 45.7675 104.1477 17.3030 0.0000 -11.9632 0.0000
# 3 30.3654 17.3030 73.6090 0.0000 -6.6844 0.0000
# 4 0.0000 0.0000 0.0000 29.0630 0.0000 7.7028
# 5 -30.6845 -11.9632 -6.6844 0.0000 31.4526 0.0000
# 6 0.0000 0.0000 0.0000 7.7028 0.0000 20.7686
#
#
#
# Elastic Compliance Matrix: (Units=1/GPa)
#
#
# Indices 1 2 3 4 5 6 
#
# 1 0.011705 -0.003542 -0.003142 0.000000 0.009405 0.000000
# 2 -0.003542 0.011426 -0.001166 0.000000 0.000643 0.000000
# 3 -0.003142 -0.001166 0.015129 0.000000 -0.000294 0.000000
# 4 0.000000 0.000000 0.000000 0.038159 0.000000 -0.014153
# 5 0.009405 0.000643 -0.000294 0.000000 0.041151 0.000000
# 6 0.000000 0.000000 0.000000 -0.014153 0.000000 0.053399
#
#
# Mechanical properties :
#
#
# Convention : Reuss Voigt Hill
#
# Bulk Modulus (GPa) = 44.32682 55.19017 49.75850
# Shear Modulus (GPa) = 25.74813 30.68378 28.21595
#
# Velocity S-wave (km/s) = 3.52151 3.84424 3.68640
# Velocity P-wave (km/s) = 6.15497 6.80333 6.48726
#
# Compressibility (1/GPa) = 0.02255970
#
# Stress axis : x y z
#
# Youngs Moduli (GPa) = 85.43101 87.52182 66.09810
#
# Poissons Ratio (x) = 0.30996 0.20769
# Poissons Ratio (y) = 0.30256 0.07710
# Poissons Ratio (z) = 0.26844 0.10209
#
# Static dielectric constant tensor:
#      x y z
#    x 1.809560 0.000000 -0.053770 
#    y 0.000000 1.798390 0.000000 
#    z -0.053770 0.000000 1.779030 
# 
# From -- ./inp_files/43643.got.cif
#   From: 2010.05.17/outbox.cif.g08.bks.cpg/sg5_22_cif.got.tgz:43643.got - 2010.06.03 18:56:24.
