data_PCOD9129146
_publ_section_title
;
Structure prediction by ZEFSAII (Michael W. Deem and Ramdas Pophale) SiO2 
 PCOD9129146
Probable space group: C 2
;
_chemical_formula_sum "Si O2"
_cell_formula_units_Z 26
_cell_length_a 11.376199
_cell_length_b 8.698843
_cell_length_c 14.192909
_cell_angle_alpha 90.000000
_cell_angle_beta 60.097902
_cell_angle_gamma 90.000000
_cell_volume 1217.554249
_symmetry_space_group_name_H-M "C 2"
_symmetry_group_IT_number 5
_symmetry_cell_setting 'monoclinic'
loop_
_space_group_symop_operation_xyz
x,y,z
-x,y,-z
1/2+x,1/2+y,z
1/2-x,1/2+y,-z
loop_
_atom_site_type_symbol
_atom_site_label
_atom_site_fract_x
_atom_site_fract_y
_atom_site_fract_z
Si Si1 0.477758 0.384600 0.609221
Si Si2 0.709174 0.996521 0.664646
Si Si3 0.798530 0.750817 0.189113
Si Si4 0.130455 0.565819 0.494218
Si Si5 0.110312 0.036273 0.736543
Si Si6 0.000000 0.522259 0.000000
Si Si7 0.548066 0.837707 0.158419
O O1 0.500000 0.470850 0.500000
O O2 0.314311 0.380153 0.672301
O O3 0.561304 0.224685 0.562461
O O4 0.523754 0.472330 0.682930
O O5 0.744484 0.159521 0.698476
O O6 0.706853 0.992203 0.552695
O O7 0.554577 0.955681 0.750274
O O8 0.875035 0.900954 0.194384
O O9 0.676614 0.803952 0.171545
O O10 0.892220 0.631781 0.094778
O O11 0.244532 0.576816 0.368493
O O12 0.000000 0.482343 0.500000
O O13 0.036220 0.180290 0.812056
O O14 0.926312 0.413423 0.953080
#
# Coordination Sequence:
#
# PCOD9129146 Si02
#       7
#     4   4   4   4   4   2   4
#     4  11  21  39  64  94 144 190 214 264 317 385
#     4  11  22  43  67  98 148 179 226 267 333 395
#     4  11  25  47  70 102 130 175 226 288 343 402
#     4  11  23  39  62 100 144 187 223 261 315 396
#     4  12  24  40  69 105 135 181 230 268 327 404
#     4  10  28  50  70  96 130 168 224 296 358 404
#     4  11  25  45  71 101 128 175 222 286 348 403
#
# _framework density 21.354285000000001
#
# number of rings (size 3 to 8) (size 9 to 14) (size 15 to 20)
#    0.000    0.923    4.615    2.769    0.000    3.077 
#    0.000    0.000    0.000    0.000    0.000    0.000 
#    0.000    0.000    0.000    0.000    0.000    0.000 
#
# Total GULP energy -72556.221570 kJ/mol
# GULP energy per Si atom -5581.247813 kJ/mol
# Density = 2.130568 g / cm^3
# Si number density = 21.354285 Si / 1000 Ang^3
#
#
#
# Elastic Constant Matrix: (Units=GPa)
#
#
# Indices 1 2 3 4 5 6 
#
# 1 177.7723 52.5686 39.5484 0.0000 15.6389 0.0000
# 2 52.5686 83.3234 30.0952 0.0000 23.2699 0.0000
# 3 39.5484 30.0952 72.8778 0.0000 16.9161 0.0000
# 4 0.0000 0.0000 0.0000 36.0286 0.0000 2.3266
# 5 15.6389 23.2699 16.9161 0.0000 23.5989 0.0000
# 6 0.0000 0.0000 0.0000 2.3266 0.0000 30.8529
#
#
#
# Elastic Compliance Matrix: (Units=1/GPa)
#
#
# Indices 1 2 3 4 5 6 
#
# 1 0.007269 -0.003911 -0.002527 0.000000 0.000851 0.000000
# 2 -0.003911 0.019521 -0.002486 0.000000 -0.014875 0.000000
# 3 -0.002527 -0.002486 0.018188 0.000000 -0.008911 0.000000
# 4 0.000000 0.000000 0.000000 0.027892 0.000000 -0.002103
# 5 0.000851 -0.014875 -0.008911 0.000000 0.062866 0.000000
# 6 0.000000 0.000000 0.000000 -0.002103 0.000000 0.032570
#
#
# Mechanical properties :
#
#
# Convention : Reuss Voigt Hill
#
# Bulk Modulus (GPa) = 36.86011 64.26644 50.56327
# Shear Modulus (GPa) = 25.61504 32.21350 28.91427
#
# Velocity S-wave (km/s) = 3.46718 3.88819 3.68370
# Velocity P-wave (km/s) = 5.77296 7.09352 6.46704
#
# Compressibility (1/GPa) = 0.02712960
#
# Stress axis : x y z
#
# Youngs Moduli (GPa) = 137.57072 51.22718 54.98095
#
# Poissons Ratio (x) = 0.20034 0.13894
# Poissons Ratio (y) = 0.53801 0.13670
# Poissons Ratio (z) = 0.34765 0.12737
#
# Static dielectric constant tensor:
#      x y z
#    x 1.803040 0.000000 -0.042360 
#    y 0.000000 1.817760 0.000000 
#    z -0.042360 0.000000 1.825340 
# 
# From -- ./inp_files/52193.got.cif
#   From: 2010.05.17/outbox.cif.g08.bks.cpg/sg5_27_cif.got.tgz:52193.got - 2010.06.03 18:56:24.
