data_PCOD9129962
_publ_section_title
;
Structure prediction by ZEFSAII (Michael W. Deem and Ramdas Pophale) SiO2 
 PCOD9129962
Probable space group: C 2
;
_chemical_formula_sum "Si O2"
_cell_formula_units_Z 20
_cell_length_a 10.430354
_cell_length_b 12.760591
_cell_length_c 9.606249
_cell_angle_alpha 90.000000
_cell_angle_beta 45.852092
_cell_angle_gamma 90.000000
_cell_volume 917.428674
_symmetry_space_group_name_H-M "C 2"
_symmetry_group_IT_number 5
_symmetry_cell_setting 'monoclinic'
loop_
_space_group_symop_operation_xyz
x,y,z
-x,y,-z
1/2+x,1/2+y,z
1/2-x,1/2+y,-z
loop_
_atom_site_type_symbol
_atom_site_label
_atom_site_fract_x
_atom_site_fract_y
_atom_site_fract_z
Si Si1 0.063531 0.804490 0.246090
Si Si2 0.000000 0.309578 0.500000
Si Si3 0.000000 0.989288 0.500000
Si Si4 0.230578 0.152664 0.465779
Si Si5 0.206556 0.923165 0.889599
Si Si6 0.298283 0.638405 0.196077
O O1 0.176784 0.739049 0.270752
O O2 0.001930 0.911592 0.366496
O O3 0.908770 0.723649 0.312636
O O4 0.196079 0.844294 0.025597
O O5 0.070233 0.236401 0.571095
O O6 0.164512 0.376578 0.323017
O O7 0.827200 0.064451 0.603521
O O8 0.221886 0.105519 0.627497
O O9 0.263353 0.044362 0.859786
O O10 0.000000 0.929855 0.000000
O O11 0.500000 0.662867 0.000000
#
# Coordination Sequence:
#
# PCOD9129962 Si02
#       6
#     4   2   2   4   4   4
#     4  12  24  47  71 107 150 191 243 307 364 430
#     4  11  24  43  72 102 142 189 238 301 364 432
#     4  11  24  43  76 108 150 189 238 313 354 438
#     4  11  24  43  72 105 142 190 243 294 367 433
#     4  11  24  43  70 102 142 187 240 298 363 429
#     4  11  24  43  69 103 146 193 244 303 360 441
#
# _framework density 21.800060999999999
#
# number of rings (size 3 to 8) (size 9 to 14) (size 15 to 20)
#    0.000    0.800    4.000    3.600    2.800    1.600 
#    3.600    0.000    0.000    0.000    0.000    0.000 
#    0.000    0.000    0.000    0.000    0.000    0.000 
#
# Total GULP energy -55774.679017 kJ/mol
# GULP energy per Si atom -5577.467902 kJ/mol
# Density = 2.175044 g / cm^3
# Si number density = 21.800061 Si / 1000 Ang^3
#
#
#
# Elastic Constant Matrix: (Units=GPa)
#
#
# Indices 1 2 3 4 5 6 
#
# 1 59.3632 38.5410 10.3730 0.0000 0.3078 0.0000
# 2 38.5410 124.1034 43.5446 0.0000 -12.8644 0.0000
# 3 10.3730 43.5446 97.4468 0.0000 0.6128 0.0000
# 4 0.0000 0.0000 0.0000 25.7802 0.0000 -7.4689
# 5 0.3078 -12.8644 0.6128 0.0000 19.1071 0.0000
# 6 0.0000 0.0000 0.0000 -7.4689 0.0000 18.0047
#
#
#
# Elastic Compliance Matrix: (Units=1/GPa)
#
#
# Indices 1 2 3 4 5 6 
#
# 1 0.021686 -0.007728 0.001180 0.000000 -0.005590 0.000000
# 2 -0.007728 0.013213 -0.005140 0.000000 0.009186 0.000000
# 3 0.001180 -0.005140 0.012457 0.000000 -0.003879 0.000000
# 4 0.000000 0.000000 0.000000 0.044088 0.000000 0.018289
# 5 -0.005590 0.009186 -0.003879 0.000000 0.058735 0.000000
# 6 0.000000 0.000000 0.000000 0.018289 0.000000 0.063128
#
#
# Mechanical properties :
#
#
# Convention : Reuss Voigt Hill
#
# Bulk Modulus (GPa) = 41.69929 51.75894 46.72912
# Shear Modulus (GPa) = 20.43515 25.14207 22.78861
#
# Velocity S-wave (km/s) = 3.06500 3.39972 3.23669
# Velocity P-wave (km/s) = 5.62985 6.26138 5.95399
#
# Compressibility (1/GPa) = 0.02398123
#
# Stress axis : x y z
#
# Youngs Moduli (GPa) = 46.11339 75.68114 80.27347
#
# Poissons Ratio (x) = 0.58488 -0.09473
# Poissons Ratio (y) = 0.35637 0.41257
# Poissons Ratio (z) = -0.05442 0.38897
#
# Static dielectric constant tensor:
#      x y z
#    x 1.859960 0.000000 0.028110 
#    y 0.000000 1.810600 0.000000 
#    z 0.028110 0.000000 1.753920 
# 
# From -- ./inp_files/18965.got.cif
#   From: 2010.05.17/outbox.cif.g08.bks.cpg/sg5_10_cif.got.tgz:18965.got - 2010.06.03 18:56:24.
