data_PCOD9129398
_publ_section_title
;
Structure prediction by ZEFSAII (Michael W. Deem and Ramdas Pophale) SiO2 
 PCOD9129398
Probable space group: C 2
;
_chemical_formula_sum "Si O2"
_cell_formula_units_Z 30
_cell_length_a 11.515186
_cell_length_b 12.231521
_cell_length_c 20.352622
_cell_angle_alpha 90.000000
_cell_angle_beta 152.413462
_cell_angle_gamma 90.000000
_cell_volume 1327.501841
_symmetry_space_group_name_H-M "C 2"
_symmetry_group_IT_number 5
_symmetry_cell_setting 'monoclinic'
loop_
_space_group_symop_operation_xyz
x,y,z
-x,y,-z
1/2+x,1/2+y,z
1/2-x,1/2+y,-z
loop_
_atom_site_type_symbol
_atom_site_label
_atom_site_fract_x
_atom_site_fract_y
_atom_site_fract_z
Si Si1 0.000000 0.883190 0.500000
Si Si2 0.283173 0.647033 0.447407
Si Si3 0.469707 0.445859 0.061922
Si Si4 0.976572 0.824077 0.355198
Si Si5 0.424482 0.644911 0.793130
Si Si6 0.005628 0.697793 0.101953
Si Si7 0.048668 0.524055 0.230940
Si Si8 0.033244 0.064931 0.706962
O O1 0.869979 0.830067 0.497714
O O2 0.205340 0.949197 0.644673
O O3 0.500000 0.648620 0.500000
O O4 0.065564 0.562653 0.314804
O O5 0.392500 0.608391 0.571523
O O6 0.155142 0.761570 0.394205
O O7 0.582966 0.539378 0.163718
O O8 0.565685 0.325661 0.127228
O O9 0.500000 0.468788 0.000000
O O10 0.167060 0.456431 0.913021
O O11 0.753668 0.740535 0.267116
O O12 0.919365 0.936925 0.286883
O O13 0.386369 0.599571 0.699605
O O14 0.712231 0.686281 0.939501
O O15 0.046260 0.639693 0.192418
O O16 0.199343 0.627299 0.156069
#
# Coordination Sequence:
#
# PCOD9129398 Si02
#       8
#     2   4   4   4   4   4   4   4
#     4  12  20  46  74  98 138 200 248 298 382 460
#     4  12  24  47  72 107 147 197 255 307 386 468
#     4  11  25  44  70 105 146 190 239 315 370 453
#     4  12  26  45  75 108 152 197 248 327 386 449
#     4  11  27  46  71 117 147 193 261 308 387 470
#     4  11  23  45  73 101 146 193 250 307 375 460
#     4  11  21  44  70 101 138 189 247 286 374 461
#     4  12  25  49  76 109 148 202 255 318 390 459
#
# _framework density 22.598838000000001
#
# number of rings (size 3 to 8) (size 9 to 14) (size 15 to 20)
#    0.000    0.533    4.667    3.600    3.733    1.067 
#    4.800    0.000    0.000    0.000    0.000    0.000 
#    0.000    0.000    0.000    0.000    0.000    0.000 
#
# Total GULP energy -83566.949368 kJ/mol
# GULP energy per Si atom -5571.129958 kJ/mol
# Density = 2.254740 g / cm^3
# Si number density = 22.598838 Si / 1000 Ang^3
#
#
#
# Elastic Constant Matrix: (Units=GPa)
#
#
# Indices 1 2 3 4 5 6 
#
# 1 108.2398 66.7700 34.3695 -0.0006 -9.5804 -0.0003
# 2 66.7700 194.7472 49.0457 0.0008 -2.4795 0.0002
# 3 34.3695 49.0457 88.7605 0.0041 -14.8702 0.0003
# 4 -0.0006 0.0008 0.0041 19.8017 0.0002 3.4382
# 5 -9.5804 -2.4795 -14.8702 0.0002 29.0088 0.0001
# 6 -0.0003 0.0002 0.0003 3.4382 0.0001 33.9372
#
#
#
# Elastic Compliance Matrix: (Units=1/GPa)
#
#
# Indices 1 2 3 4 5 6 
#
# 1 0.012471 -0.003643 -0.002383 0.000001 0.002586 0.000000
# 2 -0.003643 0.007073 -0.002842 0.000000 -0.002055 0.000000
# 3 -0.002383 -0.002842 0.014863 -0.000003 0.006589 0.000000
# 4 0.000001 0.000000 -0.000003 0.051405 -0.000002 -0.005208
# 5 0.002586 -0.002055 0.006589 -0.000002 0.038528 0.000000
# 6 0.000000 0.000000 0.000000 -0.005208 0.000000 0.029994
#
#
# Mechanical properties :
#
#
# Convention : Reuss Voigt Hill
#
# Bulk Modulus (GPa) = 59.98074 76.90198 68.44136
# Shear Modulus (GPa) = 28.14853 32.65370 30.40112
#
# Velocity S-wave (km/s) = 3.53310 3.80535 3.67175
# Velocity P-wave (km/s) = 6.57593 7.30825 6.95174
#
# Compressibility (1/GPa) = 0.01667202
#
# Stress axis : x y z
#
# Youngs Moduli (GPa) = 80.18294 141.37328 67.27891
#
# Poissons Ratio (x) = 0.51500 0.16033
# Poissons Ratio (y) = 0.29209 0.19123
# Poissons Ratio (z) = 0.19108 0.40183
#
# Static dielectric constant tensor:
#      x y z
#    x 2.052860 0.000000 0.091040 
#    y 0.000000 1.925880 0.000000 
#    z 0.091040 0.000000 1.945300 
# 
# From -- ./inp_files/65372.got.cif
#   From: 2010.05.17/outbox.cif.g08.bks.cpg/sg5_33_cif.got.tgz:65372.got - 2010.06.03 18:56:24.
