data_PCOD9129562
_publ_section_title
;
Structure prediction by ZEFSAII (Michael W. Deem and Ramdas Pophale) SiO2 
 PCOD9129562
Probable space group: C 2
;
_chemical_formula_sum "Si O2"
_cell_formula_units_Z 28
_cell_length_a 8.702305
_cell_length_b 13.448835
_cell_length_c 19.676503
_cell_angle_alpha 90.000000
_cell_angle_beta 33.352276
_cell_angle_gamma 90.000000
_cell_volume 1266.076370
_symmetry_space_group_name_H-M "C 2"
_symmetry_group_IT_number 5
_symmetry_cell_setting 'monoclinic'
loop_
_space_group_symop_operation_xyz
x,y,z
-x,y,-z
1/2+x,1/2+y,z
1/2-x,1/2+y,-z
loop_
_atom_site_type_symbol
_atom_site_label
_atom_site_fract_x
_atom_site_fract_y
_atom_site_fract_z
Si Si1 0.496194 0.229080 0.079382
Si Si2 0.654779 0.867228 0.295177
Si Si3 0.766984 0.890211 0.850411
Si Si4 0.085716 0.181345 0.897943
Si Si5 0.544466 0.069822 0.668385
Si Si6 0.755961 0.685916 0.535210
Si Si7 0.771161 0.052101 0.738330
O O1 0.298222 0.319466 0.174493
O O2 0.407925 0.133133 0.154467
O O3 0.500000 0.204384 0.000000
O O4 0.820449 0.245283 0.973944
O O5 0.466627 0.775722 0.391728
O O6 0.923476 0.911959 0.235171
O O7 0.447348 0.958390 0.361527
O O8 0.800266 0.770573 0.830985
O O9 0.729452 0.948451 0.793199
O O10 0.500000 0.910931 0.000000
O O11 0.222162 0.101757 0.799574
O O12 0.000000 0.131059 0.000000
O O13 0.650149 0.148208 0.573734
O O14 0.686836 0.063659 0.690312
O O15 0.586582 0.592079 0.628442
O O16 0.000000 0.711574 0.500000
#
# Coordination Sequence:
#
# PCOD9129562 Si02
#       7
#     4   4   4   4   4   4   4
#     4  11  24  41  67 102 147 189 232 288 354 422
#     4  11  26  46  72 107 141 184 243 296 358 428
#     4  11  23  43  70 106 148 189 234 287 366 425
#     4  11  22  43  66 102 147 190 227 286 358 423
#     4  12  27  44  73 104 141 189 242 297 356 426
#     4  11  27  51  72 100 143 187 245 301 359 422
#     4  11  25  45  70 104 141 190 240 292 356 425
#
# _framework density 22.115569000000001
#
# number of rings (size 3 to 8) (size 9 to 14) (size 15 to 20)
#    0.000    0.857    4.286    2.571   10.000    2.857 
#    0.000    5.714    0.000    0.000    0.000    0.000 
#    0.000    0.000    0.000    0.000    0.000    0.000 
#
# Total GULP energy -78056.406683 kJ/mol
# GULP energy per Si atom -5575.457620 kJ/mol
# Density = 2.206523 g / cm^3
# Si number density = 22.115569 Si / 1000 Ang^3
#
#
#
# Elastic Constant Matrix: (Units=GPa)
#
#
# Indices 1 2 3 4 5 6 
#
# 1 118.4998 24.9430 45.1689 -0.0038 12.1820 0.0024
# 2 24.9430 82.2084 38.7796 -0.0094 21.3534 -0.0017
# 3 45.1689 38.7796 104.4682 -0.0209 10.3135 0.0056
# 4 -0.0038 -0.0094 -0.0209 20.7560 0.0028 4.6398
# 5 12.1820 21.3534 10.3135 0.0028 28.0884 -0.0001
# 6 0.0024 -0.0017 0.0056 4.6398 -0.0001 23.3710
#
#
#
# Elastic Compliance Matrix: (Units=1/GPa)
#
#
# Indices 1 2 3 4 5 6 
#
# 1 0.010353 -0.000582 -0.004006 -0.000002 -0.002577 0.000000
# 2 -0.000582 0.017742 -0.005217 0.000004 -0.011320 0.000002
# 3 -0.004006 -0.005217 0.013155 0.000011 0.000873 -0.000005
# 4 -0.000002 0.000004 0.000011 0.050416 -0.000011 -0.010009
# 5 -0.002577 -0.011320 0.000873 -0.000011 0.045004 0.000002
# 6 0.000000 0.000002 -0.000005 -0.010009 0.000002 0.044775
#
#
# Mechanical properties :
#
#
# Convention : Reuss Voigt Hill
#
# Bulk Modulus (GPa) = 46.21065 58.10662 52.15864
# Shear Modulus (GPa) = 24.00744 27.52874 25.76809
#
# Velocity S-wave (km/s) = 3.29833 3.53195 3.41714
# Velocity P-wave (km/s) = 5.95364 6.55470 6.26138
#
# Compressibility (1/GPa) = 0.02164003
#
# Stress axis : x y z
#
# Youngs Moduli (GPa) = 96.58834 56.36328 76.01901
#
# Poissons Ratio (x) = 0.03282 0.30452
# Poissons Ratio (y) = 0.05625 0.39657
# Poissons Ratio (z) = 0.38692 0.29403
#
# Static dielectric constant tensor:
#      x y z
#    x 2.182390 0.000010 -0.079440 
#    y 0.000010 1.771480 0.000010 
#    z -0.079440 0.000010 1.858440 
# 
# From -- ./inp_files/64705.got.cif
#   From: 2010.05.17/outbox.cif.g08.bks.cpg/sg5_33_cif.got.tgz:64705.got - 2010.06.03 18:56:24.
