data_PCOD9129422
_publ_section_title
;
Structure prediction by ZEFSAII (Michael W. Deem and Ramdas Pophale) SiO2 
 PCOD9129422
Probable space group: C 2
;
_chemical_formula_sum "Si O2"
_cell_formula_units_Z 20
_cell_length_a 7.992121
_cell_length_b 11.350111
_cell_length_c 11.361409
_cell_angle_alpha 90.000000
_cell_angle_beta 129.031649
_cell_angle_gamma 90.000000
_cell_volume 800.576016
_symmetry_space_group_name_H-M "C 2"
_symmetry_group_IT_number 5
_symmetry_cell_setting 'monoclinic'
loop_
_space_group_symop_operation_xyz
x,y,z
-x,y,-z
1/2+x,1/2+y,z
1/2-x,1/2+y,-z
loop_
_atom_site_type_symbol
_atom_site_label
_atom_site_fract_x
_atom_site_fract_y
_atom_site_fract_z
Si Si1 0.742827 0.692240 0.337836
Si Si2 0.799345 0.960419 0.824666
Si Si3 0.744194 0.347990 0.424679
Si Si4 0.424461 0.914717 0.835265
Si Si5 0.040978 0.071418 0.640091
O O1 0.802201 0.574269 0.291270
O O2 0.812540 0.746339 0.499815
O O3 0.730320 0.803409 0.250382
O O4 0.502902 0.651368 0.268305
O O5 0.861475 0.862744 0.752671
O O6 0.614055 0.911490 0.826026
O O7 0.000000 0.991502 0.000000
O O8 0.638236 0.466279 0.436713
O O9 0.000000 0.363459 0.500000
O O10 0.279300 0.026842 0.747982
O O11 0.500000 0.916646 0.000000
O O12 0.000000 0.135162 0.500000
#
# Coordination Sequence:
#
# PCOD9129422 Si02
#       5
#     4   4   4   4   4
#     4  11  24  45  74 103 144 189 243 289 370 432
#     4  11  25  49  77 105 149 196 240 304 367 432
#     4  11  21  46  74 107 144 191 240 301 361 437
#     4  12  25  48  72 105 148 190 242 302 362 432
#     4  11  23  44  70 104 143 184 239 294 356 430
#
# _framework density 24.982011
#
# number of rings (size 3 to 8) (size 9 to 14) (size 15 to 20)
#    0.000    0.800    4.000    3.600    0.000    0.000 
#   25.200    3.000    0.000    0.000    0.000    0.000 
#    0.000    0.000    0.000    0.000    0.000    0.000 
#
# Total GULP energy -55694.864529 kJ/mol
# GULP energy per Si atom -5569.486453 kJ/mol
# Density = 2.492515 g / cm^3
# Si number density = 24.982011 Si / 1000 Ang^3
#
#
#
# Elastic Constant Matrix: (Units=GPa)
#
#
# Indices 1 2 3 4 5 6 
#
# 1 95.1767 26.1143 42.3252 0.0000 -24.4906 0.0000
# 2 26.1143 96.1956 46.6422 0.0000 -4.4435 0.0000
# 3 42.3252 46.6422 159.6363 0.0000 -30.8335 0.0000
# 4 0.0000 0.0000 0.0000 2.7697 0.0000 -12.5579
# 5 -24.4906 -4.4435 -30.8335 0.0000 49.5597 0.0000
# 6 0.0000 0.0000 0.0000 -12.5579 0.0000 33.0899
#
#
#
# Elastic Compliance Matrix: (Units=1/GPa)
#
#
# Indices 1 2 3 4 5 6 
#
# 1 0.013344 -0.002512 -0.001789 0.000000 0.005256 0.000000
# 2 -0.002512 0.012655 -0.003469 0.000000 -0.002265 0.000000
# 3 -0.001789 -0.003469 0.008548 0.000000 0.004123 0.000000
# 4 0.000000 0.000000 0.000000 -0.500982 0.000000 -0.190126
# 5 0.005256 -0.002265 0.004123 0.000000 0.025137 0.000000
# 6 0.000000 0.000000 0.000000 -0.190126 0.000000 -0.041934
#
#
# Mechanical properties :
#
#
# Convention : Reuss Voigt Hill
#
# Bulk Modulus (GPa) = 52.61111 64.57467 58.59289
# Shear Modulus (GPa) = -10.83764 32.81232 10.98734
#
# Velocity S-wave (km/s) = -2.08509 3.62807 2.09944
# Velocity P-wave (km/s) = 3.91261 6.59205 5.42050
#
# Compressibility (1/GPa) = 0.01900739
#
# Stress axis : x y z
#
# Youngs Moduli (GPa) = 74.93986 79.02114 116.98037
#
# Poissons Ratio (x) = 0.19854 0.20924
# Poissons Ratio (y) = 0.18828 0.40578
# Poissons Ratio (z) = 0.13404 0.27411
#
# Static dielectric constant tensor:
#      x y z
#    x 1.995400 0.000000 0.037680 
#    y 0.000000 2.003670 0.000000 
#    z 0.037680 0.000000 1.987300 
# 
# From -- ./inp_files/14337.got.cif
#   From: 2010.05.17/outbox.cif.g08.bks.cpg/sg5_8_cif.got.tgz:14337.got - 2010.06.03 18:56:24.
