data_PCOD9129318
_publ_section_title
;
Structure prediction by ZEFSAII (Michael W. Deem and Ramdas Pophale) SiO2 
 PCOD9129318
Probable space group: C 2
;
_chemical_formula_sum "Si O2"
_cell_formula_units_Z 20
_cell_length_a 13.434653
_cell_length_b 6.857423
_cell_length_c 19.355773
_cell_angle_alpha 90.000000
_cell_angle_beta 143.763793
_cell_angle_gamma 90.000000
_cell_volume 1054.071949
_symmetry_space_group_name_H-M "C 2"
_symmetry_group_IT_number 5
_symmetry_cell_setting 'monoclinic'
loop_
_space_group_symop_operation_xyz
x,y,z
-x,y,-z
1/2+x,1/2+y,z
1/2-x,1/2+y,-z
loop_
_atom_site_type_symbol
_atom_site_label
_atom_site_fract_x
_atom_site_fract_y
_atom_site_fract_z
Si Si1 0.505952 0.305570 0.577265
Si Si2 0.360818 0.166071 0.979502
Si Si3 0.923179 0.483288 0.160115
Si Si4 0.569599 0.383655 0.764115
Si Si5 0.704704 0.657282 0.339847
O O1 0.500000 0.421907 0.500000
O O2 0.534758 0.415409 0.663659
O O3 0.329493 0.190696 0.474888
O O4 0.664344 0.163264 0.650577
O O5 0.562043 0.082320 0.906661
O O6 0.233949 0.001377 0.879227
O O7 0.245768 0.353204 0.932175
O O8 0.500000 0.209526 0.000000
O O9 0.913470 0.656427 0.209932
O O10 0.078206 0.339064 0.261364
O O11 0.410878 0.470169 0.716830
#
# Coordination Sequence:
#
# PCOD9129318 Si02
#       5
#     4   4   4   4   4
#     4   8  20  39  60  92 119 155 201 245 295 363
#     4  11  24  41  61  92 121 159 204 243 305 357
#     4  11  22  40  61  91 121 160 203 248 296 360
#     4  11  21  38  66  84 125 161 191 257 297 345
#     4   8  21  38  58  87 124 148 206 237 300 355
#
# _framework density 18.974036000000002
#
# number of rings (size 3 to 8) (size 9 to 14) (size 15 to 20)
#    1.200    0.800    2.000    1.200    2.800    2.400 
#    0.000    4.000    0.000    0.000    0.000    0.000 
#    0.000    0.000    0.000    0.000    0.000    0.000 
#
# Total GULP energy -55685.766135 kJ/mol
# GULP energy per Si atom -5568.576613 kJ/mol
# Density = 1.893085 g / cm^3
# Si number density = 18.974036 Si / 1000 Ang^3
#
#
#
# Elastic Constant Matrix: (Units=GPa)
#
#
# Indices 1 2 3 4 5 6 
#
# 1 89.4927 16.4975 28.6930 0.0000 1.3816 0.0000
# 2 16.4975 72.2971 9.4007 0.0000 -2.6930 0.0000
# 3 28.6930 9.4007 48.0203 0.0000 1.0112 0.0000
# 4 0.0000 0.0000 0.0000 6.7860 0.0000 -6.5879
# 5 1.3816 -2.6930 1.0112 0.0000 31.0755 0.0000
# 6 0.0000 0.0000 0.0000 -6.5879 0.0000 17.8003
#
#
#
# Elastic Compliance Matrix: (Units=1/GPa)
#
#
# Indices 1 2 3 4 5 6 
#
# 1 0.014160 -0.002210 -0.008017 0.000000 -0.000560 0.000000
# 2 -0.002210 0.014592 -0.001566 0.000000 0.001414 0.000000
# 3 -0.008017 -0.001566 0.025934 0.000000 -0.000623 0.000000
# 4 0.000000 0.000000 0.000000 0.230000 0.000000 0.085123
# 5 -0.000560 0.001414 -0.000623 0.000000 0.032347 0.000000
# 6 0.000000 0.000000 0.000000 0.085123 0.000000 0.087683
#
#
# Mechanical properties :
#
#
# Convention : Reuss Voigt Hill
#
# Bulk Modulus (GPa) = 32.15220 35.44361 33.79791
# Shear Modulus (GPa) = 11.39809 21.48030 16.43919
#
# Velocity S-wave (km/s) = 2.45362 3.36830 2.94667
# Velocity P-wave (km/s) = 5.00091 5.81789 5.42481
#
# Compressibility (1/GPa) = 0.03110207
#
# Stress axis : x y z
#
# Youngs Moduli (GPa) = 70.61948 68.52905 38.55886
#
# Poissons Ratio (x) = 0.15143 0.30912
# Poissons Ratio (y) = 0.15605 0.06039
# Poissons Ratio (z) = 0.56614 0.10732
#
# Static dielectric constant tensor:
#      x y z
#    x 1.646450 0.000000 -0.000120 
#    y 0.000000 1.623180 0.000000 
#    z -0.000120 0.000000 1.671010 
# 
# From -- ./inp_files/64920.got.cif
#   From: 2010.05.17/outbox.cif.g08.bks.cpg/sg5_33_cif.got.tgz:64920.got - 2010.06.03 18:56:24.
