data_PCOD9129894
_publ_section_title
;
Structure prediction by ZEFSAII (Michael W. Deem and Ramdas Pophale) SiO2 
 PCOD9129894
Probable space group: C 2
;
_chemical_formula_sum "Si O2"
_cell_formula_units_Z 30
_cell_length_a 8.909081
_cell_length_b 14.551108
_cell_length_c 12.070524
_cell_angle_alpha 90.000000
_cell_angle_beta 66.748136
_cell_angle_gamma 90.000000
_cell_volume 1437.692002
_symmetry_space_group_name_H-M "C 2"
_symmetry_group_IT_number 5
_symmetry_cell_setting 'monoclinic'
loop_
_space_group_symop_operation_xyz
x,y,z
-x,y,-z
1/2+x,1/2+y,z
1/2-x,1/2+y,-z
loop_
_atom_site_type_symbol
_atom_site_label
_atom_site_fract_x
_atom_site_fract_y
_atom_site_fract_z
Si Si1 0.000000 0.872340 0.500000
Si Si2 0.846674 0.079749 0.218242
Si Si3 0.179251 0.800040 0.000219
Si Si4 0.856681 0.752798 0.741306
Si Si5 0.811093 0.477793 0.527934
Si Si6 0.722241 0.602372 0.124562
Si Si7 0.350836 0.981956 0.906850
Si Si8 0.388312 0.090388 0.296148
O O1 0.084422 0.813951 0.377455
O O2 0.157894 0.922189 0.514967
O O3 0.794622 0.186365 0.243601
O O4 0.757763 0.020334 0.338688
O O5 0.785635 0.039227 0.120556
O O6 0.038045 0.072384 0.166082
O O7 0.173113 0.805703 0.135297
O O8 0.233371 0.698227 0.947740
O O9 0.000000 0.816682 0.000000
O O10 0.305218 0.875962 0.920913
O O11 0.997188 0.678694 0.728776
O O12 0.839205 0.559096 0.431426
O O13 0.000000 0.440671 0.500000
O O14 0.751451 0.612407 0.246833
O O15 0.833180 0.525415 0.033505
O O16 0.511064 0.007670 0.791085
#
# Coordination Sequence:
#
# PCOD9129894 Si02
#       8
#     2   4   4   4   4   4   4   4
#     4  12  30  46  72 110 138 182 252 304 346 428
#     4  11  24  46  72  95 141 196 228 292 364 423
#     4  12  24  40  70 106 142 187 234 290 361 435
#     4  11  24  47  67  96 145 183 231 291 357 416
#     4  12  25  48  77 101 139 190 243 291 363 419
#     4  12  23  44  67 107 141 179 242 283 357 438
#     4  11  24  41  70  99 144 188 227 294 361 417
#     4  11  23  47  73  96 142 192 230 292 358 426
#
# _framework density 20.866778
#
# number of rings (size 3 to 8) (size 9 to 14) (size 15 to 20)
#    0.000    0.533    6.667    3.200    5.600    1.067 
#    4.800    0.000    0.000    0.000    0.000    0.000 
#    0.000    0.000    0.000    0.000    0.000    0.000 
#
# Total GULP energy -83747.114826 kJ/mol
# GULP energy per Si atom -5583.140988 kJ/mol
# Density = 2.081928 g / cm^3
# Si number density = 20.866778 Si / 1000 Ang^3
#
#
#
# Elastic Constant Matrix: (Units=GPa)
#
#
# Indices 1 2 3 4 5 6 
#
# 1 99.4459 9.3367 44.4549 0.0000 -1.8207 0.0000
# 2 9.3367 57.6522 5.8455 0.0000 1.0783 0.0000
# 3 44.4549 5.8455 78.0316 0.0000 11.8934 0.0000
# 4 0.0000 0.0000 0.0000 33.2684 0.0000 -3.9079
# 5 -1.8207 1.0783 11.8934 0.0000 30.5527 0.0000
# 6 0.0000 0.0000 0.0000 -3.9079 0.0000 3.8693
#
#
#
# Elastic Compliance Matrix: (Units=1/GPa)
#
#
# Indices 1 2 3 4 5 6 
#
# 1 0.014103 -0.001494 -0.008567 0.000000 0.004228 0.000000
# 2 -0.001494 0.017637 -0.000384 0.000000 -0.000562 0.000000
# 3 -0.008567 -0.000384 0.018923 0.000000 -0.007863 0.000000
# 4 0.000000 0.000000 0.000000 0.034105 0.000000 0.034445
# 5 0.004228 -0.000562 -0.007863 0.000000 0.036063 0.000000
# 6 0.000000 0.000000 0.000000 0.034445 0.000000 0.293234
#
#
# Mechanical properties :
#
#
# Convention : Reuss Voigt Hill
#
# Bulk Modulus (GPa) = 33.58867 39.37819 36.48343
# Shear Modulus (GPa) = 11.23897 25.23759 18.23828
#
# Velocity S-wave (km/s) = 2.32331 3.48151 2.95961
# Velocity P-wave (km/s) = 4.82998 5.92228 5.40380
#
# Compressibility (1/GPa) = 0.02977195
#
# Stress axis : x y z
#
# Youngs Moduli (GPa) = 70.90608 56.69935 52.84483
#
# Poissons Ratio (x) = 0.08473 0.45273
# Poissons Ratio (y) = 0.10596 0.02030
# Poissons Ratio (z) = 0.60746 0.02178
#
# Static dielectric constant tensor:
#      x y z
#    x 1.808490 0.000000 0.014210 
#    y 0.000000 1.731390 0.000000 
#    z 0.014210 0.000000 1.713040 
# 
# From -- ./inp_files/36352.got.cif
#   From: 2010.05.17/outbox.cif.g08.bks.cpg/sg5_19_cif.got.tgz:36352.got - 2010.06.03 18:56:24.
