data_PCOD9129592
_publ_section_title
;
Structure prediction by ZEFSAII (Michael W. Deem and Ramdas Pophale) SiO2 
 PCOD9129592
Probable space group: C 2
;
_chemical_formula_sum "Si O2"
_cell_formula_units_Z 24
_cell_length_a 17.349472
_cell_length_b 9.651268
_cell_length_c 14.074357
_cell_angle_alpha 90.000000
_cell_angle_beta 29.203348
_cell_angle_gamma 90.000000
_cell_volume 1149.845561
_symmetry_space_group_name_H-M "C 2"
_symmetry_group_IT_number 5
_symmetry_cell_setting 'monoclinic'
loop_
_space_group_symop_operation_xyz
x,y,z
-x,y,-z
1/2+x,1/2+y,z
1/2-x,1/2+y,-z
loop_
_atom_site_type_symbol
_atom_site_label
_atom_site_fract_x
_atom_site_fract_y
_atom_site_fract_z
Si Si1 0.626422 0.902780 0.782078
Si Si2 0.247103 0.709183 0.626272
Si Si3 0.804169 0.563315 0.853772
Si Si4 0.856314 0.686125 0.473914
Si Si5 0.678762 0.487338 0.787397
Si Si6 0.566442 0.790238 0.191716
O O1 0.777815 0.803293 0.623183
O O2 0.533048 0.863728 0.785845
O O3 0.692971 0.057243 0.713642
O O4 0.500000 0.878992 0.000000
O O5 0.164410 0.730150 0.612562
O O6 0.190427 0.823518 0.761298
O O7 0.433685 0.733070 0.407290
O O8 0.777720 0.537329 0.770923
O O9 0.825907 0.411974 0.879050
O O10 0.966676 0.645034 0.694870
O O11 0.666396 0.660536 0.044542
O O12 0.747417 0.553458 0.617012
O O13 0.500000 0.529831 0.000000
#
# Coordination Sequence:
#
# PCOD9129592 Si02
#       6
#     4   4   4   4   4   4
#     4  11  23  43  68 102 136 188 236 290 358 420
#     4  11  23  44  68 100 138 181 238 286 353 424
#     4  12  26  44  72 105 146 186 247 298 358 426
#     4  11  22  44  69  98 140 184 234 288 353 424
#     4  12  25  43  72 101 138 191 235 292 356 426
#     4  11  26  44  69 103 141 191 240 296 358 425
#
# _framework density 20.872368000000002
#
# number of rings (size 3 to 8) (size 9 to 14) (size 15 to 20)
#    0.000    0.667    3.333    5.500    4.667    1.333 
#    0.000    0.000    3.667    0.000    0.000    0.000 
#    0.000    0.000    0.000    0.000    0.000    0.000 
#
# Total GULP energy -67112.417523 kJ/mol
# GULP energy per Si atom -5592.701460 kJ/mol
# Density = 2.082486 g / cm^3
# Si number density = 20.872368 Si / 1000 Ang^3
#
#
#
# Elastic Constant Matrix: (Units=GPa)
#
#
# Indices 1 2 3 4 5 6 
#
# 1 60.3763 29.3188 14.4689 0.0000 -6.1140 0.0000
# 2 29.3188 112.6474 23.7555 0.0000 -8.6613 0.0000
# 3 14.4689 23.7555 81.9222 0.0000 -9.6782 0.0000
# 4 0.0000 0.0000 0.0000 48.1063 0.0000 3.7373
# 5 -6.1140 -8.6613 -9.6782 0.0000 25.8258 0.0000
# 6 0.0000 0.0000 0.0000 3.7373 0.0000 36.2773
#
#
#
# Elastic Compliance Matrix: (Units=1/GPa)
#
#
# Indices 1 2 3 4 5 6 
#
# 1 0.019425 -0.004481 -0.001847 0.000000 0.002403 0.000000
# 2 -0.004481 0.010615 -0.002084 0.000000 0.001718 0.000000
# 3 -0.001847 -0.002084 0.013605 0.000000 0.003962 0.000000
# 4 0.000000 0.000000 0.000000 0.020955 0.000000 -0.002159
# 5 0.002403 0.001718 0.003962 0.000000 0.041351 0.000000
# 6 0.000000 0.000000 0.000000 -0.002159 0.000000 0.027788
#
#
# Mechanical properties :
#
#
# Convention : Reuss Voigt Hill
#
# Bulk Modulus (GPa) = 37.28465 43.33693 40.31079
# Shear Modulus (GPa) = 31.34706 34.53541 32.94124
#
# Velocity S-wave (km/s) = 3.87957 4.07209 3.97699
# Velocity P-wave (km/s) = 6.16198 6.55112 6.35953
#
# Compressibility (1/GPa) = 0.02682069
#
# Stress axis : x y z
#
# Youngs Moduli (GPa) = 51.47993 94.20491 73.50073
#
# Poissons Ratio (x) = 0.42217 0.13578
# Poissons Ratio (y) = 0.23070 0.15315
# Poissons Ratio (z) = 0.09510 0.19629
#
# Static dielectric constant tensor:
#      x y z
#    x 1.739570 0.000000 0.003050 
#    y 0.000000 1.798600 0.000000 
#    z 0.003050 0.000000 1.735180 
# 
# From -- ./inp_files/22892.got.cif
#   From: 2010.05.17/outbox.cif.g08.bks.cpg/sg5_12_cif.got.tgz:22892.got - 2010.06.03 18:56:24.
