data_PCOD9129770
_publ_section_title
;
Structure prediction by ZEFSAII (Michael W. Deem and Ramdas Pophale) SiO2 
 PCOD9129770
Probable space group: C 2
;
_chemical_formula_sum "Si O2"
_cell_formula_units_Z 18
_cell_length_a 10.022472
_cell_length_b 16.611775
_cell_length_c 5.108318
_cell_angle_alpha 90.000000
_cell_angle_beta 66.192750
_cell_angle_gamma 90.000000
_cell_volume 778.119905
_symmetry_space_group_name_H-M "C 2"
_symmetry_group_IT_number 5
_symmetry_cell_setting 'monoclinic'
loop_
_space_group_symop_operation_xyz
x,y,z
-x,y,-z
1/2+x,1/2+y,z
1/2-x,1/2+y,-z
loop_
_atom_site_type_symbol
_atom_site_label
_atom_site_fract_x
_atom_site_fract_y
_atom_site_fract_z
Si Si1 0.240536 0.949100 0.924198
Si Si2 0.500000 0.340624 0.000000
Si Si3 0.403667 0.785081 0.823408
Si Si4 0.169852 0.049001 0.458504
Si Si5 0.844242 0.693817 0.205060
O O1 0.097295 0.896539 0.101830
O O2 0.360337 0.879065 0.819394
O O3 0.201942 0.992658 0.682063
O O4 0.256223 0.013025 0.140653
O O5 0.599023 0.281464 0.743422
O O6 0.500000 0.760977 0.500000
O O7 0.263298 0.726326 0.937975
O O8 0.500000 0.776260 0.000000
O O9 0.247149 0.134522 0.450592
O O10 0.000000 0.056072 0.500000
O O11 0.000000 0.656034 0.000000
#
# Coordination Sequence:
#
# PCOD9129770 Si02
#       5
#     4   2   4   4   4
#     4  11  23  43  70  99 137 188 237 283 351 424
#     4   8  18  46  66  96 130 188 226 278 338 428
#     4  11  24  46  71 101 136 189 243 291 347 434
#     4  12  23  41  70 106 143 181 235 293 357 415
#     4   9  23  44  71 101 145 183 237 287 361 417
#
# _framework density 23.132681999999999
#
# number of rings (size 3 to 8) (size 9 to 14) (size 15 to 20)
#    0.667    0.889    2.222    2.000    0.000    6.222 
#    0.000    7.778    0.000    0.000    0.000    0.000 
#    0.000    0.000    0.000    0.000    0.000    0.000 
#
# Total GULP energy -50163.921910 kJ/mol
# GULP energy per Si atom -5573.769101 kJ/mol
# Density = 2.308003 g / cm^3
# Si number density = 23.132682 Si / 1000 Ang^3
#
#
#
# Elastic Constant Matrix: (Units=GPa)
#
#
# Indices 1 2 3 4 5 6 
#
# 1 151.0044 57.8296 64.9910 0.0000 5.6114 0.0000
# 2 57.8296 97.0584 33.7413 0.0000 0.4862 0.0000
# 3 64.9910 33.7413 97.4321 0.0000 22.3212 0.0000
# 4 0.0000 0.0000 0.0000 29.9644 0.0000 -16.5611
# 5 5.6114 0.4862 22.3212 0.0000 27.6788 0.0000
# 6 0.0000 0.0000 0.0000 -16.5611 0.0000 40.7135
#
#
#
# Elastic Compliance Matrix: (Units=1/GPa)
#
#
# Indices 1 2 3 4 5 6 
#
# 1 0.010960 -0.004269 -0.006551 0.000000 0.003136 0.000000
# 2 -0.004269 0.013704 -0.002504 0.000000 0.002644 0.000000
# 3 -0.006551 -0.002504 0.018628 0.000000 -0.013650 0.000000
# 4 0.000000 0.000000 0.000000 0.043052 0.000000 0.017512
# 5 0.003136 0.002644 -0.013650 0.000000 0.046454 0.000000
# 6 0.000000 0.000000 0.000000 0.017512 0.000000 0.031685
#
#
# Mechanical properties :
#
#
# Convention : Reuss Voigt Hill
#
# Bulk Modulus (GPa) = 60.08162 73.17986 66.63074
# Shear Modulus (GPa) = 25.42231 32.26689 28.84460
#
# Velocity S-wave (km/s) = 3.31868 3.73884 3.53501
# Velocity P-wave (km/s) = 6.38074 7.09521 6.74744
#
# Compressibility (1/GPa) = 0.01664402
#
# Stress axis : x y z
#
# Youngs Moduli (GPa) = 91.24132 72.97328 53.68391
#
# Poissons Ratio (x) = 0.31149 0.35168
# Poissons Ratio (y) = 0.38947 0.13443
# Poissons Ratio (z) = 0.59771 0.18273
#
# Static dielectric constant tensor:
#      x y z
#    x 1.903290 0.000000 -0.040200 
#    y 0.000000 1.886540 0.000000 
#    z -0.040200 0.000000 1.810620 
# 
# From -- ./inp_files/2340.got.cif
#   From: 2010.05.17/outbox.cif.g08.bks.cpg/sg5_2_cif.got.tgz:2340.got - 2010.06.03 18:56:24.
