data_PCOD9129463
_publ_section_title
;
Structure prediction by ZEFSAII (Michael W. Deem and Ramdas Pophale) SiO2 
 PCOD9129463
Probable space group: C 2
;
_chemical_formula_sum "Si O2"
_cell_formula_units_Z 20
_cell_length_a 7.065697
_cell_length_b 26.441306
_cell_length_c 5.214332
_cell_angle_alpha 90.000000
_cell_angle_beta 67.179423
_cell_angle_gamma 90.000000
_cell_volume 897.919597
_symmetry_space_group_name_H-M "C 2"
_symmetry_group_IT_number 5
_symmetry_cell_setting 'monoclinic'
loop_
_space_group_symop_operation_xyz
x,y,z
-x,y,-z
1/2+x,1/2+y,z
1/2-x,1/2+y,-z
loop_
_atom_site_type_symbol
_atom_site_label
_atom_site_fract_x
_atom_site_fract_y
_atom_site_fract_z
Si Si1 0.500000 0.107280 0.000000
Si Si2 0.710007 0.343200 0.726951
Si Si3 0.783507 0.199035 0.965228
Si Si4 0.859172 0.956701 0.323977
Si Si5 0.000000 0.272253 0.500000
Si Si6 0.000000 0.537837 0.500000
Si Si7 0.000000 0.763348 0.500000
O O1 0.691532 0.144868 0.943499
O O2 0.516727 0.072673 0.741321
O O3 0.739046 0.400495 0.626081
O O4 0.906884 0.316020 0.746556
O O5 0.668446 0.303383 0.518732
O O6 0.500000 0.341457 0.000000
O O7 0.833031 0.229656 0.681362
O O8 0.618559 0.229101 0.228677
O O9 0.000000 0.196474 0.000000
O O10 0.000000 0.961268 0.500000
O O11 0.694467 0.000775 0.393888
O O12 0.000000 0.959355 0.000000
#
# Coordination Sequence:
#
# PCOD9129463 Si02
#       7
#     2   4   4   4   2   2   2
#     4  12  30  52  74 102 144 192 250 324 370 412
#     4  11  22  39  67 106 151 189 225 288 356 437
#     4  12  27  44  72 105 145 195 247 296 358 443
#     4  11  25  47  77 110 145 189 243 299 369 445
#     4  12  23  40  66 106 144 192 239 278 358 444
#     4  12  28  54  74 104 140 188 254 322 370 418
#     4  12  21  44  66 106 152 188 229 286 352 440
#
# _framework density 22.273710999999999
#
# number of rings (size 3 to 8) (size 9 to 14) (size 15 to 20)
#    0.000    0.400    5.000    3.600    2.800    2.400 
#    0.000    0.000    0.000    0.000    0.000    0.000 
#    0.000    0.000    0.000    0.000    0.000    0.000 
#
# Total GULP energy -55766.482882 kJ/mol
# GULP energy per Si atom -5576.648288 kJ/mol
# Density = 2.222302 g / cm^3
# Si number density = 22.273711 Si / 1000 Ang^3
#
#
#
# Elastic Constant Matrix: (Units=GPa)
#
#
# Indices 1 2 3 4 5 6 
#
# 1 136.1397 79.3111 57.8480 0.0000 -16.0572 0.0000
# 2 79.3111 227.9064 95.9246 0.0000 -10.4227 0.0000
# 3 57.8480 95.9246 155.7587 0.0000 -8.7959 0.0000
# 4 0.0000 0.0000 0.0000 71.6960 0.0000 -35.7335
# 5 -16.0572 -10.4227 -8.7959 0.0000 38.8597 0.0000
# 6 0.0000 0.0000 0.0000 -35.7335 0.0000 62.8309
#
#
#
# Elastic Compliance Matrix: (Units=1/GPa)
#
#
# Indices 1 2 3 4 5 6 
#
# 1 0.010011 -0.002501 -0.002008 0.000000 0.003011 0.000000
# 2 -0.002501 0.006571 -0.003117 0.000000 0.000024 0.000000
# 3 -0.002008 -0.003117 0.009108 0.000000 0.000396 0.000000
# 4 0.000000 0.000000 0.000000 0.019465 0.000000 0.011070
# 5 0.003011 0.000024 0.000396 0.000000 0.027074 0.000000
# 6 0.000000 0.000000 0.000000 0.011070 0.000000 0.022212
#
#
# Mechanical properties :
#
#
# Convention : Reuss Voigt Hill
#
# Bulk Modulus (GPa) = 95.79660 109.55248 102.67454
# Shear Modulus (GPa) = 44.18141 53.79206 48.98673
#
# Velocity S-wave (km/s) = 4.45856 4.91964 4.69476
# Velocity P-wave (km/s) = 8.34309 9.03117 8.69394
#
# Compressibility (1/GPa) = 0.01043878
#
# Stress axis : x y z
#
# Youngs Moduli (GPa) = 99.89380 152.18572 109.79957
#
# Poissons Ratio (x) = 0.38061 0.22043
# Poissons Ratio (y) = 0.24983 0.34220
# Poissons Ratio (z) = 0.20055 0.47429
#
# Static dielectric constant tensor:
#      x y z
#    x 1.418310 0.000000 0.053750 
#    y 0.000000 1.767410 0.000000 
#    z 0.053750 0.000000 1.823210 
# 
# From -- ./inp_files/2851.got.cif
#   From: 2010.05.17/outbox.cif.g08.bks.cpg/sg5_2_cif.got.tgz:2851.got - 2010.06.03 18:56:24.
