data_PCOD9129711
_publ_section_title
;
Structure prediction by ZEFSAII (Michael W. Deem and Ramdas Pophale) SiO2 
 PCOD9129711
Probable space group: C 2
;
_chemical_formula_sum "Si O2"
_cell_formula_units_Z 24
_cell_length_a 15.086711
_cell_length_b 8.526314
_cell_length_c 14.899223
_cell_angle_alpha 90.000000
_cell_angle_beta 39.117280
_cell_angle_gamma 90.000000
_cell_volume 1209.168451
_symmetry_space_group_name_H-M "C 2"
_symmetry_group_IT_number 5
_symmetry_cell_setting 'monoclinic'
loop_
_space_group_symop_operation_xyz
x,y,z
-x,y,-z
1/2+x,1/2+y,z
1/2-x,1/2+y,-z
loop_
_atom_site_type_symbol
_atom_site_label
_atom_site_fract_x
_atom_site_fract_y
_atom_site_fract_z
Si Si1 0.630507 0.903670 0.178121
Si Si2 0.815754 0.769979 0.877342
Si Si3 0.157924 0.778054 0.840255
Si Si4 0.155717 0.403332 0.839155
Si Si5 0.835144 0.278688 0.370396
Si Si6 0.385057 0.408811 0.321620
O O1 0.727794 0.857608 0.185407
O O2 0.469242 0.854986 0.314933
O O3 0.644182 0.088096 0.148462
O O4 0.692365 0.810595 0.043960
O O5 0.764140 0.816218 0.819132
O O6 0.950206 0.872028 0.799337
O O7 0.177346 0.590465 0.827464
O O8 0.166737 0.840587 0.732466
O O9 0.000000 0.811985 0.000000
O O10 0.167848 0.347261 0.727693
O O11 0.000000 0.370169 0.000000
O O12 0.696693 0.323382 0.533895
O O13 0.856219 0.092955 0.349329
#
# Coordination Sequence:
#
# PCOD9129711 Si02
#       6
#     4   4   4   4   4   4
#     4  12  24  41  67  99 132 172 221 269 324 387
#     4  12  24  41  67  99 132 172 221 269 324 387
#     4  11  23  41  68  99 132 171 220 271 323 385
#     4  11  23  41  68  99 132 171 220 271 323 385
#     4  12  26  45  68  97 135 174 217 271 331 389
#     4  12  26  45  68  97 135 174 217 271 331 389
#
# _framework density 19.848351000000001
#
# number of rings (size 3 to 8) (size 9 to 14) (size 15 to 20)
#    0.000    0.333    3.333    7.000    0.000    2.667 
#    0.000    6.667    0.000    0.000    0.000    0.000 
#    0.000    0.000    0.000    0.000    0.000    0.000 
#
# Total GULP energy -67209.196987 kJ/mol
# GULP energy per Si atom -5600.766416 kJ/mol
# Density = 1.980318 g / cm^3
# Si number density = 19.848351 Si / 1000 Ang^3
#
#
#
# Elastic Constant Matrix: (Units=GPa)
#
#
# Indices 1 2 3 4 5 6 
#
# 1 75.5180 -22.0478 -10.4936 0.0000 16.0834 0.0000
# 2 -22.0478 68.4388 -5.1292 0.0000 9.4542 0.0000
# 3 -10.4936 -5.1292 42.5233 0.0000 18.3246 0.0000
# 4 0.0000 0.0000 0.0000 27.7157 0.0000 0.4107
# 5 16.0834 9.4542 18.3246 0.0000 34.3659 0.0000
# 6 0.0000 0.0000 0.0000 0.4107 0.0000 28.4775
#
#
#
# Elastic Compliance Matrix: (Units=1/GPa)
#
#
# Indices 1 2 3 4 5 6 
#
# 1 0.024909 0.012874 0.018501 0.000000 -0.025064 0.000000
# 2 0.012874 0.022607 0.014516 0.000000 -0.019984 0.000000
# 3 0.018501 0.014516 0.045812 0.000000 -0.037079 0.000000
# 4 0.000000 0.000000 0.000000 0.036088 0.000000 -0.000520
# 5 -0.025064 -0.019984 -0.037079 0.000000 0.066098 0.000000
# 6 0.000000 0.000000 0.000000 -0.000520 0.000000 0.035123
#
#
# Mechanical properties :
#
#
# Convention : Reuss Voigt Hill
#
# Bulk Modulus (GPa) = 5.40226 12.34875 8.87550
# Shear Modulus (GPa) = 24.93013 33.05519 28.99266
#
# Velocity S-wave (km/s) = 3.54790 4.08534 3.82607
# Velocity P-wave (km/s) = 4.41714 5.33745 4.89896
#
# Compressibility (1/GPa) = 0.18510778
#
# Stress axis : x y z
#
# Youngs Moduli (GPa) = 40.14585 44.23331 21.82856
#
# Poissons Ratio (x) = -0.56944 -0.40384
# Poissons Ratio (y) = -0.51682 -0.31686
# Poissons Ratio (z) = -0.74272 -0.64207
#
# Static dielectric constant tensor:
#      x y z
#    x 1.670820 0.000000 -0.000130 
#    y 0.000000 1.667820 0.000000 
#    z -0.000130 0.000000 1.655880 
# 
# From -- ./inp_files/54074.got.cif
#   From: 2010.05.17/outbox.cif.g08.bks.cpg/sg5_28_cif.got.tgz:54074.got - 2010.06.03 18:56:24.
