data_PCOD9129160
_publ_section_title
;
Structure prediction by ZEFSAII (Michael W. Deem and Ramdas Pophale) SiO2 
 PCOD9129160
Probable space group: C 2
;
_chemical_formula_sum "Si O2"
_cell_formula_units_Z 24
_cell_length_a 12.809318
_cell_length_b 17.455500
_cell_length_c 9.999238
_cell_angle_alpha 90.000000
_cell_angle_beta 34.992591
_cell_angle_gamma 90.000000
_cell_volume 1282.142490
_symmetry_space_group_name_H-M "C 2"
_symmetry_group_IT_number 5
_symmetry_cell_setting 'monoclinic'
loop_
_space_group_symop_operation_xyz
x,y,z
-x,y,-z
1/2+x,1/2+y,z
1/2-x,1/2+y,-z
loop_
_atom_site_type_symbol
_atom_site_label
_atom_site_fract_x
_atom_site_fract_y
_atom_site_fract_z
Si Si1 0.500000 0.017550 0.000000
Si Si2 0.500000 0.001375 0.500000
Si Si3 0.877063 0.403307 0.365469
Si Si4 0.624426 0.800267 0.236898
Si Si5 0.019496 0.892934 0.130868
Si Si6 0.821670 0.126303 0.778060
Si Si7 0.124986 0.067914 0.983716
O O1 0.342177 0.073158 0.105109
O O2 0.425033 0.960519 0.194307
O O3 0.433122 0.951022 0.442331
O O4 0.328888 0.052710 0.719918
O O5 0.664615 0.381659 0.594743
O O6 0.986431 0.323073 0.262191
O O7 0.500000 0.813583 0.500000
O O8 0.710228 0.717528 0.178271
O O9 0.791564 0.856049 0.025866
O O10 0.043399 0.983792 0.096394
O O11 0.000000 0.863271 0.000000
O O12 0.869797 0.106949 0.879644
O O13 0.000000 0.113641 0.500000
O O14 0.000000 0.104543 0.000000
#
# Coordination Sequence:
#
# PCOD9129160 Si02
#       7
#     2   2   4   4   4   4   4
#     4  12  26  42  64  94 138 166 204 268 332 370
#     4  12  18  36  66  88 114 160 218 260 298 366
#     4  12  21  39  65  92 121 165 216 265 309 373
#     4  11  21  38  62  92 127 164 213 256 312 380
#     4  11  18  32  65  92 109 152 215 265 291 356
#     4  11  26  40  61  95 135 169 199 261 332 382
#     4  11  21  38  63  91 118 159 216 257 302 372
#
# _framework density 18.718667
#
# number of rings (size 3 to 8) (size 9 to 14) (size 15 to 20)
#    0.000    0.667    9.167    1.000    1.167    0.000 
#    1.500    0.000    0.000    0.000    0.000    0.000 
#    0.000    0.000    0.000    0.000    0.000    0.000 
#
# Total GULP energy -66835.679068 kJ/mol
# GULP energy per Si atom -5569.639922 kJ/mol
# Density = 1.867606 g / cm^3
# Si number density = 18.718667 Si / 1000 Ang^3
#
#
#
# Elastic Constant Matrix: (Units=GPa)
#
#
# Indices 1 2 3 4 5 6 
#
# 1 84.5169 21.7302 29.0521 -0.0009 8.8946 -0.0023
# 2 21.7302 56.1973 14.3763 -0.0005 7.9485 -0.0013
# 3 29.0521 14.3763 71.3263 -0.0033 -7.0176 0.0029
# 4 -0.0009 -0.0005 -0.0033 26.5387 0.0020 -38.2159
# 5 8.8946 7.9485 -7.0176 0.0020 35.1002 -0.0017
# 6 -0.0023 -0.0013 0.0029 -38.2159 -0.0017 123.3411
#
#
#
# Elastic Compliance Matrix: (Units=1/GPa)
#
#
# Indices 1 2 3 4 5 6 
#
# 1 0.015266 -0.003813 -0.005861 0.000001 -0.004177 0.000001
# 2 -0.003813 0.020656 -0.003035 0.000001 -0.004318 0.000000
# 3 -0.005861 -0.003035 0.017578 0.000001 0.005687 0.000000
# 4 0.000001 0.000001 0.000001 0.068037 -0.000003 0.021081
# 5 -0.004177 -0.004318 0.005687 -0.000003 0.031663 -0.000001
# 6 0.000001 0.000000 0.000000 0.021081 -0.000001 0.014639
#
#
# Mechanical properties :
#
#
# Convention : Reuss Voigt Hill
#
# Bulk Modulus (GPa) = 35.60834 38.03973 36.82404
# Shear Modulus (GPa) = 24.67683 46.78813 35.73248
#
# Velocity S-wave (km/s) = 3.63478 5.00497 4.37386
# Velocity P-wave (km/s) = 6.05638 7.33250 6.72478
#
# Compressibility (1/GPa) = 0.02808331
#
# Stress axis : x y z
#
# Youngs Moduli (GPa) = 65.50300 48.41187 56.88797
#
# Poissons Ratio (x) = 0.18460 0.33340
# Poissons Ratio (y) = 0.24978 0.17266
# Poissons Ratio (z) = 0.38389 0.14693
#
# Static dielectric constant tensor:
#      x y z
#    x -0.447220 0.000020 2.020220 
#    y 0.000020 1.681360 -0.000020 
#    z 2.020220 -0.000020 -0.262270 
# 
# From -- ./inp_files/43029.got.cif
#   From: 2010.05.17/outbox.cif.g08.bks.cpg/sg5_22_cif.got.tgz:43029.got - 2010.06.03 18:56:24.
