data_PCOD9129206
_publ_section_title
;
Structure prediction by ZEFSAII (Michael W. Deem and Ramdas Pophale) SiO2 
 PCOD9129206
Probable space group: C 2
;
_chemical_formula_sum "Si O2"
_cell_formula_units_Z 24
_cell_length_a 20.170483
_cell_length_b 12.091313
_cell_length_c 5.179150
_cell_angle_alpha 90.000000
_cell_angle_beta 118.222799
_cell_angle_gamma 90.000000
_cell_volume 1112.963742
_symmetry_space_group_name_H-M "C 2"
_symmetry_group_IT_number 5
_symmetry_cell_setting 'monoclinic'
loop_
_space_group_symop_operation_xyz
x,y,z
-x,y,-z
1/2+x,1/2+y,z
1/2-x,1/2+y,-z
loop_
_atom_site_type_symbol
_atom_site_label
_atom_site_fract_x
_atom_site_fract_y
_atom_site_fract_z
Si Si1 0.548263 0.559510 0.351825
Si Si2 0.229792 0.486669 0.948540
Si Si3 0.290371 0.603816 0.558093
Si Si4 0.922214 0.832488 0.710575
Si Si5 0.409933 0.123818 0.358307
Si Si6 0.195583 0.788025 0.156641
O O1 0.500000 0.607663 0.500000
O O2 0.625394 0.613521 0.398263
O O3 0.569647 0.432670 0.475127
O O4 0.500000 0.552996 0.000000
O O5 0.275179 0.562866 0.822227
O O6 0.142352 0.515612 0.724802
O O7 0.257135 0.361641 0.954641
O O8 0.248152 0.524457 0.272381
O O9 0.251442 0.722079 0.443166
O O10 0.904156 0.710476 0.581324
O O11 0.856223 0.870473 0.776026
O O12 0.000000 0.823024 0.000000
O O13 0.500000 0.104358 0.500000
O O14 0.365399 0.201024 0.068915
#
# Coordination Sequence:
#
# PCOD9129206 Si02
#       6
#     4   4   4   4   4   4
#     4  11  23  37  59  89 122 158 199 255 306 360
#     4  11  24  40  61  91 127 161 202 253 308 366
#     4  11  23  40  61  88 123 163 202 249 306 366
#     4  11  20  32  61  90 122 150 201 258 315 354
#     4  11  22  38  61  92 126 160 207 256 308 365
#     4  11  23  39  61  91 123 162 205 255 306 368
#
# _framework density 21.564045
#
# number of rings (size 3 to 8) (size 9 to 14) (size 15 to 20)
#    0.000    1.000    5.000    2.500    4.667    0.000 
#    0.000    0.833    0.000    3.000    0.000    0.000 
#    0.000    0.000    0.000    0.000    0.000    0.000 
#
# Total GULP energy -66909.106293 kJ/mol
# GULP energy per Si atom -5575.758858 kJ/mol
# Density = 2.151496 g / cm^3
# Si number density = 21.564045 Si / 1000 Ang^3
#
#
#
# Elastic Constant Matrix: (Units=GPa)
#
#
# Indices 1 2 3 4 5 6 
#
# 1 142.0645 27.2303 26.0144 0.0000 28.9225 0.0000
# 2 27.2303 28.7432 7.5853 0.0000 12.1965 0.0000
# 3 26.0144 7.5853 73.6945 0.0000 7.8147 0.0000
# 4 0.0000 0.0000 0.0000 21.0256 0.0000 0.2737
# 5 28.9225 12.1965 7.8147 0.0000 44.1386 0.0000
# 6 0.0000 0.0000 0.0000 0.2737 0.0000 25.1778
#
#
#
# Elastic Compliance Matrix: (Units=1/GPa)
#
#
# Indices 1 2 3 4 5 6 
#
# 1 0.009563 -0.006769 -0.002255 0.000000 -0.003997 0.000000
# 2 -0.006769 0.044845 -0.001409 0.000000 -0.007707 0.000000
# 3 -0.002255 -0.001409 0.014587 0.000000 -0.000715 0.000000
# 4 0.000000 0.000000 0.000000 0.047568 0.000000 -0.000517
# 5 -0.003997 -0.007707 -0.000715 0.000000 0.027531 0.000000
# 6 0.000000 0.000000 0.000000 -0.000517 0.000000 0.039723
#
#
# Mechanical properties :
#
#
# Convention : Reuss Voigt Hill
#
# Bulk Modulus (GPa) = 20.77765 40.68469 30.73117
# Shear Modulus (GPa) = 22.65249 30.31323 26.48286
#
# Velocity S-wave (km/s) = 3.24462 3.75337 3.50823
# Velocity P-wave (km/s) = 4.86754 6.13935 5.54006
#
# Compressibility (1/GPa) = 0.04812865
#
# Stress axis : x y z
#
# Youngs Moduli (GPa) = 104.56855 22.29883 68.55626
#
# Poissons Ratio (x) = 0.15093 0.15461
# Poissons Ratio (y) = 0.70779 0.09661
# Poissons Ratio (z) = 0.23583 0.03142
#
# Static dielectric constant tensor:
#      x y z
#    x 1.843580 0.000000 -0.007260 
#    y 0.000000 1.827810 0.000000 
#    z -0.007260 0.000000 1.865360 
# 
# From -- ./inp_files/6834.got.cif
#   From: 2010.05.17/outbox.cif.g08.bks.cpg/sg5_4_cif.got.tgz:6834.got - 2010.06.03 18:56:24.
