data_PCOD9129130
_publ_section_title
;
Structure prediction by ZEFSAII (Michael W. Deem and Ramdas Pophale) SiO2 
 PCOD9129130
Probable space group: C 2
;
_chemical_formula_sum "Si O2"
_cell_formula_units_Z 20
_cell_length_a 13.431676
_cell_length_b 5.074024
_cell_length_c 12.672253
_cell_angle_alpha 90.000000
_cell_angle_beta 127.418045
_cell_angle_gamma 90.000000
_cell_volume 685.929022
_symmetry_space_group_name_H-M "C 2"
_symmetry_group_IT_number 5
_symmetry_cell_setting 'monoclinic'
loop_
_space_group_symop_operation_xyz
x,y,z
-x,y,-z
1/2+x,1/2+y,z
1/2-x,1/2+y,-z
loop_
_atom_site_type_symbol
_atom_site_label
_atom_site_fract_x
_atom_site_fract_y
_atom_site_fract_z
Si Si1 0.368434 0.170250 0.596664
Si Si2 0.472998 0.676810 0.360892
Si Si3 0.457719 0.939849 0.085070
Si Si4 0.191584 0.777999 0.842916
Si Si5 0.694379 0.557316 0.287175
O O1 0.326241 0.253658 0.687865
O O2 0.595530 0.163640 0.868350
O O3 0.450398 0.411419 0.610553
O O4 0.455528 0.918017 0.645181
O O5 0.500000 0.730391 0.500000
O O6 0.237729 0.656700 0.561529
O O7 0.290225 0.103702 0.252704
O O8 0.845779 0.069428 0.225029
O O9 0.500000 0.064509 0.000000
O O10 0.329048 0.780950 0.981594
O O11 0.432011 0.720857 0.820652
#
# Coordination Sequence:
#
# PCOD9129130 Si02
#       5
#     4   4   4   4   4
#     4  12  28  51  88 139 189 232 311 393 474 560
#     4  12  28  53  90 136 186 250 305 390 473 568
#     4  10  27  58  96 134 179 247 325 392 468 559
#     4  11  27  57  95 134 187 252 319 389 472 564
#     4  11  27  56  89 139 187 245 312 391 467 575
#
# _framework density 29.157536
#
# number of rings (size 3 to 8) (size 9 to 14) (size 15 to 20)
#    0.000    0.800    2.000    1.800    8.400    0.000 
#    3.600    2.000    4.400    3.600    0.000    0.000 
#    0.000    0.000    0.000    0.000    0.000    0.000 
#
# Total GULP energy -56008.489091 kJ/mol
# GULP energy per Si atom -5600.848909 kJ/mol
# Density = 2.909117 g / cm^3
# Si number density = 29.157536 Si / 1000 Ang^3
#
#
#
# Elastic Constant Matrix: (Units=GPa)
#
#
# Indices 1 2 3 4 5 6 
#
# 1 223.1362 84.2245 84.2720 0.0000 -28.8965 0.0000
# 2 84.2245 192.4672 59.5153 0.0006 -14.4989 0.0008
# 3 84.2720 59.5153 163.9618 -0.0001 0.2523 0.0001
# 4 0.0000 0.0006 -0.0001 51.6968 0.0001 -7.5444
# 5 -28.8965 -14.4989 0.2523 0.0001 76.7439 0.0000
# 6 0.0000 0.0008 0.0001 -7.5444 0.0000 61.7476
#
#
#
# Elastic Compliance Matrix: (Units=1/GPa)
#
#
# Indices 1 2 3 4 5 6 
#
# 1 0.006449 -0.001846 -0.002648 0.000000 0.002088 0.000000
# 2 -0.001846 0.006478 -0.001403 0.000000 0.000533 0.000000
# 3 -0.002648 -0.001403 0.007971 0.000000 -0.001288 0.000000
# 4 0.000000 0.000000 0.000000 0.019695 0.000000 0.002406
# 5 0.002088 0.000533 -0.001288 0.000000 0.013922 0.000000
# 6 0.000000 0.000000 0.000000 0.002406 0.000000 0.016489
#
#
# Mechanical properties :
#
#
# Convention : Reuss Voigt Hill
#
# Bulk Modulus (GPa) = 109.84587 115.06543 112.45565
# Shear Modulus (GPa) = 58.25401 61.47455 59.86428
#
# Velocity S-wave (km/s) = 4.47464 4.59667 4.53607
# Velocity P-wave (km/s) = 8.02818 8.22931 8.12936
#
# Compressibility (1/GPa) = 0.00910366
#
# Stress axis : x y z
#
# Youngs Moduli (GPa) = 155.07055 154.37806 125.45263
#
# Poissons Ratio (x) = 0.28498 0.33215
# Poissons Ratio (y) = 0.28626 0.17605
# Poissons Ratio (z) = 0.41057 0.21664
#
# Static dielectric constant tensor:
#      x y z
#    x 2.386820 0.000000 0.079360 
#    y 0.000000 2.350870 0.000000 
#    z 0.079360 0.000000 2.684760 
# 
# From -- ./inp_files/38167.got.cif
#   From: 2010.05.17/outbox.cif.g08.bks.cpg/sg5_20_cif.got.tgz:38167.got - 2010.06.03 18:56:24.
