data_PCOD9129230
_publ_section_title
;
Structure prediction by ZEFSAII (Michael W. Deem and Ramdas Pophale) SiO2 
 PCOD9129230
Probable space group: C 2
;
_chemical_formula_sum "Si O2"
_cell_formula_units_Z 24
_cell_length_a 13.848404
_cell_length_b 13.408888
_cell_length_c 16.177500
_cell_angle_alpha 90.000000
_cell_angle_beta 153.768036
_cell_angle_gamma 90.000000
_cell_volume 1327.799189
_symmetry_space_group_name_H-M "C 2"
_symmetry_group_IT_number 5
_symmetry_cell_setting 'monoclinic'
loop_
_space_group_symop_operation_xyz
x,y,z
-x,y,-z
1/2+x,1/2+y,z
1/2-x,1/2+y,-z
loop_
_atom_site_type_symbol
_atom_site_label
_atom_site_fract_x
_atom_site_fract_y
_atom_site_fract_z
Si Si1 0.130433 0.411470 0.211720
Si Si2 0.046093 0.121026 0.296678
Si Si3 0.446653 0.133571 0.054067
Si Si4 0.563712 0.690824 0.955539
Si Si5 0.012415 0.916467 0.368700
Si Si6 0.945693 0.717924 0.698521
O O1 0.293135 0.413214 0.256884
O O2 0.288299 0.409752 0.412913
O O3 0.994618 0.515202 0.107723
O O4 0.994431 0.308314 0.105248
O O5 0.244224 0.176300 0.492320
O O6 0.066674 0.128012 0.213538
O O7 0.031465 0.015827 0.330541
O O8 0.804742 0.165142 0.126808
O O9 0.584312 0.195450 0.227418
O O10 0.500000 0.151771 0.000000
O O11 0.500000 0.668854 0.000000
O O12 0.820608 0.668280 0.143155
O O13 0.022700 0.828869 0.310214
#
# Coordination Sequence:
#
# PCOD9129230 Si02
#       6
#     4   4   4   4   4   4
#     4  11  20  37  68  94 117 154 205 264 303 343
#     4  11  23  38  59  92 127 158 197 252 306 359
#     4  11  22  38  62  93 122 158 201 251 306 358
#     4  11  22  38  62  93 122 158 201 251 306 358
#     4  11  21  38  64  93 121 158 204 255 301 358
#     4  11  23  38  59  92 127 158 197 252 306 359
#
# _framework density 18.075023000000002
#
# number of rings (size 3 to 8) (size 9 to 14) (size 15 to 20)
#    0.000    1.000    6.667    1.500    0.000    1.333 
#    0.000    0.833    0.000    2.000    0.000    0.000 
#    0.000    0.000    0.000    0.000    0.000    0.000 
#
# Total GULP energy -66932.921184 kJ/mol
# GULP energy per Si atom -5577.743432 kJ/mol
# Density = 1.803388 g / cm^3
# Si number density = 18.075023 Si / 1000 Ang^3
#
#
#
# Elastic Constant Matrix: (Units=GPa)
#
#
# Indices 1 2 3 4 5 6 
#
# 1 93.0173 10.4109 19.3516 -0.0068 -23.8529 -0.0029
# 2 10.4109 26.7972 -8.4213 -0.0005 3.1464 0.0002
# 3 19.3516 -8.4213 98.4834 -0.0007 -3.5935 0.0002
# 4 -0.0068 -0.0005 -0.0007 34.9489 0.0074 -8.2296
# 5 -23.8529 3.1464 -3.5935 0.0074 33.0880 0.0024
# 6 -0.0029 0.0002 0.0002 -8.2296 0.0024 32.1822
#
#
#
# Elastic Compliance Matrix: (Units=1/GPa)
#
#
# Indices 1 2 3 4 5 6 
#
# 1 0.015313 -0.008334 -0.003303 0.000001 0.011473 0.000001
# 2 -0.008334 0.043247 0.004986 0.000001 -0.009579 0.000000
# 3 -0.003303 0.004986 0.011169 0.000000 -0.001642 0.000000
# 4 0.000001 0.000001 0.000000 0.030447 -0.000007 0.007786
# 5 0.011473 -0.009579 -0.001642 -0.000007 0.039225 -0.000004
# 6 0.000001 0.000000 0.000000 0.007786 -0.000004 0.033064
#
#
# Mechanical properties :
#
#
# Convention : Reuss Voigt Hill
#
# Bulk Modulus (GPa) = 17.72194 28.99781 23.35988
# Shear Modulus (GPa) = 24.44083 33.17427 28.80755
#
# Velocity S-wave (km/s) = 3.68120 4.28876 3.99654
# Velocity P-wave (km/s) = 5.28150 6.37201 5.85221
#
# Compressibility (1/GPa) = 0.05642722
#
# Stress axis : x y z
#
# Youngs Moduli (GPa) = 65.30583 23.12305 89.52997
#
# Poissons Ratio (x) = 0.19271 0.29571
# Poissons Ratio (y) = 0.54426 -0.44641
# Poissons Ratio (z) = 0.21570 -0.11529
#
# Static dielectric constant tensor:
#      x y z
#    x 1.640830 0.000000 -0.005270 
#    y 0.000000 1.633080 -0.000010 
#    z -0.005270 -0.000010 1.666800 
# 
# From -- ./inp_files/53130.got.cif
#   From: 2010.05.17/outbox.cif.g08.bks.cpg/sg5_27_cif.got.tgz:53130.got - 2010.06.03 18:56:24.
