data_PCOD9129035
_publ_section_title
;
Structure prediction by ZEFSAII (Michael W. Deem and Ramdas Pophale) SiO2 
 PCOD9129035
Probable space group: C 2
;
_chemical_formula_sum "Si O2"
_cell_formula_units_Z 28
_cell_length_a 16.733320
_cell_length_b 5.786254
_cell_length_c 14.435515
_cell_angle_alpha 90.000000
_cell_angle_beta 70.336006
_cell_angle_gamma 90.000000
_cell_volume 1316.182927
_symmetry_space_group_name_H-M "C 2"
_symmetry_group_IT_number 5
_symmetry_cell_setting 'monoclinic'
loop_
_space_group_symop_operation_xyz
x,y,z
-x,y,-z
1/2+x,1/2+y,z
1/2-x,1/2+y,-z
loop_
_atom_site_type_symbol
_atom_site_label
_atom_site_fract_x
_atom_site_fract_y
_atom_site_fract_z
Si Si1 0.000000 0.763581 0.500000
Si Si2 0.041694 0.859711 0.143141
Si Si3 0.297024 0.702819 0.491767
Si Si4 0.348423 0.738662 0.994308
Si Si5 0.378000 0.899543 0.632745
Si Si6 0.969940 0.113140 0.342709
Si Si7 0.500000 0.059849 0.000000
Si Si8 0.691632 0.055697 0.159294
O O1 0.080550 0.603649 0.443783
O O2 0.020527 0.915733 0.582193
O O3 0.105471 0.700836 0.177246
O O4 0.983995 0.710856 0.097631
O O5 0.990078 0.017004 0.233740
O O6 0.102349 0.007269 0.052372
O O7 0.253152 0.449470 0.497367
O O8 0.338585 0.715602 0.577934
O O9 0.375990 0.712072 0.389995
O O10 0.272458 0.699220 0.094772
O O11 0.418159 0.909295 0.008487
O O12 0.313509 0.844771 0.911713
O O13 0.457038 0.794245 0.658567
O O14 0.309483 0.980129 0.734249
#
# Coordination Sequence:
#
# PCOD9129035 Si02
#       8
#     2   4   4   4   4   4   2   4
#     4  12  20  42  74 106 138 178 256 314 348 432
#     4  11  23  44  71 105 135 187 244 296 367 438
#     4  12  28  50  71 111 162 194 240 311 384 447
#     4  11  22  45  68 101 142 177 236 304 363 428
#     4  12  24  44  75 106 135 195 250 300 367 439
#     4  12  24  44  79 101 141 195 250 301 357 453
#     4  10  26  46  68  96 152 190 230 290 380 454
#     4  11  23  40  74 106 133 180 248 313 353 424
#
# _framework density 21.27364
#
# number of rings (size 3 to 8) (size 9 to 14) (size 15 to 20)
#    0.000    0.571    7.143    1.286    0.000    0.000 
#    5.143    1.429    0.000    0.000    0.000    0.000 
#    0.000    0.000    0.000    0.000    0.000    0.000 
#
# Total GULP energy -78298.191149 kJ/mol
# GULP energy per Si atom -5592.727939 kJ/mol
# Density = 2.122522 g / cm^3
# Si number density = 21.273640 Si / 1000 Ang^3
#
#
#
# Elastic Constant Matrix: (Units=GPa)
#
#
# Indices 1 2 3 4 5 6 
#
# 1 52.6706 19.0026 24.0171 0.0000 -5.6868 0.0000
# 2 19.0026 70.8537 14.6018 0.0000 -5.5336 0.0000
# 3 24.0171 14.6018 116.9935 0.0000 -23.2398 0.0000
# 4 0.0000 0.0000 0.0000 38.1146 0.0000 25.1101
# 5 -5.6868 -5.5336 -23.2398 0.0000 20.8504 0.0000
# 6 0.0000 0.0000 0.0000 25.1101 0.0000 -16.1430
#
#
#
# Elastic Compliance Matrix: (Units=1/GPa)
#
#
# Indices 1 2 3 4 5 6 
#
# 1 0.022715 -0.005250 -0.003922 0.000000 0.000430 0.000000
# 2 -0.005250 0.015790 -0.000443 0.000000 0.002265 0.000000
# 3 -0.003922 -0.000443 0.011780 0.000000 0.011943 0.000000
# 4 0.000000 0.000000 0.000000 0.012958 0.000000 0.020156
# 5 0.000430 0.002265 0.011943 0.000000 0.061991 0.000000
# 6 0.000000 0.000000 0.000000 0.020156 0.000000 -0.030595
#
#
# Mechanical properties :
#
#
# Convention : Reuss Voigt Hill
#
# Bulk Modulus (GPa) = 32.20181 39.52897 35.86539
# Shear Modulus (GPa) = 40.25064 20.75750 30.50407
#
# Velocity S-wave (km/s) = 4.35448 3.12707 3.79078
# Velocity P-wave (km/s) = 6.36017 5.62669 6.00464
#
# Compressibility (1/GPa) = 0.03105416
#
# Stress axis : x y z
#
# Youngs Moduli (GPa) = 44.02363 63.33187 84.88722
#
# Poissons Ratio (x) = 0.33250 0.33296
# Poissons Ratio (y) = 0.23113 0.03761
# Poissons Ratio (z) = 0.17268 0.02806
#
# Static dielectric constant tensor:
#      x y z
#    x 1.773910 0.000000 0.007120 
#    y 0.000000 1.821080 0.000000 
#    z 0.007120 0.000000 1.734990 
# 
# From -- ./inp_files/55254.got.cif
#   From: 2010.05.17/outbox.cif.g08.bks.cpg/sg5_28_cif.got.tgz:55254.got - 2010.06.03 18:56:24.
