data_PCOD9129811
_publ_section_title
;
Structure prediction by ZEFSAII (Michael W. Deem and Ramdas Pophale) SiO2 
 PCOD9129811
Probable space group: C 2
;
_chemical_formula_sum "Si O2"
_cell_formula_units_Z 20
_cell_length_a 8.194407
_cell_length_b 11.687801
_cell_length_c 9.225979
_cell_angle_alpha 90.000000
_cell_angle_beta 96.882307
_cell_angle_gamma 90.000000
_cell_volume 877.247455
_symmetry_space_group_name_H-M "C 2"
_symmetry_group_IT_number 5
_symmetry_cell_setting 'monoclinic'
loop_
_space_group_symop_operation_xyz
x,y,z
-x,y,-z
1/2+x,1/2+y,z
1/2-x,1/2+y,-z
loop_
_atom_site_type_symbol
_atom_site_label
_atom_site_fract_x
_atom_site_fract_y
_atom_site_fract_z
Si Si1 0.908087 0.985740 0.137944
Si Si2 0.358406 0.925236 0.578667
Si Si3 0.626317 0.582757 0.386242
Si Si4 0.079471 0.587789 0.167544
Si Si5 0.331801 0.265364 0.260380
O O1 0.823530 0.860355 0.132359
O O2 0.775148 0.083486 0.160939
O O3 0.038314 0.985778 0.281922
O O4 0.000000 0.005759 0.000000
O O5 0.500000 0.868971 0.500000
O O6 0.206510 0.843653 0.602538
O O7 0.285192 0.032454 0.483519
O O8 0.440835 0.976298 0.732692
O O9 0.500000 0.617281 0.500000
O O10 0.686340 0.674229 0.273045
O O11 0.994960 0.692556 0.243936
O O12 0.000000 0.579749 0.000000
#
# Coordination Sequence:
#
# PCOD9129811 Si02
#       5
#     4   4   4   4   4
#     4  11  26  46  67 101 138 176 228 279 334 404
#     4  11  24  45  71 101 136 178 226 281 335 401
#     4  12  23  45  70  99 138 177 223 284 335 398
#     4  11  23  44  72  94 138 181 220 280 335 397
#     4  11  24  44  70  99 134 179 230 269 345 398
#
# _framework density 22.798584000000002
#
# number of rings (size 3 to 8) (size 9 to 14) (size 15 to 20)
#    0.000    0.800    6.000    2.400    0.000    3.200 
#    3.600   12.000    0.000    0.000    0.000    0.000 
#    0.000    0.000    0.000    0.000    0.000    0.000 
#
# Total GULP energy -55724.163866 kJ/mol
# GULP energy per Si atom -5572.416387 kJ/mol
# Density = 2.274669 g / cm^3
# Si number density = 22.798584 Si / 1000 Ang^3
#
#
#
# Elastic Constant Matrix: (Units=GPa)
#
#
# Indices 1 2 3 4 5 6 
#
# 1 123.2251 49.4712 51.0216 0.0000 -59.8846 0.0000
# 2 49.4712 95.0711 34.0631 0.0000 -21.8736 0.0000
# 3 51.0216 34.0631 110.5735 0.0000 -25.0540 0.0000
# 4 0.0000 0.0000 0.0000 13.9663 0.0000 -17.6646
# 5 -59.8846 -21.8736 -25.0540 0.0000 57.7645 0.0000
# 6 0.0000 0.0000 0.0000 -17.6646 0.0000 46.8274
#
#
#
# Elastic Compliance Matrix: (Units=1/GPa)
#
#
# Indices 1 2 3 4 5 6 
#
# 1 0.020168 -0.005152 -0.003797 0.000000 0.017311 0.000000
# 2 -0.005152 0.013703 -0.002083 0.000000 -0.001055 0.000000
# 3 -0.003797 -0.002083 0.011497 0.000000 0.000261 0.000000
# 4 0.000000 0.000000 0.000000 0.136936 0.000000 0.051656
# 5 0.017311 -0.001055 0.000261 0.000000 0.034972 0.000000
# 6 0.000000 0.000000 0.000000 0.051656 0.000000 0.040841
#
#
# Mechanical properties :
#
#
# Convention : Reuss Voigt Hill
#
# Bulk Modulus (GPa) = 42.91054 66.44236 54.67645
# Shear Modulus (GPa) = 17.36425 36.66589 27.01507
#
# Velocity S-wave (km/s) = 2.76277 4.01465 3.44604
# Velocity P-wave (km/s) = 5.38885 7.12014 6.31411
#
# Compressibility (1/GPa) = 0.02330430
#
# Stress axis : x y z
#
# Youngs Moduli (GPa) = 49.58291 72.97829 86.98135
#
# Poissons Ratio (x) = 0.37595 0.33025
# Poissons Ratio (y) = 0.25543 0.18121
# Poissons Ratio (z) = 0.18826 0.15204
#
# Static dielectric constant tensor:
#      x y z
#    x 1.852790 0.000000 -0.033250 
#    y 0.000000 1.907040 0.000000 
#    z -0.033250 0.000000 1.820890 
# 
# From -- ./inp_files/14221.got.cif
#   From: 2010.05.17/outbox.cif.g08.bks.cpg/sg5_8_cif.got.tgz:14221.got - 2010.06.03 18:56:24.
