data_PCOD9129333
_publ_section_title
;
Structure prediction by ZEFSAII (Michael W. Deem and Ramdas Pophale) SiO2 
 PCOD9129333
Probable space group: C 2
;
_chemical_formula_sum "Si O2"
_cell_formula_units_Z 26
_cell_length_a 11.614356
_cell_length_b 18.594461
_cell_length_c 8.469811
_cell_angle_alpha 90.000000
_cell_angle_beta 141.910482
_cell_angle_gamma 90.000000
_cell_volume 1128.395938
_symmetry_space_group_name_H-M "C 2"
_symmetry_group_IT_number 5
_symmetry_cell_setting 'monoclinic'
loop_
_space_group_symop_operation_xyz
x,y,z
-x,y,-z
1/2+x,1/2+y,z
1/2-x,1/2+y,-z
loop_
_atom_site_type_symbol
_atom_site_label
_atom_site_fract_x
_atom_site_fract_y
_atom_site_fract_z
Si Si1 0.699874 0.356300 0.415196
Si Si2 0.736428 0.209911 0.936882
Si Si3 0.784232 0.708397 0.429755
Si Si4 0.784755 0.874992 0.038685
Si Si5 0.778195 0.470981 0.737711
Si Si6 0.728001 0.136707 0.254641
Si Si7 0.500000 0.878738 0.500000
O O1 0.745095 0.294128 0.589428
O O2 0.477706 0.359705 0.155861
O O3 0.743580 0.434067 0.532643
O O4 0.835300 0.338775 0.416403
O O5 0.510174 0.202284 0.683066
O O6 0.791592 0.182465 0.821405
O O7 0.786927 0.294518 0.001596
O O8 0.795844 0.172609 0.164336
O O9 0.714784 0.672645 0.517011
O O10 0.813191 0.921607 0.225414
O O11 0.628161 0.916644 0.768400
O O12 0.719071 0.553194 0.684213
O O13 0.000000 0.468124 0.000000
O O14 0.500000 0.141609 0.000000
#
# Coordination Sequence:
#
# PCOD9129333 Si02
#       7
#     4   4   4   4   4   4   2
#     4  11  22  40  67  96 132 174 221 276 333 394
#     4   9  17  34  62  95 128 174 222 270 328 395
#     4   9  17  34  62  95 128 174 222 270 328 395
#     4  11  22  40  67  96 132 174 221 276 333 394
#     4  11  21  40  62  95 136 179 218 271 336 399
#     4   9  19  34  57  94 137 170 222 269 327 401
#     4  12  24  38  62 102 128 168 224 276 332 396
#
# _framework density 23.041557999999998
#
# number of rings (size 3 to 8) (size 9 to 14) (size 15 to 20)
#    0.000    1.846    3.077    1.846    0.000    2.462 
#    2.769    0.000   13.538    0.000    0.000    0.000 
#    0.000    0.000    0.000    0.000    0.000    0.000 
#
# Total GULP energy -72535.025147 kJ/mol
# GULP energy per Si atom -5579.617319 kJ/mol
# Density = 2.298911 g / cm^3
# Si number density = 23.041558 Si / 1000 Ang^3
#
#
#
# Elastic Constant Matrix: (Units=GPa)
#
#
# Indices 1 2 3 4 5 6 
#
# 1 161.0196 47.1721 62.3253 0.0000 -15.5714 0.0000
# 2 47.1721 127.2800 31.1089 0.0000 -36.2206 0.0000
# 3 62.3253 31.1089 98.7234 0.0000 -16.9021 0.0000
# 4 0.0000 0.0000 0.0000 14.6447 0.0000 -7.0832
# 5 -15.5714 -36.2206 -16.9021 0.0000 60.4120 0.0000
# 6 0.0000 0.0000 0.0000 -7.0832 0.0000 21.8400
#
#
#
# Elastic Compliance Matrix: (Units=1/GPa)
#
#
# Indices 1 2 3 4 5 6 
#
# 1 0.008687 -0.002144 -0.004879 0.000000 -0.000412 0.000000
# 2 -0.002144 0.010442 -0.001008 0.000000 0.005426 0.000000
# 3 -0.004879 -0.001008 0.013873 0.000000 0.002020 0.000000
# 4 0.000000 0.000000 0.000000 0.080989 0.000000 0.026267
# 5 -0.000412 0.005426 0.002020 0.000000 0.020265 0.000000
# 6 0.000000 0.000000 0.000000 0.026267 0.000000 0.054306
#
#
# Mechanical properties :
#
#
# Convention : Reuss Voigt Hill
#
# Bulk Modulus (GPa) = 59.03289 74.24840 66.64065
# Shear Modulus (GPa) = 23.77884 35.80711 29.79297
#
# Velocity S-wave (km/s) = 3.21596 3.94639 3.59975
# Velocity P-wave (km/s) = 6.28217 7.28416 6.80164
#
# Compressibility (1/GPa) = 0.01693971
#
# Stress axis : x y z
#
# Youngs Moduli (GPa) = 115.10937 95.76961 72.08281
#
# Poissons Ratio (x) = 0.20535 0.35171
# Poissons Ratio (y) = 0.24682 0.07264
# Poissons Ratio (z) = 0.56165 0.09651
#
# Static dielectric constant tensor:
#      x y z
#    x 1.934800 0.000000 0.005990 
#    y 0.000000 1.791380 0.000000 
#    z 0.005990 0.000000 1.889530 
# 
# From -- ./inp_files/22007.got.cif
#   From: 2010.05.17/outbox.cif.g08.bks.cpg/sg5_12_cif.got.tgz:22007.got - 2010.06.03 18:56:24.
