data_PCOD9129064
_publ_section_title
;
Structure prediction by ZEFSAII (Michael W. Deem and Ramdas Pophale) SiO2 
 PCOD9129064
Probable space group: C 2
;
_chemical_formula_sum "Si O2"
_cell_formula_units_Z 26
_cell_length_a 9.195313
_cell_length_b 14.139928
_cell_length_c 16.412266
_cell_angle_alpha 90.000000
_cell_angle_beta 147.090018
_cell_angle_gamma 90.000000
_cell_volume 1159.413970
_symmetry_space_group_name_H-M "C 2"
_symmetry_group_IT_number 5
_symmetry_cell_setting 'monoclinic'
loop_
_space_group_symop_operation_xyz
x,y,z
-x,y,-z
1/2+x,1/2+y,z
1/2-x,1/2+y,-z
loop_
_atom_site_type_symbol
_atom_site_label
_atom_site_fract_x
_atom_site_fract_y
_atom_site_fract_z
Si Si1 0.828054 0.581780 0.996827
Si Si2 0.046366 0.787782 0.694668
Si Si3 0.000000 0.312610 0.500000
Si Si4 0.696200 0.102104 0.671732
Si Si5 0.147478 0.795179 0.933483
Si Si6 0.899303 0.413601 0.781733
Si Si7 0.146694 0.416847 0.731333
O O1 0.518176 0.580753 0.819948
O O2 0.891288 0.688475 0.054545
O O3 0.000000 0.554380 0.000000
O O4 0.942814 0.509856 0.119650
O O5 0.155047 0.706547 0.687185
O O6 0.141694 0.795949 0.832940
O O7 0.104091 0.889327 0.677670
O O8 0.738390 0.758483 0.568336
O O9 0.094722 0.378674 0.616909
O O10 0.500000 0.090560 0.500000
O O11 0.625593 0.028643 0.710285
O O12 0.935164 0.865955 0.877516
O O13 0.432681 0.834179 0.092172
O O14 0.945396 0.391830 0.708682
#
# Coordination Sequence:
#
# PCOD9129064 Si02
#       7
#     4   4   2   4   4   4   4
#     4  12  26  43  72 112 150 190 251 308 366 435
#     4  11  26  45  72 107 144 194 241 304 369 443
#     4  10  26  48  68  96 156 194 238 296 376 446
#     4  12  27  45  73 105 149 197 246 298 370 445
#     4  11  23  43  70 105 147 183 239 308 369 426
#     4  12  24  40  75 107 143 184 252 305 368 425
#     4  11  24  45  69 106 143 194 235 303 365 444
#
# _framework density 22.425122000000002
#
# number of rings (size 3 to 8) (size 9 to 14) (size 15 to 20)
#    0.000    0.615    3.846    3.692    4.308    2.462 
#    0.000    1.538    0.000    0.000    0.000    0.000 
#    0.000    0.000    0.000    0.000    0.000    0.000 
#
# Total GULP energy -72417.322424 kJ/mol
# GULP energy per Si atom -5570.563263 kJ/mol
# Density = 2.237408 g / cm^3
# Si number density = 22.425122 Si / 1000 Ang^3
#
#
#
# Elastic Constant Matrix: (Units=GPa)
#
#
# Indices 1 2 3 4 5 6 
#
# 1 104.8162 -1.5391 48.3213 0.0006 -1.0786 0.0001
# 2 -1.5391 92.3769 16.6627 0.0001 -0.3652 0.0001
# 3 48.3213 16.6627 74.6937 0.0019 4.4435 0.0000
# 4 0.0006 0.0001 0.0019 14.4306 0.0010 2.5597
# 5 -1.0786 -0.3652 4.4435 0.0010 26.8421 0.0000
# 6 0.0001 0.0001 0.0000 2.5597 0.0000 7.6561
#
#
#
# Elastic Compliance Matrix: (Units=1/GPa)
#
#
# Indices 1 2 3 4 5 6 
#
# 1 0.014045 0.001985 -0.009659 0.000001 0.002190 0.000000
# 2 0.001985 0.011568 -0.003918 0.000000 0.000886 0.000000
# 3 -0.009659 -0.003918 0.020741 -0.000002 -0.003875 0.000001
# 4 0.000001 0.000000 -0.000002 0.073666 -0.000002 -0.024629
# 5 0.002190 0.000886 -0.003875 -0.000002 0.037996 0.000001
# 6 0.000000 0.000000 0.000001 -0.024629 0.000001 0.138849
#
#
# Mechanical properties :
#
#
# Convention : Reuss Voigt Hill
#
# Bulk Modulus (GPa) = 43.15695 44.30853 43.73274
# Shear Modulus (GPa) = 15.25443 23.68189 19.46816
#
# Velocity S-wave (km/s) = 2.61097 3.25321 2.94962
# Velocity P-wave (km/s) = 5.32693 5.82344 5.58071
#
# Compressibility (1/GPa) = 0.02317124
#
# Stress axis : x y z
#
# Youngs Moduli (GPa) = 71.19834 86.44220 48.21279
#
# Poissons Ratio (x) = -0.17159 0.46571
# Poissons Ratio (y) = -0.14133 0.18888
# Poissons Ratio (z) = 0.68773 0.33864
#
# Static dielectric constant tensor:
#      x y z
#    x 1.915650 0.000000 0.144460 
#    y 0.000000 1.832670 0.000000 
#    z 0.144460 0.000000 1.990500 
# 
# From -- ./inp_files/51111.got.cif
#   From: 2010.05.17/outbox.cif.g08.bks.cpg/sg5_26_cif.got.tgz:51111.got - 2010.06.03 18:56:24.
