data_PCOD9129051
_publ_section_title
;
Structure prediction by ZEFSAII (Michael W. Deem and Ramdas Pophale) SiO2 
 PCOD9129051
Probable space group: C 2
;
_chemical_formula_sum "Si O2"
_cell_formula_units_Z 16
_cell_length_a 5.302936
_cell_length_b 22.933163
_cell_length_c 5.208931
_cell_angle_alpha 90.000000
_cell_angle_beta 90.083182
_cell_angle_gamma 90.000000
_cell_volume 633.473556
_symmetry_space_group_name_H-M "C 2"
_symmetry_group_IT_number 5
_symmetry_cell_setting 'monoclinic'
loop_
_space_group_symop_operation_xyz
x,y,z
-x,y,-z
1/2+x,1/2+y,z
1/2-x,1/2+y,-z
loop_
_atom_site_type_symbol
_atom_site_label
_atom_site_fract_x
_atom_site_fract_y
_atom_site_fract_z
Si Si1 0.329731 0.171060 0.252629
Si Si2 0.751042 0.966776 0.155601
Si Si3 0.337345 0.804353 0.749569
Si Si4 0.500000 0.579085 0.000000
Si Si5 0.000000 0.888078 0.500000
O O1 0.500000 0.161886 0.500000
O O2 0.211006 0.235421 0.262940
O O3 0.500000 0.170304 0.000000
O O4 0.127504 0.120749 0.207627
O O5 0.781520 0.935989 0.430788
O O6 0.500000 0.952855 0.000000
O O7 0.000000 0.945559 0.000000
O O8 0.800100 0.036195 0.140520
O O9 0.500000 0.820564 0.500000
O O10 0.078695 0.840282 0.716942
O O11 0.500000 0.817945 0.000000
#
# Coordination Sequence:
#
# PCOD9129051 Si02
#       5
#     4   4   4   2   2
#     4  12  26  47  77 115 160 203 263 325 401 476
#     4  10  26  49  72 113 150 211 260 326 387 468
#     4  12  28  47  76 115 160 205 264 326 402 476
#     4  10  26  46  80 106 160 200 270 320 404 464
#     4  12  28  44  82 104 162 204 274 318 408 462
#
# _framework density 25.257566000000001
#
# number of rings (size 3 to 8) (size 9 to 14) (size 15 to 20)
#    0.750    0.000    2.500    3.000    7.000    4.000 
#    0.000    0.000    0.000    0.000    0.000    0.000 
#    0.000    0.000    0.000    0.000    0.000    0.000 
#
# Total GULP energy -44701.503401 kJ/mol
# GULP energy per Si atom -5587.687925 kJ/mol
# Density = 2.520008 g / cm^3
# Si number density = 25.257566 Si / 1000 Ang^3
#
#
#
# Elastic Constant Matrix: (Units=GPa)
#
#
# Indices 1 2 3 4 5 6 
#
# 1 143.2844 55.3725 94.1306 0.0000 49.2657 0.0000
# 2 55.3725 230.1429 69.1180 0.0000 50.8345 0.0000
# 3 94.1306 69.1180 225.2161 0.0000 61.0337 0.0000
# 4 0.0000 0.0000 0.0000 38.1654 0.0000 20.0605
# 5 49.2657 50.8345 61.0337 0.0000 77.5894 0.0000
# 6 0.0000 0.0000 0.0000 20.0605 0.0000 7.8561
#
#
#
# Elastic Compliance Matrix: (Units=1/GPa)
#
#
# Indices 1 2 3 4 5 6 
#
# 1 0.010675 -0.000778 -0.003208 0.000000 -0.003745 0.000000
# 2 -0.000778 0.005264 -0.000622 0.000000 -0.002465 0.000000
# 3 -0.003208 -0.000622 0.006748 0.000000 -0.002863 0.000000
# 4 0.000000 0.000000 0.000000 -0.076576 0.000000 0.195536
# 5 -0.003745 -0.002465 -0.002863 0.000000 0.019134 0.000000
# 6 0.000000 0.000000 0.000000 0.195536 0.000000 -0.372008
#
#
# Mechanical properties :
#
#
# Convention : Reuss Voigt Hill
#
# Bulk Modulus (GPa) = 74.23655 115.09841 94.66748
# Shear Modulus (GPa) = -12.72078 50.05701 18.66811
#
# Velocity S-wave (km/s) = -2.24663 4.45664 2.72161
# Velocity P-wave (km/s) = 4.76716 8.49417 6.88755
#
# Compressibility (1/GPa) = 0.01347045
#
# Stress axis : x y z
#
# Youngs Moduli (GPa) = 93.67821 189.98156 148.19249
#
# Poissons Ratio (x) = 0.14775 0.47541
# Poissons Ratio (y) = 0.07285 0.09221
# Poissons Ratio (z) = 0.30053 0.11822
#
# Static dielectric constant tensor:
#      x y z
#    x 2.291900 0.000000 -0.276950 
#    y 0.000000 1.982500 0.000000 
#    z -0.276950 0.000000 2.176860 
# 
# From -- ./inp_files/977.got.cif
#   From: 2010.05.17/outbox.cif.g08.bks.cpg/sg5_1_cif.got.tgz:977.got - 2010.06.03 18:56:24.
