data_PCOD9129424
_publ_section_title
;
Structure prediction by ZEFSAII (Michael W. Deem and Ramdas Pophale) SiO2 
 PCOD9129424
Probable space group: C 2
;
_chemical_formula_sum "Si O2"
_cell_formula_units_Z 20
_cell_length_a 14.256361
_cell_length_b 7.429735
_cell_length_c 7.320281
_cell_angle_alpha 90.000000
_cell_angle_beta 69.634211
_cell_angle_gamma 90.000000
_cell_volume 726.902868
_symmetry_space_group_name_H-M "C 2"
_symmetry_group_IT_number 5
_symmetry_cell_setting 'monoclinic'
loop_
_space_group_symop_operation_xyz
x,y,z
-x,y,-z
1/2+x,1/2+y,z
1/2-x,1/2+y,-z
loop_
_atom_site_type_symbol
_atom_site_label
_atom_site_fract_x
_atom_site_fract_y
_atom_site_fract_z
Si Si1 0.701713 0.572950 0.118637
Si Si2 0.408631 0.734215 0.162058
Si Si3 0.626732 0.169660 0.224770
Si Si4 0.054803 0.852486 0.768073
Si Si5 0.206230 0.360356 0.419739
O O1 0.457238 0.569167 0.248013
O O2 0.673746 0.705251 0.300446
O O3 0.652961 0.639795 0.960680
O O4 0.679835 0.080662 0.009793
O O5 0.508795 0.208133 0.301477
O O6 0.500000 0.832663 0.000000
O O7 0.668178 0.373523 0.189017
O O8 0.840311 0.338753 0.349633
O O9 0.667214 0.045033 0.358586
O O10 0.173659 0.839650 0.664421
O O11 0.000000 0.826535 0.000000
#
# Coordination Sequence:
#
# PCOD9129424 Si02
#       5
#     4   4   4   4   4
#     4  12  23  49  91 128 184 234 301 391 454 557
#     4  11  25  54  87 124 184 243 299 392 459 543
#     4  12  23  50  92 133 178 241 303 381 471 557
#     4  11  21  51  92 127 179 235 300 384 460 551
#     4  12  28  51  91 135 180 245 309 380 472 558
#
# _framework density 27.513994
#
# number of rings (size 3 to 8) (size 9 to 14) (size 15 to 20)
#    0.000    0.400   10.000    0.000    0.000    2.400 
#    0.000   16.000    4.400    0.000    0.000    0.000 
#    0.000    0.000    0.000    0.000    0.000    0.000 
#
# Total GULP energy -56048.349604 kJ/mol
# GULP energy per Si atom -5604.834960 kJ/mol
# Density = 2.745137 g / cm^3
# Si number density = 27.513994 Si / 1000 Ang^3
#
#
#
# Elastic Constant Matrix: (Units=GPa)
#
#
# Indices 1 2 3 4 5 6 
#
# 1 210.6607 88.1143 100.4077 0.0000 -38.6805 0.0000
# 2 88.1143 163.1070 78.6259 0.0000 -7.1813 0.0000
# 3 100.4077 78.6259 246.9263 0.0000 -30.8535 0.0000
# 4 0.0000 0.0000 0.0000 53.1268 0.0000 6.7571
# 5 -38.6805 -7.1813 -30.8535 0.0000 39.5165 0.0000
# 6 0.0000 0.0000 0.0000 6.7571 0.0000 53.8953
#
#
#
# Elastic Compliance Matrix: (Units=1/GPa)
#
#
# Indices 1 2 3 4 5 6 
#
# 1 0.007923 -0.003338 -0.001403 0.000000 0.006054 0.000000
# 2 -0.003338 0.008659 -0.001786 0.000000 -0.003088 0.000000
# 3 -0.001403 -0.001786 0.005515 0.000000 0.002608 0.000000
# 4 0.000000 0.000000 0.000000 0.019128 0.000000 -0.002398
# 5 0.006054 -0.003088 0.002608 0.000000 0.032707 0.000000
# 6 0.000000 0.000000 0.000000 -0.002398 0.000000 0.018855
#
#
# Mechanical properties :
#
#
# Convention : Reuss Voigt Hill
#
# Bulk Modulus (GPa) = 110.56209 128.33221 119.44715
# Shear Modulus (GPa) = 45.93330 52.87747 49.40538
#
# Velocity S-wave (km/s) = 4.09033 4.38863 4.24210
# Velocity P-wave (km/s) = 7.91068 8.51023 8.21592
#
# Compressibility (1/GPa) = 0.00904469
#
# Stress axis : x y z
#
# Youngs Moduli (GPa) = 126.21322 115.48827 181.33489
#
# Poissons Ratio (x) = 0.38545 0.25434
# Poissons Ratio (y) = 0.42125 0.32383
# Poissons Ratio (z) = 0.17703 0.20624
#
# Static dielectric constant tensor:
#      x y z
#    x 2.379370 0.000000 0.070530 
#    y 0.000000 2.148380 0.000000 
#    z 0.070530 0.000000 2.128710 
# 
# From -- ./inp_files/18245.got.cif
#   From: 2010.05.17/outbox.cif.g08.bks.cpg/sg5_10_cif.got.tgz:18245.got - 2010.06.03 18:56:24.
