data_PCOD9129370
_publ_section_title
;
Structure prediction by ZEFSAII (Michael W. Deem and Ramdas Pophale) SiO2 
 PCOD9129370
Probable space group: C 2
;
_chemical_formula_sum "Si O2"
_cell_formula_units_Z 28
_cell_length_a 11.206165
_cell_length_b 8.680529
_cell_length_c 14.557630
_cell_angle_alpha 90.000000
_cell_angle_beta 115.797197
_cell_angle_gamma 90.000000
_cell_volume 1274.971443
_symmetry_space_group_name_H-M "C 2"
_symmetry_group_IT_number 5
_symmetry_cell_setting 'monoclinic'
loop_
_space_group_symop_operation_xyz
x,y,z
-x,y,-z
1/2+x,1/2+y,z
1/2-x,1/2+y,-z
loop_
_atom_site_type_symbol
_atom_site_label
_atom_site_fract_x
_atom_site_fract_y
_atom_site_fract_z
Si Si1 0.509828 0.125000 0.762740
Si Si2 0.340753 0.328704 0.945241
Si Si3 0.224366 0.855051 0.277458
Si Si4 0.864540 0.160993 0.458932
Si Si5 0.366782 0.148536 0.392676
Si Si6 0.828622 0.402779 0.599377
Si Si7 0.870498 0.498334 0.009440
O O1 0.413794 0.270754 0.747495
O O2 0.589059 0.167809 0.698159
O O3 0.580509 0.083221 0.881069
O O4 0.433663 0.967578 0.706927
O O5 0.279254 0.394284 0.830669
O O6 0.251526 0.391086 0.999921
O O7 0.500000 0.361894 0.000000
O O8 0.325300 0.143629 0.933223
O O9 0.326438 0.724518 0.346296
O O10 0.266838 0.002764 0.350373
O O11 0.885796 0.302998 0.535428
O O12 0.000000 0.068628 0.500000
O O13 0.744720 0.059211 0.455395
O O14 0.500000 0.127354 0.500000
O O15 0.283503 0.295847 0.394832
O O16 0.000000 0.428516 0.000000
#
# Coordination Sequence:
#
# PCOD9129370 Si02
#       7
#     4   4   4   4   4   4   4
#     4  11  23  44  68  96 139 183 226 288 344 412
#     4  11  24  47  70 101 140 183 234 296 356 413
#     4  11  21  42  68  94 134 183 225 279 349 404
#     4  11  23  40  65  96 137 176 224 275 332 417
#     4  12  24  41  68 102 140 178 229 281 345 418
#     4  11  25  41  64 101 135 178 227 275 344 408
#     4  11  24  47  73 100 142 181 237 296 352 413
#
# _framework density 21.961274
#
# number of rings (size 3 to 8) (size 9 to 14) (size 15 to 20)
#    0.000    0.857    4.286    5.143    0.000    2.857 
#    2.571    1.429    0.000    0.000    0.000    0.000 
#    0.000    0.000    0.000    0.000    0.000    0.000 
#
# Total GULP energy -78129.791515 kJ/mol
# GULP energy per Si atom -5580.699394 kJ/mol
# Density = 2.191129 g / cm^3
# Si number density = 21.961274 Si / 1000 Ang^3
#
#
#
# Elastic Constant Matrix: (Units=GPa)
#
#
# Indices 1 2 3 4 5 6 
#
# 1 124.0181 25.6075 13.9352 0.0000 -4.0047 0.0000
# 2 25.6075 59.0802 1.3100 0.0000 1.5345 0.0000
# 3 13.9352 1.3100 78.7698 0.0000 -12.6403 0.0000
# 4 0.0000 0.0000 0.0000 18.2232 0.0000 -2.9606
# 5 -4.0047 1.5345 -12.6403 0.0000 26.9094 0.0000
# 6 0.0000 0.0000 0.0000 -2.9606 0.0000 41.0024
#
#
#
# Elastic Compliance Matrix: (Units=1/GPa)
#
#
# Indices 1 2 3 4 5 6 
#
# 1 0.009058 -0.003919 -0.001390 0.000000 0.000919 0.000000
# 2 -0.003919 0.018663 0.000128 0.000000 -0.001587 0.000000
# 3 -0.001390 0.000128 0.013957 0.000000 0.006342 0.000000
# 4 0.000000 0.000000 0.000000 0.055526 0.000000 0.004009
# 5 0.000919 -0.001587 0.006342 0.000000 0.040368 0.000000
# 6 0.000000 0.000000 0.000000 0.004009 0.000000 0.024678
#
#
# Mechanical properties :
#
#
# Convention : Reuss Voigt Hill
#
# Bulk Modulus (GPa) = 31.93208 38.17482 35.05345
# Shear Modulus (GPa) = 27.31469 31.96139 29.63804
#
# Velocity S-wave (km/s) = 3.53053 3.81905 3.67762
# Velocity P-wave (km/s) = 5.58492 6.07185 5.83347
#
# Compressibility (1/GPa) = 0.03131647
#
# Stress axis : x y z
#
# Youngs Moduli (GPa) = 110.39425 53.58116 71.65037
#
# Poissons Ratio (x) = 0.21000 0.09959
# Poissons Ratio (y) = 0.43267 -0.00919
# Poissons Ratio (z) = 0.15344 -0.00687
#
# Static dielectric constant tensor:
#      x y z
#    x 1.867580 0.000000 -0.020410 
#    y 0.000000 1.789020 0.000000 
#    z -0.020410 0.000000 1.806800 
# 
# From -- ./inp_files/52226.got.cif
#   From: 2010.05.17/outbox.cif.g08.bks.cpg/sg5_27_cif.got.tgz:52226.got - 2010.06.03 18:56:24.
