data_PCOD9129952
_publ_section_title
;
Structure prediction by ZEFSAII (Michael W. Deem and Ramdas Pophale) SiO2 
 PCOD9129952
Probable space group: C 2
;
_chemical_formula_sum "Si O2"
_cell_formula_units_Z 16
_cell_length_a 5.190355
_cell_length_b 13.031688
_cell_length_c 10.268206
_cell_angle_alpha 90.000000
_cell_angle_beta 104.631170
_cell_angle_gamma 90.000000
_cell_volume 672.009721
_symmetry_space_group_name_H-M "C 2"
_symmetry_group_IT_number 5
_symmetry_cell_setting 'monoclinic'
loop_
_space_group_symop_operation_xyz
x,y,z
-x,y,-z
1/2+x,1/2+y,z
1/2-x,1/2+y,-z
loop_
_atom_site_type_symbol
_atom_site_label
_atom_site_fract_x
_atom_site_fract_y
_atom_site_fract_z
Si Si1 0.538351 0.225310 0.848384
Si Si2 0.172087 0.027323 0.139515
Si Si3 0.916624 0.143716 0.350744
Si Si4 0.990111 0.329816 0.209810
O O1 0.696004 0.125865 0.913636
O O2 0.394047 0.172983 0.702447
O O3 0.273625 0.270973 0.881341
O O4 0.745771 0.313873 0.839270
O O5 0.008537 0.071259 0.242488
O O6 0.390544 0.944552 0.212958
O O7 0.000000 0.980944 0.000000
O O8 0.043616 0.257232 0.341436
O O9 0.000000 0.101660 0.500000
#
# Coordination Sequence:
#
# PCOD9129952 Si02
#       4
#     4   4   4   4
#     4   9  22  43  65  99 136 178 225 283 336 408
#     4  11  24  42  71 102 140 178 230 283 349 408
#     4   9  22  47  67 100 139 178 229 289 341 410
#     4   9  22  41  65  98 133 182 226 275 334 410
#
# _framework density 23.809180000000001
#
# number of rings (size 3 to 8) (size 9 to 14) (size 15 to 20)
#    1.500    1.000    0.000    0.000    3.500    9.000 
#    4.500    0.000    0.000    0.000    0.000    0.000 
#    0.000    0.000    0.000    0.000    0.000    0.000 
#
# Total GULP energy -44547.855429 kJ/mol
# GULP energy per Si atom -5568.481929 kJ/mol
# Density = 2.375499 g / cm^3
# Si number density = 23.809180 Si / 1000 Ang^3
#
#
#
# Elastic Constant Matrix: (Units=GPa)
#
#
# Indices 1 2 3 4 5 6 
#
# 1 150.7040 37.5527 38.6347 0.0000 -9.1842 0.0000
# 2 37.5527 134.9767 29.6329 0.0000 -7.3978 0.0000
# 3 38.6347 29.6329 119.7683 0.0000 -15.5507 0.0000
# 4 0.0000 0.0000 0.0000 19.5150 0.0000 1.6763
# 5 -9.1842 -7.3978 -15.5507 0.0000 17.4089 0.0000
# 6 0.0000 0.0000 0.0000 1.6763 0.0000 54.4800
#
#
#
# Elastic Compliance Matrix: (Units=1/GPa)
#
#
# Indices 1 2 3 4 5 6 
#
# 1 0.007613 -0.001623 -0.001835 0.000000 0.001687 0.000000
# 2 -0.001623 0.008231 -0.001324 0.000000 0.001459 0.000000
# 3 -0.001835 -0.001324 0.010260 0.000000 0.007634 0.000000
# 4 0.000000 0.000000 0.000000 0.051378 0.000000 -0.001581
# 5 0.001687 0.001459 0.007634 0.000000 0.065772 0.000000
# 6 0.000000 0.000000 0.000000 -0.001581 0.000000 0.018404
#
#
# Mechanical properties :
#
#
# Convention : Reuss Voigt Hill
#
# Bulk Modulus (GPa) = 60.45543 68.56551 64.51047
# Shear Modulus (GPa) = 28.29095 38.25603 33.27349
#
# Velocity S-wave (km/s) = 3.45082 4.01281 3.74238
# Velocity P-wave (km/s) = 6.42840 7.09441 6.76960
#
# Compressibility (1/GPa) = 0.01654111
#
# Stress axis : x y z
#
# Youngs Moduli (GPa) = 131.35074 121.49643 97.46418
#
# Poissons Ratio (x) = 0.19715 0.17887
# Poissons Ratio (y) = 0.21314 0.12899
# Poissons Ratio (z) = 0.24106 0.16080
#
# Static dielectric constant tensor:
#      x y z
#    x 2.033990 0.000000 -0.000760 
#    y 0.000000 1.882480 0.000000 
#    z -0.000760 0.000000 1.981200 
# 
# From -- ./inp_files/32976.got.cif
#   From: 2010.05.17/outbox.cif.g08.bks.cpg/sg5_17_cif.got.tgz:32976.got - 2010.06.03 18:56:24.
