data_PCOD9129010
_publ_section_title
;
Structure prediction by ZEFSAII (Michael W. Deem and Ramdas Pophale) SiO2 
 PCOD9129010
Probable space group: C 2
;
_chemical_formula_sum "Si O2"
_cell_formula_units_Z 28
_cell_length_a 29.329185
_cell_length_b 8.823627
_cell_length_c 4.999126
_cell_angle_alpha 90.000000
_cell_angle_beta 120.638620
_cell_angle_gamma 90.000000
_cell_volume 1113.117400
_symmetry_space_group_name_H-M "C 2"
_symmetry_group_IT_number 5
_symmetry_cell_setting 'monoclinic'
loop_
_space_group_symop_operation_xyz
x,y,z
-x,y,-z
1/2+x,1/2+y,z
1/2-x,1/2+y,-z
loop_
_atom_site_type_symbol
_atom_site_label
_atom_site_fract_x
_atom_site_fract_y
_atom_site_fract_z
Si Si1 0.392849 0.029320 0.600419
Si Si2 0.715819 0.422887 0.076056
Si Si3 0.000000 0.184647 0.500000
Si Si4 0.896011 0.999469 0.370075
Si Si5 0.761324 0.230150 0.814435
Si Si6 0.500000 0.899605 0.000000
Si Si7 0.362780 0.200433 0.029905
Si Si8 0.661236 0.720613 0.441971
O O1 0.363212 0.061955 0.235407
O O2 0.455043 0.009029 0.750041
O O3 0.376330 0.863976 0.648385
O O4 0.381767 0.151769 0.797715
O O5 0.660042 0.514750 0.955093
O O6 0.721502 0.364428 0.786462
O O7 0.696294 0.271376 0.168397
O O8 0.757589 0.553789 0.268106
O O9 0.051860 0.085940 0.572410
O O10 0.014473 0.289873 0.795710
O O11 0.876517 0.074666 0.594464
O O12 0.899842 0.820258 0.309507
O O13 0.801412 0.258718 0.697027
O O14 0.795117 0.230131 0.192025
#
# Coordination Sequence:
#
# PCOD9129010 Si02
#       8
#     4   4   2   4   4   2   4   4
#     4  12  25  45  70 102 142 185 233 301 360 422
#     4   9  25  46  68 105 142 185 241 293 354 437
#     4  12  24  46  76 106 140 200 232 300 352 438
#     4   9  24  47  71 105 145 185 243 297 355 430
#     4  11  25  43  71 101 142 189 240 293 359 426
#     4  12  28  42  76 104 142 180 256 280 370 434
#     4  10  26  44  70  97 149 175 234 299 360 416
#     4  11  25  43  72 100 143 190 241 292 360 436
#
# _framework density 25.154578999999998
#
# number of rings (size 3 to 8) (size 9 to 14) (size 15 to 20)
#    0.857    0.571    1.429    1.714   10.000    5.714 
#    0.000    0.000    0.000    0.000    0.000    0.000 
#    0.000    0.000    0.000    0.000    0.000    0.000 
#
# Total GULP energy -77937.852453 kJ/mol
# GULP energy per Si atom -5566.989461 kJ/mol
# Density = 2.509733 g / cm^3
# Si number density = 25.154579 Si / 1000 Ang^3
#
#
#
# Elastic Constant Matrix: (Units=GPa)
#
#
# Indices 1 2 3 4 5 6 
#
# 1 120.4999 28.4002 22.4639 0.0000 -12.9136 0.0000
# 2 28.4002 92.0884 20.7063 0.0000 -2.7552 0.0000
# 3 22.4639 20.7063 59.7124 0.0000 -26.3250 0.0000
# 4 0.0000 0.0000 0.0000 32.8031 0.0000 -1.3664
# 5 -12.9136 -2.7552 -26.3250 0.0000 46.0655 0.0000
# 6 0.0000 0.0000 0.0000 -1.3664 0.0000 36.8716
#
#
#
# Elastic Compliance Matrix: (Units=1/GPa)
#
#
# Indices 1 2 3 4 5 6 
#
# 1 0.009395 -0.002375 -0.002155 0.000000 0.001260 0.000000
# 2 -0.002375 0.012544 -0.004570 0.000000 -0.002527 0.000000
# 3 -0.002155 -0.004570 0.025073 0.000000 0.013451 0.000000
# 4 0.000000 0.000000 0.000000 0.030532 0.000000 0.001131
# 5 0.001260 -0.002527 0.013451 0.000000 0.029597 0.000000
# 6 0.000000 0.000000 0.000000 0.001131 0.000000 0.027163
#
#
# Mechanical properties :
#
#
# Convention : Reuss Voigt Hill
#
# Bulk Modulus (GPa) = 34.71077 46.16018 40.43547
# Shear Modulus (GPa) = 30.84341 36.53005 33.68673
#
# Velocity S-wave (km/s) = 3.50545 3.81494 3.66346
# Velocity P-wave (km/s) = 5.49665 6.14780 5.83132
#
# Compressibility (1/GPa) = 0.02880951
#
# Stress axis : x y z
#
# Youngs Moduli (GPa) = 106.43481 79.72126 39.88414
#
# Poissons Ratio (x) = 0.18935 0.08597
# Poissons Ratio (y) = 0.25280 0.18229
# Poissons Ratio (z) = 0.22941 0.36436
#
# Static dielectric constant tensor:
#      x y z
#    x 2.093960 0.000000 -0.009380 
#    y 0.000000 2.303790 0.000000 
#    z -0.009380 0.000000 2.141050 
# 
# From -- ./inp_files/10818.got.cif
#   From: 2010.05.17/outbox.cif.g08.bks.cpg/sg5_6_cif.got.tgz:10818.got - 2010.06.03 18:56:24.
