data_PCOD9129561
_publ_section_title
;
Structure prediction by ZEFSAII (Michael W. Deem and Ramdas Pophale) SiO2 
 PCOD9129561
Probable space group: C 2
;
_chemical_formula_sum "Si O2"
_cell_formula_units_Z 30
_cell_length_a 12.169261
_cell_length_b 7.090981
_cell_length_c 17.261035
_cell_angle_alpha 90.000000
_cell_angle_beta 61.587728
_cell_angle_gamma 90.000000
_cell_volume 1310.075287
_symmetry_space_group_name_H-M "C 2"
_symmetry_group_IT_number 5
_symmetry_cell_setting 'monoclinic'
loop_
_space_group_symop_operation_xyz
x,y,z
-x,y,-z
1/2+x,1/2+y,z
1/2-x,1/2+y,-z
loop_
_atom_site_type_symbol
_atom_site_label
_atom_site_fract_x
_atom_site_fract_y
_atom_site_fract_z
Si Si1 0.816368 0.044180 0.843808
Si Si2 0.262736 0.938532 0.791478
Si Si3 0.455081 0.982450 0.096684
Si Si4 0.463153 0.631744 0.340150
Si Si5 0.500000 0.707442 0.500000
Si Si6 0.523202 0.057997 0.732481
Si Si7 0.488103 0.560862 0.916765
Si Si8 0.238929 0.844647 0.625842
O O1 0.777017 0.266590 0.847871
O O2 0.933354 0.027750 0.747014
O O3 0.871906 0.985676 0.907633
O O4 0.690924 0.938013 0.865206
O O5 0.375445 0.085209 0.765854
O O6 0.280628 0.848857 0.701169
O O7 0.123270 0.017418 0.836059
O O8 0.464626 0.077020 0.177938
O O9 0.528198 0.786388 0.078385
O O10 0.500000 0.073025 0.000000
O O11 0.503354 0.605704 0.415973
O O12 0.457625 0.844564 0.307228
O O13 0.329250 0.536860 0.373564
O O14 0.367959 0.815905 0.537565
O O15 0.629573 0.186790 0.657827
O O16 0.500000 0.496646 0.000000
#
# Coordination Sequence:
#
# PCOD9129561 Si02
#       8
#     4   4   4   4   2   4   4   4
#     4  11  22  44  63  89 140 176 218 288 333 393
#     4  11  22  43  65  95 132 176 231 276 333 410
#     4  11  23  40  65  98 137 181 232 282 331 394
#     4  11  25  48  70 100 140 173 229 283 339 423
#     4  12  26  48  70 106 140 164 232 296 328 426
#     4  11  23  47  71  99 142 185 227 278 345 411
#     4  11  25  39  63 100 134 180 233 279 332 401
#     4  12  25  47  72 100 133 186 219 281 360 400
#
# _framework density 22.899446999999999
#
# number of rings (size 3 to 8) (size 9 to 14) (size 15 to 20)
#    0.000    0.800    8.000    0.000    5.600    0.533 
#    2.400    1.333    0.000    0.000    0.000    0.000 
#    0.000    0.000    0.000    0.000    0.000    0.000 
#
# Total GULP energy -83758.118466 kJ/mol
# GULP energy per Si atom -5583.874564 kJ/mol
# Density = 2.284733 g / cm^3
# Si number density = 22.899447 Si / 1000 Ang^3
#
#
#
# Elastic Constant Matrix: (Units=GPa)
#
#
# Indices 1 2 3 4 5 6 
#
# 1 131.4022 2.5684 0.7630 0.0000 6.0586 0.0000
# 2 2.5684 57.4971 -2.5337 0.0000 -0.7595 0.0000
# 3 0.7630 -2.5337 59.3541 0.0000 6.7783 0.0000
# 4 0.0000 0.0000 0.0000 3.0496 0.0000 -1.9066
# 5 6.0586 -0.7595 6.7783 0.0000 48.0398 0.0000
# 6 0.0000 0.0000 0.0000 -1.9066 0.0000 26.7841
#
#
#
# Elastic Compliance Matrix: (Units=1/GPa)
#
#
# Indices 1 2 3 4 5 6 
#
# 1 0.007662 -0.000355 -0.000003 0.000000 -0.000972 0.000000
# 2 -0.000355 0.017443 0.000724 0.000000 0.000218 0.000000
# 3 -0.000003 0.000724 0.017154 0.000000 -0.002409 0.000000
# 4 0.000000 0.000000 0.000000 0.343187 0.000000 0.024429
# 5 -0.000972 0.000218 -0.002409 0.000000 0.021282 0.000000
# 6 0.000000 0.000000 0.000000 0.024429 0.000000 0.039074
#
#
# Mechanical properties :
#
#
# Convention : Reuss Voigt Hill
#
# Bulk Modulus (GPa) = 23.26041 27.76096 25.51069
# Shear Modulus (GPa) = 10.88377 32.07175 21.47776
#
# Velocity S-wave (km/s) = 2.18247 3.74645 3.06586
# Velocity P-wave (km/s) = 4.06578 5.55552 4.86798
#
# Compressibility (1/GPa) = 0.04299151
#
# Stress axis : x y z
#
# Youngs Moduli (GPa) = 130.51462 57.33007 58.29529
#
# Poissons Ratio (x) = 0.02036 0.00016
# Poissons Ratio (y) = 0.04636 -0.04222
# Poissons Ratio (z) = 0.00035 -0.04152
#
# Static dielectric constant tensor:
#      x y z
#    x 1.837870 0.000000 0.007180 
#    y 0.000000 1.888610 0.000000 
#    z 0.007180 0.000000 1.906850 
# 
# From -- ./inp_files/60297.got.cif
#   From: 2010.05.17/outbox.cif.g08.bks.cpg/sg5_31_cif.got.tgz:60297.got - 2010.06.03 18:56:24.
