data_PCOD9129339
_publ_section_title
;
Structure prediction by ZEFSAII (Michael W. Deem and Ramdas Pophale) SiO2 
 PCOD9129339
Probable space group: C 2
;
_chemical_formula_sum "Si O2"
_cell_formula_units_Z 32
_cell_length_a 18.888730
_cell_length_b 11.501519
_cell_length_c 14.736905
_cell_angle_alpha 90.000000
_cell_angle_beta 28.199275
_cell_angle_gamma 90.000000
_cell_volume 1512.872976
_symmetry_space_group_name_H-M "C 2"
_symmetry_group_IT_number 5
_symmetry_cell_setting 'monoclinic'
loop_
_space_group_symop_operation_xyz
x,y,z
-x,y,-z
1/2+x,1/2+y,z
1/2-x,1/2+y,-z
loop_
_atom_site_type_symbol
_atom_site_label
_atom_site_fract_x
_atom_site_fract_y
_atom_site_fract_z
Si Si1 0.193376 0.176790 0.524004
Si Si2 0.533915 0.114087 0.182554
Si Si3 0.262604 0.856649 0.667260
Si Si4 0.358877 0.698914 0.105480
Si Si5 0.986541 0.983313 0.170055
Si Si6 0.575856 0.090849 0.510344
Si Si7 0.565211 0.843269 0.140213
Si Si8 0.264119 0.314815 0.090046
O O1 0.367202 0.160784 0.350721
O O2 0.194726 0.231102 0.421375
O O3 0.094742 0.276618 0.685167
O O4 0.114096 0.057836 0.646271
O O5 0.541867 0.131050 0.282142
O O6 0.548276 0.979335 0.142780
O O7 0.661558 0.188548 0.991865
O O8 0.110630 0.901572 0.788208
O O9 0.267864 0.850365 0.770041
O O10 0.370529 0.963506 0.519368
O O11 0.223028 0.669114 0.326463
O O12 0.500000 0.749765 0.000000
O O13 0.420038 0.577285 0.994342
O O14 0.329564 0.783264 0.054355
O O15 0.104933 0.903504 0.088034
O O16 0.500000 0.081174 0.500000
O O17 0.635165 0.820554 0.160870
#
# Coordination Sequence:
#
# PCOD9129339 Si02
#       8
#     4   4   4   4   4   4   4   4
#     4  11  23  40  67  93 136 166 219 280 329 393
#     4  12  25  43  64  99 135 174 219 278 341 394
#     4  12  22  41  66 100 128 175 231 275 323 404
#     4  11  21  42  69  92 128 175 226 271 323 402
#     4  11  21  40  67  96 125 173 226 276 328 390
#     4  12  22  38  67  98 128 166 229 281 321 387
#     4  11  26  44  65 103 137 173 223 280 344 393
#     4  12  26  41  70  96 137 175 223 280 339 396
#
# _framework density 21.151809
#
# number of rings (size 3 to 8) (size 9 to 14) (size 15 to 20)
#    0.000    0.500    6.250    2.625    3.500    0.000 
#    2.250    0.000    0.000    0.000    0.000    0.000 
#    0.000    0.000    0.000    0.000    0.000    0.000 
#
# Total GULP energy -89354.564641 kJ/mol
# GULP energy per Si atom -5584.660290 kJ/mol
# Density = 2.110367 g / cm^3
# Si number density = 21.151809 Si / 1000 Ang^3
#
#
#
# Elastic Constant Matrix: (Units=GPa)
#
#
# Indices 1 2 3 4 5 6 
#
# 1 83.4200 37.5091 10.7793 0.0000 1.4029 0.0000
# 2 37.5091 106.5758 35.5301 0.0000 2.5654 0.0000
# 3 10.7793 35.5301 52.7066 0.0000 4.6695 0.0000
# 4 0.0000 0.0000 0.0000 36.7182 0.0000 11.2482
# 5 1.4029 2.5654 4.6695 0.0000 35.3088 0.0000
# 6 0.0000 0.0000 0.0000 11.2482 0.0000 21.1258
#
#
#
# Elastic Compliance Matrix: (Units=1/GPa)
#
#
# Indices 1 2 3 4 5 6 
#
# 1 0.014259 -0.005221 0.000627 0.000000 -0.000270 0.000000
# 2 -0.005221 0.014016 -0.008407 0.000000 0.000301 0.000000
# 3 0.000627 -0.008407 0.024750 0.000000 -0.002687 0.000000
# 4 0.000000 0.000000 0.000000 0.032542 0.000000 -0.017327
# 5 -0.000270 0.000301 -0.002687 0.000000 0.028666 0.000000
# 6 0.000000 0.000000 0.000000 -0.017327 0.000000 0.056561
#
#
# Mechanical properties :
#
#
# Convention : Reuss Voigt Hill
#
# Bulk Modulus (GPa) = 37.00550 45.59330 41.29940
# Shear Modulus (GPa) = 24.29504 29.22282 26.75893
#
# Velocity S-wave (km/s) = 3.39278 3.72099 3.56067
# Velocity P-wave (km/s) = 5.73421 6.32954 6.03921
#
# Compressibility (1/GPa) = 0.02702301
#
# Stress axis : x y z
#
# Youngs Moduli (GPa) = 70.13341 71.34682 40.40377
#
# Poissons Ratio (x) = 0.37249 -0.02535
# Poissons Ratio (y) = 0.36616 0.33969
# Poissons Ratio (z) = -0.04399 0.59983
#
# Static dielectric constant tensor:
#      x y z
#    x 1.789520 0.000000 -0.005170 
#    y 0.000000 1.766980 0.000000 
#    z -0.005170 0.000000 1.831500 
# 
# From -- ./inp_files/56013.got.cif
#   From: 2010.05.17/outbox.cif.g08.bks.cpg/sg5_29_cif.got.tgz:56013.got - 2010.06.03 18:56:24.
