data_PCOD9129452
_publ_section_title
;
Structure prediction by ZEFSAII (Michael W. Deem and Ramdas Pophale) SiO2 
 PCOD9129452
Probable space group: C 2
;
_chemical_formula_sum "Si O2"
_cell_formula_units_Z 32
_cell_length_a 26.107059
_cell_length_b 13.715876
_cell_length_c 9.680463
_cell_angle_alpha 90.000000
_cell_angle_beta 153.465558
_cell_angle_gamma 90.000000
_cell_volume 1548.560905
_symmetry_space_group_name_H-M "C 2"
_symmetry_group_IT_number 5
_symmetry_cell_setting 'monoclinic'
loop_
_space_group_symop_operation_xyz
x,y,z
-x,y,-z
1/2+x,1/2+y,z
1/2-x,1/2+y,-z
loop_
_atom_site_type_symbol
_atom_site_label
_atom_site_fract_x
_atom_site_fract_y
_atom_site_fract_z
Si Si1 0.310600 0.689480 0.547875
Si Si2 0.922335 0.512880 0.184308
Si Si3 0.729989 0.658963 0.847993
Si Si4 0.039720 0.669064 0.938855
Si Si5 0.298200 0.842089 0.725048
Si Si6 0.443657 0.493518 0.509899
Si Si7 0.343291 0.293976 0.354516
Si Si8 0.398254 0.478550 0.849399
O O1 0.316921 0.713901 0.401429
O O2 0.361673 0.768007 0.776334
O O3 0.361231 0.581929 0.694239
O O4 0.175715 0.685469 0.262230
O O5 0.985729 0.576908 0.220761
O O6 0.000000 0.483995 0.500000
O O7 0.824225 0.583833 0.011657
O O8 0.873296 0.420303 0.987339
O O9 0.628613 0.593086 0.665229
O O10 0.787939 0.729611 0.099386
O O11 0.969836 0.755901 0.698466
O O12 0.000000 0.655965 0.000000
O O13 0.230517 0.786466 0.683823
O O14 0.207492 0.905173 0.416079
O O15 0.500000 0.471593 0.500000
O O16 0.358124 0.406214 0.347114
O O17 0.545541 0.497079 0.867544
O O18 0.500000 0.436540 0.000000
#
# Coordination Sequence:
#
# PCOD9129452 Si02
#       8
#     4   4   4   4   4   4   4   4
#     4  11  24  41  70  99 132 175 223 274 348 395
#     4  11  22  46  67  92 143 181 208 274 353 396
#     4  11  24  47  64  99 142 172 220 289 336 402
#     4  11  22  38  67 101 129 166 225 280 330 396
#     4  12  24  44  71 102 128 182 231 276 339 409
#     4  12  28  43  69 103 134 183 231 282 346 399
#     4  12  24  41  69 101 134 173 235 278 333 408
#     4  12  22  48  71  92 142 178 226 294 337 397
#
# _framework density 20.664345999999998
#
# number of rings (size 3 to 8) (size 9 to 14) (size 15 to 20)
#    0.000    0.500    8.750    0.750    7.000    0.000 
#    2.250    1.875    0.000    0.000    0.000    0.000 
#    0.000    0.000    0.000    0.000    0.000    0.000 
#
# Total GULP energy -89472.845800 kJ/mol
# GULP energy per Si atom -5592.052863 kJ/mol
# Density = 2.061731 g / cm^3
# Si number density = 20.664346 Si / 1000 Ang^3
#
#
#
# Elastic Constant Matrix: (Units=GPa)
#
#
# Indices 1 2 3 4 5 6 
#
# 1 54.2284 13.0445 22.7240 0.0000 -22.4531 0.0000
# 2 13.0445 69.3573 28.8882 0.0000 -12.0520 0.0000
# 3 22.7240 28.8882 86.1800 0.0000 -33.1508 0.0000
# 4 0.0000 0.0000 0.0000 33.0189 0.0000 -11.0493
# 5 -22.4531 -12.0520 -33.1508 0.0000 30.5648 0.0000
# 6 0.0000 0.0000 0.0000 -11.0493 0.0000 35.9324
#
#
#
# Elastic Compliance Matrix: (Units=1/GPa)
#
#
# Indices 1 2 3 4 5 6 
#
# 1 0.026802 -0.002115 0.001535 0.000000 0.020520 0.000000
# 2 -0.002115 0.016939 -0.005403 0.000000 -0.000734 0.000000
# 3 0.001535 -0.005403 0.021662 0.000000 0.022492 0.000000
# 4 0.000000 0.000000 0.000000 0.033760 0.000000 0.010381
# 5 0.020520 -0.000734 0.022492 0.000000 0.071897 0.000000
# 6 0.000000 0.000000 0.000000 0.010381 0.000000 0.031022
#
#
# Mechanical properties :
#
#
# Convention : Reuss Voigt Hill
#
# Bulk Modulus (GPa) = 18.71320 37.67546 28.19433
# Shear Modulus (GPa) = 21.56485 29.57714 25.57099
#
# Velocity S-wave (km/s) = 3.23395 3.78737 3.52155
# Velocity P-wave (km/s) = 4.79792 6.11533 5.49624
#
# Compressibility (1/GPa) = 0.05343823
#
# Stress axis : x y z
#
# Youngs Moduli (GPa) = 37.31026 59.03704 46.16421
#
# Poissons Ratio (x) = 0.12483 -0.07087
# Poissons Ratio (y) = 0.07889 0.24941
# Poissons Ratio (z) = -0.05728 0.31896
#
# Static dielectric constant tensor:
#      x y z
#    x 1.722300 0.000000 -0.002310 
#    y 0.000000 1.748410 0.000000 
#    z -0.002310 0.000000 1.757520 
# 
# From -- ./inp_files/31079.got.cif
#   From: 2010.05.17/outbox.cif.g08.bks.cpg/sg5_16_cif.got.tgz:31079.got - 2010.06.03 18:56:24.
