data_PCOD9129220
_publ_section_title
;
Structure prediction by ZEFSAII (Michael W. Deem and Ramdas Pophale) SiO2 
 PCOD9129220
Probable space group: C 2
;
_chemical_formula_sum "Si O2"
_cell_formula_units_Z 30
_cell_length_a 10.295569
_cell_length_b 9.182836
_cell_length_c 26.779758
_cell_angle_alpha 90.000000
_cell_angle_beta 35.066438
_cell_angle_gamma 90.000000
_cell_volume 1454.599546
_symmetry_space_group_name_H-M "C 2"
_symmetry_group_IT_number 5
_symmetry_cell_setting 'monoclinic'
loop_
_space_group_symop_operation_xyz
x,y,z
-x,y,-z
1/2+x,1/2+y,z
1/2-x,1/2+y,-z
loop_
_atom_site_type_symbol
_atom_site_label
_atom_site_fract_x
_atom_site_fract_y
_atom_site_fract_z
Si Si1 0.145342 0.816190 0.356554
Si Si2 0.953719 0.808937 0.859143
Si Si3 0.500000 0.425689 0.500000
Si Si4 0.393961 0.347877 0.085439
Si Si5 0.639949 0.712335 0.502333
Si Si6 0.730557 0.647316 0.306434
Si Si7 0.989874 0.144775 0.185231
Si Si8 0.218809 0.653626 0.174322
O O1 0.312329 0.695584 0.282726
O O2 0.153772 0.837145 0.413653
O O3 0.887278 0.773775 0.427902
O O4 0.197798 0.973562 0.315366
O O5 0.931121 0.805448 0.925746
O O6 0.180507 0.717755 0.772738
O O7 0.763889 0.736215 0.884006
O O8 0.985423 0.972746 0.829726
O O9 0.646083 0.539562 0.486874
O O10 0.257303 0.483362 0.151540
O O11 0.226428 0.217571 0.124439
O O12 0.500000 0.396224 0.000000
O O13 0.500000 0.778644 0.500000
O O14 0.486594 0.719573 0.600060
O O15 0.953273 0.673656 0.271578
O O16 0.885317 0.201385 0.165531
#
# Coordination Sequence:
#
# PCOD9129220 Si02
#       8
#     4   4   2   4   4   4   4   4
#     4  11  20  36  67  86 120 175 209 253 323 358
#     4   9  23  41  63  93 126 163 204 259 311 379
#     4   8  22  38  54  84 130 162 200 268 302 360
#     4  11  24  43  66  97 127 158 209 266 318 384
#     4   9  19  35  57  87 124 163 206 265 299 350
#     4   9  19  41  62  86 127 167 212 255 304 377
#     4  11  22  38  68  92 122 167 210 256 320 379
#     4   9  21  45  64  90 123 174 201 251 318 377
#
# _framework density 20.624234000000001
#
# number of rings (size 3 to 8) (size 9 to 14) (size 15 to 20)
#    1.200    1.067    1.333    0.800    0.000    7.467 
#    0.000    2.000    7.333    0.000    0.000    0.000 
#    0.000    0.000    0.000    0.000    0.000    0.000 
#
# Total GULP energy -83567.736934 kJ/mol
# GULP energy per Si atom -5571.182462 kJ/mol
# Density = 2.057729 g / cm^3
# Si number density = 20.624234 Si / 1000 Ang^3
#
#
#
# Elastic Constant Matrix: (Units=GPa)
#
#
# Indices 1 2 3 4 5 6 
#
# 1 71.7713 26.6769 -3.0948 0.0004 18.8733 -0.0001
# 2 26.6769 57.9296 2.3845 0.0003 7.4596 -0.0001
# 3 -3.0948 2.3845 33.4547 -0.0002 13.7741 0.0000
# 4 0.0004 0.0003 -0.0002 -13.0454 0.0002 13.6204
# 5 18.8733 7.4596 13.7741 0.0002 29.3608 0.0000
# 6 -0.0001 -0.0001 0.0000 13.6204 0.0000 22.0552
#
#
#
# Elastic Compliance Matrix: (Units=1/GPa)
#
#
# Indices 1 2 3 4 5 6 
#
# 1 0.021655 -0.008272 0.009244 0.000000 -0.016155 0.000000
# 2 -0.008272 0.021021 -0.002794 0.000000 0.001287 0.000000
# 3 0.009244 -0.002794 0.041024 0.000000 -0.024478 0.000000
# 4 0.000000 0.000000 0.000000 -0.046605 0.000000 0.028782
# 5 -0.016155 0.001287 -0.024478 0.000000 0.055600 0.000000
# 6 0.000000 0.000000 0.000000 0.028782 0.000000 0.027567
#
#
# Mechanical properties :
#
#
# Convention : Reuss Voigt Hill
#
# Bulk Modulus (GPa) = 12.49125 23.89876 18.19501
# Shear Modulus (GPa) = 33.20282 16.82004 25.01143
#
# Velocity S-wave (km/s) = 4.01670 2.85888 3.48619
# Velocity P-wave (km/s) = 5.25182 4.74452 5.00460
#
# Compressibility (1/GPa) = 0.08005601
#
# Stress axis : x y z
#
# Youngs Moduli (GPa) = 46.17934 47.57142 24.37612
#
# Poissons Ratio (x) = 0.39353 -0.22534
# Poissons Ratio (y) = 0.38201 0.06810
# Poissons Ratio (z) = -0.42689 0.13289
#
# Static dielectric constant tensor:
#      x y z
#    x 1.815300 0.000000 -0.015740 
#    y 0.000000 1.723220 0.000000 
#    z -0.015740 0.000000 1.772370 
# 
# From -- ./inp_files/71697.got.cif
#   From: 2010.05.17/outbox.cif.g08.bks.cpg/sg5_36_cif.got.tgz:71697.got - 2010.06.03 18:56:24.
