data_PCOD9129505
_publ_section_title
;
Structure prediction by ZEFSAII (Michael W. Deem and Ramdas Pophale) SiO2 
 PCOD9129505
Probable space group: C 2
;
_chemical_formula_sum "Si O2"
_cell_formula_units_Z 32
_cell_length_a 11.203824
_cell_length_b 8.785047
_cell_length_c 14.822628
_cell_angle_alpha 90.000000
_cell_angle_beta 81.872830
_cell_angle_gamma 90.000000
_cell_volume 1444.281303
_symmetry_space_group_name_H-M "C 2"
_symmetry_group_IT_number 5
_symmetry_cell_setting 'monoclinic'
loop_
_space_group_symop_operation_xyz
x,y,z
-x,y,-z
1/2+x,1/2+y,z
1/2-x,1/2+y,-z
loop_
_atom_site_type_symbol
_atom_site_label
_atom_site_fract_x
_atom_site_fract_y
_atom_site_fract_z
Si Si1 0.740306 0.413590 0.371338
Si Si2 0.624115 0.427291 0.043099
Si Si3 0.835381 0.437006 0.773352
Si Si4 0.907432 0.902500 0.441974
Si Si5 0.988730 0.566906 0.395618
Si Si6 0.883566 0.560649 0.951613
Si Si7 0.881303 0.105064 0.768317
Si Si8 0.849732 0.119751 0.284696
O O1 0.696733 0.363459 0.475478
O O2 0.863314 0.504927 0.371439
O O3 0.652952 0.514367 0.318336
O O4 0.767853 0.262087 0.314178
O O5 0.628478 0.243679 0.046937
O O6 0.619935 0.498701 0.144187
O O7 0.500000 0.466909 0.000000
O O8 0.753684 0.488451 0.992622
O O9 0.910894 0.494983 0.849731
O O10 0.804862 0.259066 0.781980
O O11 0.709185 0.525890 0.788817
O O12 0.905431 0.492617 0.675563
O O13 0.974140 0.751426 0.397686
O O14 0.000000 0.986393 0.500000
O O15 0.858893 0.006828 0.368778
O O16 0.000000 0.525014 0.500000
O O17 0.000000 0.520913 0.000000
O O18 0.015661 0.170783 0.747242
#
# Coordination Sequence:
#
# PCOD9129505 Si02
#       8
#     4   4   4   4   4   4   4   4
#     4  12  24  44  67 102 141 187 242 294 354 424
#     4  11  26  49  76 110 146 186 239 297 367 436
#     4  12  26  47  71 105 144 191 236 294 361 423
#     4  11  22  41  66  98 141 186 239 297 350 419
#     4  11  25  43  69 102 144 190 239 294 357 422
#     4  11  27  48  78 110 147 189 237 299 364 437
#     4  12  27  45  72 106 142 188 239 296 355 432
#     4  12  25  44  69 100 140 188 236 295 354 419
#
# _framework density 22.156348000000001
#
# number of rings (size 3 to 8) (size 9 to 14) (size 15 to 20)
#    0.000    0.500    2.500    6.000    3.500    5.500 
#    0.000    0.000    0.000    0.000    0.000    0.000 
#    0.000    0.000    0.000    0.000    0.000    0.000 
#
# Total GULP energy -89430.143267 kJ/mol
# GULP energy per Si atom -5589.383954 kJ/mol
# Density = 2.210592 g / cm^3
# Si number density = 22.156348 Si / 1000 Ang^3
#
#
#
# Elastic Constant Matrix: (Units=GPa)
#
#
# Indices 1 2 3 4 5 6 
#
# 1 79.5412 16.4330 16.7826 0.0000 12.7431 0.0000
# 2 16.4330 99.4610 31.0886 0.0000 17.9873 0.0000
# 3 16.7826 31.0886 102.9128 0.0000 18.1484 0.0000
# 4 0.0000 0.0000 0.0000 30.5939 0.0000 4.1957
# 5 12.7431 17.9873 18.1484 0.0000 38.9003 0.0000
# 6 0.0000 0.0000 0.0000 4.1957 0.0000 32.5715
#
#
#
# Elastic Compliance Matrix: (Units=1/GPa)
#
#
# Indices 1 2 3 4 5 6 
#
# 1 0.013626 -0.001262 -0.001260 0.000000 -0.003292 0.000000
# 2 -0.001262 0.011787 -0.002688 0.000000 -0.003783 0.000000
# 3 -0.001260 -0.002688 0.011379 0.000000 -0.003653 0.000000
# 4 0.000000 0.000000 0.000000 0.033274 0.000000 -0.004286
# 5 -0.003292 -0.003783 -0.003653 0.000000 0.030239 0.000000
# 6 0.000000 0.000000 0.000000 -0.004286 0.000000 0.031254
#
#
# Mechanical properties :
#
#
# Convention : Reuss Voigt Hill
#
# Bulk Modulus (GPa) = 37.91965 45.61372 41.76669
# Shear Modulus (GPa) = 33.16335 34.92053 34.04194
#
# Velocity S-wave (km/s) = 3.87303 3.97431 3.92400
# Velocity P-wave (km/s) = 6.09526 6.45694 6.27871
#
# Compressibility (1/GPa) = 0.02637155
#
# Stress axis : x y z
#
# Youngs Moduli (GPa) = 73.38823 84.83955 87.88423
#
# Poissons Ratio (x) = 0.10707 0.11076
# Poissons Ratio (y) = 0.09262 0.23621
# Poissons Ratio (z) = 0.09249 0.22803
#
# Static dielectric constant tensor:
#      x y z
#    x 1.857990 0.000000 -0.025380 
#    y 0.000000 1.780440 0.000000 
#    z -0.025380 0.000000 1.813570 
# 
# From -- ./inp_files/52439.got.cif
#   From: 2010.05.17/outbox.cif.g08.bks.cpg/sg5_27_cif.got.tgz:52439.got - 2010.06.03 18:56:24.
