data_PCOD9129632
_publ_section_title
;
Structure prediction by ZEFSAII (Michael W. Deem and Ramdas Pophale) SiO2 
 PCOD9129632
Probable space group: C 2
;
_chemical_formula_sum "Si O2"
_cell_formula_units_Z 30
_cell_length_a 20.097570
_cell_length_b 11.891604
_cell_length_c 11.469173
_cell_angle_alpha 90.000000
_cell_angle_beta 29.178678
_cell_angle_gamma 90.000000
_cell_volume 1336.354537
_symmetry_space_group_name_H-M "C 2"
_symmetry_group_IT_number 5
_symmetry_cell_setting 'monoclinic'
loop_
_space_group_symop_operation_xyz
x,y,z
-x,y,-z
1/2+x,1/2+y,z
1/2-x,1/2+y,-z
loop_
_atom_site_type_symbol
_atom_site_label
_atom_site_fract_x
_atom_site_fract_y
_atom_site_fract_z
Si Si1 0.178085 0.941030 0.252947
Si Si2 0.375442 0.244836 0.832838
Si Si3 0.866064 0.039228 0.124887
Si Si4 0.722037 0.032731 0.124046
Si Si5 0.820443 0.755973 0.557561
Si Si6 0.660085 0.294646 0.737010
Si Si7 0.845547 0.183713 0.628870
Si Si8 0.000000 0.355232 0.500000
O O1 0.110256 0.864831 0.254077
O O2 0.219145 0.853002 0.289085
O O3 0.117543 0.054071 0.403608
O O4 0.286383 0.998396 0.999852
O O5 0.338958 0.157195 0.787110
O O6 0.520682 0.224764 0.667861
O O7 0.254451 0.231335 0.113331
O O8 0.859553 0.033986 0.992105
O O9 0.767118 0.143109 0.301115
O O10 0.817577 0.915844 0.238306
O O11 0.000000 0.057337 0.000000
O O12 0.622642 0.941545 0.330486
O O13 0.808868 0.804527 0.445953
O O14 0.757447 0.203624 0.648786
O O15 0.500000 0.266240 0.000000
O O16 0.978199 0.264386 0.429171
#
# Coordination Sequence:
#
# PCOD9129632 Si02
#       8
#     4   4   4   4   4   4   4   2
#     4  11  25  43  68 108 137 172 231 298 349 400
#     4  11  22  46  72  99 140 175 234 293 350 405
#     4  11  25  48  70  97 140 188 232 285 357 423
#     4  11  23  45  73 100 138 181 231 295 347 414
#     4  12  26  45  72 101 136 187 236 284 348 423
#     4  11  24  49  71  94 144 188 234 280 354 425
#     4  11  25  44  68 105 141 184 226 293 351 415
#     4  12  22  42  68 108 134 180 232 280 350 410
#
# _framework density 22.449133
#
# number of rings (size 3 to 8) (size 9 to 14) (size 15 to 20)
#    0.000    0.800    5.333    1.200    5.600    0.000 
#    7.200    0.667    0.000    0.000    0.000    0.000 
#    0.000    0.000    0.000    0.000    0.000    0.000 
#
# Total GULP energy -83613.227293 kJ/mol
# GULP energy per Si atom -5574.215153 kJ/mol
# Density = 2.239804 g / cm^3
# Si number density = 22.449133 Si / 1000 Ang^3
#
#
#
# Elastic Constant Matrix: (Units=GPa)
#
#
# Indices 1 2 3 4 5 6 
#
# 1 171.0824 57.3872 37.9977 0.0000 -5.6006 0.0000
# 2 57.3872 139.0789 16.7308 0.0000 -14.0540 0.0000
# 3 37.9977 16.7308 41.4922 0.0000 -0.8707 0.0000
# 4 0.0000 0.0000 0.0000 19.5926 0.0000 2.0357
# 5 -5.6006 -14.0540 -0.8707 0.0000 36.0102 0.0000
# 6 0.0000 0.0000 0.0000 2.0357 0.0000 35.3271
#
#
#
# Elastic Compliance Matrix: (Units=1/GPa)
#
#
# Indices 1 2 3 4 5 6 
#
# 1 0.008136 -0.002575 -0.006410 0.000000 0.000105 0.000000
# 2 -0.002575 0.008682 -0.001080 0.000000 0.002962 0.000000
# 3 -0.006410 -0.001080 0.030393 0.000000 -0.000684 0.000000
# 4 0.000000 0.000000 0.000000 0.051347 0.000000 -0.002959
# 5 0.000105 0.002962 -0.000684 0.000000 0.028926 0.000000
# 6 0.000000 0.000000 0.000000 -0.002959 0.000000 0.028477
#
#
# Mechanical properties :
#
#
# Convention : Reuss Voigt Hill
#
# Bulk Modulus (GPa) = 36.92892 63.98721 50.45806
# Shear Modulus (GPa) = 27.00966 34.15519 30.58242
#
# Velocity S-wave (km/s) = 3.47241 3.90481 3.69494
# Velocity P-wave (km/s) = 5.70636 6.99250 6.38191
#
# Compressibility (1/GPa) = 0.02707905
#
# Stress axis : x y z
#
# Youngs Moduli (GPa) = 122.90743 115.17999 32.90281
#
# Poissons Ratio (x) = 0.29664 0.21092
# Poissons Ratio (y) = 0.31654 0.03554
# Poissons Ratio (z) = 0.78787 0.12442
#
# Static dielectric constant tensor:
#      x y z
#    x 1.857830 0.000000 0.023110 
#    y 0.000000 1.842010 0.000000 
#    z 0.023110 0.000000 1.953970 
# 
# From -- ./inp_files/46488.got.cif
#   From: 2010.05.17/outbox.cif.g08.bks.cpg/sg5_24_cif.got.tgz:46488.got - 2010.06.03 18:56:24.
