data_PCOD9129813
_publ_section_title
;
Structure prediction by ZEFSAII (Michael W. Deem and Ramdas Pophale) SiO2 
 PCOD9129813
Probable space group: C 2
;
_chemical_formula_sum "Si O2"
_cell_formula_units_Z 26
_cell_length_a 11.544211
_cell_length_b 10.836635
_cell_length_c 18.425873
_cell_angle_alpha 90.000000
_cell_angle_beta 150.341754
_cell_angle_gamma 90.000000
_cell_volume 1140.614453
_symmetry_space_group_name_H-M "C 2"
_symmetry_group_IT_number 5
_symmetry_cell_setting 'monoclinic'
loop_
_space_group_symop_operation_xyz
x,y,z
-x,y,-z
1/2+x,1/2+y,z
1/2-x,1/2+y,-z
loop_
_atom_site_type_symbol
_atom_site_label
_atom_site_fract_x
_atom_site_fract_y
_atom_site_fract_z
Si Si1 0.464250 0.945610 0.608169
Si Si2 0.257969 0.163150 0.896685
Si Si3 0.940450 0.085288 0.851752
Si Si4 0.516242 0.577200 0.635049
Si Si5 0.372641 0.864729 0.853136
Si Si6 0.176398 0.425977 0.881561
Si Si7 0.000000 0.249865 0.500000
O O1 0.519147 0.921186 0.723938
O O2 0.403240 0.842564 0.511786
O O3 0.717315 0.997990 0.721308
O O4 0.256995 0.046570 0.503525
O O5 0.097236 0.172947 0.739385
O O6 0.315869 0.296440 0.960694
O O7 0.096217 0.091470 0.864171
O O8 0.500000 0.108246 0.000000
O O9 0.845610 0.221302 0.817385
O O10 0.137793 0.035689 0.014783
O O11 0.640481 0.447284 0.722272
O O12 0.612793 0.644473 0.614903
O O13 0.526765 0.924683 0.873037
O O14 0.500000 0.861857 0.000000
#
# Coordination Sequence:
#
# PCOD9129813 Si02
#       7
#     4   4   4   4   4   4   2
#     4  12  26  48  73 110 150 205 259 316 387 457
#     4  11  23  44  73 104 151 190 249 310 379 460
#     4  11  25  46  77 112 148 194 252 319 388 466
#     4  12  26  46  72 108 151 201 256 318 381 464
#     4  11  25  47  76 113 150 197 250 319 393 461
#     4  11  23  45  73 106 148 196 249 315 377 463
#     4  12  28  48  72 110 150 212 258 310 396 454
#
# _framework density 22.794730000000001
#
# number of rings (size 3 to 8) (size 9 to 14) (size 15 to 20)
#    0.000    0.615    1.538    6.462    2.154    0.000 
#    8.308    3.846    0.000    0.000    0.000    0.000 
#    0.000    0.000    0.000    0.000    0.000    0.000 
#
# Total GULP energy -72385.776672 kJ/mol
# GULP energy per Si atom -5568.136667 kJ/mol
# Density = 2.274285 g / cm^3
# Si number density = 22.794730 Si / 1000 Ang^3
#
#
#
# Elastic Constant Matrix: (Units=GPa)
#
#
# Indices 1 2 3 4 5 6 
#
# 1 143.1888 1.3630 41.0052 0.0005 -23.8081 0.0001
# 2 1.3630 65.1265 26.8430 0.0002 -1.7101 -0.0001
# 3 41.0052 26.8430 92.0125 0.0011 -11.6196 0.0002
# 4 0.0005 0.0002 0.0011 53.2249 0.0006 -15.8969
# 5 -23.8081 -1.7101 -11.6196 0.0006 42.0625 0.0001
# 6 0.0001 -0.0001 0.0002 -15.8969 0.0001 9.9172
#
#
#
# Elastic Compliance Matrix: (Units=1/GPa)
#
#
# Indices 1 2 3 4 5 6 
#
# 1 0.008720 0.001498 -0.003825 0.000000 0.003940 0.000000
# 2 0.001498 0.017732 -0.005846 0.000000 -0.000046 0.000001
# 3 -0.003825 -0.005846 0.014480 -0.000001 0.001597 -0.000001
# 4 0.000000 0.000000 -0.000001 0.036046 -0.000001 0.057780
# 5 0.003940 -0.000046 0.001597 -0.000001 0.026443 -0.000002
# 6 0.000000 0.000001 -0.000001 0.057780 -0.000002 0.193454
#
#
# Mechanical properties :
#
#
# Convention : Reuss Voigt Hill
#
# Bulk Modulus (GPa) = 40.67689 48.75002 44.71346
# Shear Modulus (GPa) = 15.55608 36.44869 26.00239
#
# Velocity S-wave (km/s) = 2.61519 4.00308 3.38112
# Velocity P-wave (km/s) = 5.19640 6.54211 5.90770
#
# Compressibility (1/GPa) = 0.02458398
#
# Stress axis : x y z
#
# Youngs Moduli (GPa) = 114.67724 56.39585 69.06011
#
# Poissons Ratio (x) = -0.08446 0.26419
# Poissons Ratio (y) = -0.17175 0.40374
# Poissons Ratio (z) = 0.43870 0.32970
#
# Static dielectric constant tensor:
#      x y z
#    x 1.870760 0.000000 -0.044100 
#    y 0.000000 1.942240 0.000000 
#    z -0.044100 0.000000 1.839300 
# 
# From -- ./inp_files/60517.got.cif
#   From: 2010.05.17/outbox.cif.g08.bks.cpg/sg5_31_cif.got.tgz:60517.got - 2010.06.03 18:56:24.
