data_PCOD9129011
_publ_section_title
;
Structure prediction by ZEFSAII (Michael W. Deem and Ramdas Pophale) SiO2 
 PCOD9129011
Probable space group: C 2
;
_chemical_formula_sum "Si O2"
_cell_formula_units_Z 26
_cell_length_a 16.479675
_cell_length_b 13.721221
_cell_length_c 9.442865
_cell_angle_alpha 90.000000
_cell_angle_beta 144.867402
_cell_angle_gamma 90.000000
_cell_volume 1228.763644
_symmetry_space_group_name_H-M "C 2"
_symmetry_group_IT_number 5
_symmetry_cell_setting 'monoclinic'
loop_
_space_group_symop_operation_xyz
x,y,z
-x,y,-z
1/2+x,1/2+y,z
1/2-x,1/2+y,-z
loop_
_atom_site_type_symbol
_atom_site_label
_atom_site_fract_x
_atom_site_fract_y
_atom_site_fract_z
Si Si1 0.331791 0.145970 0.770894
Si Si2 0.500000 0.963282 0.500000
Si Si3 0.667060 0.271562 0.727525
Si Si4 0.137340 0.992672 0.601599
Si Si5 0.952048 0.952766 0.078709
Si Si6 0.704694 0.089802 0.605441
Si Si7 0.757303 0.302556 0.142382
O O1 0.297895 0.105137 0.566110
O O2 0.253098 0.241177 0.726945
O O3 0.271489 0.063482 0.791945
O O4 0.500000 0.161939 0.000000
O O5 0.375567 0.885098 0.295061
O O6 0.566567 0.033398 0.472848
O O7 0.500000 0.255616 0.500000
O O8 0.685691 0.384887 0.715859
O O9 0.716187 0.199160 0.677651
O O10 0.749103 0.240780 0.987701
O O11 0.000000 0.021555 0.500000
O O12 0.072691 0.992615 0.351180
O O13 0.884836 0.865525 0.070381
O O14 0.000000 0.907813 0.000000
O O15 0.835994 0.030502 0.860485
#
# Coordination Sequence:
#
# PCOD9129011 Si02
#       7
#     4   2   4   4   4   4   4
#     4  12  28  42  71 106 143 183 232 297 348 419
#     4  10  26  44  72 100 140 186 230 288 348 424
#     4  11  22  41  67  97 129 179 230 280 338 422
#     4  11  25  45  72  97 137 186 239 280 350 420
#     4  11  22  44  66  96 130 180 224 286 341 411
#     4  11  25  43  69  98 142 175 232 286 358 403
#     4  11  25  43  70  99 137 181 234 282 351 411
#
# _framework density 21.159479000000001
#
# number of rings (size 3 to 8) (size 9 to 14) (size 15 to 20)
#    0.000    0.923    5.385    1.385    7.538    0.000 
#    0.000    0.769    0.000    0.000    0.000    0.000 
#    0.000    0.000    0.000    0.000    0.000    0.000 
#
# Total GULP energy -72407.841574 kJ/mol
# GULP energy per Si atom -5569.833967 kJ/mol
# Density = 2.111132 g / cm^3
# Si number density = 21.159479 Si / 1000 Ang^3
#
#
#
# Elastic Constant Matrix: (Units=GPa)
#
#
# Indices 1 2 3 4 5 6 
#
# 1 109.8416 45.5773 40.5340 0.0000 -15.1097 0.0000
# 2 45.5773 83.3659 13.0919 0.0000 0.7486 0.0000
# 3 40.5340 13.0919 56.1278 0.0000 -18.0500 0.0000
# 4 0.0000 0.0000 0.0000 12.5957 0.0000 -9.8939
# 5 -15.1097 0.7486 -18.0500 0.0000 28.9237 0.0000
# 6 0.0000 0.0000 0.0000 -9.8939 0.0000 38.0008
#
#
#
# Elastic Compliance Matrix: (Units=1/GPa)
#
#
# Indices 1 2 3 4 5 6 
#
# 1 0.015746 -0.007266 -0.008721 0.000000 0.002971 0.000000
# 2 -0.007266 0.015971 0.000210 0.000000 -0.004078 0.000000
# 3 -0.008721 0.000210 0.028273 0.000000 0.013082 0.000000
# 4 0.000000 0.000000 0.000000 0.099804 0.000000 0.025985
# 5 0.002971 -0.004078 0.013082 0.000000 0.044396 0.000000
# 6 0.000000 0.000000 0.000000 0.025985 0.000000 0.033081
#
#
# Mechanical properties :
#
#
# Convention : Reuss Voigt Hill
#
# Bulk Modulus (GPa) = 35.16519 49.74908 42.45713
# Shear Modulus (GPa) = 17.96620 25.91283 21.93952
#
# Velocity S-wave (km/s) = 2.91707 3.50329 3.22353
# Velocity P-wave (km/s) = 5.29159 6.31875 5.82784
#
# Compressibility (1/GPa) = 0.02843722
#
# Stress axis : x y z
#
# Youngs Moduli (GPa) = 63.50953 62.61322 35.37005
#
# Poissons Ratio (x) = 0.45492 0.30846
# Poissons Ratio (y) = 0.46143 -0.00744
# Poissons Ratio (z) = 0.55386 -0.01317
#
# Static dielectric constant tensor:
#      x y z
#    x 1.796030 0.000000 0.037180 
#    y 0.000000 1.777770 0.000000 
#    z 0.037180 0.000000 1.732170 
# 
# From -- ./inp_files/20276.got.cif
#   From: 2010.05.17/outbox.cif.g08.bks.cpg/sg5_11_cif.got.tgz:20276.got - 2010.06.03 18:56:24.
