data_PCOD9129438
_publ_section_title
;
Structure prediction by ZEFSAII (Michael W. Deem and Ramdas Pophale) SiO2 
 PCOD9129438
Probable space group: C 2
;
_chemical_formula_sum "Si O2"
_cell_formula_units_Z 18
_cell_length_a 6.982031
_cell_length_b 17.894408
_cell_length_c 10.710453
_cell_angle_alpha 90.000000
_cell_angle_beta 138.296624
_cell_angle_gamma 90.000000
_cell_volume 890.241273
_symmetry_space_group_name_H-M "C 2"
_symmetry_group_IT_number 5
_symmetry_cell_setting 'monoclinic'
loop_
_space_group_symop_operation_xyz
x,y,z
-x,y,-z
1/2+x,1/2+y,z
1/2-x,1/2+y,-z
loop_
_atom_site_type_symbol
_atom_site_label
_atom_site_fract_x
_atom_site_fract_y
_atom_site_fract_z
Si Si1 0.210542 0.818950 0.941180
Si Si2 0.603443 0.446773 0.347590
Si Si3 0.026443 0.447062 0.235045
Si Si4 0.500000 0.188072 0.000000
Si Si5 0.605865 0.573368 0.923075
O O1 0.969397 0.869687 0.757278
O O2 0.500000 0.804076 0.000000
O O3 0.343253 0.873016 0.113372
O O4 0.055729 0.744725 0.913547
O O5 0.313253 0.452381 0.290686
O O6 0.867194 0.445723 0.571254
O O7 0.600802 0.517039 0.252553
O O8 0.842468 0.516783 0.096317
O O9 0.232565 0.131662 0.885567
O O10 0.500000 0.611457 0.000000
#
# Coordination Sequence:
#
# PCOD9129438 Si02
#       5
#     4   4   4   2   4
#     4   9  20  37  59  87 118 153 196 242 295 352
#     4   9  18  38  64  88 115 152 200 247 287 347
#     4   9  18  38  64  88 115 152 200 247 287 347
#     4  12  22  40  58  86 128 160 190 244 302 354
#     4  11  22  37  59  87 120 157 198 240 291 352
#
# _framework density 20.219235999999999
#
# number of rings (size 3 to 8) (size 9 to 14) (size 15 to 20)
#    0.000    2.222    2.222    2.000    6.222    0.889 
#    0.000    4.444    0.000    5.333    0.000    0.000 
#    0.000    0.000    0.000    0.000    0.000    0.000 
#
# Total GULP energy -50154.380054 kJ/mol
# GULP energy per Si atom -5572.708895 kJ/mol
# Density = 2.017322 g / cm^3
# Si number density = 20.219236 Si / 1000 Ang^3
#
#
#
# Elastic Constant Matrix: (Units=GPa)
#
#
# Indices 1 2 3 4 5 6 
#
# 1 99.3469 43.8947 24.6992 0.0000 -7.9000 0.0000
# 2 43.8947 118.6202 42.3627 0.0000 -4.7240 0.0000
# 3 24.6992 42.3627 137.8786 0.0000 -9.7264 0.0000
# 4 0.0000 0.0000 0.0000 3.7829 0.0000 -13.7057
# 5 -7.9000 -4.7240 -9.7264 0.0000 24.9940 0.0000
# 6 0.0000 0.0000 0.0000 -13.7057 0.0000 46.2007
#
#
#
# Elastic Compliance Matrix: (Units=1/GPa)
#
#
# Indices 1 2 3 4 5 6 
#
# 1 0.012320 -0.004189 -0.000721 0.000000 0.002822 0.000000
# 2 -0.004189 0.010905 -0.002620 0.000000 -0.000283 0.000000
# 3 -0.000721 -0.002620 0.008366 0.000000 0.002532 0.000000
# 4 0.000000 0.000000 0.000000 -3.533345 0.000000 -1.048190
# 5 0.002822 -0.000283 0.002532 0.000000 0.041834 0.000000
# 6 0.000000 0.000000 0.000000 -1.048190 0.000000 -0.289308
#
#
# Mechanical properties :
#
#
# Convention : Reuss Voigt Hill
#
# Bulk Modulus (GPa) = 60.49394 64.19546 62.34470
# Shear Modulus (GPa) = -1.34096 31.32146 14.99025
#
# Velocity S-wave (km/s) = -0.81526 3.94012 2.72579
# Velocity P-wave (km/s) = 5.39423 7.24693 6.38811
#
# Compressibility (1/GPa) = 0.01653058
#
# Stress axis : x y z
#
# Youngs Moduli (GPa) = 81.16698 91.70200 119.53852
#
# Poissons Ratio (x) = 0.38416 0.08617
# Poissons Ratio (y) = 0.34003 0.31319
# Poissons Ratio (z) = 0.05851 0.24026
#
# Static dielectric constant tensor:
#      x y z
#    x 1.857020 0.000000 -0.022680 
#    y 0.000000 1.691180 0.000000 
#    z -0.022680 0.000000 1.676460 
# 
# From -- ./inp_files/36575.got.cif
#   From: 2010.05.17/outbox.cif.g08.bks.cpg/sg5_19_cif.got.tgz:36575.got - 2010.06.03 18:56:24.
