data_PCOD9129968
_publ_section_title
;
Structure prediction by ZEFSAII (Michael W. Deem and Ramdas Pophale) SiO2 
 PCOD9129968
Probable space group: C 2
;
_chemical_formula_sum "Si O2"
_cell_formula_units_Z 32
_cell_length_a 24.969805
_cell_length_b 14.336070
_cell_length_c 9.461386
_cell_angle_alpha 90.000000
_cell_angle_beta 26.175335
_cell_angle_gamma 90.000000
_cell_volume 1494.019739
_symmetry_space_group_name_H-M "C 2"
_symmetry_group_IT_number 5
_symmetry_cell_setting 'monoclinic'
loop_
_space_group_symop_operation_xyz
x,y,z
-x,y,-z
1/2+x,1/2+y,z
1/2-x,1/2+y,-z
loop_
_atom_site_type_symbol
_atom_site_label
_atom_site_fract_x
_atom_site_fract_y
_atom_site_fract_z
Si Si1 0.423139 0.955940 0.327995
Si Si2 0.589583 0.801561 0.426073
Si Si3 0.704115 0.548453 0.714747
Si Si4 0.374706 0.204317 0.203831
Si Si5 0.450718 0.590354 0.459204
Si Si6 0.248938 0.935652 0.124389
Si Si7 0.356160 0.398011 0.343013
Si Si8 0.942126 0.587254 0.778810
O O1 0.453108 0.858860 0.334883
O O2 0.283054 0.979482 0.626272
O O3 0.462196 0.034258 0.347838
O O4 0.500000 0.965268 0.000000
O O5 0.500000 0.804879 0.500000
O O6 0.605730 0.693490 0.428847
O O7 0.703533 0.862725 0.103076
O O8 0.780067 0.641832 0.514187
O O9 0.701366 0.493451 0.573703
O O10 0.568273 0.570427 0.084450
O O11 0.331172 0.310579 0.302320
O O12 0.500000 0.202759 0.000000
O O13 0.387141 0.161740 0.018052
O O14 0.500000 0.591044 0.500000
O O15 0.355397 0.507420 0.671926
O O16 0.195969 0.876919 0.380409
O O17 0.355637 0.004222 0.926429
O O18 0.500000 0.411608 0.000000
O O19 0.000000 0.629817 0.500000
#
# Coordination Sequence:
#
# PCOD9129968 Si02
#       8
#     4   4   4   4   4   4   4   4
#     4  12  21  41  72 105 140 186 239 293 344 410
#     4  11  25  46  70 104 137 189 242 280 354 424
#     4  12  23  43  71  99 149 173 230 297 350 407
#     4  11  24  43  72 106 135 190 241 277 349 423
#     4  11  28  44  67 106 140 188 229 286 367 413
#     4  12  22  47  74  96 146 182 231 295 349 416
#     4  11  25  45  69 101 139 188 230 283 355 423
#     4  12  22  42  73 103 139 182 240 288 342 411
#
# _framework density 21.418725999999999
#
# number of rings (size 3 to 8) (size 9 to 14) (size 15 to 20)
#    0.000    0.500    7.500    0.750    3.500    1.000 
#    4.500    0.625    0.000    0.000    0.000    0.000 
#    0.000    0.000    0.000    0.000    0.000    0.000 
#
# Total GULP energy -89384.595920 kJ/mol
# GULP energy per Si atom -5586.537245 kJ/mol
# Density = 2.136998 g / cm^3
# Si number density = 21.418726 Si / 1000 Ang^3
#
#
#
# Elastic Constant Matrix: (Units=GPa)
#
#
# Indices 1 2 3 4 5 6 
#
# 1 56.7778 24.2934 29.7827 0.0000 14.7600 0.0000
# 2 24.2934 117.9380 44.6420 0.0000 -1.1223 0.0000
# 3 29.7827 44.6420 92.7736 0.0000 9.3532 0.0000
# 4 0.0000 0.0000 0.0000 19.4101 0.0000 7.1938
# 5 14.7600 -1.1223 9.3532 0.0000 40.0529 0.0000
# 6 0.0000 0.0000 0.0000 7.1938 0.0000 32.9967
#
#
#
# Elastic Compliance Matrix: (Units=1/GPa)
#
#
# Indices 1 2 3 4 5 6 
#
# 1 0.023662 -0.002883 -0.005450 0.000000 -0.007528 0.000000
# 2 -0.002883 0.010806 -0.004518 0.000000 0.002420 0.000000
# 3 -0.005450 -0.004518 0.014863 0.000000 -0.001589 0.000000
# 4 0.000000 0.000000 0.000000 0.056048 0.000000 -0.012219
# 5 -0.007528 0.002420 -0.001589 0.000000 0.028180 0.000000
# 6 0.000000 0.000000 0.000000 -0.012219 0.000000 0.032970
#
#
# Mechanical properties :
#
#
# Convention : Reuss Voigt Hill
#
# Bulk Modulus (GPa) = 42.32155 51.65840 46.98997
# Shear Modulus (GPa) = 24.98661 29.74338 27.36499
#
# Velocity S-wave (km/s) = 3.41923 3.73052 3.57826
# Velocity P-wave (km/s) = 5.94896 6.53654 6.24966
#
# Compressibility (1/GPa) = 0.02362863
#
# Stress axis : x y z
#
# Youngs Moduli (GPa) = 42.26266 92.53980 67.28145
#
# Poissons Ratio (x) = 0.26676 0.36668
# Poissons Ratio (y) = 0.12183 0.30401
# Poissons Ratio (z) = 0.23033 0.41814
#
# Static dielectric constant tensor:
#      x y z
#    x 1.784690 0.000000 -0.022780 
#    y 0.000000 1.771940 0.000000 
#    z -0.022780 0.000000 1.608840 
# 
# From -- ./inp_files/31050.got.cif
#   From: 2010.05.17/outbox.cif.g08.bks.cpg/sg5_16_cif.got.tgz:31050.got - 2010.06.03 18:56:24.
