data_PCOD9129390
_publ_section_title
;
Structure prediction by ZEFSAII (Michael W. Deem and Ramdas Pophale) SiO2 
 PCOD9129390
Probable space group: C 2
;
_chemical_formula_sum "Si O2"
_cell_formula_units_Z 32
_cell_length_a 29.956021
_cell_length_b 6.482014
_cell_length_c 8.082668
_cell_angle_alpha 90.000000
_cell_angle_beta 72.072520
_cell_angle_gamma 90.000000
_cell_volume 1493.252939
_symmetry_space_group_name_H-M "C 2"
_symmetry_group_IT_number 5
_symmetry_cell_setting 'monoclinic'
loop_
_space_group_symop_operation_xyz
x,y,z
-x,y,-z
1/2+x,1/2+y,z
1/2-x,1/2+y,-z
loop_
_atom_site_type_symbol
_atom_site_label
_atom_site_fract_x
_atom_site_fract_y
_atom_site_fract_z
Si Si1 0.381483 0.403130 0.982212
Si Si2 0.795844 0.083501 0.560768
Si Si3 0.022079 0.941582 0.645158
Si Si4 0.879086 0.832292 0.612347
Si Si5 0.965708 0.616330 0.896890
Si Si6 0.439009 0.731391 0.123146
Si Si7 0.863534 0.469209 0.423284
Si Si8 0.200584 0.770448 0.726141
O O1 0.388530 0.428424 0.780026
O O2 0.414542 0.208121 0.977603
O O3 0.401872 0.581593 0.074873
O O4 0.328147 0.352590 0.085584
O O5 0.827513 0.283591 0.492471
O O6 0.747383 0.141393 0.703329
O O7 0.829724 0.929024 0.617725
O O8 0.784697 0.965906 0.402532
O O9 0.076576 0.891099 0.550639
O O10 0.000000 0.032893 0.500000
O O11 0.990948 0.733250 0.714805
O O12 0.026778 0.092877 0.798808
O O13 0.874775 0.587294 0.582725
O O14 0.959263 0.377119 0.952359
O O15 0.000000 0.694270 0.000000
O O16 0.410115 0.880172 0.282129
O O17 0.836840 0.633433 0.335615
#
# Coordination Sequence:
#
# PCOD9129390 Si02
#       8
#     4   4   4   4   4   4   4   4
#     4  12  25  47  70 100 150 186 239 301 347 423
#     4  11  22  42  72 101 138 180 239 290 358 427
#     4  12  25  49  72 103 148 183 239 300 351 421
#     4  11  26  46  65 102 149 184 229 300 361 418
#     4  12  26  43  69 106 139 191 238 291 347 424
#     4  12  25  47  76 100 138 193 242 291 354 422
#     4  11  21  43  70  97 135 183 228 289 357 418
#     4  11  22  42  72 105 132 185 239 294 345 432
#
# _framework density 21.429722999999999
#
# number of rings (size 3 to 8) (size 9 to 14) (size 15 to 20)
#    0.000    0.500    7.500    1.500    1.750    1.000 
#    4.500    0.000    0.000    0.000    0.000    0.000 
#    0.000    0.000    0.000    0.000    0.000    0.000 
#
# Total GULP energy -89225.111556 kJ/mol
# GULP energy per Si atom -5576.569472 kJ/mol
# Density = 2.138095 g / cm^3
# Si number density = 21.429723 Si / 1000 Ang^3
#
#
#
# Elastic Constant Matrix: (Units=GPa)
#
#
# Indices 1 2 3 4 5 6 
#
# 1 89.7581 30.0036 34.1787 0.0000 -22.2236 0.0000
# 2 30.0036 94.8334 44.5889 0.0000 -10.8305 0.0000
# 3 34.1787 44.5889 94.4072 0.0000 -16.0557 0.0000
# 4 0.0000 0.0000 0.0000 33.8760 0.0000 -16.2655
# 5 -22.2236 -10.8305 -16.0557 0.0000 39.5597 0.0000
# 6 0.0000 0.0000 0.0000 -16.2655 0.0000 35.3095
#
#
#
# Elastic Compliance Matrix: (Units=1/GPa)
#
#
# Indices 1 2 3 4 5 6 
#
# 1 0.014711 -0.002485 -0.003075 0.000000 0.006336 0.000000
# 2 -0.002485 0.014028 -0.005704 0.000000 0.000129 0.000000
# 3 -0.003075 -0.005704 0.014866 0.000000 0.002745 0.000000
# 4 0.000000 0.000000 0.000000 0.037903 0.000000 0.017460
# 5 0.006336 0.000129 0.002745 0.000000 0.029987 0.000000
# 6 0.000000 0.000000 0.000000 0.017460 0.000000 0.036364
#
#
# Mechanical properties :
#
#
# Convention : Reuss Voigt Hill
#
# Bulk Modulus (GPa) = 47.44205 55.17122 51.30664
# Shear Modulus (GPa) = 28.18295 33.09752 30.64023
#
# Velocity S-wave (km/s) = 3.63041 3.93424 3.78537
# Velocity P-wave (km/s) = 6.30553 6.81459 6.56500
#
# Compressibility (1/GPa) = 0.02107835
#
# Stress axis : x y z
#
# Youngs Moduli (GPa) = 67.97460 71.28834 67.26682
#
# Poissons Ratio (x) = 0.17716 0.20683
# Poissons Ratio (y) = 0.16892 0.38366
# Poissons Ratio (z) = 0.20900 0.40660
#
# Static dielectric constant tensor:
#      x y z
#    x 1.781210 0.000000 0.002430 
#    y 0.000000 1.802940 0.000000 
#    z 0.002430 0.000000 1.811990 
# 
# From -- ./inp_files/32263.got.cif
#   From: 2010.05.17/outbox.cif.g08.bks.cpg/sg5_17_cif.got.tgz:32263.got - 2010.06.03 18:56:24.
