data_PCOD9129872
_publ_section_title
;
Structure prediction by ZEFSAII (Michael W. Deem and Ramdas Pophale) SiO2 
 PCOD9129872
Probable space group: C 2
;
_chemical_formula_sum "Si O2"
_cell_formula_units_Z 18
_cell_length_a 8.669921
_cell_length_b 19.100706
_cell_length_c 9.009100
_cell_angle_alpha 90.000000
_cell_angle_beta 146.034992
_cell_angle_gamma 90.000000
_cell_volume 833.516369
_symmetry_space_group_name_H-M "C 2"
_symmetry_group_IT_number 5
_symmetry_cell_setting 'monoclinic'
loop_
_space_group_symop_operation_xyz
x,y,z
-x,y,-z
1/2+x,1/2+y,z
1/2-x,1/2+y,-z
loop_
_atom_site_type_symbol
_atom_site_label
_atom_site_fract_x
_atom_site_fract_y
_atom_site_fract_z
Si Si1 0.481743 0.703830 0.811109
Si Si2 0.000000 0.597712 0.500000
Si Si3 0.267904 0.484826 0.932573
Si Si4 0.675571 0.837449 0.788069
Si Si5 0.309728 0.585632 0.205928
O O1 0.522938 0.774184 0.751596
O O2 0.704204 0.652819 0.912204
O O3 0.219120 0.651152 0.600780
O O4 0.500000 0.719614 0.000000
O O5 0.898944 0.545467 0.288548
O O6 0.142284 0.408655 0.858354
O O7 0.500000 0.466683 0.000000
O O8 0.407332 0.520171 0.185788
O O9 0.500000 0.850513 0.500000
O O10 0.000000 0.821436 0.000000
O O11 0.500000 0.599033 0.500000
O O12 0.000000 0.566714 0.000000
#
# Coordination Sequence:
#
# PCOD9129872 Si02
#       5
#     4   2   4   4   4
#     4  12  26  43  70 105 140 195 236 292 357 427
#     4  12  20  44  80  96 140 188 250 284 344 434
#     4  11  23  46  74 104 140 197 236 290 361 433
#     4  11  27  47  73 104 148 186 235 295 363 422
#     4  12  25  41  70 106 145 178 242 299 347 419
#
# _framework density 21.595257
#
# number of rings (size 3 to 8) (size 9 to 14) (size 15 to 20)
#    0.000    0.444    5.556    2.667    3.111    0.889 
#    0.000    0.000    7.333    0.000    0.000    0.000 
#    0.000    0.000    0.000    0.000    0.000    0.000 
#
# Total GULP energy -50164.001534 kJ/mol
# GULP energy per Si atom -5573.777948 kJ/mol
# Density = 2.154610 g / cm^3
# Si number density = 21.595257 Si / 1000 Ang^3
#
#
#
# Elastic Constant Matrix: (Units=GPa)
#
#
# Indices 1 2 3 4 5 6 
#
# 1 46.4173 13.4891 -11.4866 0.0002 -6.0838 -0.0001
# 2 13.4891 168.0659 -3.4984 0.0000 -2.6632 0.0000
# 3 -11.4866 -3.4984 46.5234 0.0005 5.3035 -0.0002
# 4 0.0002 0.0000 0.0005 216.1952 0.0003 -77.5934
# 5 -6.0838 -2.6632 5.3035 0.0003 31.8798 -0.0001
# 6 -0.0001 0.0000 -0.0002 -77.5934 -0.0001 62.9452
#
#
#
# Elastic Compliance Matrix: (Units=1/GPa)
#
#
# Indices 1 2 3 4 5 6 
#
# 1 0.023836 -0.001746 0.005353 0.000000 0.003512 0.000000
# 2 -0.001746 0.006093 0.000007 0.000000 0.000175 0.000000
# 3 0.005353 0.000007 0.023139 0.000000 -0.002827 0.000000
# 4 0.000000 0.000000 0.000000 0.008296 0.000000 0.010226
# 5 0.003512 0.000175 -0.002827 0.000000 0.032523 0.000000
# 6 0.000000 0.000000 0.000000 0.010226 0.000000 0.028493
#
#
# Mechanical properties :
#
#
# Convention : Reuss Voigt Hill
#
# Bulk Modulus (GPa) = 16.58438 28.66832 22.62635
# Shear Modulus (GPa) = 36.96861 79.70423 58.33642
#
# Velocity S-wave (km/s) = 4.14198 6.08180 5.20309
# Velocity P-wave (km/s) = 5.52910 7.91340 6.82616
#
# Compressibility (1/GPa) = 0.06029772
#
# Stress axis : x y z
#
# Youngs Moduli (GPa) = 41.95294 164.12002 43.21677
#
# Poissons Ratio (x) = 0.28656 -0.23136
# Poissons Ratio (y) = 0.07325 -0.00031
# Poissons Ratio (z) = -0.22459 -0.00118
#
# Static dielectric constant tensor:
#      x y z
#    x 0.913700 0.000000 -0.964750 
#    y 0.000000 1.827410 0.000000 
#    z -0.964750 0.000000 0.777880 
# 
# From -- ./inp_files/2118.got.cif
#   From: 2010.05.17/outbox.cif.g08.bks.cpg/sg5_2_cif.got.tgz:2118.got - 2010.06.03 18:56:24.
