data_PCOD9129094
_publ_section_title
;
Structure prediction by ZEFSAII (Michael W. Deem and Ramdas Pophale) SiO2 
 PCOD9129094
Probable space group: C 2
;
_chemical_formula_sum "Si O2"
_cell_formula_units_Z 26
_cell_length_a 15.510296
_cell_length_b 7.937986
_cell_length_c 13.933472
_cell_angle_alpha 90.000000
_cell_angle_beta 141.264890
_cell_angle_gamma 90.000000
_cell_volume 1073.421620
_symmetry_space_group_name_H-M "C 2"
_symmetry_group_IT_number 5
_symmetry_cell_setting 'monoclinic'
loop_
_space_group_symop_operation_xyz
x,y,z
-x,y,-z
1/2+x,1/2+y,z
1/2-x,1/2+y,-z
loop_
_atom_site_type_symbol
_atom_site_label
_atom_site_fract_x
_atom_site_fract_y
_atom_site_fract_z
Si Si1 0.000000 0.394820 0.000000
Si Si2 0.090951 0.859613 0.851389
Si Si3 0.368985 0.204960 0.788361
Si Si4 0.593900 0.753566 0.886810
Si Si5 0.328587 0.959292 0.598839
Si Si6 0.651087 0.955817 0.608084
Si Si7 0.574533 0.303645 0.484871
O O1 0.109186 0.531054 0.135969
O O2 0.936446 0.279450 0.026823
O O3 0.010955 0.788036 0.875432
O O4 0.026294 0.785515 0.695801
O O5 0.072731 0.061893 0.835202
O O6 0.250886 0.812044 0.997672
O O7 0.269844 0.338751 0.752931
O O8 0.311747 0.138214 0.636778
O O9 0.480138 0.878929 0.743103
O O10 0.309796 0.966396 0.469899
O O11 0.213641 0.858937 0.555513
O O12 0.500000 0.882315 0.500000
O O13 0.629437 0.154368 0.605730
O O14 0.500000 0.420745 0.500000
#
# Coordination Sequence:
#
# PCOD9129094 Si02
#       7
#     2   4   4   4   4   4   4
#     4  10  26  50  68 108 142 192 252 302 354 440
#     4  12  25  48  71 103 146 199 238 302 370 431
#     4  11  24  45  72 103 147 189 241 301 362 430
#     4  11  27  45  74 102 145 194 247 301 363 428
#     4  11  22  46  68 104 146 186 242 299 358 430
#     4  11  23  41  70 106 143 186 236 294 362 437
#     4  11  26  45  73 105 146 189 244 295 367 436
#
# _framework density 24.221609000000001
#
# number of rings (size 3 to 8) (size 9 to 14) (size 15 to 20)
#    0.000    0.923    3.077    2.769    6.462    3.692 
#    2.769    0.000    0.000    0.000    0.000    0.000 
#    0.000    0.000    0.000    0.000    0.000    0.000 
#
# Total GULP energy -72542.146768 kJ/mol
# GULP energy per Si atom -5580.165136 kJ/mol
# Density = 2.416648 g / cm^3
# Si number density = 24.221609 Si / 1000 Ang^3
#
#
#
# Elastic Constant Matrix: (Units=GPa)
#
#
# Indices 1 2 3 4 5 6 
#
# 1 89.9019 11.9173 20.0006 0.0000 17.0954 0.0000
# 2 11.9173 99.4771 14.2116 0.0000 -2.7526 0.0000
# 3 20.0006 14.2116 73.7206 0.0000 15.5825 0.0000
# 4 0.0000 0.0000 0.0000 22.6609 0.0000 -0.7838
# 5 17.0954 -2.7526 15.5825 0.0000 43.4410 0.0000
# 6 0.0000 0.0000 0.0000 -0.7838 0.0000 24.5095
#
#
#
# Elastic Compliance Matrix: (Units=1/GPa)
#
#
# Indices 1 2 3 4 5 6 
#
# 1 0.012606 -0.001302 -0.002276 0.000000 -0.004227 0.000000
# 2 -0.001302 0.010561 -0.002091 0.000000 0.001932 0.000000
# 3 -0.002276 -0.002091 0.015607 0.000000 -0.004835 0.000000
# 4 0.000000 0.000000 0.000000 0.044178 0.000000 0.001413
# 5 -0.004227 0.001932 -0.004835 0.000000 0.026540 0.000000
# 6 0.000000 0.000000 0.000000 0.001413 0.000000 0.040846
#
#
# Mechanical properties :
#
#
# Convention : Reuss Voigt Hill
#
# Bulk Modulus (GPa) = 36.44728 39.48429 37.96578
# Shear Modulus (GPa) = 29.27058 32.58694 30.92876
#
# Velocity S-wave (km/s) = 3.48005 3.67190 3.57726
# Velocity P-wave (km/s) = 5.58818 5.85780 5.72458
#
# Compressibility (1/GPa) = 0.02743689
#
# Stress axis : x y z
#
# Youngs Moduli (GPa) = 79.32806 94.69062 64.07290
#
# Poissons Ratio (x) = 0.12329 0.14580
# Poissons Ratio (y) = 0.10329 0.13397
# Poissons Ratio (z) = 0.18051 0.19799
#
# Static dielectric constant tensor:
#      x y z
#    x 2.030040 0.000000 0.004690 
#    y 0.000000 2.027880 0.000000 
#    z 0.004690 0.000000 2.038680 
# 
# From -- ./inp_files/54273.got.cif
#   From: 2010.05.17/outbox.cif.g08.bks.cpg/sg5_28_cif.got.tgz:54273.got - 2010.06.03 18:56:24.
