data_PCOD9129223
_publ_section_title
;
Structure prediction by ZEFSAII (Michael W. Deem and Ramdas Pophale) SiO2 
 PCOD9129223
Probable space group: C 2
;
_chemical_formula_sum "Si O2"
_cell_formula_units_Z 26
_cell_length_a 10.704049
_cell_length_b 7.813521
_cell_length_c 15.229023
_cell_angle_alpha 90.000000
_cell_angle_beta 129.430865
_cell_angle_gamma 90.000000
_cell_volume 983.794568
_symmetry_space_group_name_H-M "C 2"
_symmetry_group_IT_number 5
_symmetry_cell_setting 'monoclinic'
loop_
_space_group_symop_operation_xyz
x,y,z
-x,y,-z
1/2+x,1/2+y,z
1/2-x,1/2+y,-z
loop_
_atom_site_type_symbol
_atom_site_label
_atom_site_fract_x
_atom_site_fract_y
_atom_site_fract_z
Si Si1 0.840384 0.759240 0.469196
Si Si2 0.326793 0.100411 0.152784
Si Si3 0.195945 0.988680 0.917384
Si Si4 0.855243 0.940516 0.777598
Si Si5 0.000000 0.717243 0.000000
Si Si6 0.204967 0.591335 0.301501
Si Si7 0.527655 0.573450 0.406162
O O1 0.762216 0.915721 0.377207
O O2 0.688087 0.659773 0.439652
O O3 0.000000 0.663663 0.500000
O O4 0.935220 0.873314 0.582014
O O5 0.276400 0.050542 0.229335
O O6 0.513560 0.061475 0.216360
O O7 0.290592 0.298930 0.116848
O O8 0.222973 0.994064 0.035597
O O9 0.347889 0.099746 0.956407
O O10 0.010722 0.049211 0.816331
O O11 0.938035 0.822425 0.889003
O O12 0.791993 0.799986 0.680745
O O13 0.346431 0.597242 0.290337
O O14 0.500000 0.622802 0.500000
#
# Coordination Sequence:
#
# PCOD9129223 Si02
#       7
#     4   4   4   4   2   4   4
#     4   9  19  37  62  92 121 158 193 242 301 370
#     4  11  20  37  59  80 118 161 208 254 308 348
#     4  11  22  35  54  81 108 158 207 256 301 350
#     4  11  21  38  56  82 116 159 205 257 301 353
#     4  12  22  36  56  78 114 150 212 258 302 350
#     4   9  19  36  61  89 121 156 196 246 306 354
#     4   9  19  37  62  89 123 158 195 240 301 367
#
# _framework density 26.428280000000001
#
# number of rings (size 3 to 8) (size 9 to 14) (size 15 to 20)
#    0.000    2.154    4.615    0.923    2.154    0.615 
#    0.000   12.308    0.000   14.769    0.000    0.000 
#    0.000    0.000    0.000    0.000    0.000    0.000 
#
# Total GULP energy -72371.977949 kJ/mol
# GULP energy per Si atom -5567.075227 kJ/mol
# Density = 2.636813 g / cm^3
# Si number density = 26.428280 Si / 1000 Ang^3
#
#
#
# Elastic Constant Matrix: (Units=GPa)
#
#
# Indices 1 2 3 4 5 6 
#
# 1 207.8371 49.2482 53.5240 0.0000 50.9102 0.0000
# 2 49.2482 69.7534 34.9047 0.0000 16.0266 0.0000
# 3 53.5240 34.9047 71.2935 0.0000 31.2704 0.0000
# 4 0.0000 0.0000 0.0000 39.3892 0.0000 11.9290
# 5 50.9102 16.0266 31.2704 0.0000 62.5610 0.0000
# 6 0.0000 0.0000 0.0000 11.9290 0.0000 56.6829
#
#
#
# Elastic Compliance Matrix: (Units=1/GPa)
#
#
# Indices 1 2 3 4 5 6 
#
# 1 0.007017 -0.003017 -0.002082 0.000000 -0.003897 0.000000
# 2 -0.003017 0.020289 -0.008281 0.000000 0.001397 0.000000
# 3 -0.002082 -0.008281 0.023016 0.000000 -0.007689 0.000000
# 4 0.000000 0.000000 0.000000 0.027116 0.000000 -0.005707
# 5 -0.003897 0.001397 -0.007689 0.000000 0.022641 0.000000
# 6 0.000000 0.000000 0.000000 -0.005707 0.000000 0.018843
#
#
# Mechanical properties :
#
#
# Convention : Reuss Voigt Hill
#
# Bulk Modulus (GPa) = 42.43985 69.35976 55.89981
# Shear Modulus (GPa) = 32.56559 45.80708 39.18634
#
# Velocity S-wave (km/s) = 3.51411 4.16776 3.85482
# Velocity P-wave (km/s) = 5.70602 7.03291 6.40392
#
# Compressibility (1/GPa) = 0.02356276
#
# Stress axis : x y z
#
# Youngs Moduli (GPa) = 142.51032 49.28694 43.44785
#
# Poissons Ratio (x) = 0.14871 0.09044
# Poissons Ratio (y) = 0.42999 0.35979
# Poissons Ratio (z) = 0.29666 0.40814
#
# Static dielectric constant tensor:
#      x y z
#    x 2.243620 0.000000 -0.138810 
#    y 0.000000 2.055800 0.000000 
#    z -0.138810 0.000000 2.360100 
# 
# From -- ./inp_files/65150.got.cif
#   From: 2010.05.17/outbox.cif.g08.bks.cpg/sg5_33_cif.got.tgz:65150.got - 2010.06.03 18:56:24.
