data_PCOD9129591
_publ_section_title
;
Structure prediction by ZEFSAII (Michael W. Deem and Ramdas Pophale) SiO2 
 PCOD9129591
Probable space group: C 2
;
_chemical_formula_sum "Si O2"
_cell_formula_units_Z 32
_cell_length_a 17.090975
_cell_length_b 15.346900
_cell_length_c 12.003843
_cell_angle_alpha 90.000000
_cell_angle_beta 25.278327
_cell_angle_gamma 90.000000
_cell_volume 1344.472130
_symmetry_space_group_name_H-M "C 2"
_symmetry_group_IT_number 5
_symmetry_cell_setting 'monoclinic'
loop_
_space_group_symop_operation_xyz
x,y,z
-x,y,-z
1/2+x,1/2+y,z
1/2-x,1/2+y,-z
loop_
_atom_site_type_symbol
_atom_site_label
_atom_site_fract_x
_atom_site_fract_y
_atom_site_fract_z
Si Si1 0.780709 0.984820 0.260868
Si Si2 0.008301 0.532002 0.181558
Si Si3 0.616287 0.294582 0.466235
Si Si4 0.307241 0.187954 0.973251
Si Si5 0.791501 0.789376 0.219205
Si Si6 0.840107 0.981977 0.614938
Si Si7 0.639617 0.661366 0.952663
Si Si8 0.698334 0.643161 0.492672
O O1 0.739807 0.889537 0.262361
O O2 0.647382 0.989769 0.540834
O O3 0.754984 0.072962 0.220617
O O4 0.000000 0.983413 0.000000
O O5 0.153508 0.585736 0.066573
O O6 0.902872 0.608871 0.251750
O O7 0.138997 0.478473 0.931328
O O8 0.500000 0.298820 0.500000
O O9 0.494989 0.238173 0.704355
O O10 0.642530 0.392171 0.474973
O O11 0.796884 0.241124 0.204582
O O12 0.187463 0.192215 0.016504
O O13 0.248831 0.231685 0.164210
O O14 0.691446 0.737591 0.446950
O O15 0.000000 0.789402 0.000000
O O16 0.000000 0.982954 0.500000
O O17 0.866869 0.067675 0.507451
O O18 0.425060 0.640549 0.238237
#
# Coordination Sequence:
#
# PCOD9129591 Si02
#       8
#     4   4   4   4   4   4   4   4
#     4  11  25  45  68 106 140 184 233 286 353 415
#     4  12  23  44  69  94 138 181 226 283 347 408
#     4   9  22  42  67  97 131 174 228 283 348 407
#     4  11  22  44  69  91 136 182 222 285 347 402
#     4  11  24  43  67 100 139 182 231 285 349 415
#     4  11  24  43  68 100 133 179 232 285 343 412
#     4  11  24  43  67 100 138 179 227 284 345 415
#     4  12  24  42  65 100 139 181 226 283 345 416
#
# _framework density 23.801162999999999
#
# number of rings (size 3 to 8) (size 9 to 14) (size 15 to 20)
#    0.000    1.000    5.000    1.125    3.500    0.000 
#    2.250    3.750    0.000    0.000    0.000    0.000 
#    0.000    0.000    0.000    0.000    0.000    0.000 
#
# Total GULP energy -89372.001446 kJ/mol
# GULP energy per Si atom -5585.750090 kJ/mol
# Density = 2.374699 g / cm^3
# Si number density = 23.801163 Si / 1000 Ang^3
#
#
#
# Elastic Constant Matrix: (Units=GPa)
#
#
# Indices 1 2 3 4 5 6 
#
# 1 60.1173 4.7749 1.6960 -0.0006 -11.2182 0.0003
# 2 4.7749 121.6439 21.7651 -0.0005 2.1005 0.0003
# 3 1.6960 21.7651 105.7109 -0.0010 6.5962 0.0008
# 4 -0.0006 -0.0005 -0.0010 20.0600 0.0005 -2.4133
# 5 -11.2182 2.1005 6.5962 0.0005 21.8074 -0.0007
# 6 0.0003 0.0003 0.0008 -2.4133 -0.0007 15.2020
#
#
#
# Elastic Compliance Matrix: (Units=1/GPa)
#
#
# Indices 1 2 3 4 5 6 
#
# 1 0.018553 -0.000763 -0.000755 0.000000 0.009846 0.000000
# 2 -0.000763 0.008568 -0.001708 0.000000 -0.000701 0.000000
# 3 -0.000755 -0.001708 0.010027 0.000000 -0.003257 -0.000001
# 4 0.000000 0.000000 0.000000 0.050821 -0.000001 0.008068
# 5 0.009846 -0.000701 -0.003257 -0.000001 0.051974 0.000002
# 6 0.000000 0.000000 -0.000001 0.008068 0.000002 0.067061
#
#
# Mechanical properties :
#
#
# Convention : Reuss Voigt Hill
#
# Bulk Modulus (GPa) = 32.57753 38.21600 35.39677
# Shear Modulus (GPa) = 22.35242 28.69629 25.52436
#
# Velocity S-wave (km/s) = 3.06785 3.47604 3.27830
# Velocity P-wave (km/s) = 5.12504 5.67465 5.40683
#
# Compressibility (1/GPa) = 0.03069600
#
# Stress axis : x y z
#
# Youngs Moduli (GPa) = 53.89852 116.70768 99.73292
#
# Poissons Ratio (x) = 0.08907 0.07529
# Poissons Ratio (y) = 0.04114 0.17036
# Poissons Ratio (z) = 0.04069 0.19936
#
# Static dielectric constant tensor:
#      x y z
#    x 1.975680 0.000000 -0.062940 
#    y 0.000000 1.898790 0.000000 
#    z -0.062940 0.000000 1.940270 
# 
# From -- ./inp_files/57180.got.cif
#   From: 2010.05.17/outbox.cif.g08.bks.cpg/sg5_29_cif.got.tgz:57180.got - 2010.06.03 18:56:24.
