data_PCOD9129567
_publ_section_title
;
Structure prediction by ZEFSAII (Michael W. Deem and Ramdas Pophale) SiO2 
 PCOD9129567
Probable space group: C 2
;
_chemical_formula_sum "Si O2"
_cell_formula_units_Z 28
_cell_length_a 28.873811
_cell_length_b 5.131321
_cell_length_c 9.042468
_cell_angle_alpha 90.000000
_cell_angle_beta 118.747390
_cell_angle_gamma 90.000000
_cell_volume 1174.614579
_symmetry_space_group_name_H-M "C 2"
_symmetry_group_IT_number 5
_symmetry_cell_setting 'monoclinic'
loop_
_space_group_symop_operation_xyz
x,y,z
-x,y,-z
1/2+x,1/2+y,z
1/2-x,1/2+y,-z
loop_
_atom_site_type_symbol
_atom_site_label
_atom_site_fract_x
_atom_site_fract_y
_atom_site_fract_z
Si Si1 0.382255 0.633970 0.210816
Si Si2 0.311113 0.349639 0.911590
Si Si3 0.983554 0.968596 0.803806
Si Si4 0.376968 0.361208 0.488972
Si Si5 0.477124 0.981237 0.300444
Si Si6 0.715692 0.449515 0.444300
Si Si7 0.803836 0.496041 0.187975
O O1 0.405139 0.480410 0.385432
O O2 0.417903 0.876956 0.227528
O O3 0.325013 0.707739 0.191048
O O4 0.365158 0.492036 0.036953
O O5 0.311186 0.306585 0.737661
O O6 0.255446 0.501660 0.846913
O O7 0.306936 0.130065 0.031590
O O8 0.924651 0.857878 0.679509
O O9 0.019452 0.755490 0.775656
O O10 0.992261 0.252729 0.742793
O O11 0.000000 0.981362 0.000000
O O12 0.328551 0.498843 0.499842
O O13 0.345803 0.116379 0.368634
O O14 0.500000 0.003217 0.500000
O O15 0.741246 0.729790 0.445521
#
# Coordination Sequence:
#
# PCOD9129567 Si02
#       7
#     4   4   4   4   4   4   4
#     4  11  25  43  74 103 138 191 247 303 361 429
#     4  11  24  40  67 104 139 188 235 295 348 435
#     4  12  29  51  76 112 152 195 245 323 383 443
#     4  11  26  47  72 102 147 196 237 300 376 434
#     4  12  26  50  78 108 145 193 263 308 369 448
#     4  12  28  45  68 105 148 192 238 290 364 445
#     4  11  22  43  69 102 144 184 243 294 354 426
#
# _framework density 23.837606000000001
#
# number of rings (size 3 to 8) (size 9 to 14) (size 15 to 20)
#    0.000    0.571    4.286    2.571   10.000    0.000 
#    0.000    0.000    0.000    0.000    0.000    0.000 
#    0.000    0.000    0.000    0.000    0.000    0.000 
#
# Total GULP energy -78181.205322 kJ/mol
# GULP energy per Si atom -5584.371809 kJ/mol
# Density = 2.378335 g / cm^3
# Si number density = 23.837606 Si / 1000 Ang^3
#
#
#
# Elastic Constant Matrix: (Units=GPa)
#
#
# Indices 1 2 3 4 5 6 
#
# 1 86.3379 1.0887 16.4536 0.0000 10.1938 0.0000
# 2 1.0887 55.0704 18.0497 0.0000 -3.4200 0.0000
# 3 16.4536 18.0497 162.1746 0.0000 -10.2501 0.0000
# 4 0.0000 0.0000 0.0000 14.1620 0.0000 6.6235
# 5 10.1938 -3.4200 -10.2501 0.0000 41.5140 0.0000
# 6 0.0000 0.0000 0.0000 6.6235 0.0000 30.8912
#
#
#
# Elastic Compliance Matrix: (Units=1/GPa)
#
#
# Indices 1 2 3 4 5 6 
#
# 1 0.012258 0.000027 -0.001460 0.000000 -0.003368 0.000000
# 2 0.000027 0.018891 -0.002039 0.000000 0.001046 0.000000
# 3 -0.001460 -0.002039 0.006657 0.000000 0.001834 0.000000
# 4 0.000000 0.000000 0.000000 0.078482 0.000000 -0.016828
# 5 -0.003368 0.001046 0.001834 0.000000 0.025454 0.000000
# 6 0.000000 0.000000 0.000000 -0.016828 0.000000 0.035980
#
#
# Mechanical properties :
#
#
# Convention : Reuss Voigt Hill
#
# Bulk Modulus (GPa) = 32.40151 41.64079 37.02115
# Shear Modulus (GPa) = 25.64714 35.17949 30.41332
#
# Velocity S-wave (km/s) = 3.28367 3.84578 3.57579
# Velocity P-wave (km/s) = 5.29138 6.10135 5.71074
#
# Compressibility (1/GPa) = 0.03086276
#
# Stress axis : x y z
#
# Youngs Moduli (GPa) = 81.58029 52.93421 150.21455
#
# Poissons Ratio (x) = -0.00142 0.21924
# Poissons Ratio (y) = -0.00219 0.30631
# Poissons Ratio (z) = 0.11907 0.10794
#
# Static dielectric constant tensor:
#      x y z
#    x 1.936280 0.000000 0.019470 
#    y 0.000000 1.962780 0.000000 
#    z 0.019470 0.000000 1.963330 
# 
# From -- ./inp_files/32326.got.cif
#   From: 2010.05.17/outbox.cif.g08.bks.cpg/sg5_17_cif.got.tgz:32326.got - 2010.06.03 18:56:24.
