data_PCOD9129644
_publ_section_title
;
Structure prediction by ZEFSAII (Michael W. Deem and Ramdas Pophale) SiO2 
 PCOD9129644
Probable space group: C 2
;
_chemical_formula_sum "Si O2"
_cell_formula_units_Z 28
_cell_length_a 7.072852
_cell_length_b 15.358445
_cell_length_c 11.671391
_cell_angle_alpha 90.000000
_cell_angle_beta 55.360432
_cell_angle_gamma 90.000000
_cell_volume 1043.107750
_symmetry_space_group_name_H-M "C 2"
_symmetry_group_IT_number 5
_symmetry_cell_setting 'monoclinic'
loop_
_space_group_symop_operation_xyz
x,y,z
-x,y,-z
1/2+x,1/2+y,z
1/2-x,1/2+y,-z
loop_
_atom_site_type_symbol
_atom_site_label
_atom_site_fract_x
_atom_site_fract_y
_atom_site_fract_z
Si Si1 0.430069 0.884770 0.689531
Si Si2 0.265837 0.304819 0.836464
Si Si3 0.216732 0.595511 0.502652
Si Si4 0.536659 0.707562 0.242385
Si Si5 0.243422 0.459542 0.033742
Si Si6 0.118201 0.921464 0.606088
Si Si7 0.975459 0.634265 0.173852
O O1 0.358649 0.785901 0.720210
O O2 0.436937 0.919424 0.813892
O O3 0.226897 0.932524 0.694291
O O4 0.669778 0.889986 0.543706
O O5 0.425132 0.348844 0.682803
O O6 0.392442 0.226717 0.861274
O O7 0.934914 0.249759 0.161063
O O8 0.237134 0.390239 0.930090
O O9 0.329164 0.673146 0.392221
O O10 0.408633 0.519588 0.426588
O O11 0.000000 0.567349 0.500000
O O12 0.122090 0.613967 0.662674
O O13 0.750308 0.642057 0.170516
O O14 0.145478 0.558016 0.071480
O O15 0.500000 0.458101 0.000000
#
# Coordination Sequence:
#
# PCOD9129644 Si02
#       7
#     4   4   4   4   4   4   4
#     4  11  23  46  81 122 173 224 291 377 460 545
#     4  12  28  52  89 127 183 246 309 383 460 562
#     4  12  23  45  85 133 178 226 301 386 466 548
#     4  12  28  48  83 130 175 240 303 368 464 558
#     4  12  26  54  92 130 182 249 319 386 466 557
#     4  11  22  46  85 127 173 226 293 379 463 542
#     4  12  26  55  87 131 186 243 308 390 463 566
#
# _framework density 26.842863999999999
#
# number of rings (size 3 to 8) (size 9 to 14) (size 15 to 20)
#    0.000    0.286    7.143    1.286    2.000    1.714 
#    7.714    2.857    3.143    0.000    3.714    0.000 
#    0.000    0.000    0.000    0.000    0.000    0.000 
#
# Total GULP energy -78244.233451 kJ/mol
# GULP energy per Si atom -5588.873818 kJ/mol
# Density = 2.678177 g / cm^3
# Si number density = 26.842864 Si / 1000 Ang^3
#
#
#
# Elastic Constant Matrix: (Units=GPa)
#
#
# Indices 1 2 3 4 5 6 
#
# 1 184.0363 61.4017 73.2637 0.0000 0.7476 0.0000
# 2 61.4017 168.4460 72.2379 0.0000 -4.1584 0.0000
# 3 73.2637 72.2379 167.4785 0.0000 7.4446 0.0000
# 4 0.0000 0.0000 0.0000 58.1827 0.0000 -18.5749
# 5 0.7476 -4.1584 7.4446 0.0000 37.5405 0.0000
# 6 0.0000 0.0000 0.0000 -18.5749 0.0000 16.2710
#
#
#
# Elastic Compliance Matrix: (Units=1/GPa)
#
#
# Indices 1 2 3 4 5 6 
#
# 1 0.006873 -0.001483 -0.002375 0.000000 0.000170 0.000000
# 2 -0.001483 0.007682 -0.002728 0.000000 0.001421 0.000000
# 3 -0.002375 -0.002728 0.008271 0.000000 -0.001895 0.000000
# 4 0.000000 0.000000 0.000000 0.027043 0.000000 0.030873
# 5 0.000170 0.001421 -0.001895 0.000000 0.027168 0.000000
# 6 0.000000 0.000000 0.000000 0.030873 0.000000 0.096703
#
#
# Mechanical properties :
#
#
# Convention : Reuss Voigt Hill
#
# Bulk Modulus (GPa) = 103.57443 103.75192 103.66317
# Shear Modulus (GPa) = 26.29792 43.26935 34.78363
#
# Velocity S-wave (km/s) = 3.13341 4.01926 3.60366
# Velocity P-wave (km/s) = 7.19446 7.76369 7.48449
#
# Compressibility (1/GPa) = 0.00965489
#
# Stress axis : x y z
#
# Youngs Moduli (GPa) = 145.49559 130.17202 120.91023
#
# Poissons Ratio (x) = 0.19302 0.28711
# Poissons Ratio (y) = 0.21574 0.32985
# Poissons Ratio (z) = 0.34549 0.35511
#
# Static dielectric constant tensor:
#      x y z
#    x 2.231150 0.000000 -0.083440 
#    y 0.000000 2.153760 0.000000 
#    z -0.083440 0.000000 2.182720 
# 
# From -- ./inp_files/53046.got.cif
#   From: 2010.05.17/outbox.cif.g08.bks.cpg/sg5_27_cif.got.tgz:53046.got - 2010.06.03 18:56:24.
