data_PCOD9129566
_publ_section_title
;
Structure prediction by ZEFSAII (Michael W. Deem and Ramdas Pophale) SiO2 
 PCOD9129566
Probable space group: C 2
;
_chemical_formula_sum "Si O2"
_cell_formula_units_Z 26
_cell_length_a 11.823819
_cell_length_b 7.635698
_cell_length_c 19.983322
_cell_angle_alpha 90.000000
_cell_angle_beta 138.709809
_cell_angle_gamma 90.000000
_cell_volume 1190.514225
_symmetry_space_group_name_H-M "C 2"
_symmetry_group_IT_number 5
_symmetry_cell_setting 'monoclinic'
loop_
_space_group_symop_operation_xyz
x,y,z
-x,y,-z
1/2+x,1/2+y,z
1/2-x,1/2+y,-z
loop_
_atom_site_type_symbol
_atom_site_label
_atom_site_fract_x
_atom_site_fract_y
_atom_site_fract_z
Si Si1 0.526790 0.233760 0.160577
Si Si2 0.242696 0.581754 0.139599
Si Si3 0.837804 0.816345 0.473992
Si Si4 0.000000 0.268820 0.000000
Si Si5 0.830916 0.170584 0.390468
Si Si6 0.710044 0.559896 0.984988
Si Si7 0.550670 0.529797 0.363292
O O1 0.648122 0.209326 0.149484
O O2 0.656584 0.251248 0.281761
O O3 0.393594 0.390980 0.087939
O O4 0.397648 0.064379 0.104381
O O5 0.137354 0.401706 0.091646
O O6 0.249077 0.655033 0.067657
O O7 0.429351 0.528728 0.246397
O O8 0.698262 0.666595 0.412312
O O9 0.000000 0.764514 0.500000
O O10 0.784457 0.004296 0.417396
O O11 0.876942 0.855544 0.569726
O O12 0.915887 0.155101 0.020292
O O13 0.000000 0.264598 0.500000
O O14 0.923936 0.094582 0.365937
#
# Coordination Sequence:
#
# PCOD9129566 Si02
#       7
#     4   4   4   2   4   4   4
#     4  11  22  43  68  97 132 173 214 275 330 391
#     4  11  23  44  64  91 134 168 213 268 326 389
#     4   9  19  40  63  92 129 165 209 261 313 380
#     4  12  26  44  62  94 128 174 220 266 324 398
#     4   8  19  40  64  91 129 168 212 257 322 374
#     4  12  25  41  67  96 130 169 219 271 335 387
#     4   9  20  38  67  92 125 170 208 261 321 372
#
# _framework density 21.839303000000001
#
# number of rings (size 3 to 8) (size 9 to 14) (size 15 to 20)
#    0.000    2.154    3.077    0.000    2.154    7.385 
#    2.769    6.154    0.000    0.000    0.000    0.000 
#    0.000    0.000    0.000    0.000    0.000    0.000 
#
# Total GULP energy -72407.261338 kJ/mol
# GULP energy per Si atom -5569.789334 kJ/mol
# Density = 2.178960 g / cm^3
# Si number density = 21.839303 Si / 1000 Ang^3
#
#
#
# Elastic Constant Matrix: (Units=GPa)
#
#
# Indices 1 2 3 4 5 6 
#
# 1 91.9602 16.1591 24.7587 0.0000 0.9595 0.0000
# 2 16.1591 33.8069 37.9028 0.0000 18.6891 0.0000
# 3 24.7587 37.9028 196.2960 0.0000 20.2485 0.0000
# 4 0.0000 0.0000 0.0000 56.1890 0.0000 16.0087
# 5 0.9595 18.6891 20.2485 0.0000 38.4460 0.0000
# 6 0.0000 0.0000 0.0000 16.0087 0.0000 35.9216
#
#
#
# Elastic Compliance Matrix: (Units=1/GPa)
#
#
# Indices 1 2 3 4 5 6 
#
# 1 0.012239 -0.007187 -0.000513 0.000000 0.003458 0.000000
# 2 -0.007187 0.053047 -0.007080 0.000000 -0.021879 0.000000
# 3 -0.000513 -0.007080 0.006524 0.000000 0.000018 0.000000
# 4 0.000000 0.000000 0.000000 0.020385 0.000000 -0.009085
# 5 0.003458 -0.021879 0.000018 0.000000 0.036550 0.000000
# 6 0.000000 0.000000 0.000000 -0.009085 0.000000 0.031887
#
#
# Mechanical properties :
#
#
# Convention : Reuss Voigt Hill
#
# Bulk Modulus (GPa) = 23.66747 53.30048 38.48397
# Shear Modulus (GPa) = 24.47665 42.32748 33.40207
#
# Velocity S-wave (km/s) = 3.35141 4.40720 3.91506
# Velocity P-wave (km/s) = 5.08297 7.09624 6.17224
#
# Compressibility (1/GPa) = 0.04225209
#
# Stress axis : x y z
#
# Youngs Moduli (GPa) = 81.70519 18.85106 153.27724
#
# Poissons Ratio (x) = 0.13548 0.07859
# Poissons Ratio (y) = 0.58722 1.08513
# Poissons Ratio (z) = 0.04189 0.13346
#
# Static dielectric constant tensor:
#      x y z
#    x 1.801970 0.000000 -0.025870 
#    y 0.000000 1.853190 0.000000 
#    z -0.025870 0.000000 1.902390 
# 
# From -- ./inp_files/65151.got.cif
#   From: 2010.05.17/outbox.cif.g08.bks.cpg/sg5_33_cif.got.tgz:65151.got - 2010.06.03 18:56:24.
