data_PCOD9129022
_publ_section_title
;
Structure prediction by ZEFSAII (Michael W. Deem and Ramdas Pophale) SiO2 
 PCOD9129022
Probable space group: C 2
;
_chemical_formula_sum "Si O2"
_cell_formula_units_Z 20
_cell_length_a 17.705978
_cell_length_b 4.959314
_cell_length_c 18.562468
_cell_angle_alpha 90.000000
_cell_angle_beta 151.426393
_cell_angle_gamma 90.000000
_cell_volume 779.589815
_symmetry_space_group_name_H-M "C 2"
_symmetry_group_IT_number 5
_symmetry_cell_setting 'monoclinic'
loop_
_space_group_symop_operation_xyz
x,y,z
-x,y,-z
1/2+x,1/2+y,z
1/2-x,1/2+y,-z
loop_
_atom_site_type_symbol
_atom_site_label
_atom_site_fract_x
_atom_site_fract_y
_atom_site_fract_z
Si Si1 0.093799 0.667690 0.490658
Si Si2 0.895300 0.301241 0.787593
Si Si3 0.336380 0.429439 0.991769
Si Si4 0.004250 0.609966 0.748642
Si Si5 0.500000 0.696999 0.500000
Si Si6 0.500000 0.106917 0.000000
O O1 0.265845 0.571359 0.665039
O O2 0.080940 0.700555 0.394792
O O3 0.972604 0.434813 0.415898
O O4 0.078526 0.962978 0.514649
O O5 0.890281 0.467221 0.709786
O O6 0.873795 0.441684 0.846499
O O7 0.079177 0.216983 0.946638
O O8 0.409175 0.326367 0.127969
O O9 0.405824 0.274779 0.981006
O O10 0.150591 0.428944 0.843850
#
# Coordination Sequence:
#
# PCOD9129022 Si02
#       6
#     4   4   4   4   2   2
#     4  11  28  48  79 108 158 197 257 314 379 454
#     4  11  26  46  74 113 144 207 248 318 374 455
#     4  11  24  48  71 113 144 203 251 314 382 449
#     4  11  26  45  77 106 154 196 257 311 383 451
#     4  10  28  50  68 116 146 200 246 314 390 434
#     4  10  26  44  78 106 154 186 262 308 378 456
#
# _framework density 25.654516000000001
#
# number of rings (size 3 to 8) (size 9 to 14) (size 15 to 20)
#    0.000    1.200    2.000    0.600   14.000    4.800 
#    0.000    0.000    0.000    0.000    0.000    0.000 
#    0.000    0.000    0.000    0.000    0.000    0.000 
#
# Total GULP energy -55713.544186 kJ/mol
# GULP energy per Si atom -5571.354419 kJ/mol
# Density = 2.559613 g / cm^3
# Si number density = 25.654516 Si / 1000 Ang^3
#
#
#
# Elastic Constant Matrix: (Units=GPa)
#
#
# Indices 1 2 3 4 5 6 
#
# 1 163.1710 45.8065 82.6517 0.0003 -45.8562 0.0007
# 2 45.8065 92.0387 30.4294 0.0012 -15.4677 0.0025
# 3 82.6517 30.4294 125.3743 0.0000 -35.0970 0.0003
# 4 0.0003 0.0012 0.0000 25.6476 -0.0001 -6.2379
# 5 -45.8562 -15.4677 -35.0970 -0.0001 54.4827 0.0001
# 6 0.0007 0.0025 0.0003 -6.2379 0.0001 28.4687
#
#
#
# Elastic Compliance Matrix: (Units=1/GPa)
#
#
# Indices 1 2 3 4 5 6 
#
# 1 0.010962 -0.002913 -0.005085 0.000000 0.005123 0.000000
# 2 -0.002913 0.012740 -0.001031 -0.000001 0.000500 -0.000001
# 3 -0.005085 -0.001031 0.012565 0.000000 0.003521 0.000000
# 4 0.000000 -0.000001 0.000000 0.041185 0.000000 0.009024
# 5 0.005123 0.000500 0.003521 0.000000 0.025077 0.000000
# 6 0.000000 -0.000001 0.000000 0.009024 0.000000 0.037104
#
#
# Mechanical properties :
#
#
# Convention : Reuss Voigt Hill
#
# Bulk Modulus (GPa) = 54.92558 77.59546 66.26052
# Shear Modulus (GPa) = 30.53228 36.49957 33.51593
#
# Velocity S-wave (km/s) = 3.45357 3.77601 3.61838
# Velocity P-wave (km/s) = 6.11221 7.02303 6.58339
#
# Compressibility (1/GPa) = 0.01820645
#
# Stress axis : x y z
#
# Youngs Moduli (GPa) = 91.22301 78.49263 79.58900
#
# Poissons Ratio (x) = 0.22868 0.40474
# Poissons Ratio (y) = 0.26577 0.08209
# Poissons Ratio (z) = 0.46390 0.08096
#
# Static dielectric constant tensor:
#      x y z
#    x 2.037390 0.000000 0.098100 
#    y 0.000000 2.144100 0.000000 
#    z 0.098100 0.000000 2.060210 
# 
# From -- ./inp_files/26028.got.cif
#   From: 2010.05.17/outbox.cif.g08.bks.cpg/sg5_14_cif.got.tgz:26028.got - 2010.06.03 18:56:24.
