data_PCOD9129720
_publ_section_title
;
Structure prediction by ZEFSAII (Michael W. Deem and Ramdas Pophale) SiO2 
 PCOD9129720
Probable space group: C 2
;
_chemical_formula_sum "Si O2"
_cell_formula_units_Z 22
_cell_length_a 25.614288
_cell_length_b 5.177287
_cell_length_c 7.329285
_cell_angle_alpha 90.000000
_cell_angle_beta 68.505197
_cell_angle_gamma 90.000000
_cell_volume 904.356273
_symmetry_space_group_name_H-M "C 2"
_symmetry_group_IT_number 5
_symmetry_cell_setting 'monoclinic'
loop_
_space_group_symop_operation_xyz
x,y,z
-x,y,-z
1/2+x,1/2+y,z
1/2-x,1/2+y,-z
loop_
_atom_site_type_symbol
_atom_site_label
_atom_site_fract_x
_atom_site_fract_y
_atom_site_fract_z
Si Si1 0.709399 0.740740 0.291013
Si Si2 0.116739 0.860263 0.265520
Si Si3 0.319271 0.007582 0.031269
Si Si4 0.500000 0.400588 0.500000
Si Si5 0.367707 0.689513 0.264659
Si Si6 0.424339 0.166572 0.330254
O O1 0.669967 0.523824 0.251672
O O2 0.772892 0.641502 0.216909
O O3 0.681423 0.761950 0.526027
O O4 0.707842 0.957924 0.133928
O O5 0.059451 0.026337 0.368778
O O6 0.107779 0.644596 0.434505
O O7 0.129174 0.700475 0.070223
O O8 0.341776 0.751648 0.101236
O O9 0.484956 0.240511 0.335006
O O10 0.394603 0.412658 0.273832
O O11 0.416202 0.903438 0.235344
#
# Coordination Sequence:
#
# PCOD9129720 Si02
#       6
#     4   4   4   2   4   4
#     4  11  23  42  63  99 140 183 232 279 354 418
#     4   9  20  41  68  96 130 179 232 274 342 408
#     4  12  24  39  71  97 139 185 228 289 345 427
#     4   8  18  42  80  86 136 192 222 284 352 406
#     4  11  25  42  67 101 140 171 232 287 348 400
#     4   9  21  43  68  98 131 179 223 281 341 408
#
# _framework density 24.326695999999998
#
# number of rings (size 3 to 8) (size 9 to 14) (size 15 to 20)
#    1.091    0.727    3.636    0.000    2.545    5.091 
#    3.273    0.909    0.000    0.000    0.000    0.000 
#    0.000    0.000    0.000    0.000    0.000    0.000 
#
# Total GULP energy -61286.287760 kJ/mol
# GULP energy per Si atom -5571.480705 kJ/mol
# Density = 2.427133 g / cm^3
# Si number density = 24.326696 Si / 1000 Ang^3
#
#
#
# Elastic Constant Matrix: (Units=GPa)
#
#
# Indices 1 2 3 4 5 6 
#
# 1 83.4603 22.7817 35.5639 0.0000 -3.4378 0.0000
# 2 22.7817 67.9873 28.4979 0.0000 -1.7377 0.0000
# 3 35.5639 28.4979 56.6343 0.0000 17.4927 0.0000
# 4 0.0000 0.0000 0.0000 31.1062 0.0000 10.6959
# 5 -3.4378 -1.7377 17.4927 0.0000 40.8008 0.0000
# 6 0.0000 0.0000 0.0000 10.6959 0.0000 16.6638
#
#
#
# Elastic Compliance Matrix: (Units=1/GPa)
#
#
# Indices 1 2 3 4 5 6 
#
# 1 0.018101 -0.000212 -0.013519 0.000000 0.007312 0.000000
# 2 -0.000212 0.019801 -0.011625 0.000000 0.005809 0.000000
# 3 -0.013519 -0.011625 0.037461 0.000000 -0.017695 0.000000
# 4 0.000000 0.000000 0.000000 0.041253 0.000000 -0.026479
# 5 0.007312 0.005809 -0.017695 0.000000 0.032959 0.000000
# 6 0.000000 0.000000 0.000000 -0.026479 0.000000 0.077006
#
#
# Mechanical properties :
#
#
# Convention : Reuss Voigt Hill
#
# Bulk Modulus (GPa) = 40.56394 42.41877 41.49135
# Shear Modulus (GPa) = 17.51254 25.79672 21.65463
#
# Velocity S-wave (km/s) = 2.68599 3.25995 2.98679
# Velocity P-wave (km/s) = 5.13130 5.62536 5.38400
#
# Compressibility (1/GPa) = 0.02465244
#
# Stress axis : x y z
#
# Youngs Moduli (GPa) = 55.24459 50.50272 26.69432
#
# Poissons Ratio (x) = 0.01071 0.36087
# Poissons Ratio (y) = 0.01172 0.31032
# Poissons Ratio (z) = 0.74683 0.58708
#
# Static dielectric constant tensor:
#      x y z
#    x 2.009100 0.000000 -0.000150 
#    y 0.000000 1.980440 0.000000 
#    z -0.000150 0.000000 1.972050 
# 
# From -- ./inp_files/31199.got.cif
#   From: 2010.05.17/outbox.cif.g08.bks.cpg/sg5_16_cif.got.tgz:31199.got - 2010.06.03 18:56:24.
