data_PCOD9129560
_publ_section_title
;
Structure prediction by ZEFSAII (Michael W. Deem and Ramdas Pophale) SiO2 
 PCOD9129560
Probable space group: C 2
;
_chemical_formula_sum "Si O2"
_cell_formula_units_Z 30
_cell_length_a 12.225775
_cell_length_b 12.871696
_cell_length_c 15.685277
_cell_angle_alpha 90.000000
_cell_angle_beta 148.993251
_cell_angle_gamma 90.000000
_cell_volume 1271.536494
_symmetry_space_group_name_H-M "C 2"
_symmetry_group_IT_number 5
_symmetry_cell_setting 'monoclinic'
loop_
_space_group_symop_operation_xyz
x,y,z
-x,y,-z
1/2+x,1/2+y,z
1/2-x,1/2+y,-z
loop_
_atom_site_type_symbol
_atom_site_label
_atom_site_fract_x
_atom_site_fract_y
_atom_site_fract_z
Si Si1 0.151874 0.273510 0.176991
Si Si2 0.880413 0.617888 0.220543
Si Si3 0.500000 0.636296 0.500000
Si Si4 0.221632 0.782994 0.404514
Si Si5 0.322180 0.016883 0.454595
Si Si6 0.501336 0.709417 0.252926
Si Si7 0.696084 0.481027 0.744151
Si Si8 0.156321 0.563128 0.993332
O O1 0.226472 0.161175 0.191998
O O2 0.328437 0.363305 0.302961
O O3 0.029606 0.271663 0.184189
O O4 0.000000 0.311781 0.000000
O O5 0.796527 0.571196 0.075784
O O6 0.005683 0.724695 0.283247
O O7 0.045518 0.537440 0.370645
O O8 0.306560 0.714572 0.382511
O O9 0.516157 0.558472 0.590496
O O10 0.393213 0.764983 0.595592
O O11 0.219663 0.903685 0.384088
O O12 0.500000 0.024388 0.500000
O O13 0.151881 0.109000 0.336317
O O14 0.258150 0.670840 0.098148
O O15 0.911540 0.531760 0.847005
O O16 0.721581 0.484320 0.862584
#
# Coordination Sequence:
#
# PCOD9129560 Si02
#       8
#     4   4   2   4   4   4   4   4
#     4  12  24  41  66  98 130 170 219 267 324 381
#     4  11  25  42  66  94 130 173 214 270 323 388
#     4  12  22  44  66 102 126 168 214 276 322 384
#     4  11  25  39  69  94 128 171 218 267 330 382
#     4  11  24  44  63  94 133 167 222 271 317 383
#     4  11  25  42  66  94 130 173 214 270 323 388
#     4  11  26  41  69  97 132 164 216 279 312 391
#     4  11  22  43  64  96 132 163 210 269 330 372
#
# _framework density 23.593502000000001
#
# number of rings (size 3 to 8) (size 9 to 14) (size 15 to 20)
#    0.000    0.800    7.333    0.000    3.733    2.133 
#    0.000    0.000    0.000    0.000    0.000    0.000 
#    0.000    0.000    0.000    0.000    0.000    0.000 
#
# Total GULP energy -83745.517381 kJ/mol
# GULP energy per Si atom -5583.034492 kJ/mol
# Density = 2.353980 g / cm^3
# Si number density = 23.593502 Si / 1000 Ang^3
#
#
#
# Elastic Constant Matrix: (Units=GPa)
#
#
# Indices 1 2 3 4 5 6 
#
# 1 82.8513 15.4205 10.8173 0.0015 -6.0276 0.0002
# 2 15.4205 102.9179 9.5652 0.0026 -5.8759 0.0013
# 3 10.8173 9.5652 56.7989 0.0041 -24.0086 0.0024
# 4 0.0015 0.0026 0.0041 16.9421 0.0021 5.5994
# 5 -6.0276 -5.8759 -24.0086 0.0021 41.1605 0.0007
# 6 0.0002 0.0013 0.0024 5.5994 0.0007 35.6056
#
#
#
# Elastic Compliance Matrix: (Units=1/GPa)
#
#
# Indices 1 2 3 4 5 6 
#
# 1 0.012671 -0.001692 -0.001919 -0.000001 0.000495 0.000000
# 2 -0.001692 0.010107 -0.001161 -0.000001 0.000518 0.000000
# 3 -0.001919 -0.001161 0.023861 -0.000007 0.013471 -0.000001
# 4 -0.000001 -0.000001 -0.000007 0.062261 -0.000007 -0.009791
# 5 0.000495 0.000518 0.013471 -0.000007 0.032299 0.000000
# 6 0.000000 0.000000 -0.000001 -0.009791 0.000000 0.029625
#
#
# Mechanical properties :
#
#
# Convention : Reuss Voigt Hill
#
# Bulk Modulus (GPa) = 26.95738 34.90825 30.93281
# Shear Modulus (GPa) = 25.94242 32.52598 29.23420
#
# Velocity S-wave (km/s) = 3.31956 3.71698 3.52387
# Velocity P-wave (km/s) = 5.11304 5.76620 5.44941
#
# Compressibility (1/GPa) = 0.03709559
#
# Stress axis : x y z
#
# Youngs Moduli (GPa) = 78.91855 98.93677 41.90902
#
# Poissons Ratio (x) = 0.16740 0.08043
# Poissons Ratio (y) = 0.13353 0.04866
# Poissons Ratio (z) = 0.15146 0.11486
#
# Static dielectric constant tensor:
#      x y z
#    x 2.004610 0.000000 0.047500 
#    y 0.000000 1.872460 0.000000 
#    z 0.047500 0.000000 1.953830 
# 
# From -- ./inp_files/61655.got.cif
#   From: 2010.05.17/outbox.cif.g08.bks.cpg/sg5_31_cif.got.tgz:61655.got - 2010.06.03 18:56:24.
