data_PCOD9129456
_publ_section_title
;
Structure prediction by ZEFSAII (Michael W. Deem and Ramdas Pophale) SiO2 
 PCOD9129456
Probable space group: C 2
;
_chemical_formula_sum "Si O2"
_cell_formula_units_Z 22
_cell_length_a 14.355868
_cell_length_b 5.163719
_cell_length_c 23.094539
_cell_angle_alpha 90.000000
_cell_angle_beta 29.953808
_cell_angle_gamma 90.000000
_cell_volume 854.799683
_symmetry_space_group_name_H-M "C 2"
_symmetry_group_IT_number 5
_symmetry_cell_setting 'monoclinic'
loop_
_space_group_symop_operation_xyz
x,y,z
-x,y,-z
1/2+x,1/2+y,z
1/2-x,1/2+y,-z
loop_
_atom_site_type_symbol
_atom_site_label
_atom_site_fract_x
_atom_site_fract_y
_atom_site_fract_z
Si Si1 0.500000 0.263150 0.000000
Si Si2 0.019223 0.529346 0.255761
Si Si3 0.365279 0.138389 0.453470
Si Si4 0.780035 0.378181 0.048362
Si Si5 0.941188 0.057197 0.149444
Si Si6 0.215573 0.028999 0.649854
O O1 0.429619 0.414037 0.094773
O O2 0.329658 0.083376 0.070448
O O3 0.027152 0.576004 0.320436
O O4 0.938589 0.248210 0.284570
O O5 0.200970 0.624095 0.123513
O O6 0.863053 0.741581 0.319944
O O7 0.295498 0.432122 0.480593
O O8 0.375480 0.084852 0.516527
O O9 0.621761 0.446848 0.087592
O O10 0.978269 0.338635 0.909965
O O11 0.778591 0.054595 0.284078
#
# Coordination Sequence:
#
# PCOD9129456 Si02
#       6
#     2   4   4   4   4   4
#     4  12  26  40  60  92 126 172 210 256 318 368
#     4   9  18  31  57  86 124 159 200 254 305 364
#     4   8  14  28  48  86 121 149 200 248 298 365
#     4  11  22  39  61  87 128 165 210 260 309 372
#     4  11  22  39  61  87 128 165 210 260 309 372
#     4   9  18  31  57  86 124 159 200 254 305 364
#
# _framework density 25.737020999999999
#
# number of rings (size 3 to 8) (size 9 to 14) (size 15 to 20)
#    0.000    2.182    1.818    1.636    5.091    0.000 
#    0.000    0.000    0.000    0.000    0.000    7.636 
#    0.000    0.000    0.000    0.000    0.000    0.000 
#
# Total GULP energy -61462.148824 kJ/mol
# GULP energy per Si atom -5587.468075 kJ/mol
# Density = 2.567844 g / cm^3
# Si number density = 25.737021 Si / 1000 Ang^3
#
#
#
# Elastic Constant Matrix: (Units=GPa)
#
#
# Indices 1 2 3 4 5 6 
#
# 1 145.9979 32.7273 53.3313 0.0002 49.9035 0.0026
# 2 32.7273 97.2764 10.1055 0.0007 -3.0294 0.0098
# 3 53.3313 10.1055 205.6414 0.0001 37.2756 0.0006
# 4 0.0002 0.0007 0.0001 31.8891 0.0001 15.2628
# 5 49.9035 -3.0294 37.2756 0.0001 53.8551 0.0003
# 6 0.0026 0.0098 0.0006 15.2628 0.0003 24.0449
#
#
#
# Elastic Compliance Matrix: (Units=1/GPa)
#
#
# Indices 1 2 3 4 5 6 
#
# 1 0.011682 -0.004157 -0.000939 0.000000 -0.010409 0.000001
# 2 -0.004157 0.011866 -0.000371 0.000003 0.004776 -0.000006
# 3 -0.000939 -0.000371 0.005684 0.000000 -0.003085 0.000000
# 4 0.000000 0.000003 0.000000 0.045043 0.000001 -0.028592
# 5 -0.010409 0.004776 -0.003085 0.000001 0.030618 -0.000002
# 6 0.000001 -0.000006 0.000000 -0.028592 -0.000002 0.059738
#
#
# Mechanical properties :
#
#
# Convention : Reuss Voigt Hill
#
# Bulk Modulus (GPa) = 54.64779 71.24934 62.94857
# Shear Modulus (GPa) = 27.52357 45.47459 36.49908
#
# Velocity S-wave (km/s) = 3.27374 4.20800 3.76993
# Velocity P-wave (km/s) = 5.96398 7.16613 6.59251
#
# Compressibility (1/GPa) = 0.01829900
#
# Stress axis : x y z
#
# Youngs Moduli (GPa) = 85.60180 84.27599 175.94236
#
# Poissons Ratio (x) = 0.35033 0.16513
# Poissons Ratio (y) = 0.35584 0.06523
# Poissons Ratio (z) = 0.08034 0.03125
#
# Static dielectric constant tensor:
#      x y z
#    x 2.035560 0.000000 0.031080 
#    y 0.000000 2.023770 0.000000 
#    z 0.031080 0.000000 2.060900 
# 
# From -- ./inp_files/51924.got.cif
#   From: 2010.05.17/outbox.cif.g08.bks.cpg/sg5_26_cif.got.tgz:51924.got - 2010.06.03 18:56:24.
