data_PCOD9129917
_publ_section_title
;
Structure prediction by ZEFSAII (Michael W. Deem and Ramdas Pophale) SiO2 
 PCOD9129917
Probable space group: C 2
;
_chemical_formula_sum "Si O2"
_cell_formula_units_Z 20
_cell_length_a 5.484290
_cell_length_b 12.811659
_cell_length_c 12.416983
_cell_angle_alpha 90.000000
_cell_angle_beta 96.396267
_cell_angle_gamma 90.000000
_cell_volume 867.021794
_symmetry_space_group_name_H-M "C 2"
_symmetry_group_IT_number 5
_symmetry_cell_setting 'monoclinic'
loop_
_space_group_symop_operation_xyz
x,y,z
-x,y,-z
1/2+x,1/2+y,z
1/2-x,1/2+y,-z
loop_
_atom_site_type_symbol
_atom_site_label
_atom_site_fract_x
_atom_site_fract_y
_atom_site_fract_z
Si Si1 0.291673 0.954490 0.266274
Si Si2 0.598529 0.818650 0.116160
Si Si3 0.762891 0.793020 0.565512
Si Si4 0.358228 0.535284 0.102758
Si Si5 0.967959 0.667877 0.774368
O O1 0.401546 0.863388 0.193302
O O2 0.260605 0.907502 0.382453
O O3 0.463063 0.054493 0.268555
O O4 0.043291 0.002067 0.206384
O O5 0.715329 0.927440 0.081534
O O6 0.801144 0.741359 0.179924
O O7 0.500000 0.772301 0.000000
O O8 0.500000 0.766704 0.500000
O O9 0.822608 0.721976 0.671263
O O10 0.000000 0.787346 0.500000
O O11 0.194505 0.633117 0.131159
O O12 0.500000 0.553565 0.000000
#
# Coordination Sequence:
#
# PCOD9129917 Si02
#       5
#     4   4   4   4   4
#     4  11  26  50  76 111 159 200 263 333 390 477
#     4  11  23  49  75 111 163 213 252 318 399 483
#     4  12  29  56  82 112 154 209 273 341 402 458
#     4  11  24  49  76 115 162 204 256 315 402 486
#     4  11  28  49  77 115 158 205 268 328 391 482
#
# _framework density 23.067471999999999
#
# number of rings (size 3 to 8) (size 9 to 14) (size 15 to 20)
#    0.000    0.800    4.000    1.200    8.400    1.600 
#    7.200    0.000    0.000    0.000    0.000    0.000 
#    0.000    0.000    0.000    0.000    0.000    0.000 
#
# Total GULP energy -55925.110277 kJ/mol
# GULP energy per Si atom -5592.511028 kJ/mol
# Density = 2.301497 g / cm^3
# Si number density = 23.067472 Si / 1000 Ang^3
#
#
#
# Elastic Constant Matrix: (Units=GPa)
#
#
# Indices 1 2 3 4 5 6 
#
# 1 116.1151 45.3039 53.8311 0.0000 3.4263 0.0000
# 2 45.3039 133.2664 58.7220 0.0000 -10.0328 0.0000
# 3 53.8311 58.7220 102.6067 0.0000 20.4318 0.0000
# 4 0.0000 0.0000 0.0000 9.9994 0.0000 13.7694
# 5 3.4263 -10.0328 20.4318 0.0000 55.1212 0.0000
# 6 0.0000 0.0000 0.0000 13.7694 0.0000 42.9463
#
#
#
# Elastic Compliance Matrix: (Units=1/GPa)
#
#
# Indices 1 2 3 4 5 6 
#
# 1 0.011710 -0.001476 -0.005507 0.000000 0.001045 0.000000
# 2 -0.001476 0.011246 -0.006573 0.000000 0.004575 0.000000
# 3 -0.005507 -0.006573 0.017887 0.000000 -0.007484 0.000000
# 4 0.000000 0.000000 0.000000 0.179060 0.000000 -0.057410
# 5 0.001045 0.004575 -0.007484 0.000000 0.021684 0.000000
# 6 0.000000 0.000000 0.000000 -0.057410 0.000000 0.041692
#
#
# Mechanical properties :
#
#
# Convention : Reuss Voigt Hill
#
# Bulk Modulus (GPa) = 72.82247 74.18914 73.50580
# Shear Modulus (GPa) = 15.87464 34.55548 25.21506
#
# Velocity S-wave (km/s) = 2.62617 3.87462 3.30979
# Velocity P-wave (km/s) = 6.39011 7.22832 6.82210
#
# Compressibility (1/GPa) = 0.01373203
#
# Stress axis : x y z
#
# Youngs Moduli (GPa) = 85.39609 88.91925 55.90545
#
# Poissons Ratio (x) = 0.13120 0.30788
# Poissons Ratio (y) = 0.12601 0.36747
# Poissons Ratio (z) = 0.47029 0.58448
#
# Static dielectric constant tensor:
#      x y z
#    x 1.987000 0.000000 0.014880 
#    y 0.000000 1.899810 0.000000 
#    z 0.014880 0.000000 1.815630 
# 
# From -- ./inp_files/33304.got.cif
#   From: 2010.05.17/outbox.cif.g08.bks.cpg/sg5_17_cif.got.tgz:33304.got - 2010.06.03 18:56:24.
