data_PCOD9129198
_publ_section_title
;
Structure prediction by ZEFSAII (Michael W. Deem and Ramdas Pophale) SiO2 
 PCOD9129198
Probable space group: C 2
;
_chemical_formula_sum "Si O2"
_cell_formula_units_Z 20
_cell_length_a 10.568030
_cell_length_b 8.375807
_cell_length_c 10.747686
_cell_angle_alpha 90.000000
_cell_angle_beta 136.045328
_cell_angle_gamma 90.000000
_cell_volume 660.314558
_symmetry_space_group_name_H-M "C 2"
_symmetry_group_IT_number 5
_symmetry_cell_setting 'monoclinic'
loop_
_space_group_symop_operation_xyz
x,y,z
-x,y,-z
1/2+x,1/2+y,z
1/2-x,1/2+y,-z
loop_
_atom_site_type_symbol
_atom_site_label
_atom_site_fract_x
_atom_site_fract_y
_atom_site_fract_z
Si Si1 0.970787 0.818810 0.620589
Si Si2 0.000000 0.096621 0.000000
Si Si3 0.359288 0.656195 0.296111
Si Si4 0.097113 0.352018 0.262059
Si Si5 0.774873 0.836328 0.988002
Si Si6 0.000000 0.552663 0.000000
O O1 0.755784 0.823784 0.478971
O O2 0.000000 0.760709 0.500000
O O3 0.094577 0.748676 0.816867
O O4 0.036855 0.000396 0.677978
O O5 0.127793 0.988137 0.005103
O O6 0.884494 0.202027 0.821661
O O7 0.500000 0.715853 0.500000
O O8 0.421114 0.798310 0.227764
O O9 0.160242 0.696505 0.083370
O O10 0.180111 0.520472 0.252914
O O11 0.606863 0.920674 0.970946
#
# Coordination Sequence:
#
# PCOD9129198 Si02
#       6
#     4   2   4   4   4   2
#     4  11  22  46  74 110 150 202 262 310 386 462
#     4  11  27  52  72 114 161 193 260 322 380 469
#     4  11  23  43  72 103 148 197 250 309 376 461
#     4  11  23  45  77 104 147 202 250 312 384 449
#     4  12  26  47  73 114 156 198 249 324 389 456
#     4  11  19  42  76 100 137 193 250 310 368 455
#
# _framework density 30.288594
#
# number of rings (size 3 to 8) (size 9 to 14) (size 15 to 20)
#    0.000    0.800    6.000    3.000    0.000    3.200 
#    3.600    7.000    0.000    0.000    0.000    0.000 
#    0.000    0.000    0.000    0.000    0.000    0.000 
#
# Total GULP energy -55734.454690 kJ/mol
# GULP energy per Si atom -5573.445469 kJ/mol
# Density = 3.021966 g / cm^3
# Si number density = 30.288594 Si / 1000 Ang^3
#
#
#
# Elastic Constant Matrix: (Units=GPa)
#
#
# Indices 1 2 3 4 5 6 
#
# 1 234.8315 53.2314 172.0916 0.0000 48.4644 0.0000
# 2 53.2314 99.8430 91.6530 0.0000 5.2962 0.0000
# 3 172.0916 91.6530 400.0584 0.0000 26.2938 0.0000
# 4 0.0000 0.0000 0.0000 65.5808 0.0000 -14.3248
# 5 48.4644 5.2962 26.2938 0.0000 94.6008 0.0000
# 6 0.0000 0.0000 0.0000 -14.3248 0.0000 14.6648
#
#
#
# Elastic Compliance Matrix: (Units=1/GPa)
#
#
# Indices 1 2 3 4 5 6 
#
# 1 0.006973 -0.001247 -0.002530 0.000000 -0.002799 0.000000
# 2 -0.001247 0.012907 -0.002460 0.000000 0.000600 0.000000
# 3 -0.002530 -0.002460 0.004133 0.000000 0.000285 0.000000
# 4 0.000000 0.000000 0.000000 0.019384 0.000000 0.018935
# 5 -0.002799 0.000600 0.000285 0.000000 0.011892 0.000000
# 6 0.000000 0.000000 0.000000 0.018935 0.000000 0.086686
#
#
# Mechanical properties :
#
#
# Convention : Reuss Voigt Hill
#
# Bulk Modulus (GPa) = 86.66224 152.07609 119.36917
# Shear Modulus (GPa) = 31.58677 62.81975 47.20326
#
# Velocity S-wave (km/s) = 3.23284 4.55910 3.95200
# Velocity P-wave (km/s) = 6.52758 8.83357 7.76663
#
# Compressibility (1/GPa) = 0.01153905
#
# Stress axis : x y z
#
# Youngs Moduli (GPa) = 143.41978 77.47804 241.97111
#
# Poissons Ratio (x) = 0.09659 0.61213
# Poissons Ratio (y) = 0.17880 0.59527
# Poissons Ratio (z) = 0.36282 0.19060
#
# Static dielectric constant tensor:
#      x y z
#    x 3.613060 0.000000 0.972600 
#    y 0.000000 2.502530 0.000000 
#    z 0.972600 0.000000 3.578150 
# 
# From -- ./inp_files/38992.got.cif
#   From: 2010.05.17/outbox.cif.g08.bks.cpg/sg5_20_cif.got.tgz:38992.got - 2010.06.03 18:56:24.
