data_PCOD9129234
_publ_section_title
;
Structure prediction by ZEFSAII (Michael W. Deem and Ramdas Pophale) SiO2 
 PCOD9129234
Probable space group: C 2
;
_chemical_formula_sum "Si O2"
_cell_formula_units_Z 22
_cell_length_a 16.296261
_cell_length_b 5.654758
_cell_length_c 11.573159
_cell_angle_alpha 90.000000
_cell_angle_beta 54.563858
_cell_angle_gamma 90.000000
_cell_volume 868.930018
_symmetry_space_group_name_H-M "C 2"
_symmetry_group_IT_number 5
_symmetry_cell_setting 'monoclinic'
loop_
_space_group_symop_operation_xyz
x,y,z
-x,y,-z
1/2+x,1/2+y,z
1/2-x,1/2+y,-z
loop_
_atom_site_type_symbol
_atom_site_label
_atom_site_fract_x
_atom_site_fract_y
_atom_site_fract_z
Si Si1 0.806477 0.971450 0.967789
Si Si2 0.629043 0.887158 0.766931
Si Si3 0.665983 0.811817 0.478647
Si Si4 0.339230 0.428421 0.701485
Si Si5 0.875690 0.896799 0.172065
Si Si6 0.500000 0.074144 0.500000
O O1 0.856451 0.920140 0.051057
O O2 0.764623 0.706762 0.966480
O O3 0.865351 0.046088 0.802271
O O4 0.683927 0.851917 0.598639
O O5 0.719205 0.894619 0.787393
O O6 0.571553 0.640385 0.831560
O O7 0.578548 0.144161 0.825131
O O8 0.638638 0.571390 0.434262
O O9 0.765782 0.892980 0.326803
O O10 0.561305 0.944125 0.547932
O O11 0.409894 0.206822 0.635666
#
# Coordination Sequence:
#
# PCOD9129234 Si02
#       6
#     4   4   4   4   4   2
#     4  12  20  38  63  98 135 163 220 278 320 383
#     4  11  22  37  66  96 126 163 221 269 324 372
#     4  11  23  39  61  96 132 165 215 269 328 386
#     4  11  24  39  64  98 130 174 213 271 331 384
#     4  11  20  38  62  99 122 165 216 273 317 376
#     4  12  24  42  60  98 132 172 214 262 342 394
#
# _framework density 25.318494999999999
#
# number of rings (size 3 to 8) (size 9 to 14) (size 15 to 20)
#    0.000    0.727    7.273    2.727    2.545    0.000 
#    0.000    0.000    0.000    1.091    0.000    0.000 
#    0.000    0.000    0.000    0.000    0.000    0.000 
#
# Total GULP energy -61278.606622 kJ/mol
# GULP energy per Si atom -5570.782420 kJ/mol
# Density = 2.526087 g / cm^3
# Si number density = 25.318495 Si / 1000 Ang^3
#
#
#
# Elastic Constant Matrix: (Units=GPa)
#
#
# Indices 1 2 3 4 5 6 
#
# 1 33.9939 25.0155 35.8131 0.0004 10.1765 0.0001
# 2 25.0155 171.6429 29.5747 0.0011 6.1207 0.0014
# 3 35.8131 29.5747 134.3184 -0.0016 48.7212 0.0007
# 4 0.0004 0.0011 -0.0016 60.2544 0.0007 11.7409
# 5 10.1765 6.1207 48.7212 0.0007 48.1219 -0.0001
# 6 0.0001 0.0014 0.0007 11.7409 -0.0001 13.1988
#
#
#
# Elastic Compliance Matrix: (Units=1/GPa)
#
#
# Indices 1 2 3 4 5 6 
#
# 1 0.044468 -0.004517 -0.012104 -0.000001 0.003426 0.000001
# 2 -0.004517 0.006540 -0.000443 0.000000 0.000572 -0.000001
# 3 -0.012104 -0.000443 0.015521 0.000001 -0.013098 -0.000002
# 4 -0.000001 0.000000 0.000001 0.020076 -0.000001 -0.017859
# 5 0.003426 0.000572 -0.013098 -0.000001 0.033245 0.000002
# 6 0.000001 -0.000001 -0.000002 -0.017859 0.000002 0.091650
#
#
# Mechanical properties :
#
#
# Convention : Reuss Voigt Hill
#
# Bulk Modulus (GPa) = 30.86472 57.86242 44.36357
# Shear Modulus (GPa) = 19.49852 40.95182 30.22517
#
# Velocity S-wave (km/s) = 2.77813 4.02614 3.45889
# Velocity P-wave (km/s) = 4.74423 6.67207 5.78896
#
# Compressibility (1/GPa) = 0.03239946
#
# Stress axis : x y z
#
# Youngs Moduli (GPa) = 22.48815 152.89664 64.42867
#
# Poissons Ratio (x) = 0.69068 0.77987
# Poissons Ratio (y) = 0.10159 0.02855
# Poissons Ratio (z) = 0.27221 0.06775
#
# Static dielectric constant tensor:
#      x y z
#    x 1.966960 0.000000 0.098670 
#    y 0.000000 2.226260 0.000000 
#    z 0.098670 0.000000 2.260540 
# 
# From -- ./inp_files/43719.got.cif
#   From: 2010.05.17/outbox.cif.g08.bks.cpg/sg5_22_cif.got.tgz:43719.got - 2010.06.03 18:56:24.
