data_PCOD9129967
_publ_section_title
;
Structure prediction by ZEFSAII (Michael W. Deem and Ramdas Pophale) SiO2 
 PCOD9129967
Probable space group: C 2
;
_chemical_formula_sum "Si O2"
_cell_formula_units_Z 28
_cell_length_a 20.600879
_cell_length_b 5.175229
_cell_length_c 12.598396
_cell_angle_alpha 90.000000
_cell_angle_beta 120.797972
_cell_angle_gamma 90.000000
_cell_volume 1153.752432
_symmetry_space_group_name_H-M "C 2"
_symmetry_group_IT_number 5
_symmetry_cell_setting 'monoclinic'
loop_
_space_group_symop_operation_xyz
x,y,z
-x,y,-z
1/2+x,1/2+y,z
1/2-x,1/2+y,-z
loop_
_atom_site_type_symbol
_atom_site_label
_atom_site_fract_x
_atom_site_fract_y
_atom_site_fract_z
Si Si1 0.220390 0.121860 0.027378
Si Si2 0.016875 0.876411 0.137790
Si Si3 0.576931 0.674450 0.614564
Si Si4 0.176483 0.650675 0.302638
Si Si5 0.785806 0.825716 0.277321
Si Si6 0.940786 0.362535 0.169934
Si Si7 0.173842 0.453575 0.518067
O O1 0.138819 0.256568 0.945155
O O2 0.274291 0.337344 0.017019
O O3 0.255121 0.104417 0.174700
O O4 0.105404 0.820475 0.217056
O O5 0.997500 0.135066 0.184089
O O6 0.969379 0.634545 0.146745
O O7 0.000000 0.908362 0.000000
O O8 0.500000 0.561504 0.500000
O O9 0.640754 0.471222 0.704691
O O10 0.563458 0.856757 0.705220
O O11 0.614964 0.823068 0.548131
O O12 0.212858 0.504258 0.233934
O O13 0.150098 0.468613 0.377202
O O14 0.246890 0.808281 0.407574
O O15 0.810913 0.728845 0.413889
#
# Coordination Sequence:
#
# PCOD9129967 Si02
#       7
#     4   4   4   4   4   4   4
#     4  12  25  46  74 104 148 185 244 294 353 433
#     4  12  29  48  75 106 151 191 239 299 364 432
#     4  11  26  45  70 107 145 188 238 302 370 428
#     4  11  25  45  72 104 139 193 243 299 355 432
#     4  11  25  43  73 102 142 191 242 296 358 430
#     4  12  27  48  74 111 145 191 240 298 370 426
#     4  11  24  43  72 104 141 188 250 295 361 429
#
# _framework density 24.268639
#
# number of rings (size 3 to 8) (size 9 to 14) (size 15 to 20)
#    0.000    0.571    2.857    3.857   10.000    0.571 
#    0.000    0.000    0.000    0.000    0.000    0.000 
#    0.000    0.000    0.000    0.000    0.000    0.000 
#
# Total GULP energy -78401.027688 kJ/mol
# GULP energy per Si atom -5600.073406 kJ/mol
# Density = 2.421340 g / cm^3
# Si number density = 24.268639 Si / 1000 Ang^3
#
#
#
# Elastic Constant Matrix: (Units=GPa)
#
#
# Indices 1 2 3 4 5 6 
#
# 1 119.0091 24.4948 45.9859 0.0000 4.0079 0.0000
# 2 24.4948 74.3200 -3.6030 0.0000 -10.4971 0.0000
# 3 45.9859 -3.6030 89.7003 0.0000 1.2188 0.0000
# 4 0.0000 0.0000 0.0000 21.7944 0.0000 -19.6204
# 5 4.0079 -10.4971 1.2188 0.0000 24.3218 0.0000
# 6 0.0000 0.0000 0.0000 -19.6204 0.0000 -20.8437
#
#
#
# Elastic Compliance Matrix: (Units=1/GPa)
#
#
# Indices 1 2 3 4 5 6 
#
# 1 0.011922 -0.004756 -0.006253 0.000000 -0.003704 0.000000
# 2 -0.004756 0.016248 0.002987 0.000000 0.007646 0.000000
# 3 -0.006253 0.002987 0.014452 0.000000 0.001595 0.000000
# 4 0.000000 0.000000 0.000000 0.024837 0.000000 -0.023379
# 5 -0.003704 0.007646 0.001595 0.000000 0.044946 0.000000
# 6 0.000000 0.000000 0.000000 -0.023379 0.000000 -0.025969
#
#
# Mechanical properties :
#
#
# Convention : Reuss Voigt Hill
#
# Bulk Modulus (GPa) = 37.62443 46.30942 41.96692
# Shear Modulus (GPa) = 44.90825 19.46463 32.18644
#
# Velocity S-wave (km/s) = 4.30637 2.83512 3.64573
# Velocity P-wave (km/s) = 6.34534 5.46266 5.92047
#
# Compressibility (1/GPa) = 0.02657848
#
# Stress axis : x y z
#
# Youngs Moduli (GPa) = 83.87550 61.54787 69.19396
#
# Poissons Ratio (x) = 0.29270 0.43266
# Poissons Ratio (y) = 0.39889 -0.20667
# Poissons Ratio (z) = 0.52446 -0.18383
#
# Static dielectric constant tensor:
#      x y z
#    x 1.967750 0.000000 -0.046920 
#    y 0.000000 1.963270 0.000000 
#    z -0.046920 0.000000 1.918360 
# 
# From -- ./inp_files/45494.got.cif
#   From: 2010.05.17/outbox.cif.g08.bks.cpg/sg5_23_cif.got.tgz:45494.got - 2010.06.03 18:56:24.
