data_PCOD9129777
_publ_section_title
;
Structure prediction by ZEFSAII (Michael W. Deem and Ramdas Pophale) SiO2 
 PCOD9129777
Probable space group: C 2
;
_chemical_formula_sum "Si O2"
_cell_formula_units_Z 24
_cell_length_a 11.808105
_cell_length_b 13.779516
_cell_length_c 9.775542
_cell_angle_alpha 90.000000
_cell_angle_beta 132.592822
_cell_angle_gamma 90.000000
_cell_volume 1170.954823
_symmetry_space_group_name_H-M "C 2"
_symmetry_group_IT_number 5
_symmetry_cell_setting 'monoclinic'
loop_
_space_group_symop_operation_xyz
x,y,z
-x,y,-z
1/2+x,1/2+y,z
1/2-x,1/2+y,-z
loop_
_atom_site_type_symbol
_atom_site_label
_atom_site_fract_x
_atom_site_fract_y
_atom_site_fract_z
Si Si1 0.618465 0.620430 0.295325
Si Si2 0.667211 0.485226 0.596018
Si Si3 0.336699 0.128535 0.939012
Si Si4 0.218056 0.344770 0.789950
Si Si5 0.292321 0.553374 0.912021
Si Si6 0.366250 0.839199 0.592127
O O1 0.642838 0.554585 0.446507
O O2 0.726605 0.589242 0.258190
O O3 0.641642 0.730060 0.359570
O O4 0.446025 0.601814 0.099111
O O5 0.500000 0.443369 0.500000
O O6 0.728763 0.553429 0.767973
O O7 0.790110 0.407085 0.644212
O O8 0.274186 0.238595 0.881030
O O9 0.658664 0.089115 0.902845
O O10 0.500000 0.127092 0.000000
O O11 0.310470 0.437136 0.922251
O O12 0.217616 0.347421 0.623969
O O13 0.044465 0.359769 0.703001
#
# Coordination Sequence:
#
# PCOD9129777 Si02
#       6
#     4   4   4   4   4   4
#     4  11  23  45  70  98 139 186 230 293 350 419
#     4  12  23  46  71 101 143 190 237 291 354 429
#     4  12  26  44  70 105 146 185 238 297 355 421
#     4  11  23  43  72  99 139 185 238 288 358 420
#     4  11  24  44  68 102 140 179 232 298 351 406
#     4  11  23  44  72 100 135 194 236 282 359 429
#
# _framework density 20.496095
#
# number of rings (size 3 to 8) (size 9 to 14) (size 15 to 20)
#    0.000    0.667    6.667    1.000    2.333    1.333 
#    6.000    0.000    0.000    0.000    0.000    0.000 
#    0.000    0.000    0.000    0.000    0.000    0.000 
#
# Total GULP energy -67093.321770 kJ/mol
# GULP energy per Si atom -5591.110148 kJ/mol
# Density = 2.044944 g / cm^3
# Si number density = 20.496095 Si / 1000 Ang^3
#
#
#
# Elastic Constant Matrix: (Units=GPa)
#
#
# Indices 1 2 3 4 5 6 
#
# 1 147.0451 53.1129 19.2233 0.0000 -13.2607 0.0000
# 2 53.1129 129.6038 17.9159 0.0000 -6.5297 0.0000
# 3 19.2233 17.9159 24.1934 0.0000 -5.3757 0.0000
# 4 0.0000 0.0000 0.0000 34.0597 0.0000 -13.1277
# 5 -13.2607 -6.5297 -5.3757 0.0000 32.7374 0.0000
# 6 0.0000 0.0000 0.0000 -13.1277 0.0000 41.3430
#
#
#
# Elastic Compliance Matrix: (Units=1/GPa)
#
#
# Indices 1 2 3 4 5 6 
#
# 1 0.008571 -0.002816 -0.004233 0.000000 0.002215 0.000000
# 2 -0.002816 0.009536 -0.004832 0.000000 -0.000032 0.000000
# 3 -0.004233 -0.004832 0.049485 0.000000 0.005448 0.000000
# 4 0.000000 0.000000 0.000000 0.033455 0.000000 0.010623
# 5 0.002215 -0.000032 0.005448 0.000000 0.032331 0.000000
# 6 0.000000 0.000000 0.000000 0.010623 0.000000 0.027561
#
#
# Mechanical properties :
#
#
# Convention : Reuss Voigt Hill
#
# Bulk Modulus (GPa) = 22.81439 53.48294 38.14866
# Shear Modulus (GPa) = 25.08661 35.66739 30.37700
#
# Velocity S-wave (km/s) = 3.50232 4.17610 3.85397
# Velocity P-wave (km/s) = 5.24502 7.02879 6.20138
#
# Compressibility (1/GPa) = 0.04383199
#
# Stress axis : x y z
#
# Youngs Moduli (GPa) = 116.67566 104.86591 20.20807
#
# Poissons Ratio (x) = 0.29527 0.08554
# Poissons Ratio (y) = 0.32852 0.09764
# Poissons Ratio (z) = 0.49386 0.50666
#
# Static dielectric constant tensor:
#      x y z
#    x 1.767950 0.000000 0.029230 
#    y 0.000000 1.702460 0.000000 
#    z 0.029230 0.000000 1.698410 
# 
# From -- ./inp_files/39270.got.cif
#   From: 2010.05.17/outbox.cif.g08.bks.cpg/sg5_20_cif.got.tgz:39270.got - 2010.06.03 18:56:24.
