data_PCOD9129855
_publ_section_title
;
Structure prediction by ZEFSAII (Michael W. Deem and Ramdas Pophale) SiO2 
 PCOD9129855
Probable space group: C 2
;
_chemical_formula_sum "Si O2"
_cell_formula_units_Z 22
_cell_length_a 18.568464
_cell_length_b 6.078828
_cell_length_c 8.627626
_cell_angle_alpha 90.000000
_cell_angle_beta 70.748399
_cell_angle_gamma 90.000000
_cell_volume 919.381699
_symmetry_space_group_name_H-M "C 2"
_symmetry_group_IT_number 5
_symmetry_cell_setting 'monoclinic'
loop_
_space_group_symop_operation_xyz
x,y,z
-x,y,-z
1/2+x,1/2+y,z
1/2-x,1/2+y,-z
loop_
_atom_site_type_symbol
_atom_site_label
_atom_site_fract_x
_atom_site_fract_y
_atom_site_fract_z
Si Si1 0.738453 0.134490 0.753450
Si Si2 0.452887 0.708903 0.784012
Si Si3 0.418975 0.077870 0.301018
Si Si4 0.881980 0.881050 0.614685
Si Si5 0.500000 0.396707 0.000000
Si Si6 0.694884 0.014071 0.132343
O O1 0.665423 0.054725 0.709891
O O2 0.750217 0.394762 0.781028
O O3 0.813338 0.043385 0.613127
O O4 0.730015 0.050940 0.938028
O O5 0.443387 0.535075 0.653324
O O6 0.378938 0.860217 0.832987
O O7 0.528991 0.858961 0.722399
O O8 0.447732 0.563196 0.941871
O O9 0.411788 0.211631 0.466053
O O10 0.459695 0.239608 0.150483
O O11 0.840753 0.733572 0.773542
#
# Coordination Sequence:
#
# PCOD9129855 Si02
#       6
#     4   4   4   4   2   4
#     4  11  24  44  74 112 154 204 253 325 384 470
#     4  11  26  49  75 111 153 207 257 322 387 461
#     4  12  28  47  77 115 156 202 271 316 395 462
#     4  11  27  47  75 111 156 206 258 323 390 458
#     4  12  26  46  78 112 148 198 256 328 380 468
#     4  11  23  45  76 108 150 206 258 310 396 461
#
# _framework density 23.929124999999999
#
# number of rings (size 3 to 8) (size 9 to 14) (size 15 to 20)
#    0.000    0.727    1.818    4.909    5.091    8.727 
#    0.000    0.000    0.000    0.000    0.000    0.000 
#    0.000    0.000    0.000    0.000    0.000    0.000 
#
# Total GULP energy -61568.966308 kJ/mol
# GULP energy per Si atom -5597.178755 kJ/mol
# Density = 2.387466 g / cm^3
# Si number density = 23.929125 Si / 1000 Ang^3
#
#
#
# Elastic Constant Matrix: (Units=GPa)
#
#
# Indices 1 2 3 4 5 6 
#
# 1 110.5761 55.9158 24.6973 0.0000 12.4747 0.0000
# 2 55.9158 128.8331 51.4412 0.0000 4.5944 0.0000
# 3 24.6973 51.4412 115.6231 0.0000 -3.8397 0.0000
# 4 0.0000 0.0000 0.0000 31.1890 0.0000 6.8401
# 5 12.4747 4.5944 -3.8397 0.0000 21.2403 0.0000
# 6 0.0000 0.0000 0.0000 6.8401 0.0000 28.3230
#
#
#
# Elastic Compliance Matrix: (Units=1/GPa)
#
#
# Indices 1 2 3 4 5 6 
#
# 1 0.012375 -0.004871 -0.000687 0.000000 -0.006339 0.000000
# 2 -0.004871 0.011526 -0.004100 0.000000 -0.000374 0.000000
# 3 -0.000687 -0.004100 0.010727 0.000000 0.003229 0.000000
# 4 0.000000 0.000000 0.000000 0.033856 0.000000 -0.008176
# 5 -0.006339 -0.000374 0.003229 0.000000 0.051468 0.000000
# 6 0.000000 0.000000 0.000000 -0.008176 0.000000 0.037282
#
#
# Mechanical properties :
#
#
# Convention : Reuss Voigt Hill
#
# Bulk Modulus (GPa) = 65.30407 68.79343 67.04875
# Shear Modulus (GPa) = 27.52499 31.01567 29.27033
#
# Velocity S-wave (km/s) = 3.39524 3.60411 3.50124
# Velocity P-wave (km/s) = 6.53606 6.79196 6.66524
#
# Compressibility (1/GPa) = 0.01531298
#
# Stress axis : x y z
#
# Youngs Moduli (GPa) = 80.80779 86.75715 93.22328
#
# Poissons Ratio (x) = 0.42257 0.06403
# Poissons Ratio (y) = 0.39359 0.38223
# Poissons Ratio (z) = 0.05550 0.35572
#
# Static dielectric constant tensor:
#      x y z
#    x 1.951640 0.000000 0.027200 
#    y 0.000000 1.959430 0.000000 
#    z 0.027200 0.000000 1.897640 
# 
# From -- ./inp_files/28310.got.cif
#   From: 2010.05.17/outbox.cif.g08.bks.cpg/sg5_15_cif.got.tgz:28310.got - 2010.06.03 18:56:24.
