data_PCOD9129514
_publ_section_title
;
Structure prediction by ZEFSAII (Michael W. Deem and Ramdas Pophale) SiO2 
 PCOD9129514
Probable space group: C 2
;
_chemical_formula_sum "Si O2"
_cell_formula_units_Z 26
_cell_length_a 22.659654
_cell_length_b 6.009012
_cell_length_c 15.895100
_cell_angle_alpha 90.000000
_cell_angle_beta 34.454753
_cell_angle_gamma 90.000000
_cell_volume 1224.470130
_symmetry_space_group_name_H-M "C 2"
_symmetry_group_IT_number 5
_symmetry_cell_setting 'monoclinic'
loop_
_space_group_symop_operation_xyz
x,y,z
-x,y,-z
1/2+x,1/2+y,z
1/2-x,1/2+y,-z
loop_
_atom_site_type_symbol
_atom_site_label
_atom_site_fract_x
_atom_site_fract_y
_atom_site_fract_z
Si Si1 0.724568 0.677870 0.072982
Si Si2 0.500000 0.845220 0.000000
Si Si3 0.621531 0.161149 0.626917
Si Si4 0.504331 0.516565 0.120241
Si Si5 0.211276 0.030389 0.432279
Si Si6 0.991560 0.269791 0.723294
Si Si7 0.335788 0.175122 0.122265
O O1 0.600819 0.721844 0.232130
O O2 0.781472 0.661078 0.095911
O O3 0.741643 0.423929 0.010539
O O4 0.556628 0.690400 0.865781
O O5 0.576551 0.990123 0.964939
O O6 0.571875 0.338783 0.749451
O O7 0.709680 0.049001 0.581206
O O8 0.674412 0.275075 0.483710
O O9 0.523879 0.018089 0.709469
O O10 0.551258 0.651576 0.142553
O O11 0.596368 0.400783 0.960071
O O12 0.261616 0.129046 0.288983
O O13 0.103547 0.163187 0.572081
#
# Coordination Sequence:
#
# PCOD9129514 Si02
#       7
#     4   2   4   4   4   4   4
#     4  12  27  52  80 109 146 205 261 319 384 455
#     4  12  24  38  68 110 142 186 242 314 382 434
#     4  11  22  42  68 108 148 196 240 302 387 462
#     4  11  22  41  68  99 147 188 247 310 369 456
#     4  11  24  40  69 107 150 190 242 306 388 459
#     4  11  24  44  72 100 143 201 246 303 381 460
#     4  12  26  44  71 110 148 191 256 320 378 450
#
# _framework density 21.233675000000002
#
# number of rings (size 3 to 8) (size 9 to 14) (size 15 to 20)
#    0.000    0.615    3.077    6.000    4.308    1.846 
#    0.000    0.000    0.000    0.000    0.000    0.000 
#    0.000    0.000    0.000    0.000    0.000    0.000 
#
# Total GULP energy -72447.810801 kJ/mol
# GULP energy per Si atom -5572.908523 kJ/mol
# Density = 2.118535 g / cm^3
# Si number density = 21.233675 Si / 1000 Ang^3
#
#
#
# Elastic Constant Matrix: (Units=GPa)
#
#
# Indices 1 2 3 4 5 6 
#
# 1 132.4318 44.9403 35.7213 0.0797 -15.6135 -0.0587
# 2 44.9403 100.8274 43.5903 0.1437 4.1657 -0.0371
# 3 35.7213 43.5903 100.7372 0.0060 9.1776 -0.0273
# 4 0.0797 0.1437 0.0060 14.6408 0.0310 22.9874
# 5 -15.6135 4.1657 9.1776 0.0310 31.1891 -0.0068
# 6 -0.0587 -0.0371 -0.0273 22.9874 -0.0068 17.4005
#
#
#
# Elastic Compliance Matrix: (Units=1/GPa)
#
#
# Indices 1 2 3 4 5 6 
#
# 1 0.010273 -0.003711 -0.002621 0.000067 0.006409 -0.000063
# 2 -0.003711 0.013540 -0.004325 0.000111 -0.002393 -0.000138
# 3 -0.002621 -0.004325 0.013147 -0.000056 -0.004603 0.000074
# 4 0.000067 0.000111 -0.000056 -0.063582 0.000116 0.083997
# 5 0.006409 -0.002393 -0.004603 0.000116 0.036945 -0.000130
# 6 -0.000063 -0.000138 0.000074 0.083997 -0.000130 -0.053497
#
#
# Mechanical properties :
#
#
# Convention : Reuss Voigt Hill
#
# Bulk Modulus (GPa) = 63.91178 64.72225 64.31701
# Shear Modulus (GPa) = -300.41026 26.62905 -136.89060
#
# Velocity S-wave (km/s) = -11.90737 3.54516 -8.03795
# Velocity P-wave (km/s) = 12.60486 6.87784 7.46920
#
# Compressibility (1/GPa) = 0.01564657
#
# Stress axis : x y z
#
# Youngs Moduli (GPa) = 97.34456 73.85303 76.06140
#
# Poissons Ratio (x) = 0.27403 0.19936
# Poissons Ratio (y) = 0.36120 0.32899
# Poissons Ratio (z) = 0.25515 0.31944
#
# Static dielectric constant tensor:
#      x y z
#    x 1.767590 0.000040 0.010650 
#    y 0.000040 1.910020 -0.000110 
#    z 0.010650 -0.000110 1.809580 
# 
# From -- ./inp_files/63145.got.cif
#   From: 2010.05.17/outbox.cif.g08.bks.cpg/sg5_32_cif.got.tgz:63145.got - 2010.06.03 18:56:24.
