data_PCOD9129600
_publ_section_title
;
Structure prediction by ZEFSAII (Michael W. Deem and Ramdas Pophale) SiO2 
 PCOD9129600
Probable space group: C 2
;
_chemical_formula_sum "Si O2"
_cell_formula_units_Z 28
_cell_length_a 24.289657
_cell_length_b 9.372697
_cell_length_c 8.247697
_cell_angle_alpha 90.000000
_cell_angle_beta 43.048039
_cell_angle_gamma 90.000000
_cell_volume 1281.716988
_symmetry_space_group_name_H-M "C 2"
_symmetry_group_IT_number 5
_symmetry_cell_setting 'monoclinic'
loop_
_space_group_symop_operation_xyz
x,y,z
-x,y,-z
1/2+x,1/2+y,z
1/2-x,1/2+y,-z
loop_
_atom_site_type_symbol
_atom_site_label
_atom_site_fract_x
_atom_site_fract_y
_atom_site_fract_z
Si Si1 0.985186 0.041920 0.844003
Si Si2 0.923291 0.845244 0.555387
Si Si3 0.232030 0.201188 0.408673
Si Si4 0.205979 0.017610 0.772640
Si Si5 0.440148 0.812994 0.269722
Si Si6 0.414017 0.007100 0.611101
Si Si7 0.757274 0.015972 0.942319
O O1 0.022451 0.189231 0.694314
O O2 0.891001 0.032452 0.012404
O O3 0.039742 0.903614 0.690751
O O4 0.000000 0.069372 0.000000
O O5 0.912826 0.678707 0.608928
O O6 0.000000 0.896342 0.500000
O O7 0.836112 0.916065 0.765070
O O8 0.247112 0.102103 0.533547
O O9 0.279996 0.348765 0.287584
O O10 0.140070 0.247464 0.631719
O O11 0.237156 0.121157 0.223809
O O12 0.238858 0.068490 0.877886
O O13 0.413696 0.945505 0.432834
O O14 0.500000 0.859546 0.000000
O O15 0.500000 0.965702 0.500000
O O16 0.333288 0.951693 0.873630
#
# Coordination Sequence:
#
# PCOD9129600 Si02
#       7
#     4   4   4   4   4   4   4
#     4  11  22  44  73 103 138 191 250 300 374 455
#     4  11  23  43  73 105 142 191 250 307 373 457
#     4  12  27  48  74 116 150 198 263 316 385 461
#     4  12  26  48  77 110 153 200 253 324 385 452
#     4  11  23  49  70 103 151 188 250 311 375 464
#     4  11  28  46  70 111 149 195 246 313 389 444
#     4  12  25  47  79 109 154 197 256 316 381 462
#
# _framework density 21.845697999999999
#
# number of rings (size 3 to 8) (size 9 to 14) (size 15 to 20)
#    0.000    0.571    7.143    0.857    2.000    6.857 
#    0.000    0.000    0.000    0.000    0.000    0.000 
#    0.000    0.000    0.000    0.000    0.000    0.000 
#
# Total GULP energy -78093.969410 kJ/mol
# GULP energy per Si atom -5578.140672 kJ/mol
# Density = 2.179598 g / cm^3
# Si number density = 21.845698 Si / 1000 Ang^3
#
#
#
# Elastic Constant Matrix: (Units=GPa)
#
#
# Indices 1 2 3 4 5 6 
#
# 1 81.3960 20.5728 27.8699 0.0000 -9.3130 0.0000
# 2 20.5728 45.2620 10.2105 0.0000 2.7019 0.0000
# 3 27.8699 10.2105 103.2118 0.0000 -13.8084 0.0000
# 4 0.0000 0.0000 0.0000 18.5603 0.0000 10.3580
# 5 -9.3130 2.7019 -13.8084 0.0000 57.6191 0.0000
# 6 0.0000 0.0000 0.0000 10.3580 0.0000 20.2704
#
#
#
# Elastic Compliance Matrix: (Units=1/GPa)
#
#
# Indices 1 2 3 4 5 6 
#
# 1 0.015208 -0.006305 -0.003217 0.000000 0.001983 0.000000
# 2 -0.006305 0.025364 -0.001139 0.000000 -0.002481 0.000000
# 3 -0.003217 -0.001139 0.010959 0.000000 0.002160 0.000000
# 4 0.000000 0.000000 0.000000 0.075373 0.000000 -0.038515
# 5 0.001983 -0.002481 0.002160 0.000000 0.018310 0.000000
# 6 0.000000 0.000000 0.000000 -0.038515 0.000000 0.069014
#
#
# Mechanical properties :
#
#
# Convention : Reuss Voigt Hill
#
# Bulk Modulus (GPa) = 33.10264 38.57513 35.83889
# Shear Modulus (GPa) = 20.35673 30.70441 25.53057
#
# Velocity S-wave (km/s) = 3.05592 3.75308 3.42230
# Velocity P-wave (km/s) = 5.25712 6.03963 5.66191
#
# Compressibility (1/GPa) = 0.03020907
#
# Stress axis : x y z
#
# Youngs Moduli (GPa) = 65.75636 39.42551 91.24738
#
# Poissons Ratio (x) = 0.24857 0.29359
# Poissons Ratio (y) = 0.41458 0.10391
# Poissons Ratio (z) = 0.21157 0.04490
#
# Static dielectric constant tensor:
#      x y z
#    x 1.919390 0.000000 0.061680 
#    y 0.000000 1.823530 0.000000 
#    z 0.061680 0.000000 1.876000 
# 
# From -- ./inp_files/31749.got.cif
#   From: 2010.05.17/outbox.cif.g08.bks.cpg/sg5_16_cif.got.tgz:31749.got - 2010.06.03 18:56:24.
