data_PCOD9129502
_publ_section_title
;
Structure prediction by ZEFSAII (Michael W. Deem and Ramdas Pophale) SiO2 
 PCOD9129502
Probable space group: C 2
;
_chemical_formula_sum "Si O2"
_cell_formula_units_Z 20
_cell_length_a 6.395598
_cell_length_b 8.367193
_cell_length_c 14.044187
_cell_angle_alpha 90.000000
_cell_angle_beta 78.055731
_cell_angle_gamma 90.000000
_cell_volume 735.277910
_symmetry_space_group_name_H-M "C 2"
_symmetry_group_IT_number 5
_symmetry_cell_setting 'monoclinic'
loop_
_space_group_symop_operation_xyz
x,y,z
-x,y,-z
1/2+x,1/2+y,z
1/2-x,1/2+y,-z
loop_
_atom_site_type_symbol
_atom_site_label
_atom_site_fract_x
_atom_site_fract_y
_atom_site_fract_z
Si Si1 0.794753 0.250000 0.850726
Si Si2 0.410554 0.267260 0.403993
Si Si3 0.347611 0.232033 0.788328
Si Si4 0.241260 0.455625 0.966425
Si Si5 0.566097 0.942173 0.325054
O O1 0.588442 0.196924 0.809326
O O2 0.967078 0.314476 0.757456
O O3 0.866706 0.101989 0.908660
O O4 0.714437 0.380212 0.935299
O O5 0.500000 0.294676 0.500000
O O6 0.584026 0.333885 0.311081
O O7 0.189796 0.349811 0.396516
O O8 0.408575 0.074741 0.384508
O O9 0.239135 0.318260 0.886589
O O10 0.278858 0.063964 0.749017
O O11 0.000000 0.518645 0.000000
#
# Coordination Sequence:
#
# PCOD9129502 Si02
#       5
#     4   4   4   4   4
#     4  11  22  41  64  93 144 192 245 299 368 435
#     4   9  20  43  74 103 139 186 245 305 375 435
#     4   9  22  44  65  94 138 190 239 301 359 445
#     4  12  24  36  62 101 142 191 250 299 368 438
#     4   9  20  42  74  95 144 187 239 306 364 447
#
# _framework density 27.200597999999999
#
# number of rings (size 3 to 8) (size 9 to 14) (size 15 to 20)
#    1.200    0.800    0.000    4.200    0.000    4.800 
#    7.200    1.000    0.000    0.000    0.000    0.000 
#    0.000    0.000    0.000    0.000    0.000    0.000 
#
# Total GULP energy -55846.614784 kJ/mol
# GULP energy per Si atom -5584.661478 kJ/mol
# Density = 2.713869 g / cm^3
# Si number density = 27.200598 Si / 1000 Ang^3
#
#
#
# Elastic Constant Matrix: (Units=GPa)
#
#
# Indices 1 2 3 4 5 6 
#
# 1 45.8238 37.3496 28.4485 0.0000 -4.0511 0.0000
# 2 37.3496 143.0121 46.4146 0.0000 23.5986 0.0000
# 3 28.4485 46.4146 202.9478 0.0000 43.3582 0.0000
# 4 0.0000 0.0000 0.0000 44.9764 0.0000 5.8146
# 5 -4.0511 23.5986 43.3582 0.0000 45.1236 0.0000
# 6 0.0000 0.0000 0.0000 5.8146 0.0000 48.8865
#
#
#
# Elastic Compliance Matrix: (Units=1/GPa)
#
#
# Indices 1 2 3 4 5 6 
#
# 1 0.033895 -0.009250 -0.005435 0.000000 0.013103 0.000000
# 2 -0.009250 0.010388 0.000326 0.000000 -0.006576 0.000000
# 3 -0.005435 0.000326 0.007242 0.000000 -0.007617 0.000000
# 4 0.000000 0.000000 0.000000 0.022581 0.000000 -0.002686
# 5 0.013103 -0.006576 -0.007617 0.000000 0.034096 0.000000
# 6 0.000000 0.000000 0.000000 -0.002686 0.000000 0.020775
#
#
# Mechanical properties :
#
#
# Convention : Reuss Voigt Hill
#
# Bulk Modulus (GPa) = 43.84868 68.46765 56.15817
# Shear Modulus (GPa) = 30.24845 46.43536 38.34190
#
# Velocity S-wave (km/s) = 3.33836 4.13624 3.75853
# Velocity P-wave (km/s) = 5.56911 6.93090 6.28699
#
# Compressibility (1/GPa) = 0.02280570
#
# Stress axis : x y z
#
# Youngs Moduli (GPa) = 29.50284 96.26837 138.08268
#
# Poissons Ratio (x) = 0.89052 0.75049
# Poissons Ratio (y) = 0.27291 -0.04501
# Poissons Ratio (z) = 0.16035 -0.03138
#
# Static dielectric constant tensor:
#      x y z
#    x 2.374610 0.000000 -0.000160 
#    y 0.000000 2.118120 0.000000 
#    z -0.000160 0.000000 2.098460 
# 
# From -- ./inp_files/49839.got.cif
#   From: 2010.05.17/outbox.cif.g08.bks.cpg/sg5_25_cif.got.tgz:49839.got - 2010.06.03 18:56:24.
