data_PCOD9129966
_publ_section_title
;
Structure prediction by ZEFSAII (Michael W. Deem and Ramdas Pophale) SiO2 
 PCOD9129966
Probable space group: C 2
;
_chemical_formula_sum "Si O2"
_cell_formula_units_Z 20
_cell_length_a 19.384630
_cell_length_b 5.254641
_cell_length_c 14.812491
_cell_angle_alpha 90.000000
_cell_angle_beta 149.521747
_cell_angle_gamma 90.000000
_cell_volume 765.275089
_symmetry_space_group_name_H-M "C 2"
_symmetry_group_IT_number 5
_symmetry_cell_setting 'monoclinic'
loop_
_space_group_symop_operation_xyz
x,y,z
-x,y,-z
1/2+x,1/2+y,z
1/2-x,1/2+y,-z
loop_
_atom_site_type_symbol
_atom_site_label
_atom_site_fract_x
_atom_site_fract_y
_atom_site_fract_z
Si Si1 0.548470 0.736880 0.227926
Si Si2 0.647849 0.314104 0.664581
Si Si3 0.315140 0.994747 0.472650
Si Si4 0.365342 0.105487 0.832974
Si Si5 0.734353 0.527395 0.042236
O O1 0.556718 0.930772 0.321301
O O2 0.689917 0.584092 0.393734
O O3 0.568741 0.893942 0.158801
O O4 0.418150 0.561245 0.089969
O O5 0.500000 0.441476 0.500000
O O6 0.781299 0.491014 0.821708
O O7 0.665444 0.101759 0.761990
O O8 0.657125 0.192533 0.575590
O O9 0.251978 0.754248 0.350590
O O10 0.500000 0.276373 0.000000
O O11 0.751609 0.254058 0.015829
#
# Coordination Sequence:
#
# PCOD9129966 Si02
#       5
#     4   4   4   4   4
#     4  11  24  45  69 105 138 187 243 294 364 430
#     4  11  27  46  68 103 141 191 240 295 365 427
#     4  11  25  41  74  98 142 185 241 300 356 433
#     4  11  24  43  72 101 138 183 235 302 356 430
#     4  12  30  48  75 104 148 193 242 300 363 430
#
# _framework density 26.134395000000001
#
# number of rings (size 3 to 8) (size 9 to 14) (size 15 to 20)
#    0.000    0.800    4.000    1.200   11.200    0.800 
#    0.000    0.000    0.000    0.000    0.000    0.000 
#    0.000    0.000    0.000    0.000    0.000    0.000 
#
# Total GULP energy -55990.578987 kJ/mol
# GULP energy per Si atom -5599.057899 kJ/mol
# Density = 2.607491 g / cm^3
# Si number density = 26.134395 Si / 1000 Ang^3
#
#
#
# Elastic Constant Matrix: (Units=GPa)
#
#
# Indices 1 2 3 4 5 6 
#
# 1 125.6033 30.7362 32.8233 0.0001 15.7061 0.0001
# 2 30.7362 69.3245 -6.4251 0.0012 2.5997 0.0003
# 3 32.8233 -6.4251 92.3909 0.0001 20.1207 0.0002
# 4 0.0001 0.0012 0.0001 23.7804 0.0000 -9.8403
# 5 15.7061 2.5997 20.1207 0.0000 54.8558 -0.0001
# 6 0.0001 0.0003 0.0002 -9.8403 -0.0001 41.6759
#
#
#
# Elastic Compliance Matrix: (Units=1/GPa)
#
#
# Indices 1 2 3 4 5 6 
#
# 1 0.010284 -0.004851 -0.003695 0.000000 -0.001359 0.000000
# 2 -0.004851 0.016874 0.003009 -0.000001 -0.000514 0.000000
# 3 -0.003695 0.003009 0.013201 0.000000 -0.003927 0.000000
# 4 0.000000 -0.000001 0.000000 0.046605 0.000000 0.011004
# 5 -0.001359 -0.000514 -0.003927 0.000000 0.020083 0.000000
# 6 0.000000 0.000000 0.000000 0.011004 0.000000 0.026593
#
#
# Mechanical properties :
#
#
# Convention : Reuss Voigt Hill
#
# Bulk Modulus (GPa) = 34.14788 44.62083 39.38435
# Shear Modulus (GPa) = 32.36749 39.40805 35.88777
#
# Velocity S-wave (km/s) = 3.52305 3.88738 3.70969
# Velocity P-wave (km/s) = 5.44461 6.10407 5.78375
#
# Compressibility (1/GPa) = 0.02928440
#
# Stress axis : x y z
#
# Youngs Moduli (GPa) = 97.23578 59.26301 75.75387
#
# Poissons Ratio (x) = 0.28750 0.27991
# Poissons Ratio (y) = 0.47171 -0.22794
# Poissons Ratio (z) = 0.35928 -0.17832
#
# Static dielectric constant tensor:
#      x y z
#    x 2.048730 0.000000 -0.056630 
#    y 0.000000 2.155250 0.000000 
#    z -0.056630 0.000000 2.171790 
# 
# From -- ./inp_files/28207.got.cif
#   From: 2010.05.17/outbox.cif.g08.bks.cpg/sg5_15_cif.got.tgz:28207.got - 2010.06.03 18:56:24.
