data_PCOD9129199
_publ_section_title
;
Structure prediction by ZEFSAII (Michael W. Deem and Ramdas Pophale) SiO2 
 PCOD9129199
Probable space group: C 2
;
_chemical_formula_sum "Si O2"
_cell_formula_units_Z 30
_cell_length_a 17.568641
_cell_length_b 15.149365
_cell_length_c 11.544388
_cell_angle_alpha 90.000000
_cell_angle_beta 30.065457
_cell_angle_gamma 90.000000
_cell_volume 1539.330063
_symmetry_space_group_name_H-M "C 2"
_symmetry_group_IT_number 5
_symmetry_cell_setting 'monoclinic'
loop_
_space_group_symop_operation_xyz
x,y,z
-x,y,-z
1/2+x,1/2+y,z
1/2-x,1/2+y,-z
loop_
_atom_site_type_symbol
_atom_site_label
_atom_site_fract_x
_atom_site_fract_y
_atom_site_fract_z
Si Si1 0.181792 0.235700 0.730649
Si Si2 0.559962 0.218440 0.789060
Si Si3 0.500000 0.417349 0.500000
Si Si4 0.329758 0.290588 0.901164
Si Si5 0.762312 0.438227 0.302339
Si Si6 0.465285 0.010549 0.212893
Si Si7 0.385759 0.945952 0.751319
Si Si8 0.182337 0.627334 0.242699
O O1 0.265233 0.229372 0.492975
O O2 0.236507 0.332503 0.698503
O O3 0.249336 0.159968 0.725487
O O4 0.000000 0.234451 0.000000
O O5 0.449941 0.268971 0.843903
O O6 0.531900 0.114540 0.808720
O O7 0.500000 0.239692 0.000000
O O8 0.406217 0.352106 0.704263
O O9 0.609803 0.470570 0.441117
O O10 0.279569 0.200139 0.905009
O O11 0.197244 0.354720 0.116053
O O12 0.807172 0.473073 0.370166
O O13 0.899476 0.469472 0.041180
O O14 0.511370 0.981666 0.279291
O O15 0.500000 0.927812 0.500000
O O16 0.279998 0.028749 0.850908
O O17 0.000000 0.629584 0.500000
#
# Coordination Sequence:
#
# PCOD9129199 Si02
#       8
#     4   4   2   4   4   4   4   4
#     4  12  23  42  69 103 128 175 236 284 319 395
#     4  12  24  43  67  97 142 181 213 274 361 408
#     4  12  20  40  70 100 122 170 236 278 314 388
#     4  12  21  40  69  97 129 176 227 273 334 403
#     4  11  21  38  72  96 123 173 231 282 312 403
#     4  11  21  42  69  97 124 179 233 263 331 410
#     4  11  24  40  68  99 135 174 224 278 335 403
#     4  11  19  43  74  91 125 189 229 265 328 415
#
# _framework density 19.488997999999999
#
# number of rings (size 3 to 8) (size 9 to 14) (size 15 to 20)
#    0.000    0.533   10.000    0.800    0.000    1.067 
#    2.400    0.667    2.933    0.000    0.000    0.000 
#    0.000    0.000    0.000    0.000    0.000    0.000 
#
# Total GULP energy -83575.112484 kJ/mol
# GULP energy per Si atom -5571.674166 kJ/mol
# Density = 1.944464 g / cm^3
# Si number density = 19.488998 Si / 1000 Ang^3
#
#
#
# Elastic Constant Matrix: (Units=GPa)
#
#
# Indices 1 2 3 4 5 6 
#
# 1 91.7161 17.6590 33.8469 -0.0001 3.4498 0.0000
# 2 17.6590 76.1937 28.6949 -0.0001 4.0938 0.0000
# 3 33.8469 28.6949 103.5722 -0.0003 20.2683 0.0001
# 4 -0.0001 -0.0001 -0.0003 23.4322 0.0001 1.6644
# 5 3.4498 4.0938 20.2683 0.0001 36.4727 0.0000
# 6 0.0000 0.0000 0.0001 1.6644 0.0000 30.5878
#
#
#
# Elastic Compliance Matrix: (Units=1/GPa)
#
#
# Indices 1 2 3 4 5 6 
#
# 1 0.012598 -0.001503 -0.003928 0.000000 0.001160 0.000000
# 2 -0.001503 0.014848 -0.003730 0.000000 0.000548 0.000000
# 3 -0.003928 -0.003730 0.013259 0.000000 -0.006578 0.000000
# 4 0.000000 0.000000 0.000000 0.042842 0.000000 -0.002331
# 5 0.001160 0.000548 -0.006578 0.000000 0.030902 0.000000
# 6 0.000000 0.000000 0.000000 -0.002331 0.000000 0.032820
#
#
# Mechanical properties :
#
#
# Convention : Reuss Voigt Hill
#
# Bulk Modulus (GPa) = 44.67313 47.98709 46.33011
# Shear Modulus (GPa) = 28.89308 30.85062 29.87185
#
# Velocity S-wave (km/s) = 3.85454 3.98298 3.91929
# Velocity P-wave (km/s) = 6.54080 6.76966 6.65621
#
# Compressibility (1/GPa) = 0.02238482
#
# Stress axis : x y z
#
# Youngs Moduli (GPa) = 79.37498 67.34922 75.41887
#
# Poissons Ratio (x) = 0.10123 0.29622
# Poissons Ratio (y) = 0.11930 0.28130
# Poissons Ratio (z) = 0.31176 0.25120
#
# Static dielectric constant tensor:
#      x y z
#    x 1.766760 0.000000 0.024550 
#    y 0.000000 1.673500 0.000000 
#    z 0.024550 0.000000 1.718050 
# 
# From -- ./inp_files/44900.got.cif
#   From: 2010.05.17/outbox.cif.g08.bks.cpg/sg5_23_cif.got.tgz:44900.got - 2010.06.03 18:56:24.
