data_PCOD9129162
_publ_section_title
;
Structure prediction by ZEFSAII (Michael W. Deem and Ramdas Pophale) SiO2 
 PCOD9129162
Probable space group: C 2
;
_chemical_formula_sum "Si O2"
_cell_formula_units_Z 20
_cell_length_a 17.645401
_cell_length_b 9.096426
_cell_length_c 7.504598
_cell_angle_alpha 90.000000
_cell_angle_beta 42.414311
_cell_angle_gamma 90.000000
_cell_volume 812.462304
_symmetry_space_group_name_H-M "C 2"
_symmetry_group_IT_number 5
_symmetry_cell_setting 'monoclinic'
loop_
_space_group_symop_operation_xyz
x,y,z
-x,y,-z
1/2+x,1/2+y,z
1/2-x,1/2+y,-z
loop_
_atom_site_type_symbol
_atom_site_label
_atom_site_fract_x
_atom_site_fract_y
_atom_site_fract_z
Si Si1 0.780576 0.274770 0.520063
Si Si2 0.642707 0.201754 0.087099
Si Si3 0.008432 0.140628 0.692132
Si Si4 0.774811 0.016874 0.128849
Si Si5 0.932079 0.818619 0.307758
O O1 0.909766 0.234460 0.324524
O O2 0.766656 0.441238 0.618788
O O3 0.695809 0.271979 0.501439
O O4 0.714861 0.174562 0.781900
O O5 0.684436 0.094411 0.164525
O O6 0.511367 0.204858 0.272889
O O7 0.677638 0.372423 0.059947
O O8 0.000000 0.191044 0.500000
O O9 0.059101 0.976286 0.614891
O O10 0.880937 0.121751 0.977426
O O11 0.000000 0.836981 0.000000
#
# Coordination Sequence:
#
# PCOD9129162 Si02
#       5
#     4   4   4   4   4
#     4   9  19  33  57  87 115 155 198 250 288 354
#     4   8  16  31  58  82 114 155 191 232 305 339
#     4  11  18  33  61  86 113 154 205 235 292 362
#     4   9  17  33  57  89 113 155 192 245 298 339
#     4   9  18  36  57  81 119 162 186 244 309 345
#
# _framework density 24.616527000000001
#
# number of rings (size 3 to 8) (size 9 to 14) (size 15 to 20)
#    1.200    1.600    4.000    0.000    0.000    0.000 
#    0.000    8.000    0.000    3.600   10.400    0.000 
#    0.000    0.000    0.000    0.000    0.000    0.000 
#
# Total GULP energy -55838.091716 kJ/mol
# GULP energy per Si atom -5583.809172 kJ/mol
# Density = 2.456050 g / cm^3
# Si number density = 24.616527 Si / 1000 Ang^3
#
#
#
# Elastic Constant Matrix: (Units=GPa)
#
#
# Indices 1 2 3 4 5 6 
#
# 1 202.6111 56.8665 20.9588 0.0000 -34.4724 0.0000
# 2 56.8665 38.7621 25.9468 0.0000 -23.2546 0.0000
# 3 20.9588 25.9468 46.5579 0.0000 -11.9290 0.0000
# 4 0.0000 0.0000 0.0000 16.6725 0.0000 -3.5206
# 5 -34.4724 -23.2546 -11.9290 0.0000 46.4306 0.0000
# 6 0.0000 0.0000 0.0000 -3.5206 0.0000 45.1654
#
#
#
# Elastic Compliance Matrix: (Units=1/GPa)
#
#
# Indices 1 2 3 4 5 6 
#
# 1 0.009169 -0.017396 0.005437 0.000000 -0.000508 0.000000
# 2 -0.017396 0.088735 -0.035907 0.000000 0.022301 0.000000
# 3 0.005437 -0.035907 0.037968 0.000000 -0.004192 0.000000
# 4 0.000000 0.000000 0.000000 0.060983 0.000000 0.004754
# 5 -0.000508 0.022301 -0.004192 0.000000 0.031253 0.000000
# 6 0.000000 0.000000 0.000000 0.004754 0.000000 0.022511
#
#
# Mechanical properties :
#
#
# Convention : Reuss Voigt Hill
#
# Bulk Modulus (GPa) = 24.91294 55.05282 39.98288
# Shear Modulus (GPa) = 13.89931 33.93096 23.91514
#
# Velocity S-wave (km/s) = 2.37878 3.71668 3.12028
# Velocity P-wave (km/s) = 4.20561 6.38992 5.40917
#
# Compressibility (1/GPa) = 0.04013978
#
# Stress axis : x y z
#
# Youngs Moduli (GPa) = 109.06016 11.26957 26.33815
#
# Poissons Ratio (x) = 0.19605 -0.14320
# Poissons Ratio (y) = 1.89724 0.94571
# Poissons Ratio (z) = -0.59297 0.40465
#
# Static dielectric constant tensor:
#      x y z
#    x 1.951670 0.000000 0.045280 
#    y 0.000000 1.942310 0.000000 
#    z 0.045280 0.000000 2.023550 
# 
# From -- ./inp_files/26378.got.cif
#   From: 2010.05.17/outbox.cif.g08.bks.cpg/sg5_14_cif.got.tgz:26378.got - 2010.06.03 18:56:24.
