data_PCOD9129043
_publ_section_title
;
Structure prediction by ZEFSAII (Michael W. Deem and Ramdas Pophale) SiO2 
 PCOD9129043
Probable space group: C 2
;
_chemical_formula_sum "Si O2"
_cell_formula_units_Z 20
_cell_length_a 7.621780
_cell_length_b 9.782039
_cell_length_c 10.989587
_cell_angle_alpha 90.000000
_cell_angle_beta 89.426930
_cell_angle_gamma 90.000000
_cell_volume 819.304701
_symmetry_space_group_name_H-M "C 2"
_symmetry_group_IT_number 5
_symmetry_cell_setting 'monoclinic'
loop_
_space_group_symop_operation_xyz
x,y,z
-x,y,-z
1/2+x,1/2+y,z
1/2-x,1/2+y,-z
loop_
_atom_site_type_symbol
_atom_site_label
_atom_site_fract_x
_atom_site_fract_y
_atom_site_fract_z
Si Si1 0.500000 0.679330 0.500000
Si Si2 0.363598 0.251398 0.395059
Si Si3 0.000000 0.694950 0.000000
Si Si4 0.148531 0.248136 0.896934
Si Si5 0.352246 0.017541 0.222908
Si Si6 0.437957 0.512126 0.261899
O O1 0.666315 0.759343 0.446222
O O2 0.422679 0.585532 0.392777
O O3 0.500000 0.286137 0.500000
O O4 0.405454 0.100299 0.342960
O O5 0.384566 0.356720 0.283701
O O6 0.926396 0.598086 0.106872
O O7 0.163896 0.782496 0.046134
O O8 0.100276 0.359105 0.794302
O O9 0.166355 0.099689 0.835669
O O10 0.000000 0.247603 0.000000
O O11 0.141494 0.024382 0.225644
#
# Coordination Sequence:
#
# PCOD9129043 Si02
#       6
#     2   4   2   4   4   4
#     4  10  26  46  74 114 150 200 250 316 372 442
#     4  11  26  53  76 113 154 199 254 313 377 454
#     4  12  26  46  80 110 146 210 252 306 382 442
#     4  12  27  50  75 113 153 199 257 313 371 451
#     4  11  26  49  77 111 151 201 252 310 384 441
#     4  11  25  51  75 111 160 194 251 318 370 451
#
# _framework density 24.410943
#
# number of rings (size 3 to 8) (size 9 to 14) (size 15 to 20)
#    0.000    0.800    4.000    1.200    5.600    6.400 
#    5.400    0.000    0.000    1.200    0.000    0.000 
#    0.000    0.000    0.000    0.000    0.000    0.000 
#
# Total GULP energy -56056.116114 kJ/mol
# GULP energy per Si atom -5605.611611 kJ/mol
# Density = 2.435538 g / cm^3
# Si number density = 24.410943 Si / 1000 Ang^3
#
#
#
# Elastic Constant Matrix: (Units=GPa)
#
#
# Indices 1 2 3 4 5 6 
#
# 1 108.6626 35.9395 54.5660 0.0000 -17.7668 0.0000
# 2 35.9395 112.3126 39.1546 0.0000 -0.0864 0.0000
# 3 54.5660 39.1546 85.9895 0.0000 -17.2247 0.0000
# 4 0.0000 0.0000 0.0000 46.3940 0.0000 -3.7575
# 5 -17.7668 -0.0864 -17.2247 0.0000 40.9146 0.0000
# 6 0.0000 0.0000 0.0000 -3.7575 0.0000 20.1441
#
#
#
# Elastic Compliance Matrix: (Units=1/GPa)
#
#
# Indices 1 2 3 4 5 6 
#
# 1 0.014064 -0.001894 -0.007469 0.000000 0.002959 0.000000
# 2 -0.001894 0.011022 -0.004343 0.000000 -0.002628 0.000000
# 3 -0.007469 -0.004343 0.019325 0.000000 0.004883 0.000000
# 4 0.000000 0.000000 0.000000 0.021885 0.000000 0.004082
# 5 0.002959 -0.002628 0.004883 0.000000 0.027776 0.000000
# 6 0.000000 0.000000 0.000000 0.004082 0.000000 0.050404
#
#
# Mechanical properties :
#
#
# Convention : Reuss Voigt Hill
#
# Bulk Modulus (GPa) = 58.83253 62.92056 60.87654
# Shear Modulus (GPa) = 28.16038 33.31084 30.73561
#
# Velocity S-wave (km/s) = 3.40015 3.69804 3.55222
# Velocity P-wave (km/s) = 6.29030 6.63818 6.46658
#
# Compressibility (1/GPa) = 0.01699740
#
# Stress axis : x y z
#
# Youngs Moduli (GPa) = 71.10458 90.72822 51.74692
#
# Poissons Ratio (x) = 0.17185 0.38651
# Poissons Ratio (y) = 0.13468 0.22474
# Poissons Ratio (z) = 0.53110 0.39405
#
# Static dielectric constant tensor:
#      x y z
#    x 1.876590 0.000000 0.006100 
#    y 0.000000 1.939470 0.000000 
#    z 0.006100 0.000000 1.891620 
# 
# From -- ./inp_files/34755.got.cif
#   From: 2010.05.17/outbox.cif.g08.bks.cpg/sg5_18_cif.got.tgz:34755.got - 2010.06.03 18:56:24.
