data_PCOD9129325
_publ_section_title
;
Structure prediction by ZEFSAII (Michael W. Deem and Ramdas Pophale) SiO2 
 PCOD9129325
Probable space group: C 2
;
_chemical_formula_sum "Si O2"
_cell_formula_units_Z 24
_cell_length_a 18.935658
_cell_length_b 14.601846
_cell_length_c 9.395036
_cell_angle_alpha 90.000000
_cell_angle_beta 152.899138
_cell_angle_gamma 90.000000
_cell_volume 1183.397309
_symmetry_space_group_name_H-M "C 2"
_symmetry_group_IT_number 5
_symmetry_cell_setting 'monoclinic'
loop_
_space_group_symop_operation_xyz
x,y,z
-x,y,-z
1/2+x,1/2+y,z
1/2-x,1/2+y,-z
loop_
_atom_site_type_symbol
_atom_site_label
_atom_site_fract_x
_atom_site_fract_y
_atom_site_fract_z
Si Si1 0.031111 0.863680 0.712475
Si Si2 0.607713 0.832241 0.559112
Si Si3 0.378913 0.495974 0.671100
Si Si4 0.090318 0.483069 0.312562
Si Si5 0.913658 0.693040 0.637605
Si Si6 0.752028 0.189541 0.385917
O O1 0.000000 0.901745 0.500000
O O2 0.936905 0.766516 0.554830
O O3 0.215785 0.854719 0.072489
O O4 0.957214 0.928718 0.700267
O O5 0.500000 0.812507 0.500000
O O6 0.535624 0.914209 0.335347
O O7 0.627370 0.748139 0.486029
O O8 0.255900 0.446453 0.553386
O O9 0.294710 0.582830 0.451301
O O10 0.500000 0.536681 0.000000
O O11 0.105421 0.583447 0.411562
O O12 0.000000 0.490187 0.000000
O O13 0.775485 0.717423 0.499194
O O14 0.081674 0.702565 0.013980
#
# Coordination Sequence:
#
# PCOD9129325 Si02
#       6
#     4   4   4   4   4   4
#     4  11  25  41  62  88 125 169 200 241 305 368
#     4  11  25  42  59  90 129 162 198 250 305 361
#     4  11  21  39  66  93 117 155 209 256 299 353
#     4  11  21  39  68  93 117 158 205 254 301 356
#     4   9  18  39  66  87 114 157 206 243 298 360
#     4   9  19  39  63  89 117 154 199 256 298 347
#
# _framework density 20.280594000000001
#
# number of rings (size 3 to 8) (size 9 to 14) (size 15 to 20)
#    0.000    1.667    5.000    1.000    4.667    2.000 
#    6.000    3.333    0.000    0.000    0.000    0.000 
#    0.000    0.000    0.000    0.000    0.000    0.000 
#
# Total GULP energy -66865.535285 kJ/mol
# GULP energy per Si atom -5572.127940 kJ/mol
# Density = 2.023443 g / cm^3
# Si number density = 20.280594 Si / 1000 Ang^3
#
#
#
# Elastic Constant Matrix: (Units=GPa)
#
#
# Indices 1 2 3 4 5 6 
#
# 1 128.6791 53.6115 13.2087 0.0000 19.4439 0.0000
# 2 53.6115 79.1019 -0.4302 0.0000 3.4416 0.0000
# 3 13.2087 -0.4302 33.3173 0.0000 2.9135 0.0000
# 4 0.0000 0.0000 0.0000 20.5334 0.0000 2.7447
# 5 19.4439 3.4416 2.9135 0.0000 27.9501 0.0000
# 6 0.0000 0.0000 0.0000 2.7447 0.0000 6.2752
#
#
#
# Elastic Compliance Matrix: (Units=1/GPa)
#
#
# Indices 1 2 3 4 5 6 
#
# 1 0.012875 -0.008427 -0.004562 0.000000 -0.007444 0.000000
# 2 -0.008427 0.018229 0.003290 0.000000 0.003275 0.000000
# 3 -0.004562 0.003290 0.031915 0.000000 -0.000558 0.000000
# 4 0.000000 0.000000 0.000000 0.051725 0.000000 -0.022624
# 5 -0.007444 0.003275 -0.000558 0.000000 0.040611 0.000000
# 6 0.000000 0.000000 0.000000 -0.022624 0.000000 0.169252
#
#
# Mechanical properties :
#
#
# Convention : Reuss Voigt Hill
#
# Bulk Modulus (GPa) = 22.92551 41.54206 32.23378
# Shear Modulus (GPa) = 13.94519 22.59896 18.27208
#
# Velocity S-wave (km/s) = 2.62508 3.34176 3.00486
# Velocity P-wave (km/s) = 4.52954 5.95129 5.28842
#
# Compressibility (1/GPa) = 0.04361953
#
# Stress axis : x y z
#
# Youngs Moduli (GPa) = 77.66723 54.85779 31.33370
#
# Poissons Ratio (x) = 0.46230 0.14296
# Poissons Ratio (y) = 0.65453 -0.10309
# Poissons Ratio (z) = 0.35435 -0.18048
#
# Static dielectric constant tensor:
#      x y z
#    x 1.710170 0.000000 0.029800 
#    y 0.000000 1.743130 0.000000 
#    z 0.029800 0.000000 1.777420 
# 
# From -- ./inp_files/27759.got.cif
#   From: 2010.05.17/outbox.cif.g08.bks.cpg/sg5_14_cif.got.tgz:27759.got - 2010.06.03 18:56:24.
