data_PCOD9129668
_publ_section_title
;
Structure prediction by ZEFSAII (Michael W. Deem and Ramdas Pophale) SiO2 
 PCOD9129668
Probable space group: C 2
;
_chemical_formula_sum "Si O2"
_cell_formula_units_Z 30
_cell_length_a 5.181084
_cell_length_b 17.972404
_cell_length_c 15.329876
_cell_angle_alpha 90.000000
_cell_angle_beta 93.616186
_cell_angle_gamma 90.000000
_cell_volume 1424.622779
_symmetry_space_group_name_H-M "C 2"
_symmetry_group_IT_number 5
_symmetry_cell_setting 'monoclinic'
loop_
_space_group_symop_operation_xyz
x,y,z
-x,y,-z
1/2+x,1/2+y,z
1/2-x,1/2+y,-z
loop_
_atom_site_type_symbol
_atom_site_label
_atom_site_fract_x
_atom_site_fract_y
_atom_site_fract_z
Si Si1 0.132108 0.234510 0.598342
Si Si2 0.156157 0.641612 0.634136
Si Si3 0.379743 0.427039 0.405640
Si Si4 0.463269 0.853414 0.093166
Si Si5 0.985978 0.350902 0.718198
Si Si6 0.037256 0.954580 0.907492
Si Si7 0.777296 0.003080 0.732809
Si Si8 0.000000 0.531311 0.500000
O O1 0.397022 0.188274 0.609604
O O2 0.168091 0.310736 0.652179
O O3 0.000000 0.245747 0.500000
O O4 0.907711 0.191804 0.646751
O O5 0.144407 0.582080 0.712112
O O6 0.193337 0.587758 0.551283
O O7 0.500000 0.400428 0.500000
O O8 0.557718 0.477405 0.348029
O O9 0.145616 0.479313 0.434778
O O10 0.274768 0.362030 0.341807
O O11 0.521775 0.813796 0.186774
O O12 0.678126 0.919522 0.093155
O O13 0.173712 0.886909 0.093070
O O14 0.500000 0.813961 0.000000
O O15 0.079900 0.434757 0.739776
O O16 0.959913 0.001625 0.821445
O O17 0.000000 0.993866 0.000000
#
# Coordination Sequence:
#
# PCOD9129668 Si02
#       8
#     4   4   4   4   4   4   4   2
#     4  12  28  41  58  84 129 167 205 254 312 360
#     4  12  25  43  60  84 120 171 213 245 297 374
#     4  12  22  34  60  92 126 157 212 263 308 353
#     4   9  18  35  60  89 124 156 195 250 314 377
#     4  11  25  39  59  95 123 159 209 262 318 363
#     4   9  18  34  58  95 126 149 191 260 321 362
#     4  11  23  38  67  89 122 163 215 258 305 375
#     4  12  22  38  56  86 114 170 208 248 290 370
#
# _framework density 21.058205999999998
#
# number of rings (size 3 to 8) (size 9 to 14) (size 15 to 20)
#    0.000    1.067    5.333    0.800    4.667    0.000 
#    0.000    0.000    0.000    0.800    0.000    3.733 
#    0.000    0.000    0.000    0.000    0.000    0.000 
#
# Total GULP energy -83674.628550 kJ/mol
# GULP energy per Si atom -5578.308570 kJ/mol
# Density = 2.101028 g / cm^3
# Si number density = 21.058206 Si / 1000 Ang^3
#
#
#
# Elastic Constant Matrix: (Units=GPa)
#
#
# Indices 1 2 3 4 5 6 
#
# 1 97.9708 12.3423 23.6659 0.0000 -2.0317 0.0000
# 2 12.3423 41.6796 20.8521 0.0000 3.2543 0.0000
# 3 23.6659 20.8521 167.8030 0.0000 15.2328 0.0000
# 4 0.0000 0.0000 0.0000 0.7610 0.0000 -2.5505
# 5 -2.0317 3.2543 15.2328 0.0000 34.2867 0.0000
# 6 0.0000 0.0000 0.0000 -2.5505 0.0000 27.5587
#
#
#
# Elastic Compliance Matrix: (Units=1/GPa)
#
#
# Indices 1 2 3 4 5 6 
#
# 1 0.010899 -0.002673 -0.001341 0.000000 0.001495 0.000000
# 2 -0.002673 0.026276 -0.002759 0.000000 -0.001427 0.000000
# 3 -0.001341 -0.002759 0.006747 0.000000 -0.002815 0.000000
# 4 0.000000 0.000000 0.000000 1.904959 0.000000 0.176301
# 5 0.001495 -0.001427 -0.002815 0.000000 0.030641 0.000000
# 6 0.000000 0.000000 0.000000 0.176301 0.000000 0.052603
#
#
# Mechanical properties :
#
#
# Convention : Reuss Voigt Hill
#
# Bulk Modulus (GPa) = 32.92072 46.79712 39.85892
# Shear Modulus (GPa) = 2.43215 29.22749 15.82982
#
# Velocity S-wave (km/s) = 1.07586 3.72955 2.74472
# Velocity P-wave (km/s) = 4.14855 6.38882 5.38644
#
# Compressibility (1/GPa) = 0.03037601
#
# Stress axis : x y z
#
# Youngs Moduli (GPa) = 91.75352 38.05798 148.21879
#
# Poissons Ratio (x) = 0.10174 0.19870
# Poissons Ratio (y) = 0.24530 0.40887
# Poissons Ratio (z) = 0.12301 0.10499
#
# Static dielectric constant tensor:
#      x y z
#    x 1.814640 0.000000 0.036000 
#    y 0.000000 1.836730 0.000000 
#    z 0.036000 0.000000 1.842770 
# 
# From -- ./inp_files/49217.got.cif
#   From: 2010.05.17/outbox.cif.g08.bks.cpg/sg5_25_cif.got.tgz:49217.got - 2010.06.03 18:56:24.
