data_PCOD9129563
_publ_section_title
;
Structure prediction by ZEFSAII (Michael W. Deem and Ramdas Pophale) SiO2 
 PCOD9129563
Probable space group: C 2
;
_chemical_formula_sum "Si O2"
_cell_formula_units_Z 30
_cell_length_a 7.367562
_cell_length_b 12.094311
_cell_length_c 18.279503
_cell_angle_alpha 90.000000
_cell_angle_beta 52.515306
_cell_angle_gamma 90.000000
_cell_volume 1292.483383
_symmetry_space_group_name_H-M "C 2"
_symmetry_group_IT_number 5
_symmetry_cell_setting 'monoclinic'
loop_
_space_group_symop_operation_xyz
x,y,z
-x,y,-z
1/2+x,1/2+y,z
1/2-x,1/2+y,-z
loop_
_atom_site_type_symbol
_atom_site_label
_atom_site_fract_x
_atom_site_fract_y
_atom_site_fract_z
Si Si1 0.439406 0.144700 0.627844
Si Si2 0.529869 0.388273 0.340727
Si Si3 0.410595 0.132411 0.887925
Si Si4 0.500000 0.780350 0.000000
Si Si5 0.246398 0.469561 0.856059
Si Si6 0.732452 0.778117 0.290872
Si Si7 0.250073 0.487695 0.201388
Si Si8 0.633334 0.600824 0.564739
O O1 0.379079 0.273515 0.650546
O O2 0.367251 0.076766 0.716220
O O3 0.297729 0.096020 0.595361
O O4 0.706831 0.134148 0.542002
O O5 0.690416 0.452919 0.244482
O O6 0.325186 0.348080 0.337135
O O7 0.463552 0.477362 0.417545
O O8 0.208714 0.203025 0.973163
O O9 0.558364 0.211458 0.797860
O O10 0.297330 0.033923 0.867448
O O11 0.588914 0.076529 0.898549
O O12 0.606109 0.862108 0.914295
O O13 0.479451 0.481434 0.845157
O O14 0.550374 0.692041 0.366444
O O15 0.654625 0.867737 0.249137
#
# Coordination Sequence:
#
# PCOD9129563 Si02
#       8
#     4   4   4   2   4   4   4   4
#     4  11  23  40  65  98 135 180 232 291 328 405
#     4  11  22  45  65  90 137 178 220 285 337 405
#     4  12  25  46  72 102 135 180 232 281 353 420
#     4  12  26  48  70 108 138 170 242 290 332 438
#     4  11  25  49  70 100 142 176 226 292 348 413
#     4  11  22  43  66  94 132 181 225 275 349 412
#     4  11  23  47  72  99 139 188 228 282 355 409
#     4  11  25  39  63 101 134 181 236 276 345 406
#
# _framework density 23.211129
#
# number of rings (size 3 to 8) (size 9 to 14) (size 15 to 20)
#    0.000    0.800    8.000    0.000    5.600    0.533 
#    2.400    1.333    0.000    0.000    0.000    0.000 
#    0.000    0.000    0.000    0.000    0.000    0.000 
#
# Total GULP energy -83923.531416 kJ/mol
# GULP energy per Si atom -5594.902094 kJ/mol
# Density = 2.315830 g / cm^3
# Si number density = 23.211129 Si / 1000 Ang^3
#
#
#
# Elastic Constant Matrix: (Units=GPa)
#
#
# Indices 1 2 3 4 5 6 
#
# 1 34.7365 27.6837 31.6896 -0.0002 -4.6513 0.0000
# 2 27.6837 144.2892 37.5617 -0.0003 -22.6684 0.0001
# 3 31.6896 37.5617 99.0652 -0.0005 -33.7685 0.0002
# 4 -0.0002 -0.0003 -0.0005 -21.6891 0.0003 19.2763
# 5 -4.6513 -22.6684 -33.7685 0.0003 34.7824 -0.0001
# 6 0.0000 0.0001 0.0002 19.2763 -0.0001 24.9437
#
#
#
# Elastic Compliance Matrix: (Units=1/GPa)
#
#
# Indices 1 2 3 4 5 6 
#
# 1 0.049212 -0.007146 -0.018499 0.000000 -0.016036 0.000000
# 2 -0.007146 0.008982 0.000822 0.000000 0.005696 0.000000
# 3 -0.018499 0.000822 0.022479 0.000000 0.019885 0.000000
# 4 0.000000 0.000000 0.000000 -0.027333 0.000000 0.021123
# 5 -0.016036 0.005696 0.019885 0.000000 0.049623 0.000000
# 6 0.000000 0.000000 0.000000 0.021123 0.000000 0.023767
#
#
# Mechanical properties :
#
#
# Convention : Reuss Voigt Hill
#
# Bulk Modulus (GPa) = 32.22977 52.44011 42.33494
# Shear Modulus (GPa) = 26.77825 19.68447 23.23136
#
# Velocity S-wave (km/s) = 3.40027 2.91531 3.16709
# Velocity P-wave (km/s) = 5.41585 5.82870 5.62606
#
# Compressibility (1/GPa) = 0.03102721
#
# Stress axis : x y z
#
# Youngs Moduli (GPa) = 20.32021 111.32768 44.48659
#
# Poissons Ratio (x) = 0.79549 0.82296
# Poissons Ratio (y) = 0.14520 -0.03655
# Poissons Ratio (z) = 0.37591 -0.09147
#
# Static dielectric constant tensor:
#      x y z
#    x 1.889510 0.000000 -0.027910 
#    y 0.000000 1.851580 0.000000 
#    z -0.027910 0.000000 1.888020 
# 
# From -- ./inp_files/50301.got.cif
#   From: 2010.05.17/outbox.cif.g08.bks.cpg/sg5_26_cif.got.tgz:50301.got - 2010.06.03 18:56:24.
