data_PCOD9129839
_publ_section_title
;
Structure prediction by ZEFSAII (Michael W. Deem and Ramdas Pophale) SiO2 
 PCOD9129839
Probable space group: C 2
;
_chemical_formula_sum "Si O2"
_cell_formula_units_Z 22
_cell_length_a 16.420358
_cell_length_b 9.056178
_cell_length_c 13.392000
_cell_angle_alpha 90.000000
_cell_angle_beta 149.963574
_cell_angle_gamma 90.000000
_cell_volume 996.829524
_symmetry_space_group_name_H-M "C 2"
_symmetry_group_IT_number 5
_symmetry_cell_setting 'monoclinic'
loop_
_space_group_symop_operation_xyz
x,y,z
-x,y,-z
1/2+x,1/2+y,z
1/2-x,1/2+y,-z
loop_
_atom_site_type_symbol
_atom_site_label
_atom_site_fract_x
_atom_site_fract_y
_atom_site_fract_z
Si Si1 0.587418 0.194930 0.948676
Si Si2 0.068901 0.852777 0.394980
Si Si3 0.500000 0.142130 0.500000
Si Si4 0.449327 0.869441 0.835754
Si Si5 0.825737 0.969799 0.861162
Si Si6 0.390154 0.627699 0.133007
O O1 0.455157 0.281905 0.740652
O O2 0.518204 0.034563 0.898206
O O3 0.656579 0.292543 0.113681
O O4 0.741891 0.179772 0.041259
O O5 0.256301 0.860753 0.622622
O O6 0.979049 0.750702 0.382317
O O7 0.000821 0.018411 0.315770
O O8 0.658761 0.040851 0.643297
O O9 0.521932 0.764177 0.827154
O O10 0.500000 0.820359 0.000000
O O11 0.000000 0.015484 0.000000
O O12 0.825387 0.026109 0.974322
#
# Coordination Sequence:
#
# PCOD9129839 Si02
#       6
#     4   4   2   4   4   4
#     4  11  25  47  68 104 146 188 240 294 366 436
#     4  11  25  43  74 102 141 191 248 291 367 431
#     4  12  24  46  74 112 140 194 250 306 364 430
#     4  12  25  44  73 106 146 186 235 304 362 434
#     4  11  24  46  72 103 143 188 240 301 362 427
#     4  11  23  45  71  99 141 190 236 293 363 429
#
# _framework density 22.069970999999999
#
# number of rings (size 3 to 8) (size 9 to 14) (size 15 to 20)
#    0.000    0.727    1.818    6.545    2.545    1.455 
#    6.545    0.000    0.000    0.000    0.000    0.000 
#    0.000    0.000    0.000    0.000    0.000    0.000 
#
# Total GULP energy -61488.878722 kJ/mol
# GULP energy per Si atom -5589.898066 kJ/mol
# Density = 2.201974 g / cm^3
# Si number density = 22.069971 Si / 1000 Ang^3
#
#
#
# Elastic Constant Matrix: (Units=GPa)
#
#
# Indices 1 2 3 4 5 6 
#
# 1 88.4088 39.2287 36.2204 0.0000 21.4817 0.0000
# 2 39.2287 169.9886 54.7308 0.0000 9.2133 0.0000
# 3 36.2204 54.7308 127.6945 0.0000 20.1713 0.0000
# 4 0.0000 0.0000 0.0000 42.9410 0.0000 -3.2892
# 5 21.4817 9.2133 20.1713 0.0000 35.9331 0.0000
# 6 0.0000 0.0000 0.0000 -3.2892 0.0000 36.5092
#
#
#
# Elastic Compliance Matrix: (Units=1/GPa)
#
#
# Indices 1 2 3 4 5 6 
#
# 1 0.014969 -0.002394 -0.002089 0.000000 -0.007163 0.000000
# 2 -0.002394 0.007208 -0.002573 0.000000 0.001027 0.000000
# 3 -0.002089 -0.002573 0.010122 0.000000 -0.003774 0.000000
# 4 0.000000 0.000000 0.000000 0.023450 0.000000 0.002113
# 5 -0.007163 0.001027 -0.003774 0.000000 0.033967 0.000000
# 6 0.000000 0.000000 0.000000 0.002113 0.000000 0.027581
#
#
# Mechanical properties :
#
#
# Convention : Reuss Voigt Hill
#
# Bulk Modulus (GPa) = 54.97622 71.82795 63.40208
# Shear Modulus (GPa) = 36.37159 40.13744 38.25452
#
# Velocity S-wave (km/s) = 4.06398 4.26918 4.16784
# Velocity P-wave (km/s) = 6.85458 7.54437 7.20773
#
# Compressibility (1/GPa) = 0.01818968
#
# Stress axis : x y z
#
# Youngs Moduli (GPa) = 66.80302 138.73881 98.79083
#
# Poissons Ratio (x) = 0.33212 0.20633
# Poissons Ratio (y) = 0.15992 0.25414
# Poissons Ratio (z) = 0.13952 0.35691
#
# Static dielectric constant tensor:
#      x y z
#    x 1.793010 0.000000 0.008010 
#    y 0.000000 1.884740 0.000000 
#    z 0.008010 0.000000 1.854180 
# 
# From -- ./inp_files/32544.got.cif
#   From: 2010.05.17/outbox.cif.g08.bks.cpg/sg5_17_cif.got.tgz:32544.got - 2010.06.03 18:56:24.
