data_PCOD9129603
_publ_section_title
;
Structure prediction by ZEFSAII (Michael W. Deem and Ramdas Pophale) SiO2 
 PCOD9129603
Probable space group: C 2
;
_chemical_formula_sum "Si O2"
_cell_formula_units_Z 18
_cell_length_a 21.412789
_cell_length_b 8.053172
_cell_length_c 8.611859
_cell_angle_alpha 90.000000
_cell_angle_beta 30.141028
_cell_angle_gamma 90.000000
_cell_volume 745.681548
_symmetry_space_group_name_H-M "C 2"
_symmetry_group_IT_number 5
_symmetry_cell_setting 'monoclinic'
loop_
_space_group_symop_operation_xyz
x,y,z
-x,y,-z
1/2+x,1/2+y,z
1/2-x,1/2+y,-z
loop_
_atom_site_type_symbol
_atom_site_label
_atom_site_fract_x
_atom_site_fract_y
_atom_site_fract_z
Si Si1 0.636534 0.880090 0.218236
Si Si2 0.383527 0.369786 0.869373
Si Si3 0.301304 0.711505 0.213455
Si Si4 0.548168 0.110475 0.664434
Si Si5 0.000000 0.320514 0.000000
O O1 0.500000 0.794727 0.500000
O O2 0.603178 0.050978 0.379261
O O3 0.753991 0.816919 0.064907
O O4 0.680137 0.864638 0.947142
O O5 0.500000 0.394251 0.500000
O O6 0.433965 0.231044 0.878955
O O7 0.351381 0.543893 0.022181
O O8 0.153736 0.696914 0.540257
O O9 0.377361 0.725590 0.208622
O O10 0.526743 0.938849 0.798075
#
# Coordination Sequence:
#
# PCOD9129603 Si02
#       5
#     4   4   4   4   2
#     4  11  22  44  76 104 140 178 241 296 348 402
#     4  11  24  43  77 107 135 180 241 300 345 404
#     4  11  26  45  71 106 137 192 238 287 348 421
#     4  11  26  47  72 106 141 188 233 295 349 420
#     4  12  28  46  68  98 158 192 216 286 358 438
#
# _framework density 24.138991000000001
#
# number of rings (size 3 to 8) (size 9 to 14) (size 15 to 20)
#    0.000    0.889    4.444    1.333    3.111    6.222 
#    4.000    0.000    0.000    0.000    0.000    0.000 
#    0.000    0.000    0.000    0.000    0.000    0.000 
#
# Total GULP energy -50216.145378 kJ/mol
# GULP energy per Si atom -5579.571709 kJ/mol
# Density = 2.408405 g / cm^3
# Si number density = 24.138991 Si / 1000 Ang^3
#
#
#
# Elastic Constant Matrix: (Units=GPa)
#
#
# Indices 1 2 3 4 5 6 
#
# 1 220.0018 59.1666 53.6655 0.0000 -76.9191 0.0000
# 2 59.1666 79.3662 20.7307 0.0000 -8.4725 0.0000
# 3 53.6655 20.7307 73.7961 0.0000 -52.0833 0.0000
# 4 0.0000 0.0000 0.0000 29.4217 0.0000 -1.6656
# 5 -76.9191 -8.4725 -52.0833 0.0000 59.8324 0.0000
# 6 0.0000 0.0000 0.0000 -1.6656 0.0000 38.1867
#
#
#
# Elastic Compliance Matrix: (Units=1/GPa)
#
#
# Indices 1 2 3 4 5 6 
#
# 1 0.013591 -0.010304 0.011184 0.000000 0.025748 0.000000
# 2 -0.010304 0.021721 -0.015006 0.000000 -0.023234 0.000000
# 3 0.011184 -0.015006 0.047405 0.000000 0.053518 0.000000
# 4 0.000000 0.000000 0.000000 0.034073 0.000000 0.001486
# 5 0.025748 -0.023234 0.053518 0.000000 0.093111 0.000000
# 6 0.000000 0.000000 0.000000 0.001486 0.000000 0.026252
#
#
# Mechanical properties :
#
#
# Convention : Reuss Voigt Hill
#
# Bulk Modulus (GPa) = 18.36128 71.14330 44.75229
# Shear Modulus (GPa) = 17.69528 41.46160 29.57844
#
# Velocity S-wave (km/s) = 2.71044 4.14891 3.50428
# Velocity P-wave (km/s) = 4.17353 7.24484 5.91211
#
# Compressibility (1/GPa) = 0.05446243
#
# Stress axis : x y z
#
# Youngs Moduli (GPa) = 73.57853 46.03825 21.09482
#
# Poissons Ratio (x) = 0.47440 -0.23591
# Poissons Ratio (y) = 0.75818 0.31656
# Poissons Ratio (z) = -0.82287 0.69087
#
# Static dielectric constant tensor:
#      x y z
#    x 1.984520 0.000000 0.021530 
#    y 0.000000 1.938520 0.000000 
#    z 0.021530 0.000000 2.002600 
# 
# From -- ./inp_files/18007.got.cif
#   From: 2010.05.17/outbox.cif.g08.bks.cpg/sg5_10_cif.got.tgz:18007.got - 2010.06.03 18:56:24.
