data_PCOD9129021
_publ_section_title
;
Structure prediction by ZEFSAII (Michael W. Deem and Ramdas Pophale) SiO2 
 PCOD9129021
Probable space group: C 2
;
_chemical_formula_sum "Si O2"
_cell_formula_units_Z 20
_cell_length_a 7.384761
_cell_length_b 7.416697
_cell_length_c 16.404809
_cell_angle_alpha 90.000000
_cell_angle_beta 123.893631
_cell_angle_gamma 90.000000
_cell_volume 745.821874
_symmetry_space_group_name_H-M "C 2"
_symmetry_group_IT_number 5
_symmetry_cell_setting 'monoclinic'
loop_
_space_group_symop_operation_xyz
x,y,z
-x,y,-z
1/2+x,1/2+y,z
1/2-x,1/2+y,-z
loop_
_atom_site_type_symbol
_atom_site_label
_atom_site_fract_x
_atom_site_fract_y
_atom_site_fract_z
Si Si1 0.500000 0.558001 0.000000
Si Si2 0.537406 0.690075 0.745928
Si Si3 0.358962 0.625316 0.399181
Si Si4 0.000000 0.466491 0.500000
Si Si5 0.895490 0.569240 0.293551
Si Si6 0.762686 0.411481 0.918049
O O1 0.612461 0.442164 0.958845
O O2 0.317493 0.699828 0.919629
O O3 0.483181 0.643106 0.638866
O O4 0.311672 0.694949 0.740692
O O5 0.668571 0.876066 0.763058
O O6 0.665955 0.528748 0.821085
O O7 0.500000 0.511741 0.500000
O O8 0.317400 0.814085 0.435910
O O9 0.121322 0.595216 0.302354
O O10 0.001678 0.555370 0.412296
O O11 0.000000 0.489405 0.000000
#
# Coordination Sequence:
#
# PCOD9129021 Si02
#       6
#     2   4   4   2   4   4
#     4  10  26  44  76  96 142 176 238 284 358 410
#     4  11  26  39  66 102 134 175 234 281 342 411
#     4   9  21  42  61  97 131 182 219 281 331 409
#     4   8  20  40  56  92 128 180 226 268 330 400
#     4  11  23  40  66  96 137 179 231 281 340 401
#     4  10  27  47  74 105 139 186 230 294 350 426
#
# _framework density 26.816054999999999
#
# number of rings (size 3 to 8) (size 9 to 14) (size 15 to 20)
#    1.200    0.800    0.000    1.200    7.000    6.400 
#    0.000    0.000    0.000    0.000    0.000    0.000 
#    0.000    0.000    0.000    0.000    0.000    0.000 
#
# Total GULP energy -55672.197957 kJ/mol
# GULP energy per Si atom -5567.219796 kJ/mol
# Density = 2.675502 g / cm^3
# Si number density = 26.816055 Si / 1000 Ang^3
#
#
#
# Elastic Constant Matrix: (Units=GPa)
#
#
# Indices 1 2 3 4 5 6 
#
# 1 165.0022 48.9551 42.0030 0.0000 -17.4427 0.0000
# 2 48.9551 75.1405 4.6700 0.0000 -4.2941 0.0000
# 3 42.0030 4.6700 75.7749 0.0000 -11.7491 0.0000
# 4 0.0000 0.0000 0.0000 27.3714 0.0000 -0.4985
# 5 -17.4427 -4.2941 -11.7491 0.0000 48.9564 0.0000
# 6 0.0000 0.0000 0.0000 -0.4985 0.0000 52.6231
#
#
#
# Elastic Compliance Matrix: (Units=1/GPa)
#
#
# Indices 1 2 3 4 5 6 
#
# 1 0.008978 -0.005482 -0.004380 0.000000 0.001667 0.000000
# 2 -0.005482 0.016755 0.002006 0.000000 -0.000002 0.000000
# 3 -0.004380 0.002006 0.015878 0.000000 0.002426 0.000000
# 4 0.000000 0.000000 0.000000 0.036541 0.000000 0.000346
# 5 0.001667 -0.000002 0.002426 0.000000 0.021602 0.000000
# 6 0.000000 0.000000 0.000000 0.000346 0.000000 0.019006
#
#
# Mechanical properties :
#
#
# Convention : Reuss Voigt Hill
#
# Bulk Modulus (GPa) = 38.61341 56.35263 47.48302
# Shear Modulus (GPa) = 34.93905 40.47616 37.70760
#
# Velocity S-wave (km/s) = 3.61351 3.88931 3.75395
# Velocity P-wave (km/s) = 5.64274 6.42099 6.04441
#
# Compressibility (1/GPa) = 0.02589774
#
# Stress axis : x y z
#
# Youngs Moduli (GPa) = 111.37987 59.68301 62.98162
#
# Poissons Ratio (x) = 0.32718 0.27589
# Poissons Ratio (y) = 0.61058 -0.12633
# Poissons Ratio (z) = 0.48790 -0.11971
#
# Static dielectric constant tensor:
#      x y z
#    x 2.356210 0.000000 0.171120 
#    y 0.000000 2.233870 0.000000 
#    z 0.171120 0.000000 2.270520 
# 
# From -- ./inp_files/58511.got.cif
#   From: 2010.05.17/outbox.cif.g08.bks.cpg/sg5_30_cif.got.tgz:58511.got - 2010.06.03 18:56:24.
