data_PCOD9129660
_publ_section_title
;
Structure prediction by ZEFSAII (Michael W. Deem and Ramdas Pophale) SiO2 
 PCOD9129660
Probable space group: C 2
;
_chemical_formula_sum "Si O2"
_cell_formula_units_Z 20
_cell_length_a 12.273685
_cell_length_b 10.292455
_cell_length_c 9.003408
_cell_angle_alpha 90.000000
_cell_angle_beta 130.857286
_cell_angle_gamma 90.000000
_cell_volume 860.238224
_symmetry_space_group_name_H-M "C 2"
_symmetry_group_IT_number 5
_symmetry_cell_setting 'monoclinic'
loop_
_space_group_symop_operation_xyz
x,y,z
-x,y,-z
1/2+x,1/2+y,z
1/2-x,1/2+y,-z
loop_
_atom_site_type_symbol
_atom_site_label
_atom_site_fract_x
_atom_site_fract_y
_atom_site_fract_z
Si Si1 0.360989 0.616750 0.266055
Si Si2 0.508194 0.427628 0.182863
Si Si3 0.799616 0.482313 0.619829
Si Si4 0.519444 0.169036 0.687486
Si Si5 0.069455 0.394546 0.725750
O O1 0.500000 0.622978 0.500000
O O2 0.419084 0.543025 0.175713
O O3 0.248437 0.528841 0.259370
O O4 0.333766 0.767465 0.201090
O O5 0.667028 0.436176 0.400370
O O6 0.445381 0.292280 0.185418
O O7 0.500000 0.432680 0.000000
O O8 0.866934 0.611632 0.606480
O O9 0.934665 0.383088 0.721193
O O10 0.500000 0.208631 0.500000
O O11 0.622249 0.042759 0.798863
O O12 0.000000 0.408956 0.500000
#
# Coordination Sequence:
#
# PCOD9129660 Si02
#       5
#     4   4   4   4   4
#     4   9  18  35  59  85 116 151 203 243 293 362
#     4  11  23  37  54  88 126 151 190 257 311 349
#     4   9  19  34  67  82 112 157 206 240 297 355
#     4   9  19  36  62  87 111 153 209 244 286 370
#     4   8  17  32  62  90 107 142 217 248 276 352
#
# _framework density 23.249374
#
# number of rings (size 3 to 8) (size 9 to 14) (size 15 to 20)
#    1.200    1.600    0.000    1.800    8.400    0.000 
#    0.000    3.000    0.000    0.000    0.000    0.000 
#    0.000    0.000    0.000    0.000    0.000    0.000 
#
# Total GULP energy -55748.904339 kJ/mol
# GULP energy per Si atom -5574.890434 kJ/mol
# Density = 2.319646 g / cm^3
# Si number density = 23.249374 Si / 1000 Ang^3
#
#
#
# Elastic Constant Matrix: (Units=GPa)
#
#
# Indices 1 2 3 4 5 6 
#
# 1 49.5145 2.8668 45.0361 0.0000 -21.5750 0.0000
# 2 2.8668 137.9969 56.7608 0.0000 -20.3768 0.0000
# 3 45.0361 56.7608 102.9742 0.0000 -16.6782 0.0000
# 4 0.0000 0.0000 0.0000 -727.8428 0.0000 -414.2454
# 5 -21.5750 -20.3768 -16.6782 0.0000 56.4209 0.0000
# 6 0.0000 0.0000 0.0000 -414.2454 0.0000 -191.8211
#
#
#
# Elastic Compliance Matrix: (Units=1/GPa)
#
#
# Indices 1 2 3 4 5 6 
#
# 1 0.049833 0.011902 -0.025809 0.000000 0.015726 0.000000
# 2 0.011902 0.012423 -0.011122 0.000000 0.005750 0.000000
# 3 -0.025809 -0.011122 0.026131 0.000000 -0.006161 0.000000
# 4 0.000000 0.000000 0.000000 0.005997 0.000000 -0.012952
# 5 0.015726 0.005750 -0.006161 0.000000 0.023993 0.000000
# 6 0.000000 0.000000 0.000000 -0.012952 0.000000 0.022757
#
#
# Mechanical properties :
#
#
# Convention : Reuss Voigt Hill
#
# Bulk Modulus (GPa) = 26.08822 55.53478 40.81150
# Shear Modulus (GPa) = 24.51362 -160.26047 -67.87342
#
# Velocity S-wave (km/s) = 3.25064 -8.31148 -5.40898
# Velocity P-wave (km/s) = 5.03332 8.25647 4.62790
#
# Compressibility (1/GPa) = 0.03833148
#
# Stress axis : x y z
#
# Youngs Moduli (GPa) = 20.06685 80.49550 38.26833
#
# Poissons Ratio (x) = -0.95809 0.98765
# Poissons Ratio (y) = -0.23884 0.42562
# Poissons Ratio (z) = 0.51790 0.89527
#
# Static dielectric constant tensor:
#      x y z
#    x 1.972100 0.000000 0.135420 
#    y 0.000000 1.927880 0.000000 
#    z 0.135420 0.000000 2.032700 
# 
# From -- ./inp_files/23187.got.cif
#   From: 2010.05.17/outbox.cif.g08.bks.cpg/sg5_12_cif.got.tgz:23187.got - 2010.06.03 18:56:24.
