data_PCOD9129112
_publ_section_title
;
Structure prediction by ZEFSAII (Michael W. Deem and Ramdas Pophale) SiO2 
 PCOD9129112
Probable space group: C 2
;
_chemical_formula_sum "Si O2"
_cell_formula_units_Z 28
_cell_length_a 19.801767
_cell_length_b 5.348721
_cell_length_c 11.724131
_cell_angle_alpha 90.000000
_cell_angle_beta 109.385151
_cell_angle_gamma 90.000000
_cell_volume 1171.354628
_symmetry_space_group_name_H-M "C 2"
_symmetry_group_IT_number 5
_symmetry_cell_setting 'monoclinic'
loop_
_space_group_symop_operation_xyz
x,y,z
-x,y,-z
1/2+x,1/2+y,z
1/2-x,1/2+y,-z
loop_
_atom_site_type_symbol
_atom_site_label
_atom_site_fract_x
_atom_site_fract_y
_atom_site_fract_z
Si Si1 0.885696 0.538110 0.128398
Si Si2 0.161984 0.762534 0.559379
Si Si3 0.742429 0.993085 0.799971
Si Si4 0.960311 0.022394 0.224711
Si Si5 0.500000 0.496072 0.000000
Si Si6 0.797682 0.600534 0.669639
Si Si7 0.134002 0.350718 0.110823
Si Si8 0.000000 0.913934 0.500000
O O1 0.810926 0.423247 0.130391
O O2 0.939929 0.311186 0.188021
O O3 0.898133 0.807103 0.194844
O O4 0.882331 0.565858 0.990179
O O5 0.192699 0.560413 0.663941
O O6 0.177754 0.698057 0.437436
O O7 0.077735 0.785173 0.532724
O O8 0.217018 0.992109 0.613722
O O9 0.794328 0.793568 0.771848
O O10 0.789511 0.223854 0.868885
O O11 0.994725 0.035576 0.370051
O O12 0.998856 0.902624 0.132723
O O13 0.428296 0.658749 0.951171
O O14 0.857361 0.409390 0.750769
#
# Coordination Sequence:
#
# PCOD9129112 Si02
#       8
#     4   4   4   4   2   4   4   2
#     4  11  26  49  71 107 146 190 241 311 367 446
#     4  11  24  45  69 107 146 189 252 304 379 443
#     4  11  24  45  70 104 140 193 243 307 367 453
#     4  11  27  48  76 106 153 193 243 304 380 441
#     4  10  26  52  68 108 148 190 248 312 366 456
#     4  11  24  44  74 100 144 201 247 306 368 465
#     4  10  27  43  73 103 139 193 249 300 376 441
#     4  12  26  46  74 114 148 198 246 320 380 446
#
# _framework density 23.903946999999999
#
# number of rings (size 3 to 8) (size 9 to 14) (size 15 to 20)
#    0.000    1.143    2.857    0.857   10.000    5.143 
#    5.143    0.000    0.000    0.000    0.000    0.000 
#    0.000    0.000    0.000    0.000    0.000    0.000 
#
# Total GULP energy -77964.198864 kJ/mol
# GULP energy per Si atom -5568.871347 kJ/mol
# Density = 2.384954 g / cm^3
# Si number density = 23.903947 Si / 1000 Ang^3
#
#
#
# Elastic Constant Matrix: (Units=GPa)
#
#
# Indices 1 2 3 4 5 6 
#
# 1 56.0982 -13.9222 20.1422 0.0000 3.0027 0.0000
# 2 -13.9222 46.5932 30.2710 0.0000 12.2863 0.0000
# 3 20.1422 30.2710 159.7323 0.0000 8.3874 0.0000
# 4 0.0000 0.0000 0.0000 -1.3661 0.0000 24.4354
# 5 3.0027 12.2863 8.3874 0.0000 45.8785 0.0000
# 6 0.0000 0.0000 0.0000 24.4354 0.0000 0.0976
#
#
#
# Elastic Compliance Matrix: (Units=1/GPa)
#
#
# Indices 1 2 3 4 5 6 
#
# 1 0.022303 0.010586 -0.004638 0.000000 -0.003447 0.000000
# 2 0.010586 0.031108 -0.006822 0.000000 -0.007776 0.000000
# 3 -0.004638 -0.006822 0.008104 0.000000 0.000649 0.000000
# 4 0.000000 0.000000 0.000000 -0.000163 0.000000 0.040915
# 5 -0.003447 -0.007776 0.000649 0.000000 0.023986 0.000000
# 6 0.000000 0.000000 0.000000 0.040915 0.000000 0.002287
#
#
# Mechanical properties :
#
#
# Convention : Reuss Voigt Hill
#
# Bulk Modulus (GPa) = 16.73139 37.26731 26.99935
# Shear Modulus (GPa) = 45.74787 23.98417 34.86602
#
# Velocity S-wave (km/s) = 4.37947 3.17102 3.82329
# Velocity P-wave (km/s) = 5.70856 5.38808 5.55063
#
# Compressibility (1/GPa) = 0.05976790
#
# Stress axis : x y z
#
# Youngs Moduli (GPa) = 44.83773 32.14588 123.39565
#
# Poissons Ratio (x) = -0.34029 0.57225
# Poissons Ratio (y) = -0.47465 0.84179
# Poissons Ratio (z) = 0.20794 0.21930
#
# Static dielectric constant tensor:
#      x y z
#    x 1.983470 0.000000 0.010600 
#    y 0.000000 2.045060 0.000000 
#    z 0.010600 0.000000 1.952930 
# 
# From -- ./inp_files/45611.got.cif
#   From: 2010.05.17/outbox.cif.g08.bks.cpg/sg5_23_cif.got.tgz:45611.got - 2010.06.03 18:56:24.
