data_PCOD9129831
_publ_section_title
;
Structure prediction by ZEFSAII (Michael W. Deem and Ramdas Pophale) SiO2 
 PCOD9129831
Probable space group: C 2
;
_chemical_formula_sum "Si O2"
_cell_formula_units_Z 32
_cell_length_a 10.456008
_cell_length_b 9.115504
_cell_length_c 15.661104
_cell_angle_alpha 90.000000
_cell_angle_beta 74.845367
_cell_angle_gamma 90.000000
_cell_volume 1440.777726
_symmetry_space_group_name_H-M "C 2"
_symmetry_group_IT_number 5
_symmetry_cell_setting 'monoclinic'
loop_
_space_group_symop_operation_xyz
x,y,z
-x,y,-z
1/2+x,1/2+y,z
1/2-x,1/2+y,-z
loop_
_atom_site_type_symbol
_atom_site_label
_atom_site_fract_x
_atom_site_fract_y
_atom_site_fract_z
Si Si1 0.123194 0.025260 0.026250
Si Si2 0.034453 0.247434 0.340323
Si Si3 0.419397 0.182477 0.243050
Si Si4 0.466222 0.500748 0.221249
Si Si5 0.273652 0.576663 0.581028
Si Si6 0.279787 0.246013 0.575989
Si Si7 0.333308 0.056127 0.731448
Si Si8 0.645317 0.217383 0.940519
O O1 0.242688 0.127019 0.031287
O O2 0.059122 0.964869 0.125268
O O3 0.000000 0.102948 0.000000
O O4 0.164360 0.887565 0.961623
O O5 0.108641 0.181677 0.408808
O O6 0.111746 0.394527 0.300598
O O7 0.035825 0.122795 0.266666
O O8 0.878843 0.267335 0.383726
O O9 0.434097 0.348984 0.274853
O O10 0.331010 0.087321 0.322668
O O11 0.566952 0.117776 0.215456
O O12 0.355470 0.192258 0.160835
O O13 0.321228 0.556123 0.217689
O O14 0.327087 0.412735 0.557665
O O15 0.205583 0.643392 0.509052
O O16 0.339294 0.161034 0.646863
O O17 0.500000 0.176219 0.000000
#
# Coordination Sequence:
#
# PCOD9129831 Si02
#       8
#     4   4   4   4   4   4   4   4
#     4  11  25  48  70 105 142 183 237 295 363 433
#     4  11  23  45  67 101 138 185 241 293 357 424
#     4  12  24  46  72  99 142 189 233 298 362 430
#     4  11  24  44  72  99 138 184 237 294 359 430
#     4  12  24  44  71  99 145 188 241 295 360 423
#     4  11  26  45  67 106 143 190 240 297 356 426
#     4  11  25  45  72 101 141 186 239 298 358 425
#     4  11  26  49  72 106 146 186 236 298 363 439
#
# _framework density 22.210227
#
# number of rings (size 3 to 8) (size 9 to 14) (size 15 to 20)
#    0.000    0.750    5.000    2.625    3.500    1.000 
#    4.500    0.000    0.000    0.000    0.000    0.000 
#    0.000    0.000    0.000    0.000    0.000    0.000 
#
# Total GULP energy -89521.250926 kJ/mol
# GULP energy per Si atom -5595.078183 kJ/mol
# Density = 2.215968 g / cm^3
# Si number density = 22.210227 Si / 1000 Ang^3
#
#
#
# Elastic Constant Matrix: (Units=GPa)
#
#
# Indices 1 2 3 4 5 6 
#
# 1 110.6616 43.9724 17.9053 0.0000 26.0431 0.0000
# 2 43.9724 124.3531 44.7372 0.0000 21.5372 0.0000
# 3 17.9053 44.7372 106.6145 0.0000 15.4589 0.0000
# 4 0.0000 0.0000 0.0000 27.4154 0.0000 13.8521
# 5 26.0431 21.5372 15.4589 0.0000 33.7173 0.0000
# 6 0.0000 0.0000 0.0000 13.8521 0.0000 40.2572
#
#
#
# Elastic Compliance Matrix: (Units=1/GPa)
#
#
# Indices 1 2 3 4 5 6 
#
# 1 0.011946 -0.003066 0.000358 0.000000 -0.007433 0.000000
# 2 -0.003066 0.010951 -0.003652 0.000000 -0.002953 0.000000
# 3 0.000358 -0.003652 0.011305 0.000000 -0.003127 0.000000
# 4 0.000000 0.000000 0.000000 0.044152 0.000000 -0.015192
# 5 -0.007433 -0.002953 -0.003127 0.000000 0.038719 0.000000
# 6 0.000000 0.000000 0.000000 -0.015192 0.000000 0.030068
#
#
# Mechanical properties :
#
#
# Convention : Reuss Voigt Hill
#
# Bulk Modulus (GPa) = 46.54956 61.65100 54.10028
# Shear Modulus (GPa) = 29.93615 35.94560 32.94087
#
# Velocity S-wave (km/s) = 3.67530 4.02733 3.85533
# Velocity P-wave (km/s) = 6.24616 7.03165 6.65051
#
# Compressibility (1/GPa) = 0.02148248
#
# Stress axis : x y z
#
# Youngs Moduli (GPa) = 83.70941 91.31615 88.45321
#
# Poissons Ratio (x) = 0.27994 -0.03166
# Poissons Ratio (y) = 0.25662 0.32305
# Poissons Ratio (z) = -0.02996 0.33351
#
# Static dielectric constant tensor:
#      x y z
#    x 1.827430 0.000000 -0.029350 
#    y 0.000000 1.799970 0.000000 
#    z -0.029350 0.000000 1.833440 
# 
# From -- ./inp_files/52464.got.cif
#   From: 2010.05.17/outbox.cif.g08.bks.cpg/sg5_27_cif.got.tgz:52464.got - 2010.06.03 18:56:24.
