data_PCOD9129585
_publ_section_title
;
Structure prediction by ZEFSAII (Michael W. Deem and Ramdas Pophale) SiO2 
 PCOD9129585
Probable space group: C 2
;
_chemical_formula_sum "Si O2"
_cell_formula_units_Z 24
_cell_length_a 12.165432
_cell_length_b 7.348597
_cell_length_c 24.776501
_cell_angle_alpha 90.000000
_cell_angle_beta 26.499354
_cell_angle_gamma 90.000000
_cell_volume 988.301733
_symmetry_space_group_name_H-M "C 2"
_symmetry_group_IT_number 5
_symmetry_cell_setting 'monoclinic'
loop_
_space_group_symop_operation_xyz
x,y,z
-x,y,-z
1/2+x,1/2+y,z
1/2-x,1/2+y,-z
loop_
_atom_site_type_symbol
_atom_site_label
_atom_site_fract_x
_atom_site_fract_y
_atom_site_fract_z
Si Si1 0.500000 0.759900 0.500000
Si Si2 0.063272 0.402920 0.362400
Si Si3 0.190844 0.094992 0.228114
Si Si4 0.739080 0.180707 0.026356
Si Si5 0.106368 0.034681 0.143922
Si Si6 0.000000 0.063488 0.000000
Si Si7 0.470853 0.183628 0.716494
O O1 0.428993 0.872807 0.477859
O O2 0.758691 0.659031 0.374479
O O3 0.037117 0.227671 0.334703
O O4 0.339076 0.445450 0.262923
O O5 0.007108 0.566578 0.347251
O O6 0.463004 0.141306 0.129804
O O7 0.184420 0.125515 0.165753
O O8 0.102057 0.888273 0.268201
O O9 0.769898 0.361892 0.049878
O O10 0.843670 0.013786 0.016116
O O11 0.896978 0.176285 0.903086
O O12 0.753591 0.125914 0.145043
#
# Coordination Sequence:
#
# PCOD9129585 Si02
#       7
#     2   4   4   4   4   2   4
#     4  12  28  54  80 112 158 194 272 324 366 486
#     4  11  27  50  73 113 148 203 261 316 387 461
#     4  11  24  47  74 110 154 203 254 319 384 456
#     4  11  23  38  72 108 155 205 249 309 390 447
#     4  11  22  44  67 111 155 199 257 314 374 469
#     4  12  22  46  74 114 160 200 252 322 378 454
#     4  12  26  51  81 108 159 201 252 323 388 450
#
# _framework density 24.284079999999999
#
# number of rings (size 3 to 8) (size 9 to 14) (size 15 to 20)
#    0.000    0.667    5.000    2.500    2.333    1.333 
#    3.000    1.667    0.000    0.000    0.000    0.000 
#    0.000    0.000    0.000    0.000    0.000    0.000 
#
# Total GULP energy -66826.943459 kJ/mol
# GULP energy per Si atom -5568.911955 kJ/mol
# Density = 2.422881 g / cm^3
# Si number density = 24.284080 Si / 1000 Ang^3
#
#
#
# Elastic Constant Matrix: (Units=GPa)
#
#
# Indices 1 2 3 4 5 6 
#
# 1 186.9575 13.0520 37.9218 -0.0006 26.6660 -0.0001
# 2 13.0520 25.5560 -1.0311 -0.0001 11.5245 -0.0002
# 3 37.9218 -1.0311 107.1750 -0.0054 -0.4229 -0.0004
# 4 -0.0006 -0.0001 -0.0054 14.4930 0.0001 3.4991
# 5 26.6660 11.5245 -0.4229 0.0001 54.6651 0.0004
# 6 -0.0001 -0.0002 -0.0004 3.4991 0.0004 42.3114
#
#
#
# Elastic Compliance Matrix: (Units=1/GPa)
#
#
# Indices 1 2 3 4 5 6 
#
# 1 0.006338 -0.002129 -0.002274 -0.000001 -0.002661 0.000000
# 2 -0.002129 0.043971 0.001144 0.000001 -0.008223 0.000000
# 3 -0.002274 0.001144 0.010150 0.000004 0.000946 0.000000
# 4 -0.000001 0.000001 0.000004 0.070404 0.000000 -0.005822
# 5 -0.002661 -0.008223 0.000946 0.000000 0.021332 0.000000
# 6 0.000000 0.000000 0.000000 -0.005822 0.000000 0.024116
#
#
# Mechanical properties :
#
#
# Convention : Reuss Voigt Hill
#
# Bulk Modulus (GPa) = 18.53849 46.61932 32.57891
# Shear Modulus (GPa) = 24.89926 40.27697 32.58812
#
# Velocity S-wave (km/s) = 3.20556 4.07698 3.66724
# Velocity P-wave (km/s) = 4.62075 6.43440 5.60147
#
# Compressibility (1/GPa) = 0.05394181
#
# Stress axis : x y z
#
# Youngs Moduli (GPa) = 157.77658 22.74209 98.52475
#
# Poissons Ratio (x) = 0.04842 0.22400
# Poissons Ratio (y) = 0.33590 -0.11270
# Poissons Ratio (z) = 0.35872 -0.02601
#
# Static dielectric constant tensor:
#      x y z
#    x 1.945200 0.000000 -0.013010 
#    y 0.000000 2.070090 0.000000 
#    z -0.013010 0.000000 2.009520 
# 
# From -- ./inp_files/68261.got.cif
#   From: 2010.05.17/outbox.cif.g08.bks.cpg/sg5_35_cif.got.tgz:68261.got - 2010.06.03 18:56:24.
