data_PCOD9129816
_publ_section_title
;
Structure prediction by ZEFSAII (Michael W. Deem and Ramdas Pophale) SiO2 
 PCOD9129816
Probable space group: C 2
;
_chemical_formula_sum "Si O2"
_cell_formula_units_Z 22
_cell_length_a 14.928852
_cell_length_b 10.551244
_cell_length_c 18.212894
_cell_angle_alpha 90.000000
_cell_angle_beta 20.829597
_cell_angle_gamma 90.000000
_cell_volume 1020.136649
_symmetry_space_group_name_H-M "C 2"
_symmetry_group_IT_number 5
_symmetry_cell_setting 'monoclinic'
loop_
_space_group_symop_operation_xyz
x,y,z
-x,y,-z
1/2+x,1/2+y,z
1/2-x,1/2+y,-z
loop_
_atom_site_type_symbol
_atom_site_label
_atom_site_fract_x
_atom_site_fract_y
_atom_site_fract_z
Si Si1 0.587348 0.142420 0.159500
Si Si2 0.034660 0.242138 0.558152
Si Si3 0.000000 0.731484 0.500000
Si Si4 0.087887 0.524461 0.560829
Si Si5 0.525809 0.804348 0.055466
Si Si6 0.662651 0.545193 0.175728
O O1 0.324621 0.215442 0.356440
O O2 0.555310 0.048870 0.252871
O O3 0.816066 0.234032 0.003937
O O4 0.654371 0.080774 0.031267
O O5 0.994263 0.391660 0.599866
O O6 0.000000 0.206825 0.500000
O O7 0.870363 0.154975 0.738551
O O8 0.954372 0.638472 0.464947
O O9 0.754636 0.817909 0.699292
O O10 0.384865 0.518951 0.354977
O O11 0.500000 0.724325 0.000000
O O12 0.703439 0.920656 0.895409
#
# Coordination Sequence:
#
# PCOD9129816 Si02
#       6
#     4   4   2   4   4   4
#     4  11  25  44  70 105 143 188 238 302 366 428
#     4  11  26  46  71 104 147 191 244 297 365 440
#     4  12  24  44  76 112 142 192 252 304 356 430
#     4  11  23  44  74 107 139 187 243 303 361 432
#     4  12  26  45  72 107 144 187 243 297 366 435
#     4  11  27  46  69 104 147 189 237 300 371 424
#
# _framework density 21.565739000000001
#
# number of rings (size 3 to 8) (size 9 to 14) (size 15 to 20)
#    0.000    0.727    6.364    0.000    5.091    2.909 
#    0.000    1.818    0.000    0.000    0.000    0.000 
#    0.000    0.000    0.000    0.000    0.000    0.000 
#
# Total GULP energy -61474.090731 kJ/mol
# GULP energy per Si atom -5588.553703 kJ/mol
# Density = 2.151665 g / cm^3
# Si number density = 21.565739 Si / 1000 Ang^3
#
#
#
# Elastic Constant Matrix: (Units=GPa)
#
#
# Indices 1 2 3 4 5 6 
#
# 1 100.9608 20.1386 21.3039 -0.0003 14.3035 0.0021
# 2 20.1386 68.1588 28.1437 0.0071 6.5677 0.0013
# 3 21.3039 28.1437 128.3648 -0.0092 5.2699 0.0084
# 4 -0.0003 0.0071 -0.0092 6.0406 0.0098 3.8308
# 5 14.3035 6.5677 5.2699 0.0098 49.3734 -0.0034
# 6 0.0021 0.0013 0.0084 3.8308 -0.0034 32.2836
#
#
#
# Elastic Compliance Matrix: (Units=1/GPa)
#
#
# Indices 1 2 3 4 5 6 
#
# 1 0.011041 -0.002516 -0.001168 0.000007 -0.002739 -0.000001
# 2 -0.002516 0.016862 -0.003231 -0.000025 -0.001169 0.000003
# 3 -0.001168 -0.003231 0.008699 0.000020 -0.000160 -0.000004
# 4 0.000007 -0.000025 0.000020 0.179018 -0.000038 -0.021242
# 5 -0.002739 -0.001169 -0.000160 -0.000038 0.021220 0.000007
# 6 -0.000001 0.000003 -0.000004 -0.021242 0.000007 0.033496
#
#
# Mechanical properties :
#
#
# Convention : Reuss Voigt Hill
#
# Bulk Modulus (GPa) = 43.91532 48.51742 46.21637
# Shear Modulus (GPa) = 17.13750 32.73274 24.93512
#
# Velocity S-wave (km/s) = 2.82204 3.90014 3.40404
# Velocity P-wave (km/s) = 5.57011 6.54429 6.07675
#
# Compressibility (1/GPa) = 0.02277110
#
# Stress axis : x y z
#
# Youngs Moduli (GPa) = 90.56890 59.30511 114.95232
#
# Poissons Ratio (x) = 0.14921 0.13431
# Poissons Ratio (y) = 0.22787 0.37146
# Poissons Ratio (z) = 0.10582 0.19164
#
# Static dielectric constant tensor:
#      x y z
#    x 1.821950 0.000010 0.030230 
#    y 0.000010 1.783200 0.000010 
#    z 0.030230 0.000010 1.773360 
# 
# From -- ./inp_files/6585.got.cif
#   From: 2010.05.17/outbox.cif.g08.bks.cpg/sg5_4_cif.got.tgz:6585.got - 2010.06.03 18:56:24.
