data_PCOD9129852
_publ_section_title
;
Structure prediction by ZEFSAII (Michael W. Deem and Ramdas Pophale) SiO2 
 PCOD9129852
Probable space group: C 2
;
_chemical_formula_sum "Si O2"
_cell_formula_units_Z 26
_cell_length_a 13.283483
_cell_length_b 10.171685
_cell_length_c 21.080279
_cell_angle_alpha 90.000000
_cell_angle_beta 157.588914
_cell_angle_gamma 90.000000
_cell_volume 1085.900985
_symmetry_space_group_name_H-M "C 2"
_symmetry_group_IT_number 5
_symmetry_cell_setting 'monoclinic'
loop_
_space_group_symop_operation_xyz
x,y,z
-x,y,-z
1/2+x,1/2+y,z
1/2-x,1/2+y,-z
loop_
_atom_site_type_symbol
_atom_site_label
_atom_site_fract_x
_atom_site_fract_y
_atom_site_fract_z
Si Si1 0.093145 0.187370 0.252030
Si Si2 0.500000 0.401839 0.500000
Si Si3 0.697462 0.499762 0.417561
Si Si4 0.727687 0.555756 0.204076
Si Si5 0.053674 0.804945 0.912128
Si Si6 0.974685 0.139924 0.399288
Si Si7 0.467253 0.245791 0.243537
O O1 0.260514 0.307003 0.377675
O O2 0.171433 0.166273 0.224379
O O3 0.183413 0.052983 0.338043
O O4 0.787895 0.223479 0.081108
O O5 0.415684 0.497713 0.394491
O O6 0.579414 0.616701 0.389963
O O7 0.518603 0.371235 0.317965
O O8 0.995097 0.485192 0.615370
O O9 0.503924 0.444338 0.086831
O O10 0.792494 0.633625 0.176139
O O11 0.780226 0.727620 0.753417
O O12 0.127390 0.800260 0.879657
O O13 0.230554 0.192338 0.586775
#
# Coordination Sequence:
#
# PCOD9129852 Si02
#       7
#     4   2   4   4   4   4   4
#     4  12  27  44  73 108 151 200 244 319 389 443
#     4  12  24  44  68 102 148 194 256 304 372 462
#     4  11  23  45  76 106 142 200 252 309 379 462
#     4  11  24  46  78 109 150 193 261 312 374 462
#     4  12  26  47  74 111 153 194 247 321 382 445
#     4  11  25  42  71 106 146 192 255 307 374 456
#     4  11  23  46  79 107 141 204 250 304 383 455
#
# _framework density 23.943252000000001
#
# number of rings (size 3 to 8) (size 9 to 14) (size 15 to 20)
#    0.000    0.615    6.154    0.923    4.308    1.231 
#    0.000    4.615    0.000    0.000    0.000    0.000 
#    0.000    0.000    0.000    0.000    0.000    0.000 
#
# Total GULP energy -72667.141827 kJ/mol
# GULP energy per Si atom -5589.780141 kJ/mol
# Density = 2.388876 g / cm^3
# Si number density = 23.943252 Si / 1000 Ang^3
#
#
#
# Elastic Constant Matrix: (Units=GPa)
#
#
# Indices 1 2 3 4 5 6 
#
# 1 72.6911 15.6847 15.9647 0.0045 6.0121 -0.0011
# 2 15.6847 96.2916 31.1520 0.0110 -4.8769 -0.0006
# 3 15.9647 31.1520 83.4822 0.0284 9.8283 -0.0034
# 4 0.0045 0.0110 0.0284 34.2072 -0.0034 8.2787
# 5 6.0121 -4.8769 9.8283 -0.0034 15.8033 -0.0017
# 6 -0.0011 -0.0006 -0.0034 8.2787 -0.0017 47.7896
#
#
#
# Elastic Compliance Matrix: (Units=1/GPa)
#
#
# Indices 1 2 3 4 5 6 
#
# 1 0.015010 -0.002286 -0.001362 -0.000001 -0.005569 0.000000
# 2 -0.002286 0.012898 -0.005338 0.000001 0.008170 0.000000
# 3 -0.001362 -0.005338 0.015498 -0.000013 -0.010768 0.000003
# 4 -0.000001 0.000001 -0.000013 0.030513 0.000015 -0.005286
# 5 -0.005569 0.008170 -0.010768 0.000015 0.074614 -0.000001
# 6 0.000000 0.000000 0.000003 -0.005286 -0.000001 0.021841
#
#
# Mechanical properties :
#
#
# Convention : Reuss Voigt Hill
#
# Bulk Modulus (GPa) = 39.31567 42.00754 40.66160
# Shear Modulus (GPa) = 25.40339 32.20427 28.80383
#
# Velocity S-wave (km/s) = 3.26081 3.67144 3.47220
# Velocity P-wave (km/s) = 5.53472 5.96283 5.75276
#
# Compressibility (1/GPa) = 0.02543515
#
# Stress axis : x y z
#
# Youngs Moduli (GPa) = 66.62299 77.53054 64.52258
#
# Poissons Ratio (x) = 0.17727 0.08785
# Poissons Ratio (y) = 0.15233 0.34440
# Poissons Ratio (z) = 0.09071 0.41383
#
# Static dielectric constant tensor:
#      x y z
#    x 2.016450 0.000000 -0.042490 
#    y 0.000000 1.905340 -0.000010 
#    z -0.042490 -0.000010 1.892150 
# 
# From -- ./inp_files/68848.got.cif
#   From: 2010.05.17/outbox.cif.g08.bks.cpg/sg5_35_cif.got.tgz:68848.got - 2010.06.03 18:56:24.
