data_PCOD9129465
_publ_section_title
;
Structure prediction by ZEFSAII (Michael W. Deem and Ramdas Pophale) SiO2 
 PCOD9129465
Probable space group: C 2
;
_chemical_formula_sum "Si O2"
_cell_formula_units_Z 26
_cell_length_a 21.300240
_cell_length_b 7.193495
_cell_length_c 10.951839
_cell_angle_alpha 90.000000
_cell_angle_beta 32.699403
_cell_angle_gamma 90.000000
_cell_volume 906.549326
_symmetry_space_group_name_H-M "C 2"
_symmetry_group_IT_number 5
_symmetry_cell_setting 'monoclinic'
loop_
_space_group_symop_operation_xyz
x,y,z
-x,y,-z
1/2+x,1/2+y,z
1/2-x,1/2+y,-z
loop_
_atom_site_type_symbol
_atom_site_label
_atom_site_fract_x
_atom_site_fract_y
_atom_site_fract_z
Si Si1 0.153913 0.917450 0.046084
Si Si2 0.820177 0.062638 0.253917
Si Si3 0.294155 0.357700 0.693269
Si Si4 0.775578 0.193764 0.573927
Si Si5 0.365842 0.786919 0.811114
Si Si6 0.996526 0.575803 0.290385
Si Si7 0.500000 0.101959 0.000000
O O1 0.116051 0.993033 0.973452
O O2 0.112537 0.065946 0.215333
O O3 0.292823 0.893231 0.827876
O O4 0.108354 0.709662 0.131108
O O5 0.713030 0.915027 0.432933
O O6 0.790506 0.275765 0.272935
O O7 0.850655 0.092701 0.345220
O O8 0.306692 0.571602 0.640062
O O9 0.228228 0.313073 0.924479
O O10 0.402111 0.223644 0.492965
O O11 0.633674 0.190345 0.778640
O O12 0.020649 0.394653 0.330937
O O13 0.002297 0.529084 0.135984
#
# Coordination Sequence:
#
# PCOD9129465 Si02
#       7
#     4   4   4   4   4   4   2
#     4  11  24  44  72 102 141 193 241 300 373 439
#     4  11  22  39  67  98 137 186 237 297 365 431
#     4  11  25  42  70 101 139 190 243 300 365 437
#     4  12  22  43  66  99 147 187 235 309 366 439
#     4  11  24  47  73 100 144 192 239 304 367 435
#     4  12  24  46  71 107 141 191 249 299 371 440
#     4  12  22  42  72  98 150 186 238 312 364 434
#
# _framework density 28.680184000000001
#
# number of rings (size 3 to 8) (size 9 to 14) (size 15 to 20)
#    0.000    0.615    7.692    0.000    0.000    1.846 
#    0.000    1.538    6.769    0.000    0.000    0.000 
#    0.000    0.000    0.000    0.000    0.000    0.000 
#
# Total GULP energy -72543.322292 kJ/mol
# GULP energy per Si atom -5580.255561 kJ/mol
# Density = 2.861491 g / cm^3
# Si number density = 28.680184 Si / 1000 Ang^3
#
#
#
# Elastic Constant Matrix: (Units=GPa)
#
#
# Indices 1 2 3 4 5 6 
#
# 1 96.0809 11.0826 39.3482 0.0000 9.1567 0.0000
# 2 11.0826 153.2897 3.1641 -0.0001 -4.5873 0.0000
# 3 39.3482 3.1641 115.2649 0.0000 -8.2354 0.0000
# 4 0.0000 -0.0001 0.0000 34.6830 0.0000 7.1248
# 5 9.1567 -4.5873 -8.2354 0.0000 36.8896 0.0000
# 6 0.0000 0.0000 0.0000 7.1248 0.0000 38.3416
#
#
#
# Elastic Compliance Matrix: (Units=1/GPa)
#
#
# Indices 1 2 3 4 5 6 
#
# 1 0.012846 -0.000963 -0.004670 0.000000 -0.004351 0.000000
# 2 -0.000963 0.006622 0.000226 0.000000 0.001113 0.000000
# 3 -0.004670 0.000226 0.010516 0.000000 0.003535 0.000000
# 4 0.000000 0.000000 0.000000 0.029977 0.000000 -0.005570
# 5 -0.004351 0.001113 0.003535 0.000000 0.029115 0.000000
# 6 0.000000 0.000000 0.000000 -0.005570 0.000000 0.027116
#
#
# Mechanical properties :
#
#
# Convention : Reuss Voigt Hill
#
# Bulk Modulus (GPa) = 52.15920 52.42504 52.29212
# Shear Modulus (GPa) = 37.48263 42.71887 40.10075
#
# Velocity S-wave (km/s) = 3.61905 3.86358 3.74331
# Velocity P-wave (km/s) = 5.97406 6.18238 6.07911
#
# Compressibility (1/GPa) = 0.01917207
#
# Stress axis : x y z
#
# Youngs Moduli (GPa) = 77.84560 151.01590 95.09221
#
# Poissons Ratio (x) = 0.14536 0.44405
# Poissons Ratio (y) = 0.07493 -0.02152
# Poissons Ratio (z) = 0.36351 -0.03418
#
# Static dielectric constant tensor:
#      x y z
#    x 2.299420 0.000000 -0.061090 
#    y 0.000000 2.155290 0.000000 
#    z -0.061090 0.000000 2.307340 
# 
# From -- ./inp_files/46102.got.cif
#   From: 2010.05.17/outbox.cif.g08.bks.cpg/sg5_24_cif.got.tgz:46102.got - 2010.06.03 18:56:24.
