data_PCOD9129278
_publ_section_title
;
Structure prediction by ZEFSAII (Michael W. Deem and Ramdas Pophale) SiO2 
 PCOD9129278
Probable space group: C 2
;
_chemical_formula_sum "Si O2"
_cell_formula_units_Z 24
_cell_length_a 22.020690
_cell_length_b 7.250150
_cell_length_c 18.135177
_cell_angle_alpha 90.000000
_cell_angle_beta 161.713623
_cell_angle_gamma 90.000000
_cell_volume 908.461594
_symmetry_space_group_name_H-M "C 2"
_symmetry_group_IT_number 5
_symmetry_cell_setting 'monoclinic'
loop_
_space_group_symop_operation_xyz
x,y,z
-x,y,-z
1/2+x,1/2+y,z
1/2-x,1/2+y,-z
loop_
_atom_site_type_symbol
_atom_site_label
_atom_site_fract_x
_atom_site_fract_y
_atom_site_fract_z
Si Si1 0.998360 0.433190 0.356240
Si Si2 0.336031 0.260215 0.355770
Si Si3 0.558144 0.642179 0.907600
Si Si4 0.587711 0.270521 0.183813
Si Si5 0.249490 0.910071 0.585690
Si Si6 0.657212 0.250898 0.901546
O O1 0.809145 0.304349 0.139962
O O2 0.051831 0.578544 0.482498
O O3 0.186549 0.313826 0.566436
O O4 0.958850 0.560000 0.238715
O O5 0.500000 0.369472 0.500000
O O6 0.256194 0.359713 0.334630
O O7 0.164841 0.215069 0.103902
O O8 0.103617 0.581236 0.246873
O O9 0.355061 0.746828 0.663424
O O10 0.704516 0.709674 0.011252
O O11 0.497590 0.436509 0.127552
O O12 0.500000 0.259990 0.000000
O O13 0.015785 0.904823 0.300651
#
# Coordination Sequence:
#
# PCOD9129278 Si02
#       6
#     4   4   4   4   4   4
#     4  11  23  46  72 101 156 195 246 317 385 444
#     4  11  20  44  77 107 146 204 247 317 385 451
#     4  12  22  47  75 107 147 202 253 309 390 449
#     4  12  23  43  76 109 144 197 250 316 378 448
#     4  11  24  45  74 108 158 191 251 321 381 451
#     4  11  25  48  73 105 154 204 250 312 388 469
#
# _framework density 26.418288
#
# number of rings (size 3 to 8) (size 9 to 14) (size 15 to 20)
#    0.000    0.667    8.333    2.500    0.000    0.000 
#   12.000    0.833    0.000    0.000    0.000    0.000 
#    0.000    0.000    0.000    0.000    0.000    0.000 
#
# Total GULP energy -67026.866532 kJ/mol
# GULP energy per Si atom -5585.572211 kJ/mol
# Density = 2.635816 g / cm^3
# Si number density = 26.418288 Si / 1000 Ang^3
#
#
#
# Elastic Constant Matrix: (Units=GPa)
#
#
# Indices 1 2 3 4 5 6 
#
# 1 124.6501 23.2643 44.9711 0.0001 5.9188 0.0001
# 2 23.2643 79.4878 42.1019 0.0001 -7.1266 0.0001
# 3 44.9711 42.1019 200.2481 0.0000 11.3006 0.0001
# 4 0.0001 0.0001 0.0000 40.7062 0.0001 5.9688
# 5 5.9188 -7.1266 11.3006 0.0001 46.8064 0.0001
# 6 0.0001 0.0001 0.0001 5.9688 0.0001 7.9750
#
#
#
# Elastic Compliance Matrix: (Units=1/GPa)
#
#
# Indices 1 2 3 4 5 6 
#
# 1 0.008990 -0.001899 -0.001560 0.000000 -0.001049 0.000000
# 2 -0.001899 0.014961 -0.002901 0.000000 0.003218 0.000000
# 3 -0.001560 -0.002901 0.006050 0.000000 -0.001705 0.000000
# 4 0.000000 0.000000 0.000000 0.027595 0.000000 -0.020653
# 5 -0.001049 0.003218 -0.001705 0.000000 0.022399 0.000000
# 6 0.000000 0.000000 0.000000 -0.020653 0.000000 0.140849
#
#
# Mechanical properties :
#
#
# Convention : Reuss Voigt Hill
#
# Bulk Modulus (GPa) = 57.86559 69.45120 63.65839
# Shear Modulus (GPa) = 20.89219 38.70075 29.79647
#
# Velocity S-wave (km/s) = 2.81521 3.83158 3.36203
# Velocity P-wave (km/s) = 5.70249 6.77649 6.26256
#
# Compressibility (1/GPa) = 0.01728143
#
# Stress axis : x y z
#
# Youngs Moduli (GPa) = 111.23961 66.83941 165.27912
#
# Poissons Ratio (x) = 0.12690 0.25792
# Poissons Ratio (y) = 0.21120 0.47945
# Poissons Ratio (z) = 0.17359 0.19389
#
# Static dielectric constant tensor:
#      x y z
#    x 2.095910 0.000000 0.028990 
#    y 0.000000 2.255750 0.000000 
#    z 0.028990 0.000000 2.070940 
# 
# From -- ./inp_files/57057.got.cif
#   From: 2010.05.17/outbox.cif.g08.bks.cpg/sg5_29_cif.got.tgz:57057.got - 2010.06.03 18:56:24.
