data_PCOD9129098
_publ_section_title
;
Structure prediction by ZEFSAII (Michael W. Deem and Ramdas Pophale) SiO2 
 PCOD9129098
Probable space group: C 2
;
_chemical_formula_sum "Si O2"
_cell_formula_units_Z 28
_cell_length_a 8.381216
_cell_length_b 14.081250
_cell_length_c 19.504048
_cell_angle_alpha 90.000000
_cell_angle_beta 147.294839
_cell_angle_gamma 90.000000
_cell_volume 1243.715146
_symmetry_space_group_name_H-M "C 2"
_symmetry_group_IT_number 5
_symmetry_cell_setting 'monoclinic'
loop_
_space_group_symop_operation_xyz
x,y,z
-x,y,-z
1/2+x,1/2+y,z
1/2-x,1/2+y,-z
loop_
_atom_site_type_symbol
_atom_site_label
_atom_site_fract_x
_atom_site_fract_y
_atom_site_fract_z
Si Si1 0.317234 0.662700 0.131834
Si Si2 0.626692 0.353698 0.265014
Si Si3 0.335922 0.160936 0.768819
Si Si4 0.116359 0.349922 0.184233
Si Si5 0.101831 0.977956 0.929580
Si Si6 0.000000 0.121420 0.000000
Si Si7 0.000000 0.483768 0.500000
Si Si8 0.464183 0.491600 0.405140
O O1 0.321844 0.649597 0.215082
O O2 0.530685 0.744125 0.179126
O O3 0.313855 0.556670 0.097954
O O4 0.000000 0.706215 0.000000
O O5 0.779601 0.253866 0.310359
O O6 0.310412 0.339106 0.185954
O O7 0.585168 0.398611 0.175618
O O8 0.801716 0.421942 0.377642
O O9 0.266568 0.073871 0.695418
O O10 0.692768 0.171336 0.909438
O O11 0.319748 0.399689 0.315737
O O12 0.855303 0.422866 0.064858
O O13 0.920912 0.048212 0.911740
O O14 0.240132 0.523830 0.531227
O O15 0.500000 0.479411 0.500000
#
# Coordination Sequence:
#
# PCOD9129098 Si02
#       8
#     4   4   4   4   4   2   2   4
#     4  12  23  42  67 104 145 179 236 290 362 439
#     4  11  26  45  72 101 144 184 241 300 362 433
#     4  12  27  44  71 110 142 189 245 295 370 440
#     4  11  25  45  70 106 139 191 236 303 368 433
#     4  12  25  42  71 101 146 187 231 298 366 428
#     4  12  26  42  68 110 146 188 234 292 372 442
#     4  10  26  50  72 102 142 198 248 296 366 436
#     4  11  26  51  75 102 147 193 250 307 364 436
#
# _framework density 22.513192
#
# number of rings (size 3 to 8) (size 9 to 14) (size 15 to 20)
#    0.000    0.571    2.857    4.714   10.000    0.000 
#    2.571    0.000    1.571    0.000    0.000    0.000 
#    0.000    0.000    0.000    0.000    0.000    0.000 
#
# Total GULP energy -78100.014070 kJ/mol
# GULP energy per Si atom -5578.572434 kJ/mol
# Density = 2.246195 g / cm^3
# Si number density = 22.513192 Si / 1000 Ang^3
#
#
#
# Elastic Constant Matrix: (Units=GPa)
#
#
# Indices 1 2 3 4 5 6 
#
# 1 59.9988 6.7208 21.1599 -0.0005 -12.8642 0.0006
# 2 6.7208 75.8382 9.8663 -0.0004 -4.1061 0.0001
# 3 21.1599 9.8663 68.0357 0.0024 -9.5949 -0.0024
# 4 -0.0005 -0.0004 0.0024 -15.8198 -0.0005 25.8838
# 5 -12.8642 -4.1061 -9.5949 -0.0005 39.7335 -0.0002
# 6 0.0006 0.0001 -0.0024 25.8838 -0.0002 12.0062
#
#
#
# Elastic Compliance Matrix: (Units=1/GPa)
#
#
# Indices 1 2 3 4 5 6 
#
# 1 0.019702 -0.000784 -0.005306 -0.000001 0.005016 0.000000
# 2 -0.000784 0.013505 -0.001608 0.000000 0.000753 0.000000
# 3 -0.005306 -0.001608 0.016891 0.000002 0.002195 0.000000
# 4 -0.000001 0.000000 0.000002 -0.013962 0.000000 0.030101
# 5 0.005016 0.000753 0.002195 0.000000 0.027400 0.000000
# 6 0.000000 0.000000 0.000000 0.030101 0.000000 0.018397
#
#
# Mechanical properties :
#
#
# Convention : Reuss Voigt Hill
#
# Bulk Modulus (GPa) = 28.81773 31.04076 29.92925
# Shear Modulus (GPa) = 45.91470 18.25903 32.08686
#
# Velocity S-wave (km/s) = 4.52093 2.85096 3.77934
# Velocity P-wave (km/s) = 6.33087 4.96538 5.68924
#
# Compressibility (1/GPa) = 0.03470086
#
# Stress axis : x y z
#
# Youngs Moduli (GPa) = 50.75694 74.04397 59.20217
#
# Poissons Ratio (x) = 0.05805 0.31415
# Poissons Ratio (y) = 0.03980 0.09522
# Poissons Ratio (z) = 0.26933 0.11909
#
# Static dielectric constant tensor:
#      x y z
#    x 1.960890 0.000000 0.030670 
#    y 0.000000 1.831740 0.000000 
#    z 0.030670 0.000000 1.837960 
# 
# From -- ./inp_files/64723.got.cif
#   From: 2010.05.17/outbox.cif.g08.bks.cpg/sg5_33_cif.got.tgz:64723.got - 2010.06.03 18:56:24.
