data_PCOD9129292
_publ_section_title
;
Structure prediction by ZEFSAII (Michael W. Deem and Ramdas Pophale) SiO2 
 PCOD9129292
Probable space group: C 2
;
_chemical_formula_sum "Si O2"
_cell_formula_units_Z 32
_cell_length_a 16.587203
_cell_length_b 18.144623
_cell_length_c 16.781665
_cell_angle_alpha 90.000000
_cell_angle_beta 163.011149
_cell_angle_gamma 90.000000
_cell_volume 1475.757459
_symmetry_space_group_name_H-M "C 2"
_symmetry_group_IT_number 5
_symmetry_cell_setting 'monoclinic'
loop_
_space_group_symop_operation_xyz
x,y,z
-x,y,-z
1/2+x,1/2+y,z
1/2-x,1/2+y,-z
loop_
_atom_site_type_symbol
_atom_site_label
_atom_site_fract_x
_atom_site_fract_y
_atom_site_fract_z
Si Si1 0.231442 0.566780 0.787009
Si Si2 0.309197 0.239203 0.511462
Si Si3 0.094576 0.505657 0.831147
Si Si4 0.161889 0.846916 0.073213
Si Si5 0.391020 0.734389 0.981366
Si Si6 0.709931 0.873712 0.528334
Si Si7 0.223657 0.182947 0.780547
Si Si8 0.914929 0.090715 0.622364
O O1 0.334232 0.647651 0.911425
O O2 0.000000 0.573464 0.500000
O O3 0.116275 0.530282 0.758478
O O4 0.500000 0.530167 0.000000
O O5 0.620033 0.252969 0.776622
O O6 0.237676 0.294073 0.514702
O O7 0.202855 0.157732 0.434667
O O8 0.136706 0.254911 0.270649
O O9 0.933292 0.427615 0.671117
O O10 0.870052 0.551784 0.669287
O O11 0.387705 0.531642 0.145557
O O12 0.476870 0.871016 0.375581
O O13 0.177505 0.757725 0.081066
O O14 0.000000 0.861789 0.000000
O O15 0.001567 0.885576 0.848017
O O16 0.500000 0.765007 0.000000
O O17 0.082004 0.127906 0.708667
O O18 0.000000 0.201783 0.500000
O O19 0.500000 0.152721 0.000000
#
# Coordination Sequence:
#
# PCOD9129292 Si02
#       8
#     4   4   4   4   4   4   4   4
#     4  11  21  36  58  89 127 165 206 249 312 389
#     4  12  22  40  67  93 124 171 221 269 321 380
#     4  12  26  42  61  95 133 176 217 264 329 387
#     4  11  23  40  64  95 134 175 214 257 325 403
#     4  11  22  38  63  96 126 159 214 276 326 376
#     4  12  26  42  63  95 135 178 217 268 326 392
#     4  11  23  40  68 103 129 162 218 282 333 382
#     4  12  23  42  68  94 128 172 219 275 320 387
#
# _framework density 21.683779999999999
#
# number of rings (size 3 to 8) (size 9 to 14) (size 15 to 20)
#    0.000    0.500    3.750    6.750    1.750    1.500 
#    0.000    0.000    0.000    7.500    0.000    0.000 
#    0.000    0.000    0.000    0.000    0.000    0.000 
#
# Total GULP energy -89266.437271 kJ/mol
# GULP energy per Si atom -5579.152329 kJ/mol
# Density = 2.163443 g / cm^3
# Si number density = 21.683780 Si / 1000 Ang^3
#
#
#
# Elastic Constant Matrix: (Units=GPa)
#
#
# Indices 1 2 3 4 5 6 
#
# 1 92.4233 4.3524 57.8956 -0.0596 31.0827 -0.0278
# 2 4.3524 49.9560 15.4109 -0.0297 0.8258 -0.0089
# 3 57.8956 15.4109 174.8711 -0.2162 17.7161 -0.0929
# 4 -0.0596 -0.0297 -0.2162 18.7021 -0.0925 -3.1880
# 5 31.0827 0.8258 17.7161 -0.0925 47.6122 -0.0326
# 6 -0.0278 -0.0089 -0.0929 -3.1880 -0.0326 8.2071
#
#
#
# Elastic Compliance Matrix: (Units=1/GPa)
#
#
# Indices 1 2 3 4 5 6 
#
# 1 0.016843 0.000120 -0.004648 -0.000055 -0.009268 -0.000053
# 2 0.000120 0.020583 -0.001880 0.000014 0.000265 0.000008
# 3 -0.004648 -0.001880 0.007391 0.000086 0.000317 0.000101
# 4 -0.000055 0.000014 0.000086 0.057264 0.000130 0.022245
# 5 -0.009268 0.000265 0.000317 0.000130 0.026931 0.000130
# 6 -0.000053 0.000008 0.000101 0.022245 0.000130 0.130488
#
#
# Mechanical properties :
#
#
# Convention : Reuss Voigt Hill
#
# Bulk Modulus (GPa) = 31.25063 52.50757 41.87910
# Shear Modulus (GPa) = 17.66892 30.87705 24.27298
#
# Velocity S-wave (km/s) = 2.85765 3.77765 3.34938
# Velocity P-wave (km/s) = 5.03304 6.57991 5.85776
#
# Compressibility (1/GPa) = 0.03199936
#
# Stress axis : x y z
#
# Youngs Moduli (GPa) = 59.37345 48.58402 135.29893
#
# Poissons Ratio (x) = -0.00581 0.62885
# Poissons Ratio (y) = -0.00710 0.25440
# Poissons Ratio (z) = 0.27596 0.09135
#
# Static dielectric constant tensor:
#      x y z
#    x 1.873620 -0.000060 0.049460 
#    y -0.000060 1.837350 -0.000080 
#    z 0.049460 -0.000080 1.782840 
# 
# From -- ./inp_files/55042.got.cif
#   From: 2010.05.17/outbox.cif.g08.bks.cpg/sg5_28_cif.got.tgz:55042.got - 2010.06.03 18:56:24.
