data_PCOD9129779
_publ_section_title
;
Structure prediction by ZEFSAII (Michael W. Deem and Ramdas Pophale) SiO2 
 PCOD9129779
Probable space group: C 2
;
_chemical_formula_sum "Si O2"
_cell_formula_units_Z 26
_cell_length_a 24.370211
_cell_length_b 8.722571
_cell_length_c 8.792661
_cell_angle_alpha 90.000000
_cell_angle_beta 42.905109
_cell_angle_gamma 90.000000
_cell_volume 1272.432833
_symmetry_space_group_name_H-M "C 2"
_symmetry_group_IT_number 5
_symmetry_cell_setting 'monoclinic'
loop_
_space_group_symop_operation_xyz
x,y,z
-x,y,-z
1/2+x,1/2+y,z
1/2-x,1/2+y,-z
loop_
_atom_site_type_symbol
_atom_site_label
_atom_site_fract_x
_atom_site_fract_y
_atom_site_fract_z
Si Si1 0.781907 0.967950 0.262923
Si Si2 0.865827 0.207518 0.916615
Si Si3 0.349524 0.194060 0.327247
Si Si4 0.000000 0.030444 0.500000
Si Si5 0.551192 0.271882 0.588396
Si Si6 0.408219 0.045172 0.902971
Si Si7 0.203628 0.754724 0.058075
O O1 0.802548 0.836686 0.344222
O O2 0.707503 0.072254 0.469431
O O3 0.774169 0.879461 0.116407
O O4 0.851582 0.091681 0.085557
O O5 0.905919 0.364376 0.889593
O O6 0.921998 0.133677 0.674493
O O7 0.779273 0.231935 0.013539
O O8 0.413052 0.260954 0.317333
O O9 0.392794 0.102789 0.104565
O O10 0.999313 0.921171 0.353963
O O11 0.491456 0.127809 0.685115
O O12 0.627197 0.288971 0.320835
O O13 0.331495 0.109346 0.963091
#
# Coordination Sequence:
#
# PCOD9129779 Si02
#       7
#     4   4   4   2   4   4   4
#     4  11  23  45  67 104 135 179 234 279 337 414
#     4  12  25  42  68 104 135 175 231 288 338 397
#     4  11  25  42  72  97 140 184 221 283 341 415
#     4  12  26  40  68 102 136 170 228 294 332 402
#     4  12  23  46  68  98 136 185 225 276 351 399
#     4  11  25  42  68 103 140 177 229 280 343 411
#     4  11  23  43  73  95 137 183 230 278 337 409
#
# _framework density 20.433298000000001
#
# number of rings (size 3 to 8) (size 9 to 14) (size 15 to 20)
#    0.000    0.615    4.615    3.231    2.154    1.231 
#    0.000    3.077    0.000    0.000    0.000    0.000 
#    0.000    0.000    0.000    0.000    0.000    0.000 
#
# Total GULP energy -72593.084921 kJ/mol
# GULP energy per Si atom -5584.083455 kJ/mol
# Density = 2.038679 g / cm^3
# Si number density = 20.433298 Si / 1000 Ang^3
#
#
#
# Elastic Constant Matrix: (Units=GPa)
#
#
# Indices 1 2 3 4 5 6 
#
# 1 103.1688 36.7795 38.2690 0.0000 2.4397 0.0000
# 2 36.7795 123.0964 36.0537 0.0000 0.3688 0.0000
# 3 38.2690 36.0537 104.9129 0.0000 -6.9372 0.0000
# 4 0.0000 0.0000 0.0000 44.8495 0.0000 4.1236
# 5 2.4397 0.3688 -6.9372 0.0000 37.6623 0.0000
# 6 0.0000 0.0000 0.0000 4.1236 0.0000 8.3801
#
#
#
# Elastic Compliance Matrix: (Units=1/GPa)
#
#
# Indices 1 2 3 4 5 6 
#
# 1 0.011955 -0.002516 -0.003589 0.000000 -0.001411 0.000000
# 2 -0.002516 0.009579 -0.002399 0.000000 -0.000373 0.000000
# 3 -0.003589 -0.002399 0.011826 0.000000 0.002434 0.000000
# 4 0.000000 0.000000 0.000000 0.023353 0.000000 -0.011491
# 5 -0.001411 -0.000373 0.002434 0.000000 0.027095 0.000000
# 6 0.000000 0.000000 0.000000 -0.011491 0.000000 0.124985
#
#
# Mechanical properties :
#
#
# Convention : Reuss Voigt Hill
#
# Bulk Modulus (GPa) = 61.15626 61.48692 61.32159
# Shear Modulus (GPa) = 21.62135 32.85010 27.23573
#
# Velocity S-wave (km/s) = 3.25644 4.01393 3.65486
# Velocity P-wave (km/s) = 6.64333 7.18603 6.92000
#
# Compressibility (1/GPa) = 0.01635156
#
# Stress axis : x y z
#
# Youngs Moduli (GPa) = 83.64919 104.39233 84.55784
#
# Poissons Ratio (x) = 0.26270 0.30350
# Poissons Ratio (y) = 0.21050 0.20283
# Poissons Ratio (z) = 0.30023 0.25040
#
# Static dielectric constant tensor:
#      x y z
#    x 1.699010 0.000000 -0.000040 
#    y 0.000000 1.742320 0.000000 
#    z -0.000040 0.000000 1.755200 
# 
# From -- ./inp_files/26538.got.cif
#   From: 2010.05.17/outbox.cif.g08.bks.cpg/sg5_14_cif.got.tgz:26538.got - 2010.06.03 18:56:24.
