data_PCOD9129823
_publ_section_title
;
Structure prediction by ZEFSAII (Michael W. Deem and Ramdas Pophale) SiO2 
 PCOD9129823
Probable space group: C 2
;
_chemical_formula_sum "Si O2"
_cell_formula_units_Z 30
_cell_length_a 19.964679
_cell_length_b 9.880970
_cell_length_c 11.207266
_cell_angle_alpha 90.000000
_cell_angle_beta 146.643902
_cell_angle_gamma 90.000000
_cell_volume 1215.622209
_symmetry_space_group_name_H-M "C 2"
_symmetry_group_IT_number 5
_symmetry_cell_setting 'monoclinic'
loop_
_space_group_symop_operation_xyz
x,y,z
-x,y,-z
1/2+x,1/2+y,z
1/2-x,1/2+y,-z
loop_
_atom_site_type_symbol
_atom_site_label
_atom_site_fract_x
_atom_site_fract_y
_atom_site_fract_z
Si Si1 0.122984 0.991010 0.461818
Si Si2 0.191869 0.444442 0.459153
Si Si3 0.006304 0.492456 0.641895
Si Si4 0.107729 0.120732 0.970256
Si Si5 0.423644 0.277195 0.193085
Si Si6 0.255104 0.867724 0.887655
Si Si7 0.000000 0.322900 0.000000
Si Si8 0.872831 0.824790 0.877183
O O1 0.202014 0.017049 0.459813
O O2 0.047296 0.850614 0.336579
O O3 0.203623 0.952750 0.698096
O O4 0.010269 0.098135 0.291893
O O5 0.115265 0.496919 0.458141
O O6 0.093041 0.410762 0.213248
O O7 0.263703 0.316758 0.622069
O O8 0.000000 0.430756 0.500000
O O9 0.044639 0.646980 0.686548
O O10 0.114031 0.420641 0.875318
O O11 0.222157 0.204155 0.089771
O O12 0.069543 0.225129 0.014978
O O13 0.130428 0.977587 0.070640
O O14 0.342916 0.378466 0.151585
O O15 0.358595 0.235026 0.973206
O O16 0.000000 0.802293 0.000000
#
# Coordination Sequence:
#
# PCOD9129823 Si02
#       8
#     4   4   4   4   4   4   2   4
#     4  11  24  46  76 112 143 194 254 309 381 460
#     4  12  23  44  74 109 150 185 250 308 376 464
#     4  12  28  49  72 105 148 202 243 310 394 452
#     4  11  23  44  76 108 143 195 248 305 386 439
#     4  11  27  48  73 105 148 198 248 316 382 453
#     4  12  26  49  74 109 155 196 254 312 384 465
#     4  12  22  44  70 108 156 192 234 320 382 434
#     4  11  23  47  73 110 140 190 253 310 374 456
#
# _framework density 24.678720999999999
#
# number of rings (size 3 to 8) (size 9 to 14) (size 15 to 20)
#    0.000    0.533    6.000    2.000    7.467    2.133 
#    6.000    0.000    0.000    0.000    0.000    0.000 
#    0.000    0.000    0.000    0.000    0.000    0.000 
#
# Total GULP energy -83778.168132 kJ/mol
# GULP energy per Si atom -5585.211209 kJ/mol
# Density = 2.462255 g / cm^3
# Si number density = 24.678721 Si / 1000 Ang^3
#
#
#
# Elastic Constant Matrix: (Units=GPa)
#
#
# Indices 1 2 3 4 5 6 
#
# 1 179.0550 19.8835 60.8645 0.0000 9.2111 0.0000
# 2 19.8835 40.0668 2.7086 0.0000 4.7532 0.0000
# 3 60.8645 2.7086 144.7016 0.0000 -17.7226 0.0000
# 4 0.0000 0.0000 0.0000 16.0819 0.0000 -7.0897
# 5 9.2111 4.7532 -17.7226 0.0000 50.1881 0.0000
# 6 0.0000 0.0000 0.0000 -7.0897 0.0000 8.5659
#
#
#
# Elastic Compliance Matrix: (Units=1/GPa)
#
#
# Indices 1 2 3 4 5 6 
#
# 1 0.007124 -0.003064 -0.003202 0.000000 -0.002148 0.000000
# 2 -0.003064 0.026649 0.000575 0.000000 -0.001759 0.000000
# 3 -0.003202 0.000575 0.008688 0.000000 0.003601 0.000000
# 4 0.000000 0.000000 0.000000 0.097904 0.000000 0.081031
# 5 -0.002148 -0.001759 0.003601 0.000000 0.021758 0.000000
# 6 0.000000 0.000000 0.000000 0.081031 0.000000 0.183809
#
#
# Mechanical properties :
#
#
# Convention : Reuss Voigt Hill
#
# Bulk Modulus (GPa) = 32.17781 58.97073 45.57427
# Shear Modulus (GPa) = 13.59900 33.65831 23.62866
#
# Velocity S-wave (km/s) = 2.34997 3.69705 3.09763
# Velocity P-wave (km/s) = 4.51997 6.49396 5.59472
#
# Compressibility (1/GPa) = 0.03107732
#
# Stress axis : x y z
#
# Youngs Moduli (GPa) = 140.36708 37.52527 115.10058
#
# Poissons Ratio (x) = 0.11498 0.36859
# Poissons Ratio (y) = 0.43010 -0.06614
# Poissons Ratio (z) = 0.44950 -0.02156
#
# Static dielectric constant tensor:
#      x y z
#    x 2.061270 0.000000 0.029810 
#    y 0.000000 1.968710 0.000000 
#    z 0.029810 0.000000 2.072180 
# 
# From -- ./inp_files/46498.got.cif
#   From: 2010.05.17/outbox.cif.g08.bks.cpg/sg5_24_cif.got.tgz:46498.got - 2010.06.03 18:56:24.
