data_PCOD9129441
_publ_section_title
;
Structure prediction by ZEFSAII (Michael W. Deem and Ramdas Pophale) SiO2 
 PCOD9129441
Probable space group: C 2
;
_chemical_formula_sum "Si O2"
_cell_formula_units_Z 30
_cell_length_a 15.624166
_cell_length_b 18.312614
_cell_length_c 12.218656
_cell_angle_alpha 90.000000
_cell_angle_beta 153.780109
_cell_angle_gamma 90.000000
_cell_volume 1544.590510
_symmetry_space_group_name_H-M "C 2"
_symmetry_group_IT_number 5
_symmetry_cell_setting 'monoclinic'
loop_
_space_group_symop_operation_xyz
x,y,z
-x,y,-z
1/2+x,1/2+y,z
1/2-x,1/2+y,-z
loop_
_atom_site_type_symbol
_atom_site_label
_atom_site_fract_x
_atom_site_fract_y
_atom_site_fract_z
Si Si1 0.515109 0.470520 0.735918
Si Si2 0.969159 0.813950 0.589847
Si Si3 0.364457 0.037708 0.238998
Si Si4 0.353493 0.153002 0.912523
Si Si5 0.146699 0.559971 0.389080
Si Si6 0.285719 0.696420 0.013348
Si Si7 0.637537 0.698039 0.262878
Si Si8 0.500000 0.557001 0.500000
O O1 0.480429 0.385664 0.676300
O O2 0.319104 0.511317 0.543602
O O3 0.573134 0.508928 0.686293
O O4 0.675545 0.487632 0.011950
O O5 0.777004 0.765922 0.393578
O O6 0.000000 0.837757 0.500000
O O7 0.146699 0.759691 0.813407
O O8 0.500000 0.038530 0.500000
O O9 0.507116 0.013749 0.306019
O O10 0.286667 0.119193 0.120740
O O11 0.173565 0.108571 0.656168
O O12 0.500000 0.196473 0.000000
O O13 0.506473 0.095386 0.138433
O O14 0.252960 0.191996 0.901004
O O15 0.233472 0.627351 0.559918
O O16 0.499455 0.709287 0.210290
O O17 0.500000 0.684421 0.000000
#
# Coordination Sequence:
#
# PCOD9129441 Si02
#       8
#     4   4   4   4   4   4   4   2
#     4  12  25  40  65  99 137 175 217 278 340 407
#     4  12  25  42  64  98 141 172 215 282 345 404
#     4  11  22  41  70  96 130 173 231 282 327 396
#     4  11  22  37  66  93 130 171 229 275 325 393
#     4  11  22  38  65  98 127 171 225 279 325 400
#     4  11  22  40  65  99 129 174 223 277 340 391
#     4  12  22  39  69 101 130 171 223 282 340 397
#     4  12  20  40  60  96 134 174 218 266 336 398
#
# _framework density 19.422623999999999
#
# number of rings (size 3 to 8) (size 9 to 14) (size 15 to 20)
#    0.000    0.533   10.000    1.200    0.000    1.067 
#    2.400    0.000    4.400    0.000    0.000    0.000 
#    0.000    0.000    0.000    0.000    0.000    0.000 
#
# Total GULP energy -83699.450525 kJ/mol
# GULP energy per Si atom -5579.963368 kJ/mol
# Density = 1.937842 g / cm^3
# Si number density = 19.422624 Si / 1000 Ang^3
#
#
#
# Elastic Constant Matrix: (Units=GPa)
#
#
# Indices 1 2 3 4 5 6 
#
# 1 83.5904 5.8636 4.5688 0.0000 29.4061 0.0000
# 2 5.8636 90.2399 34.9909 0.0000 3.2747 0.0000
# 3 4.5688 34.9909 84.1471 0.0000 14.4896 0.0000
# 4 0.0000 0.0000 0.0000 -3.6439 0.0000 -1.0651
# 5 29.4061 3.2747 14.4896 0.0000 40.0076 0.0000
# 6 0.0000 0.0000 0.0000 -1.0651 0.0000 20.7747
#
#
#
# Elastic Compliance Matrix: (Units=1/GPa)
#
#
# Indices 1 2 3 4 5 6 
#
# 1 0.016388 -0.001316 0.001827 0.000000 -0.012599 0.000000
# 2 -0.001316 0.013353 -0.005823 0.000000 0.001983 0.000000
# 3 0.001827 -0.005823 0.015310 0.000000 -0.006411 0.000000
# 4 0.000000 0.000000 0.000000 -0.270377 0.000000 -0.013862
# 5 -0.012599 0.001983 -0.006411 0.000000 0.036415 0.000000
# 6 0.000000 0.000000 0.000000 -0.013862 0.000000 0.047425
#
#
# Mechanical properties :
#
#
# Convention : Reuss Voigt Hill
#
# Bulk Modulus (GPa) = 29.04672 38.75821 33.90247
# Shear Modulus (GPa) = -41.88061 25.59795 -8.14133
#
# Velocity S-wave (km/s) = -4.64861 3.63429 -2.04958
# Velocity P-wave (km/s) = 3.71823 6.13264 3.44848
#
# Compressibility (1/GPa) = 0.03442730
#
# Stress axis : x y z
#
# Youngs Moduli (GPa) = 61.02104 74.89040 65.31721
#
# Poissons Ratio (x) = 0.09856 -0.11933
# Poissons Ratio (y) = 0.08031 0.38031
# Poissons Ratio (z) = -0.11148 0.43605
#
# Static dielectric constant tensor:
#      x y z
#    x 1.783480 0.000000 -0.027780 
#    y 0.000000 1.639950 0.000000 
#    z -0.027780 0.000000 1.695530 
# 
# From -- ./inp_files/43311.got.cif
#   From: 2010.05.17/outbox.cif.g08.bks.cpg/sg5_22_cif.got.tgz:43311.got - 2010.06.03 18:56:24.
