data_PCOD9129416
_publ_section_title
;
Structure prediction by ZEFSAII (Michael W. Deem and Ramdas Pophale) SiO2 
 PCOD9129416
Probable space group: C 2
;
_chemical_formula_sum "Si O2"
_cell_formula_units_Z 24
_cell_length_a 20.383793
_cell_length_b 9.861149
_cell_length_c 7.608718
_cell_angle_alpha 90.000000
_cell_angle_beta 125.584739
_cell_angle_gamma 90.000000
_cell_volume 1243.801768
_symmetry_space_group_name_H-M "C 2"
_symmetry_group_IT_number 5
_symmetry_cell_setting 'monoclinic'
loop_
_space_group_symop_operation_xyz
x,y,z
-x,y,-z
1/2+x,1/2+y,z
1/2-x,1/2+y,-z
loop_
_atom_site_type_symbol
_atom_site_label
_atom_site_fract_x
_atom_site_fract_y
_atom_site_fract_z
Si Si1 0.093450 0.420720 0.697022
Si Si2 0.229297 0.527995 0.647564
Si Si3 0.827173 0.132999 0.135222
Si Si4 0.347161 0.175413 0.022957
Si Si5 0.590905 0.374111 0.592740
Si Si6 0.832881 0.793567 0.643380
O O1 0.149615 0.471944 0.622683
O O2 0.130533 0.278065 0.816907
O O3 0.106285 0.537352 0.862717
O O4 0.000000 0.409315 0.500000
O O5 0.207791 0.658911 0.499766
O O6 0.268819 0.409249 0.594677
O O7 0.291904 0.573203 0.898204
O O8 0.887025 0.025249 0.314630
O O9 0.748355 0.146267 0.136429
O O10 0.355604 0.273811 0.204079
O O11 0.374866 0.249628 0.890482
O O12 0.500000 0.340832 0.500000
O O13 0.609430 0.349367 0.418644
#
# Coordination Sequence:
#
# PCOD9129416 Si02
#       6
#     4   4   4   4   4   4
#     4  11  23  43  68  99 139 173 214 276 340 380
#     4  11  25  41  71 101 125 182 226 267 325 399
#     4  11  21  45  67  95 135 177 222 264 323 404
#     4  11  22  43  69  95 129 175 225 262 324 397
#     4  12  25  43  67 100 134 171 216 281 335 379
#     4  12  24  43  72  97 133 172 232 267 325 402
#
# _framework density 19.295679
#
# number of rings (size 3 to 8) (size 9 to 14) (size 15 to 20)
#    0.000    0.667    6.667    3.000    2.333    0.667 
#    0.000    0.000    0.000    0.000    0.000    0.000 
#    0.000    0.000    0.000    0.000    0.000    0.000 
#
# Total GULP energy -67080.401127 kJ/mol
# GULP energy per Si atom -5590.033427 kJ/mol
# Density = 1.925176 g / cm^3
# Si number density = 19.295679 Si / 1000 Ang^3
#
#
#
# Elastic Constant Matrix: (Units=GPa)
#
#
# Indices 1 2 3 4 5 6 
#
# 1 114.8958 34.4145 41.6958 0.0000 -9.8963 0.0000
# 2 34.4145 118.9754 15.1253 0.0000 3.1363 0.0000
# 3 41.6958 15.1253 42.9345 0.0000 0.5119 0.0000
# 4 0.0000 0.0000 0.0000 38.4613 0.0000 -6.8127
# 5 -9.8963 3.1363 0.5119 0.0000 34.6722 0.0000
# 6 0.0000 0.0000 0.0000 -6.8127 0.0000 11.8295
#
#
#
# Elastic Compliance Matrix: (Units=1/GPa)
#
#
# Indices 1 2 3 4 5 6 
#
# 1 0.014806 -0.002691 -0.013486 0.000000 0.004669 0.000000
# 2 -0.002691 0.009308 -0.000646 0.000000 -0.001601 0.000000
# 3 -0.013486 -0.000646 0.036668 0.000000 -0.004332 0.000000
# 4 0.000000 0.000000 0.000000 0.028954 0.000000 0.016675
# 5 0.004669 -0.001601 -0.004332 0.000000 0.030383 0.000000
# 6 0.000000 0.000000 0.000000 0.016675 0.000000 0.094137
#
#
# Mechanical properties :
#
#
# Convention : Reuss Voigt Hill
#
# Bulk Modulus (GPa) = 36.85438 51.03078 43.94258
# Shear Modulus (GPa) = 19.45916 29.36395 24.41155
#
# Velocity S-wave (km/s) = 3.17909 3.90524 3.56073
# Velocity P-wave (km/s) = 5.71111 6.84388 6.30299
#
# Compressibility (1/GPa) = 0.02713382
#
# Stress axis : x y z
#
# Youngs Moduli (GPa) = 67.54021 107.43527 27.27180
#
# Poissons Ratio (x) = 0.28914 0.36780
# Poissons Ratio (y) = 0.18177 0.01763
# Poissons Ratio (z) = 0.91087 0.06944
#
# Static dielectric constant tensor:
#      x y z
#    x 1.661300 0.000000 -0.013420 
#    y 0.000000 1.674200 0.000000 
#    z -0.013420 0.000000 1.660700 
# 
# From -- ./inp_files/28989.got.cif
#   From: 2010.05.17/outbox.cif.g08.bks.cpg/sg5_15_cif.got.tgz:28989.got - 2010.06.03 18:56:24.
