data_PCOD9129020
_publ_section_title
;
Structure prediction by ZEFSAII (Michael W. Deem and Ramdas Pophale) SiO2 
 PCOD9129020
Probable space group: C 2
;
_chemical_formula_sum "Si O2"
_cell_formula_units_Z 30
_cell_length_a 18.806838
_cell_length_b 7.525795
_cell_length_c 21.074971
_cell_angle_alpha 90.000000
_cell_angle_beta 153.334987
_cell_angle_gamma 90.000000
_cell_volume 1338.635226
_symmetry_space_group_name_H-M "C 2"
_symmetry_group_IT_number 5
_symmetry_cell_setting 'monoclinic'
loop_
_space_group_symop_operation_xyz
x,y,z
-x,y,-z
1/2+x,1/2+y,z
1/2-x,1/2+y,-z
loop_
_atom_site_type_symbol
_atom_site_label
_atom_site_fract_x
_atom_site_fract_y
_atom_site_fract_z
Si Si1 0.299790 0.222610 0.956372
Si Si2 0.369038 0.621950 0.448483
Si Si3 0.662901 0.010422 0.591869
Si Si4 0.376812 0.833082 0.785767
Si Si5 0.074125 0.480174 0.839060
Si Si6 0.637672 0.149305 0.434098
Si Si7 0.000000 0.570086 0.000000
Si Si8 0.524251 0.549205 0.330942
O O1 0.221591 0.410293 0.914329
O O2 0.146565 0.093341 0.831463
O O3 0.397719 0.152674 0.094739
O O4 0.393104 0.189924 0.963831
O O5 0.500000 0.598225 0.500000
O O6 0.252089 0.457659 0.351726
O O7 0.464416 0.625342 0.589409
O O8 0.278761 0.807653 0.366883
O O9 0.500000 0.008120 0.500000
O O10 0.795172 0.141422 0.725700
O O11 0.605461 0.076508 0.477667
O O12 0.523588 0.838081 0.853529
O O13 0.412733 0.935968 0.880443
O O14 0.936502 0.526447 0.679448
O O15 0.564964 0.342251 0.365340
O O16 0.827731 0.143846 0.584003
#
# Coordination Sequence:
#
# PCOD9129020 Si02
#       8
#     4   4   4   4   4   4   2   4
#     4  11  24  45  69 101 138 192 234 293 347 431
#     4  11  22  39  66  98 136 175 221 285 347 412
#     4  11  24  39  65 102 137 174 227 285 347 416
#     4  11  22  46  68 101 136 187 228 293 343 426
#     4  11  24  45  69  99 141 180 242 287 356 415
#     4  12  23  40  68 106 133 179 227 290 347 419
#     4  10  26  44  76  92 144 194 236 282 374 410
#     4  12  23  39  70  99 137 178 223 286 348 407
#
# _framework density 22.410883999999999
#
# number of rings (size 3 to 8) (size 9 to 14) (size 15 to 20)
#    0.000    0.800    2.667    5.200    1.867    1.067 
#    4.800    0.667    0.000    0.000    0.000    0.000 
#    0.000    0.000    0.000    0.000    0.000    0.000 
#
# Total GULP energy -83825.489253 kJ/mol
# GULP energy per Si atom -5588.365950 kJ/mol
# Density = 2.235988 g / cm^3
# Si number density = 22.410884 Si / 1000 Ang^3
#
#
#
# Elastic Constant Matrix: (Units=GPa)
#
#
# Indices 1 2 3 4 5 6 
#
# 1 131.9964 37.9898 25.5559 0.0000 -10.9111 0.0000
# 2 37.9898 62.0244 -10.2988 0.0001 18.3992 -0.0002
# 3 25.5559 -10.2988 56.6567 0.0000 -2.6791 -0.0002
# 4 0.0000 0.0001 0.0000 28.0083 0.0000 4.1995
# 5 -10.9111 18.3992 -2.6791 0.0000 25.4102 0.0000
# 6 0.0000 -0.0002 -0.0002 4.1995 0.0000 36.4803
#
#
#
# Elastic Compliance Matrix: (Units=1/GPa)
#
#
# Indices 1 2 3 4 5 6 
#
# 1 0.015361 -0.016023 -0.009026 0.000000 0.017246 0.000000
# 2 -0.016023 0.037783 0.012539 0.000000 -0.032917 0.000000
# 3 -0.009026 0.012539 0.023505 0.000000 -0.010477 0.000000
# 4 0.000000 0.000000 0.000000 0.036331 0.000000 -0.004182
# 5 0.017246 -0.032917 -0.010477 0.000000 0.069490 0.000000
# 6 0.000000 0.000000 0.000000 -0.004182 0.000000 0.027894
#
#
# Mechanical properties :
#
#
# Convention : Reuss Voigt Hill
#
# Bulk Modulus (GPa) = 19.36867 39.68569 29.52718
# Shear Modulus (GPa) = 19.79470 31.14181 25.46825
#
# Velocity S-wave (km/s) = 2.97520 3.73176 3.37475
# Velocity P-wave (km/s) = 4.52368 6.02617 5.32815
#
# Compressibility (1/GPa) = 0.05162978
#
# Stress axis : x y z
#
# Youngs Moduli (GPa) = 65.10143 26.46666 42.54365
#
# Poissons Ratio (x) = 0.42408 0.38399
# Poissons Ratio (y) = 1.04312 -0.53346
# Poissons Ratio (z) = 0.58759 -0.33187
#
# Static dielectric constant tensor:
#      x y z
#    x 1.798370 0.000000 0.026730 
#    y 0.000000 1.856770 0.000000 
#    z 0.026730 0.000000 1.812020 
# 
# From -- ./inp_files/66616.got.cif
#   From: 2010.05.17/outbox.cif.g08.bks.cpg/sg5_34_cif.got.tgz:66616.got - 2010.06.03 18:56:24.
