data_PCOD9129124
_publ_section_title
;
Structure prediction by ZEFSAII (Michael W. Deem and Ramdas Pophale) SiO2 
 PCOD9129124
Probable space group: C 2
;
_chemical_formula_sum "Si O2"
_cell_formula_units_Z 26
_cell_length_a 15.766789
_cell_length_b 6.938466
_cell_length_c 20.877971
_cell_angle_alpha 90.000000
_cell_angle_beta 32.785710
_cell_angle_gamma 90.000000
_cell_volume 1236.779585
_symmetry_space_group_name_H-M "C 2"
_symmetry_group_IT_number 5
_symmetry_cell_setting 'monoclinic'
loop_
_space_group_symop_operation_xyz
x,y,z
-x,y,-z
1/2+x,1/2+y,z
1/2-x,1/2+y,-z
loop_
_atom_site_type_symbol
_atom_site_label
_atom_site_fract_x
_atom_site_fract_y
_atom_site_fract_z
Si Si1 0.984346 0.273770 0.239579
Si Si2 0.686916 0.155280 0.687575
Si Si3 0.459702 0.483483 0.133918
Si Si4 0.994554 0.725593 0.637057
Si Si5 0.757997 0.493694 0.852524
Si Si6 0.500000 0.403707 0.500000
Si Si7 0.275594 0.479118 0.442331
O O1 0.134273 0.314627 0.190514
O O2 0.931313 0.485248 0.253863
O O3 0.846860 0.169586 0.365724
O O4 0.987520 0.141658 0.172980
O O5 0.594654 0.286731 0.797203
O O6 0.725192 0.303625 0.606390
O O7 0.849588 0.045140 0.597408
O O8 0.323876 0.494898 0.165690
O O9 0.619550 0.495322 0.992005
O O10 0.959606 0.760209 0.584941
O O11 0.104141 0.537053 0.572726
O O12 0.863840 0.686119 0.773783
O O13 0.098555 0.912321 0.586093
#
# Coordination Sequence:
#
# PCOD9129124 Si02
#       7
#     4   4   4   4   4   2   4
#     4  11  23  47  73 101 141 186 238 296 360 428
#     4  11  24  46  68 105 136 181 236 289 363 429
#     4  10  27  47  70 106 145 182 246 300 345 440
#     4  12  24  42  70 102 139 186 232 290 365 431
#     4  11  25  47  71 103 143 195 236 295 364 422
#     4  12  26  40  72 108 140 188 228 308 368 422
#     4  11  24  43  66 102 139 176 234 294 350 437
#
# _framework density 21.022338999999999
#
# number of rings (size 3 to 8) (size 9 to 14) (size 15 to 20)
#    0.000    0.923    3.077    2.769    8.615    0.000 
#    0.000    1.538    0.000    0.000    0.000    0.000 
#    0.000    0.000    0.000    0.000    0.000    0.000 
#
# Total GULP energy -72397.186334 kJ/mol
# GULP energy per Si atom -5569.014333 kJ/mol
# Density = 2.097449 g / cm^3
# Si number density = 21.022339 Si / 1000 Ang^3
#
#
#
# Elastic Constant Matrix: (Units=GPa)
#
#
# Indices 1 2 3 4 5 6 
#
# 1 90.5103 39.7493 43.4572 0.0001 3.8580 0.0000
# 2 39.7493 108.0704 48.2658 0.0002 6.6462 -0.0001
# 3 43.4572 48.2658 97.9600 0.0001 7.5372 0.0000
# 4 0.0001 0.0002 0.0001 22.1905 0.0000 -5.5557
# 5 3.8580 6.6462 7.5372 0.0000 29.4616 0.0000
# 6 0.0000 -0.0001 0.0000 -5.5557 0.0000 25.9188
#
#
#
# Elastic Compliance Matrix: (Units=1/GPa)
#
#
# Indices 1 2 3 4 5 6 
#
# 1 0.014872 -0.003238 -0.005007 0.000000 0.000064 0.000000
# 2 -0.003238 0.012611 -0.004683 0.000000 -0.001223 0.000000
# 3 -0.005007 -0.004683 0.014898 0.000000 -0.002099 0.000000
# 4 0.000000 0.000000 0.000000 0.047620 0.000000 0.010207
# 5 0.000064 -0.001223 -0.002099 0.000000 0.034747 0.000000
# 6 0.000000 0.000000 0.000000 0.010207 0.000000 0.040770
#
#
# Mechanical properties :
#
#
# Convention : Reuss Voigt Hill
#
# Bulk Modulus (GPa) = 60.51340 62.16504 61.33922
# Shear Modulus (GPa) = 25.39591 26.51873 25.95732
#
# Velocity S-wave (km/s) = 3.47946 3.55555 3.51771
# Velocity P-wave (km/s) = 6.70746 6.81843 6.76317
#
# Compressibility (1/GPa) = 0.01652526
#
# Stress axis : x y z
#
# Youngs Moduli (GPa) = 67.24183 79.29713 67.12106
#
# Poissons Ratio (x) = 0.25673 0.33608
# Poissons Ratio (y) = 0.21770 0.31433
# Poissons Ratio (z) = 0.33669 0.37136
#
# Static dielectric constant tensor:
#      x y z
#    x 1.915780 0.000000 -0.025310 
#    y 0.000000 1.723380 0.000000 
#    z -0.025310 0.000000 1.767690 
# 
# From -- ./inp_files/68992.got.cif
#   From: 2010.05.17/outbox.cif.g08.bks.cpg/sg5_35_cif.got.tgz:68992.got - 2010.06.03 18:56:24.
