data_PCOD9129050
_publ_section_title
;
Structure prediction by ZEFSAII (Michael W. Deem and Ramdas Pophale) SiO2 
 PCOD9129050
Probable space group: C 2
;
_chemical_formula_sum "Si O2"
_cell_formula_units_Z 14
_cell_length_a 11.362170
_cell_length_b 10.926082
_cell_length_c 4.941851
_cell_angle_alpha 90.000000
_cell_angle_beta 117.964282
_cell_angle_gamma 90.000000
_cell_volume 541.868815
_symmetry_space_group_name_H-M "C 2"
_symmetry_group_IT_number 5
_symmetry_cell_setting 'monoclinic'
loop_
_space_group_symop_operation_xyz
x,y,z
-x,y,-z
1/2+x,1/2+y,z
1/2-x,1/2+y,-z
loop_
_atom_site_type_symbol
_atom_site_label
_atom_site_fract_x
_atom_site_fract_y
_atom_site_fract_z
Si Si1 0.369389 0.776110 0.188726
Si Si2 0.500000 0.600833 0.000000
Si Si3 0.000000 0.919867 0.500000
Si Si4 0.628825 0.225220 0.326877
Si Si5 0.000000 0.508654 0.500000
O O1 0.500000 0.734774 0.500000
O O2 0.247964 0.741825 0.247534
O O3 0.405027 0.920408 0.215155
O O4 0.379151 0.697156 0.925566
O O5 0.513484 0.507621 0.768317
O O6 0.878655 0.828821 0.446634
O O7 0.596517 0.094859 0.428300
O O8 0.500000 0.249233 0.000000
#
# Coordination Sequence:
#
# PCOD9129050 Si02
#       5
#     4   2   2   4   2
#     4  10  26  46  77 110 156 204 254 317 394 453
#     4  12  24  48  76 114 150 202 264 318 380 472
#     4  11  25  48  74 114 151 199 266 318 380 469
#     4  11  25  48  80 112 154 208 257 324 394 453
#     4   9  25  48  74 112 159 193 264 320 384 473
#
# _framework density 25.836507999999998
#
# number of rings (size 3 to 8) (size 9 to 14) (size 15 to 20)
#    0.857    0.571    2.857    0.000    6.000    6.857 
#    0.000    0.000    0.000    0.000    0.000    0.000 
#    0.000    0.000    0.000    0.000    0.000    0.000 
#
# Total GULP energy -39126.212110 kJ/mol
# GULP energy per Si atom -5589.458873 kJ/mol
# Density = 2.577770 g / cm^3
# Si number density = 25.836508 Si / 1000 Ang^3
#
#
#
# Elastic Constant Matrix: (Units=GPa)
#
#
# Indices 1 2 3 4 5 6 
#
# 1 280.4272 96.3556 42.8071 0.0000 -34.6552 0.0000
# 2 96.3556 230.9557 41.9072 0.0000 -39.0896 0.0000
# 3 42.8071 41.9072 84.9347 0.0000 -38.7964 0.0000
# 4 0.0000 0.0000 0.0000 112.8889 0.0000 -41.2911
# 5 -34.6552 -39.0896 -38.7964 0.0000 51.8746 0.0000
# 6 0.0000 0.0000 0.0000 -41.2911 0.0000 53.8691
#
#
#
# Elastic Compliance Matrix: (Units=1/GPa)
#
#
# Indices 1 2 3 4 5 6 
#
# 1 0.004348 -0.001454 -0.000984 0.000000 0.001074 0.000000
# 2 -0.001454 0.005521 -0.000812 0.000000 0.002581 0.000000
# 3 -0.000984 -0.000812 0.018364 0.000000 0.012465 0.000000
# 4 0.000000 0.000000 0.000000 0.012309 0.000000 0.009435
# 5 0.001074 0.002581 0.012465 0.000000 0.031262 0.000000
# 6 0.000000 0.000000 0.000000 0.009435 0.000000 0.025796
#
#
# Mechanical properties :
#
#
# Convention : Reuss Voigt Hill
#
# Bulk Modulus (GPa) = 46.01160 106.49529 76.25344
# Shear Modulus (GPa) = 44.90563 71.40970 58.15766
#
# Velocity S-wave (km/s) = 4.17354 5.26299 4.74960
# Velocity P-wave (km/s) = 6.40874 8.84537 7.72374
#
# Compressibility (1/GPa) = 0.02173365
#
# Stress axis : x y z
#
# Youngs Moduli (GPa) = 229.96824 181.13709 54.45418
#
# Poissons Ratio (x) = 0.26337 0.05357
# Poissons Ratio (y) = 0.33436 0.04422
# Poissons Ratio (z) = 0.22625 0.14708
#
# Static dielectric constant tensor:
#      x y z
#    x 1.979600 0.000000 -0.014650 
#    y 0.000000 2.054480 0.000000 
#    z -0.014650 0.000000 2.077740 
# 
# From -- ./inp_files/4218.got.cif
#   From: 2010.05.17/outbox.cif.g08.bks.cpg/sg5_3_cif.got.tgz:4218.got - 2010.06.03 18:56:24.
