data_PCOD9129957
_publ_section_title
;
Structure prediction by ZEFSAII (Michael W. Deem and Ramdas Pophale) SiO2 
 PCOD9129957
Probable space group: C 2
;
_chemical_formula_sum "Si O2"
_cell_formula_units_Z 22
_cell_length_a 21.673146
_cell_length_b 8.353158
_cell_length_c 5.377459
_cell_angle_alpha 90.000000
_cell_angle_beta 110.679842
_cell_angle_gamma 90.000000
_cell_volume 910.804724
_symmetry_space_group_name_H-M "C 2"
_symmetry_group_IT_number 5
_symmetry_cell_setting 'monoclinic'
loop_
_space_group_symop_operation_xyz
x,y,z
-x,y,-z
1/2+x,1/2+y,z
1/2-x,1/2+y,-z
loop_
_atom_site_type_symbol
_atom_site_label
_atom_site_fract_x
_atom_site_fract_y
_atom_site_fract_z
Si Si1 0.896679 0.649960 0.132830
Si Si2 0.577483 0.969170 0.343080
Si Si3 0.384368 0.517349 0.087282
Si Si4 0.000000 0.214822 0.500000
Si Si5 0.256358 0.024543 0.842883
Si Si6 0.685030 0.740502 0.363037
O O1 0.926600 0.596752 0.439177
O O2 0.906492 0.835503 0.085093
O O3 0.920442 0.548949 0.925675
O O4 0.819030 0.610913 0.050153
O O5 0.522948 0.834815 0.315508
O O6 0.646472 0.871354 0.472227
O O7 0.438522 0.609120 0.326123
O O8 0.311554 0.513704 0.105287
O O9 0.370407 0.621595 0.822930
O O10 0.280466 0.848691 0.796967
O O11 0.237686 0.133799 0.579478
#
# Coordination Sequence:
#
# PCOD9129957 Si02
#       6
#     4   4   4   2   4   4
#     4  11  28  47  79 111 158 186 259 307 394 435
#     4  11  27  51  73 111 147 210 241 317 368 451
#     4  12  27  46  76 115 145 207 248 318 366 459
#     4  12  26  54  78 102 158 198 268 298 374 450
#     4  11  24  42  75 113 155 193 240 319 376 458
#     4  11  25  43  74 111 153 191 253 303 390 434
#
# _framework density 24.154464000000001
#
# number of rings (size 3 to 8) (size 9 to 14) (size 15 to 20)
#    0.000    0.727    1.818    4.364   15.273    3.636 
#    0.000    1.818    0.000    0.000    0.000    0.000 
#    0.000    0.000    0.000    0.000    0.000    0.000 
#
# Total GULP energy -61620.913087 kJ/mol
# GULP energy per Si atom -5601.901190 kJ/mol
# Density = 2.409949 g / cm^3
# Si number density = 24.154464 Si / 1000 Ang^3
#
#
#
# Elastic Constant Matrix: (Units=GPa)
#
#
# Indices 1 2 3 4 5 6 
#
# 1 119.5675 42.5353 27.2353 0.0000 -2.6937 0.0000
# 2 42.5353 169.9380 42.9128 0.0000 -8.0341 0.0000
# 3 27.2353 42.9128 86.2045 0.0000 -4.7794 0.0000
# 4 0.0000 0.0000 0.0000 41.2298 0.0000 -2.2427
# 5 -2.6937 -8.0341 -4.7794 0.0000 29.4343 0.0000
# 6 0.0000 0.0000 0.0000 -2.2427 0.0000 23.9608
#
#
#
# Elastic Compliance Matrix: (Units=1/GPa)
#
#
# Indices 1 2 3 4 5 6 
#
# 1 0.009496 -0.001851 -0.002077 0.000000 0.000027 0.000000
# 2 -0.001851 0.007141 -0.002898 0.000000 0.001309 0.000000
# 3 -0.002077 -0.002898 0.013769 0.000000 0.001255 0.000000
# 4 0.000000 0.000000 0.000000 0.024378 0.000000 0.002282
# 5 0.000027 0.001309 0.001255 0.000000 0.034538 0.000000
# 6 0.000000 0.000000 0.000000 0.002282 0.000000 0.041948
#
#
# Mechanical properties :
#
#
# Convention : Reuss Voigt Hill
#
# Bulk Modulus (GPa) = 59.68668 66.78630 63.23649
# Shear Modulus (GPa) = 33.22124 36.46010 34.84067
#
# Velocity S-wave (km/s) = 3.71262 3.88939 3.80203
# Velocity P-wave (km/s) = 6.56826 6.91950 6.74617
#
# Compressibility (1/GPa) = 0.01675416
#
# Stress axis : x y z
#
# Youngs Moduli (GPa) = 105.31096 140.02847 72.62915
#
# Poissons Ratio (x) = 0.25919 0.15086
# Poissons Ratio (y) = 0.19493 0.21045
# Poissons Ratio (z) = 0.21875 0.40575
#
# Static dielectric constant tensor:
#      x y z
#    x 1.962280 0.000000 -0.025040 
#    y 0.000000 1.874390 0.000000 
#    z -0.025040 0.000000 1.930260 
# 
# From -- ./inp_files/9292.got.cif
#   From: 2010.05.17/outbox.cif.g08.bks.cpg/sg5_5_cif.got.tgz:9292.got - 2010.06.03 18:56:24.
