data_PCOD9129806
_publ_section_title
;
Structure prediction by ZEFSAII (Michael W. Deem and Ramdas Pophale) SiO2 
 PCOD9129806
Probable space group: C 2
;
_chemical_formula_sum "Si O2"
_cell_formula_units_Z 32
_cell_length_a 17.920895
_cell_length_b 10.978502
_cell_length_c 14.801307
_cell_angle_alpha 90.000000
_cell_angle_beta 151.235982
_cell_angle_gamma 90.000000
_cell_volume 1401.300908
_symmetry_space_group_name_H-M "C 2"
_symmetry_group_IT_number 5
_symmetry_cell_setting 'monoclinic'
loop_
_space_group_symop_operation_xyz
x,y,z
-x,y,-z
1/2+x,1/2+y,z
1/2-x,1/2+y,-z
loop_
_atom_site_type_symbol
_atom_site_label
_atom_site_fract_x
_atom_site_fract_y
_atom_site_fract_z
Si Si1 0.034998 0.534060 0.395164
Si Si2 0.377866 0.772650 0.540443
Si Si3 0.691654 0.658382 0.889358
Si Si4 0.764746 0.043340 0.799693
Si Si5 0.167098 0.770957 0.139763
Si Si6 0.169185 0.308396 0.160132
Si Si7 0.360286 0.281569 0.549272
Si Si8 0.313237 0.386867 0.129867
O O1 0.024279 0.397419 0.350794
O O2 0.191814 0.532844 0.622380
O O3 0.062676 0.647423 0.360545
O O4 0.887664 0.559376 0.301093
O O5 0.504575 0.667289 0.684926
O O6 0.291230 0.762745 0.352699
O O7 0.253389 0.788385 0.487162
O O8 0.768969 0.694733 0.876086
O O9 0.736351 0.519501 0.959093
O O10 0.740974 0.766026 0.008817
O O11 0.844315 0.913958 0.902826
O O12 0.856972 0.168965 0.903143
O O13 0.000000 0.732872 0.000000
O O14 0.265726 0.297635 0.355355
O O15 0.266194 0.377119 0.185681
O O16 0.000000 0.363065 0.000000
O O17 0.503917 0.372902 0.695217
#
# Coordination Sequence:
#
# PCOD9129806 Si02
#       8
#     4   4   4   4   4   4   4   4
#     4   9  18  36  66 100 133 185 231 287 349 407
#     4  11  24  44  70 105 146 188 236 292 353 426
#     4  12  29  49  73 105 142 188 239 299 362 425
#     4   9  17  36  68 100 139 178 235 282 344 413
#     4  11  23  44  71 106 143 189 235 292 352 424
#     4  11  23  44  71 106 143 189 235 292 352 424
#     4  11  24  44  70 105 146 188 236 292 353 426
#     4  12  29  49  73 105 142 188 239 299 362 425
#
# _framework density 22.835922
#
# number of rings (size 3 to 8) (size 9 to 14) (size 15 to 20)
#    0.000    1.250    2.500    2.625    5.250    2.500 
#    4.500    0.000    0.000    0.000    0.000    0.000 
#    0.000    0.000    0.000    0.000    0.000    0.000 
#
# Total GULP energy -89461.914289 kJ/mol
# GULP energy per Si atom -5591.369643 kJ/mol
# Density = 2.278395 g / cm^3
# Si number density = 22.835922 Si / 1000 Ang^3
#
#
#
# Elastic Constant Matrix: (Units=GPa)
#
#
# Indices 1 2 3 4 5 6 
#
# 1 100.4378 2.2209 17.5146 0.0000 3.2749 0.0000
# 2 2.2209 93.8403 17.4617 0.0000 -14.1290 0.0000
# 3 17.5146 17.4617 73.5739 0.0000 -1.0037 0.0000
# 4 0.0000 0.0000 0.0000 27.3800 0.0000 -8.8338
# 5 3.2749 -14.1290 -1.0037 0.0000 39.1191 0.0000
# 6 0.0000 0.0000 0.0000 -8.8338 0.0000 7.0764
#
#
#
# Elastic Compliance Matrix: (Units=1/GPa)
#
#
# Indices 1 2 3 4 5 6 
#
# 1 0.010422 0.000085 -0.002514 0.000000 -0.000906 0.000000
# 2 0.000085 0.011798 -0.002763 0.000000 0.004183 0.000000
# 3 -0.002514 -0.002763 0.014840 0.000000 -0.000407 0.000000
# 4 0.000000 0.000000 0.000000 0.061153 0.000000 0.076341
# 5 -0.000906 0.004183 -0.000407 0.000000 0.027139 0.000000
# 6 0.000000 0.000000 0.000000 0.076341 0.000000 0.236614
#
#
# Mechanical properties :
#
#
# Convention : Reuss Voigt Hill
#
# Bulk Modulus (GPa) = 37.48571 38.02736 37.75654
# Shear Modulus (GPa) = 13.11492 30.09207 21.60349
#
# Velocity S-wave (km/s) = 2.39908 3.63402 3.07910
# Velocity P-wave (km/s) = 4.91172 5.85634 5.40471
#
# Compressibility (1/GPa) = 0.02667683
#
# Stress axis : x y z
#
# Youngs Moduli (GPa) = 95.94706 84.75687 67.38362
#
# Poissons Ratio (x) = -0.00717 0.16937
# Poissons Ratio (y) = -0.00811 0.18620
# Poissons Ratio (z) = 0.24117 0.23420
#
# Static dielectric constant tensor:
#      x y z
#    x 1.811390 0.000000 -0.014060 
#    y 0.000000 1.868500 0.000000 
#    z -0.014060 0.000000 1.903370 
# 
# From -- ./inp_files/56038.got.cif
#   From: 2010.05.17/outbox.cif.g08.bks.cpg/sg5_29_cif.got.tgz:56038.got - 2010.06.03 18:56:24.
