data_PCOD9129624
_publ_section_title
;
Structure prediction by ZEFSAII (Michael W. Deem and Ramdas Pophale) SiO2 
 PCOD9129624
Probable space group: C 2
;
_chemical_formula_sum "Si O2"
_cell_formula_units_Z 30
_cell_length_a 11.060367
_cell_length_b 8.831788
_cell_length_c 21.019867
_cell_angle_alpha 90.000000
_cell_angle_beta 140.404402
_cell_angle_gamma 90.000000
_cell_volume 1308.688256
_symmetry_space_group_name_H-M "C 2"
_symmetry_group_IT_number 5
_symmetry_cell_setting 'monoclinic'
loop_
_space_group_symop_operation_xyz
x,y,z
-x,y,-z
1/2+x,1/2+y,z
1/2-x,1/2+y,-z
loop_
_atom_site_type_symbol
_atom_site_label
_atom_site_fract_x
_atom_site_fract_y
_atom_site_fract_z
Si Si1 0.237251 0.457090 0.431059
Si Si2 0.080570 0.641035 0.667414
Si Si3 0.500000 0.220844 0.500000
Si Si4 0.121795 0.961586 0.744706
Si Si5 0.491925 0.706198 0.598600
Si Si6 0.394201 0.290083 0.021232
Si Si7 0.631793 0.388423 0.238631
Si Si8 0.447949 0.947049 0.047207
O O1 0.324963 0.335443 0.419181
O O2 0.393540 0.578863 0.515603
O O3 0.156195 0.342829 0.452232
O O4 0.054240 0.552803 0.337747
O O5 0.986448 0.628360 0.558938
O O6 0.086527 0.815319 0.686760
O O7 0.274236 0.548829 0.742659
O O8 0.347050 0.976193 0.839569
O O9 0.024918 0.920240 0.771977
O O10 0.030535 0.113275 0.679202
O O11 0.694030 0.783867 0.664557
O O12 0.535957 0.315780 0.137993
O O13 0.359663 0.111630 0.996655
O O14 0.500000 0.347767 0.000000
O O15 0.196933 0.363610 0.964575
O O16 0.500000 0.870216 0.000000
#
# Coordination Sequence:
#
# PCOD9129624 Si02
#       8
#     4   4   2   4   4   4   4   4
#     4  11  23  43  64  92 136 176 233 277 347 401
#     4  11  27  42  65 101 132 184 227 288 343 412
#     4  12  22  42  64  90 136 178 224 278 344 394
#     4  12  24  45  72 102 137 182 237 285 353 419
#     4  11  22  46  65  99 137 181 231 292 338 413
#     4  11  26  48  72 107 142 185 229 294 360 427
#     4  11  26  45  71 103 140 179 237 290 346 424
#     4  11  25  47  73 102 144 185 228 292 364 427
#
# _framework density 22.923719999999999
#
# number of rings (size 3 to 8) (size 9 to 14) (size 15 to 20)
#    0.000    0.800    5.333    0.800    3.733    1.600 
#    4.800    0.000    0.000    0.000    0.000    0.000 
#    0.000    0.000    0.000    0.000    0.000    0.000 
#
# Total GULP energy -83791.154703 kJ/mol
# GULP energy per Si atom -5586.076980 kJ/mol
# Density = 2.287154 g / cm^3
# Si number density = 22.923720 Si / 1000 Ang^3
#
#
#
# Elastic Constant Matrix: (Units=GPa)
#
#
# Indices 1 2 3 4 5 6 
#
# 1 174.1693 55.7512 44.7576 0.0000 19.1800 0.0000
# 2 55.7512 115.4315 20.6433 0.0000 13.1067 0.0000
# 3 44.7576 20.6433 68.1911 0.0000 18.9710 0.0000
# 4 0.0000 0.0000 0.0000 32.1104 0.0000 9.8367
# 5 19.1800 13.1067 18.9710 0.0000 33.0648 0.0000
# 6 0.0000 0.0000 0.0000 9.8367 0.0000 29.7262
#
#
#
# Elastic Compliance Matrix: (Units=1/GPa)
#
#
# Indices 1 2 3 4 5 6 
#
# 1 0.007817 -0.002946 -0.003929 0.000000 -0.001112 0.000000
# 2 -0.002946 0.010436 -0.000655 0.000000 -0.002052 0.000000
# 3 -0.003929 -0.000655 0.019914 0.000000 -0.008887 0.000000
# 4 0.000000 0.000000 0.000000 0.034656 0.000000 -0.011468
# 5 -0.001112 -0.002052 -0.008887 0.000000 0.036801 0.000000
# 6 0.000000 0.000000 0.000000 -0.011468 0.000000 0.037435
#
#
# Mechanical properties :
#
#
# Convention : Reuss Voigt Hill
#
# Bulk Modulus (GPa) = 43.27718 66.67734 54.97726
# Shear Modulus (GPa) = 29.44255 34.75628 32.09941
#
# Velocity S-wave (km/s) = 3.58770 3.89803 3.74608
# Velocity P-wave (km/s) = 6.00682 7.02917 6.53801
#
# Compressibility (1/GPa) = 0.02310686
#
# Stress axis : x y z
#
# Youngs Moduli (GPa) = 127.92805 95.81950 50.21525
#
# Poissons Ratio (x) = 0.28233 0.19731
# Poissons Ratio (y) = 0.37693 0.03287
# Poissons Ratio (z) = 0.50267 0.06271
#
# Static dielectric constant tensor:
#      x y z
#    x 1.874920 0.000000 0.009320 
#    y 0.000000 1.835120 0.000000 
#    z 0.009320 0.000000 1.884000 
# 
# From -- ./inp_files/68293.got.cif
#   From: 2010.05.17/outbox.cif.g08.bks.cpg/sg5_35_cif.got.tgz:68293.got - 2010.06.03 18:56:24.
