data_PCOD9129723
_publ_section_title
;
Structure prediction by ZEFSAII (Michael W. Deem and Ramdas Pophale) SiO2 
 PCOD9129723
Probable space group: C 2
;
_chemical_formula_sum "Si O2"
_cell_formula_units_Z 20
_cell_length_a 23.688107
_cell_length_b 8.166242
_cell_length_c 9.078580
_cell_angle_alpha 90.000000
_cell_angle_beta 150.928478
_cell_angle_gamma 90.000000
_cell_volume 853.332609
_symmetry_space_group_name_H-M "C 2"
_symmetry_group_IT_number 5
_symmetry_cell_setting 'monoclinic'
loop_
_space_group_symop_operation_xyz
x,y,z
-x,y,-z
1/2+x,1/2+y,z
1/2-x,1/2+y,-z
loop_
_atom_site_type_symbol
_atom_site_label
_atom_site_fract_x
_atom_site_fract_y
_atom_site_fract_z
Si Si1 0.788484 0.888590 0.372987
Si Si2 0.013407 0.728613 0.355766
Si Si3 0.681658 0.939249 0.666396
Si Si4 0.769222 0.732133 0.632578
Si Si5 0.636015 0.706456 0.816871
O O1 0.896242 0.857746 0.509840
O O2 0.789679 0.756645 0.507171
O O3 0.787861 0.061796 0.450921
O O4 0.673418 0.851010 0.015252
O O5 0.072268 0.552994 0.454543
O O6 0.000000 0.747027 0.500000
O O7 0.891488 0.743821 0.996153
O O8 0.691206 0.878203 0.521549
O O9 0.678437 0.775338 0.757257
O O10 0.791223 0.049828 0.965078
O O11 0.500000 0.677236 0.500000
#
# Coordination Sequence:
#
# PCOD9129723 Si02
#       5
#     4   4   4   4   4
#     4  11  24  44  70  99 135 179 223 271 335 398
#     4  11  24  45  71  99 133 176 221 275 334 393
#     4  11  24  41  68  99 130 173 223 271 327 396
#     4  12  25  46  68  97 140 176 220 279 332 395
#     4  11  23  42  65  96 131 170 219 270 324 388
#
# _framework density 23.437519999999999
#
# number of rings (size 3 to 8) (size 9 to 14) (size 15 to 20)
#    0.000    0.800    0.000    9.600    0.000    5.600 
#    0.000   12.000    0.000    0.000    0.000    0.000 
#    0.000    0.000    0.000    0.000    0.000    0.000 
#
# Total GULP energy -56053.852606 kJ/mol
# GULP energy per Si atom -5605.385261 kJ/mol
# Density = 2.338418 g / cm^3
# Si number density = 23.437520 Si / 1000 Ang^3
#
#
#
# Elastic Constant Matrix: (Units=GPa)
#
#
# Indices 1 2 3 4 5 6 
#
# 1 166.1861 40.1537 32.6523 0.0000 -4.0066 0.0000
# 2 40.1537 99.8456 -12.9743 0.0000 18.4049 0.0000
# 3 32.6523 -12.9743 47.9293 0.0000 5.2202 0.0000
# 4 0.0000 0.0000 0.0000 27.0514 0.0000 -2.9702
# 5 -4.0066 18.4049 5.2202 0.0000 37.5544 0.0000
# 6 0.0000 0.0000 0.0000 -2.9702 0.0000 51.4312
#
#
#
# Elastic Compliance Matrix: (Units=1/GPa)
#
#
# Indices 1 2 3 4 5 6 
#
# 1 0.009127 -0.005648 -0.008280 0.000000 0.004893 0.000000
# 2 -0.005648 0.015162 0.008963 0.000000 -0.009279 0.000000
# 3 -0.008280 0.008963 0.029959 0.000000 -0.009440 0.000000
# 4 0.000000 0.000000 0.000000 0.037203 0.000000 0.002148
# 5 0.004893 -0.009279 -0.009440 0.000000 0.033010 0.000000
# 6 0.000000 0.000000 0.000000 0.002148 0.000000 0.019568
#
#
# Mechanical properties :
#
#
# Convention : Reuss Voigt Hill
#
# Bulk Modulus (GPa) = 22.56417 48.18047 35.37232
# Shear Modulus (GPa) = 29.63313 40.14937 34.89125
#
# Velocity S-wave (km/s) = 3.55962 4.14338 3.86254
# Velocity P-wave (km/s) = 5.15197 6.59482 5.91754
#
# Compressibility (1/GPa) = 0.04431804
#
# Stress axis : x y z
#
# Youngs Moduli (GPa) = 109.56772 65.95418 33.37898
#
# Poissons Ratio (x) = 0.37252 0.27636
# Poissons Ratio (y) = 0.61886 -0.29917
# Poissons Ratio (z) = 0.90717 -0.59114
#
# Static dielectric constant tensor:
#      x y z
#    x 1.888950 0.000000 0.011780 
#    y 0.000000 1.936050 0.000000 
#    z 0.011780 0.000000 1.816980 
# 
# From -- ./inp_files/18244.got.cif
#   From: 2010.05.17/outbox.cif.g08.bks.cpg/sg5_10_cif.got.tgz:18244.got - 2010.06.03 18:56:24.
