data_PCOD9129593
_publ_section_title
;
Structure prediction by ZEFSAII (Michael W. Deem and Ramdas Pophale) SiO2 
 PCOD9129593
Probable space group: C 2
;
_chemical_formula_sum "Si O2"
_cell_formula_units_Z 28
_cell_length_a 15.940006
_cell_length_b 10.677336
_cell_length_c 8.455046
_cell_angle_alpha 90.000000
_cell_angle_beta 61.401521
_cell_angle_gamma 90.000000
_cell_volume 1263.454903
_symmetry_space_group_name_H-M "C 2"
_symmetry_group_IT_number 5
_symmetry_cell_setting 'monoclinic'
loop_
_space_group_symop_operation_xyz
x,y,z
-x,y,-z
1/2+x,1/2+y,z
1/2-x,1/2+y,-z
loop_
_atom_site_type_symbol
_atom_site_label
_atom_site_fract_x
_atom_site_fract_y
_atom_site_fract_z
Si Si1 0.622500 0.976290 0.148913
Si Si2 0.500000 0.133104 0.500000
Si Si3 0.704982 0.910176 0.475003
Si Si4 0.316420 0.427983 0.051346
Si Si5 0.332059 0.195731 0.439291
Si Si6 0.903307 0.696208 0.029008
Si Si7 0.500000 0.587579 0.000000
Si Si8 0.010259 0.256166 0.676246
O O1 0.735994 0.991518 0.016703
O O2 0.583854 0.836101 0.192477
O O3 0.577295 0.046960 0.340793
O O4 0.576206 0.060112 0.054600
O O5 0.434417 0.206282 0.434248
O O6 0.747099 0.895660 0.261294
O O7 0.769153 0.818970 0.526838
O O8 0.598492 0.854833 0.589613
O O9 0.711877 0.059178 0.488782
O O10 0.354449 0.294435 0.954446
O O11 0.405204 0.509656 0.032351
O O12 0.345201 0.186049 0.240611
O O13 0.000000 0.759450 0.000000
O O14 0.475098 0.663856 0.186115
O O15 0.000000 0.208973 0.500000
#
# Coordination Sequence:
#
# PCOD9129593 Si02
#       8
#     4   2   4   4   4   4   2   4
#     4  12  23  42  68  98 130 181 236 285 352 419
#     4  12  20  42  68  92 126 178 230 286 338 422
#     4  11  22  44  71 100 140 191 231 300 371 427
#     4  11  24  47  66  99 146 187 223 304 372 422
#     4  11  23  40  70  96 131 182 229 287 356 429
#     4  11  23  42  68  91 136 177 225 285 354 420
#     4  12  30  42  78 108 148 194 240 302 380 430
#     4  12  24  46  74 106 145 188 246 304 354 439
#
# _framework density 22.161455
#
# number of rings (size 3 to 8) (size 9 to 14) (size 15 to 20)
#    0.000    0.571    7.143    0.857    5.000    0.000 
#    2.571    0.000   18.857    0.000    0.000    0.000 
#    0.000    0.000    0.000    0.000    0.000    0.000 
#
# Total GULP energy -77950.114468 kJ/mol
# GULP energy per Si atom -5567.865319 kJ/mol
# Density = 2.211101 g / cm^3
# Si number density = 22.161455 Si / 1000 Ang^3
#
#
#
# Elastic Constant Matrix: (Units=GPa)
#
#
# Indices 1 2 3 4 5 6 
#
# 1 113.0676 47.5699 6.0945 0.0000 -7.1935 0.0000
# 2 47.5699 75.4957 13.2849 0.0000 6.5127 0.0000
# 3 6.0945 13.2849 48.3019 0.0000 7.6394 0.0000
# 4 0.0000 0.0000 0.0000 23.8450 0.0000 -6.4506
# 5 -7.1935 6.5127 7.6394 0.0000 31.5707 0.0000
# 6 0.0000 0.0000 0.0000 -6.4506 0.0000 40.8377
#
#
#
# Elastic Compliance Matrix: (Units=1/GPa)
#
#
# Indices 1 2 3 4 5 6 
#
# 1 0.012662 -0.008372 -0.000025 0.000000 0.004618 0.000000
# 2 -0.008372 0.019581 -0.003523 0.000000 -0.005094 0.000000
# 3 -0.000025 -0.003523 0.022419 0.000000 -0.004704 0.000000
# 4 0.000000 0.000000 0.000000 0.043810 0.000000 0.006920
# 5 0.004618 -0.005094 -0.004704 0.000000 0.034916 0.000000
# 6 0.000000 0.000000 0.000000 0.006920 0.000000 0.025580
#
#
# Mechanical properties :
#
#
# Convention : Reuss Voigt Hill
#
# Bulk Modulus (GPa) = 32.44647 41.19597 36.82122
# Shear Modulus (GPa) = 25.89563 30.57840 28.23701
#
# Velocity S-wave (km/s) = 3.42204 3.71860 3.57340
# Velocity P-wave (km/s) = 5.50332 6.08824 5.80315
#
# Compressibility (1/GPa) = 0.03081999
#
# Stress axis : x y z
#
# Youngs Moduli (GPa) = 78.97781 51.07114 44.60438
#
# Poissons Ratio (x) = 0.42757 0.00113
# Poissons Ratio (y) = 0.66121 0.15716
# Poissons Ratio (z) = 0.00200 0.17994
#
# Static dielectric constant tensor:
#      x y z
#    x 1.943260 0.000000 0.015240 
#    y 0.000000 1.869440 0.000000 
#    z 0.015240 0.000000 1.819140 
# 
# From -- ./inp_files/23606.got.cif
#   From: 2010.05.17/outbox.cif.g08.bks.cpg/sg5_12_cif.got.tgz:23606.got - 2010.06.03 18:56:24.
