data_PCOD9129741
_publ_section_title
;
Structure prediction by ZEFSAII (Michael W. Deem and Ramdas Pophale) SiO2 
 PCOD9129741
Probable space group: C 2
;
_chemical_formula_sum "Si O2"
_cell_formula_units_Z 24
_cell_length_a 9.755948
_cell_length_b 18.316671
_cell_length_c 8.313097
_cell_angle_alpha 90.000000
_cell_angle_beta 46.057769
_cell_angle_gamma 90.000000
_cell_volume 1069.634471
_symmetry_space_group_name_H-M "C 2"
_symmetry_group_IT_number 5
_symmetry_cell_setting 'monoclinic'
loop_
_space_group_symop_operation_xyz
x,y,z
-x,y,-z
1/2+x,1/2+y,z
1/2-x,1/2+y,-z
loop_
_atom_site_type_symbol
_atom_site_label
_atom_site_fract_x
_atom_site_fract_y
_atom_site_fract_z
Si Si1 0.860915 0.656010 0.470678
Si Si2 0.775692 0.025407 0.874613
Si Si3 0.379689 0.998453 0.359030
Si Si4 0.919678 0.759259 0.891816
Si Si5 0.447551 0.677630 0.855769
Si Si6 0.432731 0.409765 0.243469
O O1 0.835828 0.569966 0.501642
O O2 0.656257 0.691944 0.616584
O O3 0.000000 0.681913 0.500000
O O4 0.984231 0.681549 0.222091
O O5 0.710027 0.015102 0.744059
O O6 0.850674 0.106605 0.855143
O O7 0.604328 0.000355 0.133836
O O8 0.949546 0.972013 0.763367
O O9 0.284784 0.930324 0.529935
O O10 0.000229 0.831415 0.739801
O O11 0.697489 0.744705 0.046600
O O12 0.000000 0.775012 0.000000
O O13 0.500000 0.662586 0.000000
O O14 0.500000 0.417351 0.000000
#
# Coordination Sequence:
#
# PCOD9129741 Si02
#       6
#     4   4   4   4   4   4
#     4  12  24  40  72 105 133 178 226 289 342 405
#     4  11  23  42  69 103 136 177 228 282 339 410
#     4  11  24  41  68 104 138 179 223 283 342 407
#     4  11  26  47  66  99 142 181 227 282 342 411
#     4  12  23  43  73 105 136 178 231 282 344 406
#     4  11  26  44  67  96 139 183 225 280 341 407
#
# _framework density 22.437574000000001
#
# number of rings (size 3 to 8) (size 9 to 14) (size 15 to 20)
#    0.000    0.667    5.000    2.000    2.333    4.667 
#    3.000    3.333    0.000    0.000    0.000    0.000 
#    0.000    0.000    0.000    0.000    0.000    0.000 
#
# Total GULP energy -66917.455153 kJ/mol
# GULP energy per Si atom -5576.454596 kJ/mol
# Density = 2.238650 g / cm^3
# Si number density = 22.437574 Si / 1000 Ang^3
#
#
#
# Elastic Constant Matrix: (Units=GPa)
#
#
# Indices 1 2 3 4 5 6 
#
# 1 71.5761 17.6047 42.1698 0.0000 -14.7245 0.0000
# 2 17.6047 94.6144 11.8744 0.0000 -18.9130 0.0000
# 3 42.1698 11.8744 97.3916 0.0000 -36.1777 0.0000
# 4 0.0000 0.0000 0.0000 21.4561 0.0000 -10.1863
# 5 -14.7245 -18.9130 -36.1777 0.0000 46.4067 0.0000
# 6 0.0000 0.0000 0.0000 -10.1863 0.0000 23.0406
#
#
#
# Elastic Compliance Matrix: (Units=1/GPa)
#
#
# Indices 1 2 3 4 5 6 
#
# 1 0.019463 -0.002888 -0.008753 0.000000 -0.001825 0.000000
# 2 -0.002888 0.011951 0.001777 0.000000 0.005339 0.000000
# 3 -0.008753 0.001777 0.018410 0.000000 0.012299 0.000000
# 4 0.000000 0.000000 0.000000 0.058988 0.000000 0.026079
# 5 -0.001825 0.005339 0.012299 0.000000 0.032733 0.000000
# 6 0.000000 0.000000 0.000000 0.026079 0.000000 0.054931
#
#
# Mechanical properties :
#
#
# Convention : Reuss Voigt Hill
#
# Bulk Modulus (GPa) = 33.22813 45.20888 39.21850
# Shear Modulus (GPa) = 22.10081 30.97623 26.53852
#
# Velocity S-wave (km/s) = 3.14186 3.71961 3.44288
# Velocity P-wave (km/s) = 5.29179 6.21609 5.77247
#
# Compressibility (1/GPa) = 0.03009499
#
# Stress axis : x y z
#
# Youngs Moduli (GPa) = 51.37952 83.67581 54.31872
#
# Poissons Ratio (x) = 0.24164 0.47547
# Poissons Ratio (y) = 0.14837 -0.09651
# Poissons Ratio (z) = 0.44974 -0.14867
#
# Static dielectric constant tensor:
#      x y z
#    x 1.817400 0.000000 -0.090620 
#    y 0.000000 1.811630 0.000000 
#    z -0.090620 0.000000 2.116880 
# 
# From -- ./inp_files/16685.got.cif
#   From: 2010.05.17/outbox.cif.g08.bks.cpg/sg5_9_cif.got.tgz:16685.got - 2010.06.03 18:56:24.
