data_PCOD9129697
_publ_section_title
;
Structure prediction by ZEFSAII (Michael W. Deem and Ramdas Pophale) SiO2 
 PCOD9129697
Probable space group: C 2
;
_chemical_formula_sum "Si O2"
_cell_formula_units_Z 28
_cell_length_a 12.288180
_cell_length_b 8.151012
_cell_length_c 16.335155
_cell_angle_alpha 90.000000
_cell_angle_beta 132.308809
_cell_angle_gamma 90.000000
_cell_volume 1209.975987
_symmetry_space_group_name_H-M "C 2"
_symmetry_group_IT_number 5
_symmetry_cell_setting 'monoclinic'
loop_
_space_group_symop_operation_xyz
x,y,z
-x,y,-z
1/2+x,1/2+y,z
1/2-x,1/2+y,-z
loop_
_atom_site_type_symbol
_atom_site_label
_atom_site_fract_x
_atom_site_fract_y
_atom_site_fract_z
Si Si1 0.306325 0.897720 0.072147
Si Si2 0.325301 0.361655 0.422331
Si Si3 0.894553 0.598010 0.773161
Si Si4 0.414742 0.529358 0.155761
Si Si5 0.840860 0.890813 0.840077
Si Si6 0.926101 0.824894 0.637737
Si Si7 0.098882 0.548439 0.619688
O O1 0.364568 0.716281 0.121550
O O2 0.184695 0.938749 0.079660
O O3 0.443878 0.020116 0.147780
O O4 0.222165 0.916794 0.943585
O O5 0.500000 0.401697 0.500000
O O6 0.224718 0.463833 0.311126
O O7 0.306427 0.383749 0.510419
O O8 0.301755 0.172626 0.384433
O O9 0.877892 0.699378 0.848030
O O10 0.870441 0.734571 0.690436
O O11 0.544361 0.494451 0.155459
O O12 0.472403 0.468906 0.273456
O O13 0.683772 0.924242 0.718573
O O14 0.014065 0.679552 0.634645
O O15 0.000000 0.466404 0.500000
#
# Coordination Sequence:
#
# PCOD9129697 Si02
#       7
#     4   4   4   4   4   4   4
#     4  12  26  46  69  95 135 169 223 283 321 397
#     4   9  21  38  64  93 135 169 214 266 327 390
#     4  11  23  41  65 101 129 172 225 266 330 395
#     4  11  25  45  67  97 129 176 223 269 338 388
#     4  11  24  43  69  97 134 172 220 270 330 393
#     4   9  20  40  63  92 134 170 215 270 323 388
#     4   9  19  39  63  93 133 175 209 267 327 387
#
# _framework density 23.140957
#
# number of rings (size 3 to 8) (size 9 to 14) (size 15 to 20)
#    0.000    2.000    1.429    3.000    4.000    6.286 
#    0.000    0.000    0.000    0.000    0.000    0.000 
#    0.000    0.000    0.000    0.000    0.000    0.000 
#
# Total GULP energy -78165.639688 kJ/mol
# GULP energy per Si atom -5583.259978 kJ/mol
# Density = 2.308829 g / cm^3
# Si number density = 23.140957 Si / 1000 Ang^3
#
#
#
# Elastic Constant Matrix: (Units=GPa)
#
#
# Indices 1 2 3 4 5 6 
#
# 1 56.5717 5.4984 11.4750 0.0000 3.0118 0.0000
# 2 5.4984 46.9292 -2.4754 0.0000 -0.0083 0.0000
# 3 11.4750 -2.4754 80.6900 0.0000 -14.8765 0.0000
# 4 0.0000 0.0000 0.0000 8.4481 0.0000 3.3204
# 5 3.0118 -0.0083 -14.8765 0.0000 22.0347 0.0000
# 6 0.0000 0.0000 0.0000 3.3204 0.0000 23.7434
#
#
#
# Elastic Compliance Matrix: (Units=1/GPa)
#
#
# Indices 1 2 3 4 5 6 
#
# 1 0.018934 -0.002415 -0.003705 0.000000 -0.005090 0.000000
# 2 -0.002415 0.021656 0.001222 0.000000 0.001163 0.000000
# 3 -0.003705 0.001222 0.014906 0.000000 0.010571 0.000000
# 4 0.000000 0.000000 0.000000 0.125254 0.000000 -0.017516
# 5 -0.005090 0.001163 0.010571 0.000000 0.053216 0.000000
# 6 0.000000 0.000000 0.000000 -0.017516 0.000000 0.044567
#
#
# Mechanical properties :
#
#
# Convention : Reuss Voigt Hill
#
# Bulk Modulus (GPa) = 21.88116 23.68742 22.78429
# Shear Modulus (GPa) = 16.47107 22.15808 19.31458
#
# Velocity S-wave (km/s) = 2.67080 3.09775 2.89216
# Velocity P-wave (km/s) = 4.35741 4.80137 4.58476
#
# Compressibility (1/GPa) = 0.04570141
#
# Stress axis : x y z
#
# Youngs Moduli (GPa) = 52.81523 46.17595 67.08506
#
# Poissons Ratio (x) = 0.11150 0.24856
# Poissons Ratio (y) = 0.12753 -0.08200
# Poissons Ratio (z) = 0.19569 -0.05644
#
# Static dielectric constant tensor:
#      x y z
#    x 1.966090 0.000000 -0.029500 
#    y 0.000000 1.870450 0.000000 
#    z -0.029500 0.000000 1.923210 
# 
# From -- ./inp_files/61461.got.cif
#   From: 2010.05.17/outbox.cif.g08.bks.cpg/sg5_31_cif.got.tgz:61461.got - 2010.06.03 18:56:24.
