data_PCOD9129918
_publ_section_title
;
Structure prediction by ZEFSAII (Michael W. Deem and Ramdas Pophale) SiO2 
 PCOD9129918
Probable space group: C 2
;
_chemical_formula_sum "Si O2"
_cell_formula_units_Z 18
_cell_length_a 9.951295
_cell_length_b 10.960788
_cell_length_c 13.470281
_cell_angle_alpha 90.000000
_cell_angle_beta 31.766346
_cell_angle_gamma 90.000000
_cell_volume 773.500372
_symmetry_space_group_name_H-M "C 2"
_symmetry_group_IT_number 5
_symmetry_cell_setting 'monoclinic'
loop_
_space_group_symop_operation_xyz
x,y,z
-x,y,-z
1/2+x,1/2+y,z
1/2-x,1/2+y,-z
loop_
_atom_site_type_symbol
_atom_site_label
_atom_site_fract_x
_atom_site_fract_y
_atom_site_fract_z
Si Si1 0.346936 0.068780 0.860007
Si Si2 0.368374 0.437376 0.835911
Si Si3 0.812057 0.382725 0.701435
Si Si4 0.000000 0.254066 0.000000
Si Si5 0.406246 0.624511 0.455549
O O1 0.603826 0.135375 0.663023
O O2 0.300107 0.967750 0.804461
O O3 0.105862 0.161103 0.016247
O O4 0.355491 0.003962 0.960873
O O5 0.544550 0.375803 0.810590
O O6 0.527253 0.536575 0.676002
O O7 0.241272 0.342708 0.839812
O O8 0.000000 0.437522 0.500000
O O9 0.940842 0.252621 0.648080
O O10 0.500000 0.566424 0.500000
#
# Coordination Sequence:
#
# PCOD9129918 Si02
#       5
#     4   4   4   2   4
#     4  12  26  47  72 108 142 187 238 288 356 419
#     4  12  26  49  72 106 144 184 236 296 350 418
#     4  11  23  49  76 101 145 191 231 291 358 416
#     4  12  26  44  72 106 140 182 242 282 352 420
#     4  11  26  49  74 104 143 188 238 290 353 421
#
# _framework density 23.270837
#
# number of rings (size 3 to 8) (size 9 to 14) (size 15 to 20)
#    0.000    0.444    4.444    4.000    3.111    0.000 
#    8.000    1.111    0.000    0.000    0.000    0.000 
#    0.000    0.000    0.000    0.000    0.000    0.000 
#
# Total GULP energy -50233.894962 kJ/mol
# GULP energy per Si atom -5581.543885 kJ/mol
# Density = 2.321787 g / cm^3
# Si number density = 23.270837 Si / 1000 Ang^3
#
#
#
# Elastic Constant Matrix: (Units=GPa)
#
#
# Indices 1 2 3 4 5 6 
#
# 1 103.8392 62.7741 34.5569 -0.0019 -15.0634 0.0004
# 2 62.7741 119.1359 55.1426 -0.0023 -6.5376 0.0010
# 3 34.5569 55.1426 109.6821 -0.0062 -0.3980 0.0035
# 4 -0.0019 -0.0023 -0.0062 21.8930 0.0031 -9.9285
# 5 -15.0634 -6.5376 -0.3980 0.0031 44.1857 -0.0011
# 6 0.0004 0.0010 0.0035 -9.9285 -0.0011 35.0367
#
#
#
# Elastic Compliance Matrix: (Units=1/GPa)
#
#
# Indices 1 2 3 4 5 6 
#
# 1 0.014875 -0.007110 -0.001098 0.000000 0.004009 0.000000
# 2 -0.007110 0.014448 -0.005025 0.000000 -0.000331 0.000000
# 3 -0.001098 -0.005025 0.011986 0.000003 -0.001010 0.000000
# 4 0.000000 0.000000 0.000003 0.052412 -0.000003 0.014852
# 5 0.004009 -0.000331 -0.001010 -0.000003 0.023940 0.000000
# 6 0.000000 0.000000 0.000000 0.014852 0.000000 0.032750
#
#
# Mechanical properties :
#
#
# Convention : Reuss Voigt Hill
#
# Bulk Modulus (GPa) = 67.36688 70.84492 69.10590
# Shear Modulus (GPa) = 27.49914 32.23532 29.86723
#
# Velocity S-wave (km/s) = 3.44132 3.72590 3.58643
# Velocity P-wave (km/s) = 6.69344 7.00139 6.84915
#
# Compressibility (1/GPa) = 0.01484409
#
# Stress axis : x y z
#
# Youngs Moduli (GPa) = 67.22534 69.21573 83.43382
#
# Poissons Ratio (x) = 0.49212 0.09158
# Poissons Ratio (y) = 0.47797 0.41922
# Poissons Ratio (z) = 0.07379 0.34778
#
# Static dielectric constant tensor:
#      x y z
#    x 1.872650 0.000000 -0.082940 
#    y 0.000000 1.909720 0.000000 
#    z -0.082940 0.000000 1.873960 
# 
# From -- ./inp_files/52543.got.cif
#   From: 2010.05.17/outbox.cif.g08.bks.cpg/sg5_27_cif.got.tgz:52543.got - 2010.06.03 18:56:24.
