data_PCOD9129251
_publ_section_title
;
Structure prediction by ZEFSAII (Michael W. Deem and Ramdas Pophale) SiO2 
 PCOD9129251
Probable space group: C 2
;
_chemical_formula_sum "Si O2"
_cell_formula_units_Z 24
_cell_length_a 22.612160
_cell_length_b 8.727687
_cell_length_c 11.437331
_cell_angle_alpha 90.000000
_cell_angle_beta 149.023441
_cell_angle_gamma 90.000000
_cell_volume 1161.741204
_symmetry_space_group_name_H-M "C 2"
_symmetry_group_IT_number 5
_symmetry_cell_setting 'monoclinic'
loop_
_space_group_symop_operation_xyz
x,y,z
-x,y,-z
1/2+x,1/2+y,z
1/2-x,1/2+y,-z
loop_
_atom_site_type_symbol
_atom_site_label
_atom_site_fract_x
_atom_site_fract_y
_atom_site_fract_z
Si Si1 0.219886 0.403350 0.103428
Si Si2 0.859591 0.399526 0.433658
Si Si3 0.004283 0.268575 0.869112
Si Si4 0.600950 0.473450 0.913207
Si Si5 0.338695 0.677888 0.202572
Si Si6 0.451061 0.234794 0.548367
O O1 0.243144 0.577333 0.107375
O O2 0.332733 0.330948 0.353440
O O3 0.108911 0.368470 0.992388
O O4 0.207024 0.307423 0.961857
O O5 0.901200 0.271279 0.411029
O O6 0.927377 0.557578 0.532512
O O7 0.889605 0.328293 0.609980
O O8 0.728005 0.441251 0.179079
O O9 0.034814 0.095127 0.882007
O O10 0.000000 0.282179 0.000000
O O11 0.605822 0.555815 0.793049
O O12 0.535439 0.316137 0.781606
O O13 0.500000 0.246798 0.500000
#
# Coordination Sequence:
#
# PCOD9129251 Si02
#       6
#     4   4   4   4   4   4
#     4  11  22  40  71 101 148 177 230 289 360 423
#     4  12  26  43  72 106 141 190 232 295 361 425
#     4  11  28  51  68  97 145 197 251 289 336 419
#     4  11  25  45  69 107 143 184 238 292 366 428
#     4  11  20  41  64 113 144 171 226 295 369 432
#     4  12  23  41  69 108 148 174 225 291 371 437
#
# _framework density 20.658645
#
# number of rings (size 3 to 8) (size 9 to 14) (size 15 to 20)
#    0.000    0.667    6.667    1.000    9.333    0.000 
#    6.000    0.833    0.000    0.000    0.000    0.000 
#    0.000    0.000    0.000    0.000    0.000    0.000 
#
# Total GULP energy -67106.322337 kJ/mol
# GULP energy per Si atom -5592.193528 kJ/mol
# Density = 2.061163 g / cm^3
# Si number density = 20.658645 Si / 1000 Ang^3
#
#
#
# Elastic Constant Matrix: (Units=GPa)
#
#
# Indices 1 2 3 4 5 6 
#
# 1 85.7796 61.2237 50.6161 0.0000 -23.4157 0.0000
# 2 61.2237 109.3292 68.3709 0.0000 -16.6391 0.0000
# 3 50.6161 68.3709 132.5049 0.0000 -15.0062 0.0000
# 4 0.0000 0.0000 0.0000 44.8375 0.0000 6.1884
# 5 -23.4157 -16.6391 -15.0062 0.0000 28.0123 0.0000
# 6 0.0000 0.0000 0.0000 6.1884 0.0000 13.7127
#
#
#
# Elastic Compliance Matrix: (Units=1/GPa)
#
#
# Indices 1 2 3 4 5 6 
#
# 1 0.023464 -0.009620 -0.002582 0.000000 0.012516 0.000000
# 2 -0.009620 0.018020 -0.005666 0.000000 -0.000373 0.000000
# 3 -0.002582 -0.005666 0.011530 0.000000 0.000654 0.000000
# 4 0.000000 0.000000 0.000000 0.023784 0.000000 -0.010734
# 5 0.012516 -0.000373 0.000654 0.000000 0.046290 0.000000
# 6 0.000000 0.000000 0.000000 -0.010734 0.000000 0.077769
#
#
# Mechanical properties :
#
#
# Convention : Reuss Voigt Hill
#
# Bulk Modulus (GPa) = 57.87132 76.44833 67.15983
# Shear Modulus (GPa) = 20.63103 27.13938 23.88521
#
# Velocity S-wave (km/s) = 3.16359 3.62844 3.40396
# Velocity P-wave (km/s) = 6.43571 7.39188 6.93031
#
# Compressibility (1/GPa) = 0.01727972
#
# Stress axis : x y z
#
# Youngs Moduli (GPa) = 42.61796 55.49269 86.72680
#
# Poissons Ratio (x) = 0.53386 0.22390
# Poissons Ratio (y) = 0.41000 0.49136
# Poissons Ratio (z) = 0.11003 0.31440
#
# Static dielectric constant tensor:
#      x y z
#    x 1.708920 0.000000 0.052020 
#    y 0.000000 1.754320 0.000000 
#    z 0.052020 0.000000 1.795020 
# 
# From -- ./inp_files/47337.got.cif
#   From: 2010.05.17/outbox.cif.g08.bks.cpg/sg5_24_cif.got.tgz:47337.got - 2010.06.03 18:56:24.
