data_PCOD9129758
_publ_section_title
;
Structure prediction by ZEFSAII (Michael W. Deem and Ramdas Pophale) SiO2 
 PCOD9129758
Probable space group: C 2
;
_chemical_formula_sum "Si O2"
_cell_formula_units_Z 14
_cell_length_a 13.805789
_cell_length_b 9.205915
_cell_length_c 9.738969
_cell_angle_alpha 90.000000
_cell_angle_beta 149.646732
_cell_angle_gamma 90.000000
_cell_volume 625.484207
_symmetry_space_group_name_H-M "C 2"
_symmetry_group_IT_number 5
_symmetry_cell_setting 'monoclinic'
loop_
_space_group_symop_operation_xyz
x,y,z
-x,y,-z
1/2+x,1/2+y,z
1/2-x,1/2+y,-z
loop_
_atom_site_type_symbol
_atom_site_label
_atom_site_fract_x
_atom_site_fract_y
_atom_site_fract_z
Si Si1 0.000000 0.179021 0.000000
Si Si2 0.536286 0.945449 0.701380
Si Si3 0.814255 0.464127 0.695623
Si Si4 0.080487 0.103899 0.798916
O O1 0.169180 0.293562 0.246254
O O2 0.941267 0.094122 0.062301
O O3 0.500000 0.988885 0.500000
O O4 0.360577 0.974812 0.590105
O O5 0.579113 0.773116 0.758918
O O6 0.721575 0.025392 0.990220
O O7 0.613777 0.531083 0.492894
O O8 0.000000 0.530812 0.000000
#
# Coordination Sequence:
#
# PCOD9129758 Si02
#       4
#     2   4   4   4
#     4   8  20  42  62  92 126 172 202 254 322 362
#     4  11  26  40  65 100 122 168 213 258 316 368
#     4   9  22  44  61  93 128 169 204 257 317 371
#     4  11  23  43  66  94 131 162 212 262 313 374
#
# _framework density 22.382660000000001
#
# number of rings (size 3 to 8) (size 9 to 14) (size 15 to 20)
#    0.857    1.143    0.000    1.714    4.000    6.857 
#    0.000    0.000    0.000    0.000    0.000    0.000 
#    0.000    0.000    0.000    0.000    0.000    0.000 
#
# Total GULP energy -39104.184709 kJ/mol
# GULP energy per Si atom -5586.312101 kJ/mol
# Density = 2.233172 g / cm^3
# Si number density = 22.382660 Si / 1000 Ang^3
#
#
#
# Elastic Constant Matrix: (Units=GPa)
#
#
# Indices 1 2 3 4 5 6 
#
# 1 88.9162 -6.3988 27.3435 0.0000 -14.6593 0.0000
# 2 -6.3988 56.7513 33.9726 0.0000 23.7483 0.0000
# 3 27.3435 33.9726 119.9629 0.0000 16.6680 0.0000
# 4 0.0000 0.0000 0.0000 26.9536 0.0000 5.8003
# 5 -14.6593 23.7483 16.6680 0.0000 39.2920 0.0000
# 6 0.0000 0.0000 0.0000 5.8003 0.0000 23.6649
#
#
#
# Elastic Compliance Matrix: (Units=1/GPa)
#
#
# Indices 1 2 3 4 5 6 
#
# 1 0.013719 0.001706 -0.004440 0.000000 0.005971 0.000000
# 2 0.001706 0.026994 -0.006222 0.000000 -0.013040 0.000000
# 3 -0.004440 -0.006222 0.011495 0.000000 -0.002772 0.000000
# 4 0.000000 0.000000 0.000000 0.039167 0.000000 -0.009600
# 5 0.005971 -0.013040 -0.002772 0.000000 0.036735 0.000000
# 6 0.000000 0.000000 0.000000 -0.009600 0.000000 0.044610
#
#
# Mechanical properties :
#
#
# Convention : Reuss Voigt Hill
#
# Bulk Modulus (GPa) = 29.15664 41.71835 35.43749
# Shear Modulus (GPa) = 24.74479 32.02963 28.38721
#
# Velocity S-wave (km/s) = 3.32856 3.78696 3.56514
# Velocity P-wave (km/s) = 5.27515 6.14822 5.72834
#
# Compressibility (1/GPa) = 0.03429751
#
# Stress axis : x y z
#
# Youngs Moduli (GPa) = 72.89176 37.04509 86.99442
#
# Poissons Ratio (x) = -0.06320 0.38623
# Poissons Ratio (y) = -0.12436 0.54125
# Poissons Ratio (z) = 0.32362 0.23048
#
# Static dielectric constant tensor:
#      x y z
#    x 1.855020 0.000000 -0.058950 
#    y 0.000000 1.771830 0.000000 
#    z -0.058950 0.000000 1.841420 
# 
# From -- ./inp_files/1519.got.cif
#   From: 2010.05.17/outbox.cif.g08.bks.cpg/sg5_1_cif.got.tgz:1519.got - 2010.06.03 18:56:24.
