data_PCOD9129648
_publ_section_title
;
Structure prediction by ZEFSAII (Michael W. Deem and Ramdas Pophale) SiO2 
 PCOD9129648
Probable space group: C 2
;
_chemical_formula_sum "Si O2"
_cell_formula_units_Z 16
_cell_length_a 11.126598
_cell_length_b 9.255041
_cell_length_c 11.879254
_cell_angle_alpha 90.000000
_cell_angle_beta 36.164385
_cell_angle_gamma 90.000000
_cell_volume 721.869068
_symmetry_space_group_name_H-M "C 2"
_symmetry_group_IT_number 5
_symmetry_cell_setting 'monoclinic'
loop_
_space_group_symop_operation_xyz
x,y,z
-x,y,-z
1/2+x,1/2+y,z
1/2-x,1/2+y,-z
loop_
_atom_site_type_symbol
_atom_site_label
_atom_site_fract_x
_atom_site_fract_y
_atom_site_fract_z
Si Si1 0.014864 0.522430 0.699114
Si Si2 0.296427 0.016231 0.097311
Si Si3 0.116852 0.837349 0.597597
Si Si4 0.216534 0.828261 0.784845
O O1 0.887095 0.428946 0.708175
O O2 0.094667 0.669976 0.583479
O O3 0.208476 0.429411 0.595369
O O4 0.867751 0.555358 0.916399
O O5 0.247463 0.164334 0.200372
O O6 0.500000 0.951427 0.000000
O O7 0.101353 0.914183 0.245700
O O8 0.190235 0.835233 0.671837
O O9 0.000000 0.873135 0.000000
#
# Coordination Sequence:
#
# PCOD9129648 Si02
#       4
#     4   4   4   4
#     4  12  24  44  71 100 134 179 224 275 338 397
#     4  11  23  47  72  94 135 184 222 272 337 400
#     4  12  26  45  68 102 138 173 226 282 331 398
#     4  11  22  47  72  94 135 181 220 275 338 394
#
# _framework density 22.164681999999999
#
# number of rings (size 3 to 8) (size 9 to 14) (size 15 to 20)
#    0.000    0.500    7.500    2.250    0.000    2.000 
#   13.500    0.000    0.000    0.000    0.000    0.000 
#    0.000    0.000    0.000    0.000    0.000    0.000 
#
# Total GULP energy -44789.566337 kJ/mol
# GULP energy per Si atom -5598.695792 kJ/mol
# Density = 2.211423 g / cm^3
# Si number density = 22.164682 Si / 1000 Ang^3
#
#
#
# Elastic Constant Matrix: (Units=GPa)
#
#
# Indices 1 2 3 4 5 6 
#
# 1 133.0386 69.8084 25.3588 -0.0001 -21.5114 0.0000
# 2 69.8084 124.5949 42.1768 0.0000 -47.1378 0.0000
# 3 25.3588 42.1768 58.5468 -0.0002 -14.3459 0.0002
# 4 -0.0001 0.0000 -0.0002 26.0126 0.0002 -12.5076
# 5 -21.5114 -47.1378 -14.3459 0.0002 46.9894 -0.0002
# 6 0.0000 0.0000 0.0002 -12.5076 -0.0002 46.7595
#
#
#
# Elastic Compliance Matrix: (Units=1/GPa)
#
#
# Indices 1 2 3 4 5 6 
#
# 1 0.010746 -0.006577 -0.000354 0.000000 -0.001786 0.000000
# 2 -0.006577 0.019884 -0.007918 0.000000 0.014519 0.000000
# 3 -0.000354 -0.007918 0.022646 0.000000 -0.001192 0.000000
# 4 0.000000 0.000000 0.000000 0.044117 0.000000 0.011801
# 5 -0.001786 0.014519 -0.001192 0.000000 0.034664 0.000000
# 6 0.000000 0.000000 0.000000 0.011801 0.000000 0.024543
#
#
# Mechanical properties :
#
#
# Convention : Reuss Voigt Hill
#
# Bulk Modulus (GPa) = 42.41287 65.65204 54.03246
# Shear Modulus (GPa) = 25.75211 35.87469 30.81340
#
# Velocity S-wave (km/s) = 3.41229 4.02749 3.73259
# Velocity P-wave (km/s) = 5.89083 7.16324 6.55797
#
# Compressibility (1/GPa) = 0.02357775
#
# Stress axis : x y z
#
# Youngs Moduli (GPa) = 93.05479 50.29145 44.15766
#
# Poissons Ratio (x) = 0.33076 0.01565
# Poissons Ratio (y) = 0.61200 0.34965
# Poissons Ratio (z) = 0.03298 0.39822
#
# Static dielectric constant tensor:
#      x y z
#    x 1.797940 0.000000 0.022300 
#    y 0.000000 1.789740 0.000000 
#    z 0.022300 0.000000 1.836770 
# 
# From -- ./inp_files/17797.got.cif
#   From: 2010.05.17/outbox.cif.g08.bks.cpg/sg5_9_cif.got.tgz:17797.got - 2010.06.03 18:56:24.
