data_PCOD9129716
_publ_section_title
;
Structure prediction by ZEFSAII (Michael W. Deem and Ramdas Pophale) SiO2 
 PCOD9129716
Probable space group: C 2
;
_chemical_formula_sum "Si O2"
_cell_formula_units_Z 26
_cell_length_a 9.186987
_cell_length_b 15.459738
_cell_length_c 8.807849
_cell_angle_alpha 90.000000
_cell_angle_beta 85.049081
_cell_angle_gamma 90.000000
_cell_volume 1246.297448
_symmetry_space_group_name_H-M "C 2"
_symmetry_group_IT_number 5
_symmetry_cell_setting 'monoclinic'
loop_
_space_group_symop_operation_xyz
x,y,z
-x,y,-z
1/2+x,1/2+y,z
1/2-x,1/2+y,-z
loop_
_atom_site_type_symbol
_atom_site_label
_atom_site_fract_x
_atom_site_fract_y
_atom_site_fract_z
Si Si1 0.861071 0.520640 0.973237
Si Si2 0.000000 0.239731 0.000000
Si Si3 0.551259 0.869403 0.244302
Si Si4 0.735633 0.866032 0.526677
Si Si5 0.667673 0.170850 0.517705
Si Si6 0.181080 0.031458 0.291441
Si Si7 0.364743 0.603317 0.227859
O O1 0.951552 0.450451 0.866448
O O2 0.740585 0.544535 0.860519
O O3 0.762904 0.502857 0.130145
O O4 0.000000 0.583195 0.000000
O O5 0.897302 0.180464 0.108971
O O6 0.085209 0.294390 0.120015
O O7 0.663673 0.885405 0.369998
O O8 0.398352 0.850110 0.342816
O O9 0.819372 0.775573 0.489361
O O10 0.813713 0.951042 0.589864
O O11 0.500000 0.146348 0.500000
O O12 0.730529 0.115735 0.654010
O O13 0.775491 0.138281 0.377236
O O14 0.016359 0.060402 0.267531
#
# Coordination Sequence:
#
# PCOD9129716 Si02
#       7
#     4   2   4   4   4   4   4
#     4  12  23  43  72 107 144 191 244 307 367 447
#     4  12  20  44  70 108 144 196 248 298 368 456
#     4  11  23  41  74 108 145 194 250 299 378 448
#     4  11  25  44  74 107 149 200 248 310 372 448
#     4  12  28  47  72 109 147 195 256 314 373 440
#     4  12  25  47  74 109 149 198 253 305 377 453
#     4  12  26  45  73 107 151 198 248 306 382 450
#
# _framework density 20.861792000000001
#
# number of rings (size 3 to 8) (size 9 to 14) (size 15 to 20)
#    0.000    0.308    5.385    3.231    4.308    2.462 
#    0.000    0.000    0.000    0.000    0.000    0.000 
#    0.000    0.000    0.000    0.000    0.000    0.000 
#
# Total GULP energy -72480.668150 kJ/mol
# GULP energy per Si atom -5575.436012 kJ/mol
# Density = 2.081431 g / cm^3
# Si number density = 20.861792 Si / 1000 Ang^3
#
#
#
# Elastic Constant Matrix: (Units=GPa)
#
#
# Indices 1 2 3 4 5 6 
#
# 1 144.1747 33.7635 24.2317 0.0000 19.1392 0.0000
# 2 33.7635 81.3107 27.1587 0.0000 7.4580 0.0000
# 3 24.2317 27.1587 100.6869 0.0000 3.0500 0.0000
# 4 0.0000 0.0000 0.0000 35.6986 0.0000 1.2177
# 5 19.1392 7.4580 3.0500 0.0000 34.9139 0.0000
# 6 0.0000 0.0000 0.0000 1.2177 0.0000 37.6728
#
#
#
# Elastic Compliance Matrix: (Units=1/GPa)
#
#
# Indices 1 2 3 4 5 6 
#
# 1 0.008273 -0.002698 -0.001146 0.000000 -0.003858 0.000000
# 2 -0.002698 0.014631 -0.003256 0.000000 -0.001362 0.000000
# 3 -0.001146 -0.003256 0.011075 0.000000 0.000356 0.000000
# 4 0.000000 0.000000 0.000000 0.028043 0.000000 -0.000906
# 5 -0.003858 -0.001362 0.000356 0.000000 0.031017 0.000000
# 6 0.000000 0.000000 0.000000 -0.000906 0.000000 0.026574
#
#
# Mechanical properties :
#
#
# Convention : Reuss Voigt Hill
#
# Bulk Modulus (GPa) = 50.56092 55.16446 52.86269
# Shear Modulus (GPa) = 35.61075 37.72493 36.66784
#
# Velocity S-wave (km/s) = 4.13605 4.25706 4.19699
# Velocity P-wave (km/s) = 6.86279 7.11784 6.99148
#
# Compressibility (1/GPa) = 0.01977812
#
# Stress axis : x y z
#
# Youngs Moduli (GPa) = 120.87766 68.34596 90.29282
#
# Poissons Ratio (x) = 0.18443 0.10350
# Poissons Ratio (y) = 0.32618 0.29399
# Poissons Ratio (z) = 0.13855 0.22253
#
# Static dielectric constant tensor:
#      x y z
#    x 1.752670 0.000000 0.061670 
#    y 0.000000 1.844160 0.000000 
#    z 0.061670 0.000000 1.754310 
# 
# From -- ./inp_files/16126.got.cif
#   From: 2010.05.17/outbox.cif.g08.bks.cpg/sg5_9_cif.got.tgz:16126.got - 2010.06.03 18:56:24.
