data_PCOD9129597
_publ_section_title
;
Structure prediction by ZEFSAII (Michael W. Deem and Ramdas Pophale) SiO2 
 PCOD9129597
Probable space group: C 2
;
_chemical_formula_sum "Si O2"
_cell_formula_units_Z 30
_cell_length_a 8.076258
_cell_length_b 11.728488
_cell_length_c 15.234958
_cell_angle_alpha 90.000000
_cell_angle_beta 64.298040
_cell_angle_gamma 90.000000
_cell_volume 1300.313998
_symmetry_space_group_name_H-M "C 2"
_symmetry_group_IT_number 5
_symmetry_cell_setting 'monoclinic'
loop_
_space_group_symop_operation_xyz
x,y,z
-x,y,-z
1/2+x,1/2+y,z
1/2-x,1/2+y,-z
loop_
_atom_site_type_symbol
_atom_site_label
_atom_site_fract_x
_atom_site_fract_y
_atom_site_fract_z
Si Si1 0.000000 0.593160 0.500000
Si Si2 0.778846 0.696921 0.842695
Si Si3 0.076233 0.520552 0.079316
Si Si4 0.780558 0.216367 0.555196
Si Si5 0.447519 0.804125 0.815418
Si Si6 0.050182 0.886149 0.718568
Si Si7 0.092167 0.483007 0.298750
Si Si8 0.293754 0.595795 0.737772
O O1 0.178949 0.665287 0.492164
O O2 0.040607 0.513636 0.408369
O O3 0.588874 0.742650 0.848319
O O4 0.860146 0.602705 0.757282
O O5 0.787621 0.626688 0.931988
O O6 0.914569 0.803509 0.802686
O O7 0.150640 0.401225 0.101806
O O8 0.891907 0.552143 0.175170
O O9 0.000000 0.506956 0.000000
O O10 0.651955 0.320672 0.615862
O O11 0.767765 0.130622 0.642187
O O12 0.000000 0.240892 0.500000
O O13 0.534095 0.888130 0.719781
O O14 0.351221 0.704704 0.782873
O O15 0.211929 0.921243 0.745684
O O16 0.944659 0.997517 0.710784
#
# Coordination Sequence:
#
# PCOD9129597 Si02
#       8
#     2   4   4   4   4   4   4   4
#     4  12  26  46  66 104 148 192 252 314 370 428
#     4  11  22  44  71  98 136 188 237 292 364 436
#     4  11  25  45  73 110 146 185 240 302 368 448
#     4  12  27  49  69 106 153 197 256 313 364 435
#     4  11  23  43  76  97 138 189 241 295 370 439
#     4  12  23  43  71  95 138 195 237 293 369 425
#     4  11  23  42  65  98 136 185 240 299 358 425
#     4  12  24  48  72 103 145 197 241 298 377 441
#
# _framework density 23.071349999999999
#
# number of rings (size 3 to 8) (size 9 to 14) (size 15 to 20)
#    0.000    0.533    6.667    1.600    0.933    1.067 
#    3.600    0.000    0.000    0.000    0.000    0.000 
#    0.000    0.000    0.000    0.000    0.000    0.000 
#
# Total GULP energy -83752.921254 kJ/mol
# GULP energy per Si atom -5583.528084 kJ/mol
# Density = 2.301884 g / cm^3
# Si number density = 23.071350 Si / 1000 Ang^3
#
#
#
# Elastic Constant Matrix: (Units=GPa)
#
#
# Indices 1 2 3 4 5 6 
#
# 1 112.0007 54.3764 16.2813 0.0000 24.1611 0.0000
# 2 54.3764 151.2133 18.2628 0.0000 17.9350 0.0000
# 3 16.2813 18.2628 43.8738 0.0000 28.0503 0.0000
# 4 0.0000 0.0000 0.0000 16.2416 0.0000 2.2930
# 5 24.1611 17.9350 28.0503 0.0000 41.1376 0.0000
# 6 0.0000 0.0000 0.0000 2.2930 0.0000 26.5157
#
#
#
# Elastic Compliance Matrix: (Units=1/GPa)
#
#
# Indices 1 2 3 4 5 6 
#
# 1 0.011871 -0.003671 0.000988 0.000000 -0.006045 0.000000
# 2 -0.003671 0.008181 -0.002023 0.000000 -0.000031 0.000000
# 3 0.000988 -0.002023 0.040910 0.000000 -0.027593 0.000000
# 4 0.000000 0.000000 0.000000 0.062331 0.000000 -0.005390
# 5 -0.006045 -0.000031 -0.027593 0.000000 0.046687 0.000000
# 6 0.000000 0.000000 0.000000 -0.005390 0.000000 0.038180
#
#
# Mechanical properties :
#
#
# Convention : Reuss Voigt Hill
#
# Bulk Modulus (GPa) = 19.39910 53.88097 36.64004
# Shear Modulus (GPa) = 21.29861 31.32348 26.31104
#
# Velocity S-wave (km/s) = 3.04166 3.68867 3.38068
# Velocity P-wave (km/s) = 4.55655 6.44565 5.58160
#
# Compressibility (1/GPa) = 0.05154878
#
# Stress axis : x y z
#
# Youngs Moduli (GPa) = 84.23583 122.22828 24.44419
#
# Poissons Ratio (x) = 0.44873 -0.02415
# Poissons Ratio (y) = 0.30925 0.04946
# Poissons Ratio (z) = -0.08321 0.24731
#
# Static dielectric constant tensor:
#      x y z
#    x 1.955960 0.000000 0.058850 
#    y 0.000000 1.923850 0.000000 
#    z 0.058850 0.000000 1.921640 
# 
# From -- ./inp_files/50467.got.cif
#   From: 2010.05.17/outbox.cif.g08.bks.cpg/sg5_26_cif.got.tgz:50467.got - 2010.06.03 18:56:24.
