data_PCOD9129553
_publ_section_title
;
Structure prediction by ZEFSAII (Michael W. Deem and Ramdas Pophale) SiO2 
 PCOD9129553
Probable space group: C 2
;
_chemical_formula_sum "Si O2"
_cell_formula_units_Z 22
_cell_length_a 16.751217
_cell_length_b 9.123168
_cell_length_c 15.852444
_cell_angle_alpha 90.000000
_cell_angle_beta 156.652916
_cell_angle_gamma 90.000000
_cell_volume 960.091158
_symmetry_space_group_name_H-M "C 2"
_symmetry_group_IT_number 5
_symmetry_cell_setting 'monoclinic'
loop_
_space_group_symop_operation_xyz
x,y,z
-x,y,-z
1/2+x,1/2+y,z
1/2-x,1/2+y,-z
loop_
_atom_site_type_symbol
_atom_site_label
_atom_site_fract_x
_atom_site_fract_y
_atom_site_fract_z
Si Si1 0.614275 0.130780 0.683343
Si Si2 0.831207 0.430343 0.699059
Si Si3 0.157436 0.619489 0.922786
Si Si4 0.385474 0.603841 0.818820
Si Si5 0.500000 0.424350 0.500000
Si Si6 0.017225 0.931955 0.249330
O O1 0.608190 0.085699 0.776600
O O2 0.373703 0.097733 0.421399
O O3 0.606104 0.310572 0.668751
O O4 0.860219 0.088899 0.902443
O O5 0.901601 0.273585 0.802828
O O6 0.679003 0.498958 0.621771
O O7 0.697463 0.397037 0.487065
O O8 0.008870 0.535132 0.841792
O O9 0.124728 0.791912 0.900301
O O10 0.383308 0.564465 0.156038
O O11 0.400466 0.484520 0.759879
#
# Coordination Sequence:
#
# PCOD9129553 Si02
#       6
#     4   4   4   4   2   4
#     4   9  17  38  64  92 123 177 220 268 321 409
#     4  11  23  42  72  99 134 183 227 283 334 410
#     4  12  24  39  70 100 137 178 228 281 341 400
#     4  11  22  42  72  94 134 183 230 271 337 409
#     4   8  18  38  68  88 124 172 232 254 328 402
#     4  12  24  43  65 109 139 175 226 289 340 407
#
# _framework density 22.914490000000001
#
# number of rings (size 3 to 8) (size 9 to 14) (size 15 to 20)
#    0.545    0.727    3.636    3.273    0.000    0.000 
#    0.000    2.727    6.000    0.000    0.000    0.000 
#    0.000    0.000    0.000    0.000    0.000    0.000 
#
# Total GULP energy -61384.041920 kJ/mol
# GULP energy per Si atom -5580.367447 kJ/mol
# Density = 2.286234 g / cm^3
# Si number density = 22.914490 Si / 1000 Ang^3
#
#
#
# Elastic Constant Matrix: (Units=GPa)
#
#
# Indices 1 2 3 4 5 6 
#
# 1 168.0440 33.8230 57.3191 0.0001 26.8864 0.0000
# 2 33.8230 57.4404 9.2140 0.0003 8.5266 0.0002
# 3 57.3191 9.2140 112.1680 0.0004 3.1573 0.0002
# 4 0.0001 0.0003 0.0004 28.0235 0.0002 7.0823
# 5 26.8864 8.5266 3.1573 0.0002 58.7919 0.0000
# 6 0.0000 0.0002 0.0002 7.0823 0.0000 50.6189
#
#
#
# Elastic Compliance Matrix: (Units=1/GPa)
#
#
# Indices 1 2 3 4 5 6 
#
# 1 0.008613 -0.003964 -0.003987 0.000000 -0.003150 0.000000
# 2 -0.003964 0.019837 0.000427 0.000000 -0.001087 0.000000
# 3 -0.003987 0.000427 0.010884 0.000000 0.001177 0.000000
# 4 0.000000 0.000000 0.000000 0.036992 0.000000 -0.005176
# 5 -0.003150 -0.001087 0.001177 0.000000 0.018544 0.000000
# 6 0.000000 0.000000 0.000000 -0.005176 0.000000 0.020480
#
#
# Mechanical properties :
#
#
# Convention : Reuss Voigt Hill
#
# Bulk Modulus (GPa) = 41.17766 59.81829 50.49798
# Shear Modulus (GPa) = 36.10299 43.30662 39.70480
#
# Velocity S-wave (km/s) = 3.97363 4.35204 4.16713
# Velocity P-wave (km/s) = 6.24997 7.17045 6.72598
#
# Compressibility (1/GPa) = 0.02428501
#
# Stress axis : x y z
#
# Youngs Moduli (GPa) = 116.10969 50.41197 91.87543
#
# Poissons Ratio (x) = 0.19985 0.36629
# Poissons Ratio (y) = 0.46030 -0.03923
# Poissons Ratio (z) = 0.46291 -0.02152
#
# Static dielectric constant tensor:
#      x y z
#    x 1.951860 0.000000 0.021210 
#    y 0.000000 1.753240 0.000000 
#    z 0.021210 0.000000 1.958930 
# 
# From -- ./inp_files/9235.got.cif
#   From: 2010.05.17/outbox.cif.g08.bks.cpg/sg5_5_cif.got.tgz:9235.got - 2010.06.03 18:56:24.
