data_PCOD9129640
_publ_section_title
;
Structure prediction by ZEFSAII (Michael W. Deem and Ramdas Pophale) SiO2 
 PCOD9129640
Probable space group: C 2
;
_chemical_formula_sum "Si O2"
_cell_formula_units_Z 24
_cell_length_a 9.451212
_cell_length_b 18.146166
_cell_length_c 9.726364
_cell_angle_alpha 90.000000
_cell_angle_beta 44.833903
_cell_angle_gamma 90.000000
_cell_volume 1176.102721
_symmetry_space_group_name_H-M "C 2"
_symmetry_group_IT_number 5
_symmetry_cell_setting 'monoclinic'
loop_
_space_group_symop_operation_xyz
x,y,z
-x,y,-z
1/2+x,1/2+y,z
1/2-x,1/2+y,-z
loop_
_atom_site_type_symbol
_atom_site_label
_atom_site_fract_x
_atom_site_fract_y
_atom_site_fract_z
Si Si1 0.517962 0.362670 0.639653
Si Si2 0.145969 0.107455 0.530044
Si Si3 0.072454 0.599940 0.106350
Si Si4 0.306398 0.746987 0.037621
Si Si5 0.566770 0.780252 0.609392
Si Si6 0.057779 0.000510 0.118868
O O1 0.500000 0.396286 0.500000
O O2 0.739223 0.328807 0.495734
O O3 0.478706 0.423350 0.781662
O O4 0.354852 0.297959 0.773787
O O5 0.373066 0.091001 0.332740
O O6 0.126262 0.194030 0.574995
O O7 0.000000 0.092457 0.500000
O O8 0.075177 0.060190 0.707524
O O9 0.198868 0.671176 0.067906
O O10 0.215632 0.529485 0.018618
O O11 0.000000 0.612064 0.000000
O O12 0.390808 0.787707 0.842855
O O13 0.500000 0.733250 0.000000
O O14 0.500000 0.795357 0.500000
O O15 0.000000 0.997954 0.000000
#
# Coordination Sequence:
#
# PCOD9129640 Si02
#       6
#     4   4   4   4   4   4
#     4  12  28  48  71 102 144 193 233 292 359 423
#     4  11  22  46  75 107 137 184 237 289 354 425
#     4  12  24  44  79 106 142 190 233 293 356 420
#     4  12  25  45  74 110 139 181 243 293 351 415
#     4  11  24  44  76 107 141 181 238 296 351 421
#     4  12  29  47  69 108 145 183 240 297 351 424
#
# _framework density 20.406382000000001
#
# number of rings (size 3 to 8) (size 9 to 14) (size 15 to 20)
#    0.000    0.333    6.667    2.000    2.333    2.667 
#    0.000    0.000    0.000    0.000    0.000    0.000 
#    0.000    0.000    0.000    0.000    0.000    0.000 
#
# Total GULP energy -67185.670577 kJ/mol
# GULP energy per Si atom -5598.805881 kJ/mol
# Density = 2.035994 g / cm^3
# Si number density = 20.406382 Si / 1000 Ang^3
#
#
#
# Elastic Constant Matrix: (Units=GPa)
#
#
# Indices 1 2 3 4 5 6 
#
# 1 106.3126 43.8617 39.6491 0.0000 12.6929 0.0000
# 2 43.8617 75.7025 17.3338 0.0000 5.6691 0.0000
# 3 39.6491 17.3338 124.0059 0.0000 -4.9121 0.0000
# 4 0.0000 0.0000 0.0000 28.3120 0.0000 0.8547
# 5 12.6929 5.6691 -4.9121 0.0000 51.4186 0.0000
# 6 0.0000 0.0000 0.0000 0.8547 0.0000 -1.8218
#
#
#
# Elastic Compliance Matrix: (Units=1/GPa)
#
#
# Indices 1 2 3 4 5 6 
#
# 1 0.014038 -0.007078 -0.003619 0.000000 -0.003031 0.000000
# 2 -0.007078 0.017363 -0.000171 0.000000 -0.000184 0.000000
# 3 -0.003619 -0.000171 0.009317 0.000000 0.001802 0.000000
# 4 0.000000 0.000000 0.000000 0.034827 0.000000 0.016338
# 5 -0.003031 -0.000184 0.001802 0.000000 0.020389 0.000000
# 6 0.000000 0.000000 0.000000 0.016338 0.000000 -0.541230
#
#
# Mechanical properties :
#
#
# Convention : Reuss Voigt Hill
#
# Bulk Modulus (GPa) = 52.68318 56.41226 54.54772
# Shear Modulus (GPa) = -11.98376 29.26018 8.63821
#
# Velocity S-wave (km/s) = -2.42596 3.79076 2.05968
# Velocity P-wave (km/s) = 4.24570 6.84575 5.69606
#
# Compressibility (1/GPa) = 0.01898139
#
# Stress axis : x y z
#
# Youngs Moduli (GPa) = 71.23537 57.59217 107.33482
#
# Poissons Ratio (x) = 0.40763 0.38846
# Poissons Ratio (y) = 0.50420 0.01839
# Poissons Ratio (z) = 0.25781 0.00987
#
# Static dielectric constant tensor:
#      x y z
#    x 1.735220 0.000000 0.014670 
#    y 0.000000 1.698510 0.000000 
#    z 0.014670 0.000000 1.724250 
# 
# From -- ./inp_files/16699.got.cif
#   From: 2010.05.17/outbox.cif.g08.bks.cpg/sg5_9_cif.got.tgz:16699.got - 2010.06.03 18:56:24.
