data_PCOD9129735
_publ_section_title
;
Structure prediction by ZEFSAII (Michael W. Deem and Ramdas Pophale) SiO2 
 PCOD9129735
Probable space group: C 2
;
_chemical_formula_sum "Si O2"
_cell_formula_units_Z 30
_cell_length_a 9.472736
_cell_length_b 14.370885
_cell_length_c 18.542398
_cell_angle_alpha 90.000000
_cell_angle_beta 34.497757
_cell_angle_gamma 90.000000
_cell_volume 1429.644754
_symmetry_space_group_name_H-M "C 2"
_symmetry_group_IT_number 5
_symmetry_cell_setting 'monoclinic'
loop_
_space_group_symop_operation_xyz
x,y,z
-x,y,-z
1/2+x,1/2+y,z
1/2-x,1/2+y,-z
loop_
_atom_site_type_symbol
_atom_site_label
_atom_site_fract_x
_atom_site_fract_y
_atom_site_fract_z
Si Si1 0.000000 0.794210 0.000000
Si Si2 0.919660 0.467927 0.373588
Si Si3 0.706346 0.168259 0.614357
Si Si4 0.971472 0.862651 0.372138
Si Si5 0.318448 0.066696 0.008035
Si Si6 0.931272 0.929793 0.233630
Si Si7 0.015698 0.409900 0.170522
Si Si8 0.969695 0.730654 0.863295
O O1 0.228644 0.852783 0.935275
O O2 0.113409 0.747192 0.879239
O O3 0.892568 0.579212 0.387502
O O4 0.672702 0.414035 0.502996
O O5 0.978475 0.448595 0.265926
O O6 0.149985 0.429371 0.323307
O O7 0.646745 0.263462 0.597532
O O8 0.595595 0.179566 0.742203
O O9 0.000000 0.156797 0.500000
O O10 0.932925 0.928276 0.318704
O O11 0.266779 0.852628 0.258340
O O12 0.266769 0.158984 0.981934
O O13 0.454995 0.992827 0.898848
O O14 0.500000 0.082992 0.000000
O O15 0.072084 0.017264 0.140775
O O16 0.072259 0.834291 0.150129
#
# Coordination Sequence:
#
# PCOD9129735 Si02
#       8
#     2   4   4   4   4   4   4   4
#     4  12  24  42  70 100 146 178 234 294 356 414
#     4  12  24  46  71 100 137 184 234 294 344 418
#     4  11  25  45  70 101 138 186 238 284 356 421
#     4  11  25  45  70 101 139 187 229 292 355 418
#     4  12  23  40  67 100 137 183 226 279 348 419
#     4  11  24  46  68 101 144 182 230 285 358 417
#     4  12  23  43  68 101 136 181 233 287 351 414
#     4  11  23  42  67  99 136 188 224 285 349 418
#
# _framework density 20.984234000000001
#
# number of rings (size 3 to 8) (size 9 to 14) (size 15 to 20)
#    0.000    0.533    6.000    3.200    0.000    1.067 
#    0.000    4.000    0.000    0.000    0.000    0.000 
#    0.000    0.000    0.000    0.000    0.000    0.000 
#
# Total GULP energy -83700.344255 kJ/mol
# GULP energy per Si atom -5580.022950 kJ/mol
# Density = 2.093647 g / cm^3
# Si number density = 20.984234 Si / 1000 Ang^3
#
#
#
# Elastic Constant Matrix: (Units=GPa)
#
#
# Indices 1 2 3 4 5 6 
#
# 1 63.8767 1.9105 26.2981 -0.0014 -2.5057 0.0015
# 2 1.9105 92.3618 36.3961 -0.0048 -5.7784 0.0037
# 3 26.2981 36.3961 88.1847 -0.0056 6.8274 0.0108
# 4 -0.0014 -0.0048 -0.0056 28.4235 0.0012 4.5469
# 5 -2.5057 -5.7784 6.8274 0.0012 25.1846 -0.0023
# 6 0.0015 0.0037 0.0108 4.5469 -0.0023 20.2220
#
#
#
# Elastic Compliance Matrix: (Units=1/GPa)
#
#
# Indices 1 2 3 4 5 6 
#
# 1 0.018620 0.002637 -0.006978 -0.000001 0.004349 0.000003
# 2 0.002637 0.013824 -0.006903 0.000001 0.005306 0.000001
# 3 -0.006978 -0.006903 0.016799 0.000003 -0.006832 -0.000009
# 4 -0.000001 0.000001 0.000003 0.036495 -0.000003 -0.008206
# 5 0.004349 0.005306 -0.006832 -0.000003 0.043209 0.000008
# 6 0.000003 0.000001 -0.000009 -0.008206 0.000008 0.051296
#
#
# Mechanical properties :
#
#
# Convention : Reuss Voigt Hill
#
# Bulk Modulus (GPa) = 37.37608 41.51473 39.44541
# Shear Modulus (GPa) = 23.62412 26.75394 25.18903
#
# Velocity S-wave (km/s) = 3.35894 3.57452 3.46841
# Velocity P-wave (km/s) = 5.73528 6.07149 5.90578
#
# Compressibility (1/GPa) = 0.02675508
#
# Stress axis : x y z
#
# Youngs Moduli (GPa) = 53.70694 72.33546 59.52902
#
# Poissons Ratio (x) = -0.19071 0.41537
# Poissons Ratio (y) = -0.14160 0.41091
# Poissons Ratio (z) = 0.37474 0.49931
#
# Static dielectric constant tensor:
#      x y z
#    x 1.732800 0.000000 0.006010 
#    y 0.000000 1.821740 0.000000 
#    z 0.006010 0.000000 1.753220 
# 
# From -- ./inp_files/59729.got.cif
#   From: 2010.05.17/outbox.cif.g08.bks.cpg/sg5_30_cif.got.tgz:59729.got - 2010.06.03 18:56:24.
