data_PCOD9129892
_publ_section_title
;
Structure prediction by ZEFSAII (Michael W. Deem and Ramdas Pophale) SiO2 
 PCOD9129892
Probable space group: C 2
;
_chemical_formula_sum "Si O2"
_cell_formula_units_Z 22
_cell_length_a 10.833696
_cell_length_b 13.620385
_cell_length_c 11.725822
_cell_angle_alpha 90.000000
_cell_angle_beta 36.100060
_cell_angle_gamma 90.000000
_cell_volume 1019.459560
_symmetry_space_group_name_H-M "C 2"
_symmetry_group_IT_number 5
_symmetry_cell_setting 'monoclinic'
loop_
_space_group_symop_operation_xyz
x,y,z
-x,y,-z
1/2+x,1/2+y,z
1/2-x,1/2+y,-z
loop_
_atom_site_type_symbol
_atom_site_label
_atom_site_fract_x
_atom_site_fract_y
_atom_site_fract_z
Si Si1 0.168465 0.832170 0.968046
Si Si2 0.004314 0.219095 0.612026
Si Si3 0.695668 0.560350 0.936810
Si Si4 0.249343 0.534557 0.830828
Si Si5 0.500000 0.374285 0.500000
Si Si6 0.959569 0.728528 0.335623
O O1 0.059907 0.802470 0.167236
O O2 0.388368 0.776561 0.798176
O O3 0.000000 0.796364 0.000000
O O4 0.220975 0.943989 0.896218
O O5 0.850296 0.129962 0.699726
O O6 0.000000 0.283886 0.500000
O O7 0.236166 0.186505 0.466337
O O8 0.878958 0.638152 0.770944
O O9 0.500000 0.588847 0.000000
O O10 0.685759 0.552245 0.084016
O O11 0.348581 0.442671 0.689288
O O12 0.000000 0.531917 0.000000
O O13 0.401794 0.298115 0.484338
#
# Coordination Sequence:
#
# PCOD9129892 Si02
#       6
#     4   4   4   4   2   4
#     4  11  23  47  72 103 147 197 245 301 372 440
#     4  12  24  42  77 111 143 188 250 303 363 440
#     4  11  27  50  73 103 150 196 239 302 376 434
#     4  12  26  47  78 107 146 193 249 302 367 438
#     4  12  30  46  74 108 148 194 252 302 370 438
#     4  12  27  46  73 110 148 191 247 309 367 437
#
# _framework density 21.58006
#
# number of rings (size 3 to 8) (size 9 to 14) (size 15 to 20)
#    0.000    0.364    6.364    1.636    5.091    0.727 
#    1.636    0.000    0.000    0.000    0.000    0.000 
#    0.000    0.000    0.000    0.000    0.000    0.000 
#
# Total GULP energy -61280.115656 kJ/mol
# GULP energy per Si atom -5570.919605 kJ/mol
# Density = 2.153094 g / cm^3
# Si number density = 21.580060 Si / 1000 Ang^3
#
#
#
# Elastic Constant Matrix: (Units=GPa)
#
#
# Indices 1 2 3 4 5 6 
#
# 1 146.4316 44.4811 75.3284 -0.0008 -14.6617 0.0003
# 2 44.4811 111.0447 41.9455 -0.0004 -30.1534 0.0002
# 3 75.3284 41.9455 113.7494 -0.0011 -23.7801 0.0007
# 4 -0.0008 -0.0004 -0.0011 23.7876 0.0008 2.4642
# 5 -14.6617 -30.1534 -23.7801 0.0008 44.7836 -0.0003
# 6 0.0003 0.0002 0.0007 2.4642 -0.0003 30.0545
#
#
#
# Elastic Compliance Matrix: (Units=1/GPa)
#
#
# Indices 1 2 3 4 5 6 
#
# 1 0.010757 -0.002211 -0.006618 0.000000 -0.001481 0.000000
# 2 -0.002211 0.012346 -0.001689 0.000000 0.006692 0.000000
# 3 -0.006618 -0.001689 0.014743 0.000000 0.004524 0.000000
# 4 0.000000 0.000000 0.000000 0.042399 -0.000001 -0.003476
# 5 -0.001481 0.006692 0.004524 -0.000001 0.028753 0.000000
# 6 0.000000 0.000000 0.000000 -0.003476 0.000000 0.033558
#
#
# Mechanical properties :
#
#
# Convention : Reuss Voigt Hill
#
# Bulk Modulus (GPa) = 59.49224 77.19286 68.34255
# Shear Modulus (GPa) = 29.55158 33.68984 31.62071
#
# Velocity S-wave (km/s) = 3.70455 3.95543 3.83204
# Velocity P-wave (km/s) = 6.77689 7.53052 7.16362
#
# Compressibility (1/GPa) = 0.01680892
#
# Stress axis : x y z
#
# Youngs Moduli (GPa) = 92.96341 80.99469 67.83094
#
# Poissons Ratio (x) = 0.17911 0.44889
# Poissons Ratio (y) = 0.20557 0.11459
# Poissons Ratio (z) = 0.61521 0.13683
#
# Static dielectric constant tensor:
#      x y z
#    x 1.907580 0.000000 0.096800 
#    y 0.000000 1.810560 0.000000 
#    z 0.096800 0.000000 1.802230 
# 
# From -- ./inp_files/40025.got.cif
#   From: 2010.05.17/outbox.cif.g08.bks.cpg/sg5_21_cif.got.tgz:40025.got - 2010.06.03 18:56:24.
