data_PCOD9129263
_publ_section_title
;
Structure prediction by ZEFSAII (Michael W. Deem and Ramdas Pophale) SiO2 
 PCOD9129263
Probable space group: C 2
;
_chemical_formula_sum "Si O2"
_cell_formula_units_Z 26
_cell_length_a 14.578361
_cell_length_b 8.500009
_cell_length_c 14.328253
_cell_angle_alpha 90.000000
_cell_angle_beta 138.139834
_cell_angle_gamma 90.000000
_cell_volume 1184.819421
_symmetry_space_group_name_H-M "C 2"
_symmetry_group_IT_number 5
_symmetry_cell_setting 'monoclinic'
loop_
_space_group_symop_operation_xyz
x,y,z
-x,y,-z
1/2+x,1/2+y,z
1/2-x,1/2+y,-z
loop_
_atom_site_type_symbol
_atom_site_label
_atom_site_fract_x
_atom_site_fract_y
_atom_site_fract_z
Si Si1 0.577641 0.273210 0.967061
Si Si2 0.709697 0.664015 0.536371
Si Si3 0.152134 0.155263 0.157031
Si Si4 0.500000 0.818778 0.500000
Si Si5 0.938715 0.456809 0.797971
Si Si6 0.852023 0.433674 0.209248
Si Si7 0.608530 0.459753 0.303783
O O1 0.529136 0.378247 0.841277
O O2 0.518858 0.098982 0.909460
O O3 0.500000 0.331017 0.000000
O O4 0.735680 0.300045 0.110187
O O5 0.623711 0.709571 0.561483
O O6 0.818945 0.533850 0.646587
O O7 0.609705 0.597940 0.380668
O O8 0.799607 0.819249 0.584660
O O9 0.134539 0.328696 0.190677
O O10 0.264010 0.095857 0.164319
O O11 0.175795 0.038179 0.262711
O O12 0.000000 0.139134 0.000000
O O13 0.451319 0.915356 0.373398
O O14 0.055002 0.408930 0.811515
#
# Coordination Sequence:
#
# PCOD9129263 Si02
#       7
#     4   4   4   2   4   4   4
#     4  11  22  47  70  98 147 185 232 304 362 427
#     4  11  24  45  67 103 140 189 237 306 355 431
#     4  12  23  44  72 104 143 190 238 300 361 440
#     4  12  24  44  72  96 140 194 244 286 378 428
#     4  11  28  43  71 112 143 183 248 302 358 442
#     4  12  24  45  74 103 139 200 236 297 373 432
#     4  11  20  42  69  94 144 184 235 297 361 418
#
# _framework density 21.944272999999999
#
# number of rings (size 3 to 8) (size 9 to 14) (size 15 to 20)
#    0.000    0.615    4.615    4.154    2.154    1.231 
#    5.538    0.000    0.000    0.000    0.000    0.000 
#    0.000    0.000    0.000    0.000    0.000    0.000 
#
# Total GULP energy -72470.394493 kJ/mol
# GULP energy per Si atom -5574.645730 kJ/mol
# Density = 2.189433 g / cm^3
# Si number density = 21.944273 Si / 1000 Ang^3
#
#
#
# Elastic Constant Matrix: (Units=GPa)
#
#
# Indices 1 2 3 4 5 6 
#
# 1 22.7199 -13.7129 3.1026 0.0000 7.3233 0.0000
# 2 -13.7129 99.8669 41.1743 0.0000 -10.9147 0.0000
# 3 3.1026 41.1743 103.6878 0.0000 -5.6511 0.0000
# 4 0.0000 0.0000 0.0000 27.9147 0.0000 -22.3286
# 5 7.3233 -10.9147 -5.6511 0.0000 34.1248 0.0000
# 6 0.0000 0.0000 0.0000 -22.3286 0.0000 7.0545
#
#
#
# Elastic Compliance Matrix: (Units=1/GPa)
#
#
# Indices 1 2 3 4 5 6 
#
# 1 0.052964 0.008485 -0.005475 0.000000 -0.009559 0.000000
# 2 0.008485 0.013661 -0.005590 0.000000 0.001623 0.000000
# 3 -0.005475 -0.005590 0.012104 0.000000 0.001391 0.000000
# 4 0.000000 0.000000 0.000000 -0.023387 0.000000 -0.074023
# 5 -0.009559 0.001623 0.001391 0.000000 0.032105 0.000000
# 6 0.000000 0.000000 0.000000 -0.074023 0.000000 -0.092542
#
#
# Mechanical properties :
#
#
# Convention : Reuss Voigt Hill
#
# Bulk Modulus (GPa) = 13.59273 31.93362 22.76317
# Shear Modulus (GPa) = 203.34677 26.86617 115.10647
#
# Velocity S-wave (km/s) = 9.63671 3.50278 7.25037
# Velocity P-wave (km/s) = 11.40304 5.56265 8.97141
#
# Compressibility (1/GPa) = 0.07356874
#
# Stress axis : x y z
#
# Youngs Moduli (GPa) = 18.88058 73.20364 82.61862
#
# Poissons Ratio (x) = -0.62116 0.45236
# Poissons Ratio (y) = -0.16021 0.46184
# Poissons Ratio (z) = 0.10338 0.40921
#
# Static dielectric constant tensor:
#      x y z
#    x 1.832710 0.000000 -0.043370 
#    y 0.000000 1.878920 0.000000 
#    z -0.043370 0.000000 1.821690 
# 
# From -- ./inp_files/54325.got.cif
#   From: 2010.05.17/outbox.cif.g08.bks.cpg/sg5_28_cif.got.tgz:54325.got - 2010.06.03 18:56:24.
