data_PCOD9129291
_publ_section_title
;
Structure prediction by ZEFSAII (Michael W. Deem and Ramdas Pophale) SiO2 
 PCOD9129291
Probable space group: C 2
;
_chemical_formula_sum "Si O2"
_cell_formula_units_Z 30
_cell_length_a 12.984349
_cell_length_b 22.862504
_cell_length_c 5.099768
_cell_angle_alpha 90.000000
_cell_angle_beta 88.843151
_cell_angle_gamma 90.000000
_cell_volume 1513.581685
_symmetry_space_group_name_H-M "C 2"
_symmetry_group_IT_number 5
_symmetry_cell_setting 'monoclinic'
loop_
_space_group_symop_operation_xyz
x,y,z
-x,y,-z
1/2+x,1/2+y,z
1/2-x,1/2+y,-z
loop_
_atom_site_type_symbol
_atom_site_label
_atom_site_fract_x
_atom_site_fract_y
_atom_site_fract_z
Si Si1 0.398692 0.270990 0.157544
Si Si2 0.610011 0.138429 0.954141
Si Si3 0.258221 0.136368 0.529368
Si Si4 0.424208 0.432570 0.754990
Si Si5 0.896890 0.058088 0.647117
Si Si6 0.706432 0.319196 0.318318
Si Si7 0.613748 0.740750 0.613245
Si Si8 0.500000 0.656682 0.000000
O O1 0.414119 0.201694 0.175781
O O2 0.366225 0.296818 0.437917
O O3 0.500000 0.294674 0.000000
O O4 0.311713 0.282831 0.947238
O O5 0.684174 0.112595 0.731788
O O6 0.500000 0.108525 0.000000
O O7 0.667808 0.144667 0.227343
O O8 0.175621 0.085143 0.572442
O O9 0.196800 0.196631 0.473976
O O10 0.500000 0.423426 0.500000
O O11 0.368902 0.496460 0.777166
O O12 0.334332 0.383917 0.740844
O O13 0.500000 0.427159 0.000000
O O14 0.000000 0.039765 0.500000
O O15 0.933491 0.112663 0.823003
O O16 0.824302 0.301566 0.374801
O O17 0.500000 0.748691 0.500000
O O18 0.582604 0.700461 0.863870
#
# Coordination Sequence:
#
# PCOD9129291 Si02
#       8
#     4   4   4   4   4   4   4   2
#     4  11  21  36  58  85 122 165 206 252 306 383
#     4  11  23  37  57  89 129 163 208 257 319 391
#     4  12  21  39  61  91 124 167 205 263 333 389
#     4  11  24  43  65  95 130 171 218 270 324 391
#     4  11  23  37  66  98 131 166 215 275 332 387
#     4  12  24  39  59  90 127 169 211 253 326 389
#     4  12  25  36  60  92 129 166 209 269 328 390
#     4  12  20  40  60  92 136 160 212 270 336 376
#
# _framework density 19.820533999999999
#
# number of rings (size 3 to 8) (size 9 to 14) (size 15 to 20)
#    0.000    0.533    6.000    3.600    1.867    2.133 
#    0.000    0.000    0.000    1.600    1.733    0.000 
#    0.000    0.000    0.000    0.000    0.000    0.000 
#
# Total GULP energy -83581.266365 kJ/mol
# GULP energy per Si atom -5572.084424 kJ/mol
# Density = 1.977542 g / cm^3
# Si number density = 19.820534 Si / 1000 Ang^3
#
#
#
# Elastic Constant Matrix: (Units=GPa)
#
#
# Indices 1 2 3 4 5 6 
#
# 1 104.9050 32.9954 11.7508 0.0000 15.4927 0.0000
# 2 32.9954 91.5782 14.7287 0.0000 10.7086 0.0000
# 3 11.7508 14.7287 81.1684 0.0000 9.6391 0.0000
# 4 0.0000 0.0000 0.0000 13.4624 0.0000 10.4317
# 5 15.4927 10.7086 9.6391 0.0000 34.1420 0.0000
# 6 0.0000 0.0000 0.0000 10.4317 0.0000 43.7238
#
#
#
# Elastic Compliance Matrix: (Units=1/GPa)
#
#
# Indices 1 2 3 4 5 6 
#
# 1 0.011270 -0.003524 -0.000534 0.000000 -0.003858 0.000000
# 2 -0.003524 0.012666 -0.001559 0.000000 -0.001934 0.000000
# 3 -0.000534 -0.001559 0.013030 0.000000 -0.002948 0.000000
# 4 0.000000 0.000000 0.000000 0.091128 0.000000 -0.021742
# 5 -0.003858 -0.001934 -0.002948 0.000000 0.032479 0.000000
# 6 0.000000 0.000000 0.000000 -0.021742 0.000000 0.028058
#
#
# Mechanical properties :
#
#
# Convention : Reuss Voigt Hill
#
# Bulk Modulus (GPa) = 38.85910 44.06684 41.46297
# Shear Modulus (GPa) = 23.98752 32.81074 28.39913
#
# Velocity S-wave (km/s) = 3.48262 4.07306 3.78936
# Velocity P-wave (km/s) = 5.98494 6.66341 6.33327
#
# Compressibility (1/GPa) = 0.02573400
#
# Stress axis : x y z
#
# Youngs Moduli (GPa) = 88.72865 78.95168 76.74458
#
# Poissons Ratio (x) = 0.27820 0.04098
# Poissons Ratio (y) = 0.31265 0.11961
# Poissons Ratio (z) = 0.04738 0.12305
#
# Static dielectric constant tensor:
#      x y z
#    x 1.869180 0.000000 -0.056200 
#    y 0.000000 1.720770 0.000000 
#    z -0.056200 0.000000 1.783800 
# 
# From -- ./inp_files/5654.got.cif
#   From: 2010.05.17/outbox.cif.g08.bks.cpg/sg5_3_cif.got.tgz:5654.got - 2010.06.03 18:56:24.
