data_PCOD9129501
_publ_section_title
;
Structure prediction by ZEFSAII (Michael W. Deem and Ramdas Pophale) SiO2 
 PCOD9129501
Probable space group: C 2
;
_chemical_formula_sum "Si O2"
_cell_formula_units_Z 32
_cell_length_a 9.491857
_cell_length_b 11.735664
_cell_length_c 12.509986
_cell_angle_alpha 90.000000
_cell_angle_beta 86.354936
_cell_angle_gamma 90.000000
_cell_volume 1390.708869
_symmetry_space_group_name_H-M "C 2"
_symmetry_group_IT_number 5
_symmetry_cell_setting 'monoclinic'
loop_
_space_group_symop_operation_xyz
x,y,z
-x,y,-z
1/2+x,1/2+y,z
1/2-x,1/2+y,-z
loop_
_atom_site_type_symbol
_atom_site_label
_atom_site_fract_x
_atom_site_fract_y
_atom_site_fract_z
Si Si1 0.881864 0.707350 0.786746
Si Si2 0.414346 0.839490 0.903444
Si Si3 0.206803 0.887638 0.389078
Si Si4 0.600465 0.364244 0.855289
Si Si5 0.580235 0.620023 0.833568
Si Si6 0.555285 0.626990 0.381712
Si Si7 0.743957 0.334523 0.623061
Si Si8 0.487301 0.978983 0.686823
O O1 0.827368 0.800956 0.704497
O O2 0.743266 0.650773 0.845726
O O3 0.979640 0.770287 0.868435
O O4 0.969093 0.610857 0.718008
O O5 0.244827 0.843274 0.913150
O O6 0.472369 0.711762 0.885135
O O7 0.460898 0.910863 0.798091
O O8 0.500000 0.886998 0.000000
O O9 0.185574 0.831000 0.506307
O O10 0.365644 0.935308 0.366518
O O11 0.111153 0.999447 0.386330
O O12 0.549345 0.492976 0.873982
O O13 0.642013 0.359151 0.726632
O O14 0.559250 0.629603 0.706218
O O15 0.500000 0.662809 0.500000
O O16 0.677662 0.717220 0.350994
O O17 0.859520 0.436067 0.618771
#
# Coordination Sequence:
#
# PCOD9129501 Si02
#       8
#     4   4   4   4   4   4   4   4
#     4  12  24  41  72  98 136 181 221 274 335 394
#     4  11  25  50  75  99 132 174 224 286 355 413
#     4  12  25  38  63 101 139 184 234 270 325 402
#     4  11  24  46  68 101 140 174 225 280 333 403
#     4  12  22  47  69  99 138 179 221 283 339 400
#     4  12  23  39  63  94 145 192 229 276 328 397
#     4  11  22  41  63  96 138 185 232 273 325 397
#     4  11  23  43  68  96 136 177 226 283 340 397
#
# _framework density 23.009847000000001
#
# number of rings (size 3 to 8) (size 9 to 14) (size 15 to 20)
#    0.000    0.500    7.500    3.375    1.750    0.000 
#    4.500    0.625    0.000    0.000    0.000    0.000 
#    0.000    0.000    0.000    0.000    0.000    0.000 
#
# Total GULP energy -89606.130624 kJ/mol
# GULP energy per Si atom -5600.383164 kJ/mol
# Density = 2.295748 g / cm^3
# Si number density = 23.009847 Si / 1000 Ang^3
#
#
#
# Elastic Constant Matrix: (Units=GPa)
#
#
# Indices 1 2 3 4 5 6 
#
# 1 83.6959 20.6938 14.5806 0.0000 19.9854 0.0000
# 2 20.6938 116.9067 3.1859 0.0000 1.2959 0.0000
# 3 14.5806 3.1859 70.0402 0.0000 17.6623 0.0000
# 4 0.0000 0.0000 0.0000 -15.8236 0.0000 6.1157
# 5 19.9854 1.2959 17.6623 0.0000 28.1496 0.0000
# 6 0.0000 0.0000 0.0000 6.1157 0.0000 43.8233
#
#
#
# Elastic Compliance Matrix: (Units=1/GPa)
#
#
# Indices 1 2 3 4 5 6 
#
# 1 0.015125 -0.002551 -0.000421 0.000000 -0.010357 0.000000
# 2 -0.002551 0.008995 -0.000274 0.000000 0.001569 0.000000
# 3 -0.000421 -0.000274 0.016987 0.000000 -0.010347 0.000000
# 4 0.000000 0.000000 0.000000 -0.059963 0.000000 0.008368
# 5 -0.010357 0.001569 -0.010347 0.000000 0.049298 0.000000
# 6 0.000000 0.000000 0.000000 0.008368 0.000000 0.021651
#
#
# Mechanical properties :
#
#
# Convention : Reuss Voigt Hill
#
# Bulk Modulus (GPa) = 28.88829 38.61813 33.75321
# Shear Modulus (GPa) = 71.30285 26.70870 49.00578
#
# Velocity S-wave (km/s) = 5.57272 3.41068 4.61995
# Velocity P-wave (km/s) = 7.34772 5.68595 6.56959
#
# Compressibility (1/GPa) = 0.03461610
#
# Stress axis : x y z
#
# Youngs Moduli (GPa) = 66.11486 111.16712 58.86934
#
# Poissons Ratio (x) = 0.28359 0.02478
# Poissons Ratio (y) = 0.16866 0.01611
# Poissons Ratio (z) = 0.02783 0.03043
#
# Static dielectric constant tensor:
#      x y z
#    x 1.892890 0.000000 -0.007130 
#    y 0.000000 1.834600 0.000000 
#    z -0.007130 0.000000 1.876370 
# 
# From -- ./inp_files/50491.got.cif
#   From: 2010.05.17/outbox.cif.g08.bks.cpg/sg5_26_cif.got.tgz:50491.got - 2010.06.03 18:56:24.
