data_PCOD9129152
_publ_section_title
;
Structure prediction by ZEFSAII (Michael W. Deem and Ramdas Pophale) SiO2 
 PCOD9129152
Probable space group: C 2
;
_chemical_formula_sum "Si O2"
_cell_formula_units_Z 20
_cell_length_a 20.480849
_cell_length_b 5.488153
_cell_length_c 14.977561
_cell_angle_alpha 90.000000
_cell_angle_beta 27.676222
_cell_angle_gamma 90.000000
_cell_volume 781.946785
_symmetry_space_group_name_H-M "C 2"
_symmetry_group_IT_number 5
_symmetry_cell_setting 'monoclinic'
loop_
_space_group_symop_operation_xyz
x,y,z
-x,y,-z
1/2+x,1/2+y,z
1/2-x,1/2+y,-z
loop_
_atom_site_type_symbol
_atom_site_label
_atom_site_fract_x
_atom_site_fract_y
_atom_site_fract_z
Si Si1 0.699716 0.375000 0.329348
Si Si2 0.520104 0.171512 0.782466
Si Si3 0.000000 0.453276 0.000000
Si Si4 0.196604 0.166507 0.158396
Si Si5 0.567099 0.664631 0.640222
Si Si6 0.000000 0.530803 0.500000
O O1 0.690065 0.444123 0.236745
O O2 0.659255 0.603063 0.440983
O O3 0.576545 0.180509 0.486072
O O4 0.857037 0.300442 0.162646
O O5 0.590321 0.429404 0.674894
O O6 0.509422 0.118613 0.900626
O O7 0.588246 0.926372 0.659017
O O8 0.359882 0.189813 0.940887
O O9 0.094665 0.153341 0.197694
O O10 0.124381 0.378806 0.304062
#
# Coordination Sequence:
#
# PCOD9129152 Si02
#       6
#     4   4   2   4   4   2
#     4  11  24  44  77 105 155 201 248 313 379 460
#     4  11  28  44  73 103 152 194 247 317 373 446
#     4  10  28  54  64 112 150 212 254 308 390 464
#     4  11  23  42  69 114 147 192 245 314 382 447
#     4  12  23  45  72 112 142 193 250 316 370 442
#     4  12  20  42  80 110 150 202 258 302 378 454
#
# _framework density 25.577188
#
# number of rings (size 3 to 8) (size 9 to 14) (size 15 to 20)
#    0.000    0.800    4.000    2.400    5.600    2.400 
#    3.600    0.000    0.000    0.000    0.000    0.000 
#    0.000    0.000    0.000    0.000    0.000    0.000 
#
# Total GULP energy -55985.443360 kJ/mol
# GULP energy per Si atom -5598.544336 kJ/mol
# Density = 2.551897 g / cm^3
# Si number density = 25.577188 Si / 1000 Ang^3
#
#
#
# Elastic Constant Matrix: (Units=GPa)
#
#
# Indices 1 2 3 4 5 6 
#
# 1 115.2961 32.8860 44.7556 -0.0022 -19.5828 0.0060
# 2 32.8860 120.8753 56.7386 -0.0274 4.9036 0.0088
# 3 44.7556 56.7386 89.7729 -0.0221 -26.8396 -0.0010
# 4 -0.0022 -0.0274 -0.0221 25.0443 0.0092 13.2411
# 5 -19.5828 4.9036 -26.8396 0.0092 71.7752 0.0008
# 6 0.0060 0.0088 -0.0010 13.2411 0.0008 -0.1461
#
#
#
# Elastic Compliance Matrix: (Units=1/GPa)
#
#
# Indices 1 2 3 4 5 6 
#
# 1 0.010894 -0.000945 -0.004420 -0.000005 0.001384 0.000001
# 2 -0.000945 0.012983 -0.009093 -0.000008 -0.004545 0.000030
# 3 -0.004420 -0.009093 0.021296 0.000009 0.007379 -0.000007
# 4 -0.000005 -0.000008 0.000009 0.000816 0.000002 0.073979
# 5 0.001384 -0.004545 0.007379 0.000002 0.017380 -0.000012
# 6 0.000001 0.000030 -0.000007 0.073979 -0.000012 -0.139924
#
#
# Mechanical properties :
#
#
# Convention : Reuss Voigt Hill
#
# Bulk Modulus (GPa) = 61.51563 66.07831 63.79697
# Shear Modulus (GPa) = -118.42416 32.10561 -43.15927
#
# Velocity S-wave (km/s) = -6.81184 3.54679 -4.11227
# Velocity P-wave (km/s) = 6.14533 6.53176 1.56505
#
# Compressibility (1/GPa) = 0.01625603
#
# Stress axis : x y z
#
# Youngs Moduli (GPa) = 91.79636 77.02494 46.95797
#
# Poissons Ratio (x) = 0.07282 0.20754
# Poissons Ratio (y) = 0.08678 0.42699
# Poissons Ratio (z) = 0.40571 0.70039
#
# Static dielectric constant tensor:
#      x y z
#    x 1.992900 -0.000020 0.003980 
#    y -0.000020 2.061100 0.000010 
#    z 0.003980 0.000010 1.991530 
# 
# From -- ./inp_files/43576.got.cif
#   From: 2010.05.17/outbox.cif.g08.bks.cpg/sg5_22_cif.got.tgz:43576.got - 2010.06.03 18:56:24.
