data_PCOD9129075
_publ_section_title
;
Structure prediction by ZEFSAII (Michael W. Deem and Ramdas Pophale) SiO2 
 PCOD9129075
Probable space group: C 2
;
_chemical_formula_sum "Si O2"
_cell_formula_units_Z 24
_cell_length_a 14.440177
_cell_length_b 5.398723
_cell_length_c 20.844695
_cell_angle_alpha 90.000000
_cell_angle_beta 147.000974
_cell_angle_gamma 90.000000
_cell_volume 885.026964
_symmetry_space_group_name_H-M "C 2"
_symmetry_group_IT_number 5
_symmetry_cell_setting 'monoclinic'
loop_
_space_group_symop_operation_xyz
x,y,z
-x,y,-z
1/2+x,1/2+y,z
1/2-x,1/2+y,-z
loop_
_atom_site_type_symbol
_atom_site_label
_atom_site_fract_x
_atom_site_fract_y
_atom_site_fract_z
Si Si1 0.750368 0.885840 0.571960
Si Si2 0.754441 0.913697 0.247579
Si Si3 0.022595 0.244707 0.687137
Si Si4 0.442870 0.042992 0.754888
Si Si5 0.346676 0.294787 0.036209
Si Si6 0.500000 0.225916 0.500000
Si Si7 0.000000 0.523444 0.000000
O O1 0.625367 0.869728 0.439605
O O2 0.772728 0.621162 0.618361
O O3 0.934658 0.987006 0.657893
O O4 0.657120 0.063512 0.566558
O O5 0.920067 0.834497 0.386233
O O6 0.607627 0.879650 0.214321
O O7 0.816885 0.190580 0.263584
O O8 0.651296 0.857939 0.121099
O O9 0.057115 0.405562 0.769738
O O10 0.502320 0.292192 0.823697
O O11 0.258410 0.559562 0.994455
O O12 0.417009 0.194876 0.008457
#
# Coordination Sequence:
#
# PCOD9129075 Si02
#       7
#     4   4   4   4   4   2   2
#     4  12  24  41  67 107 144 189 248 312 385 464
#     4  11  24  45  70 105 148 194 251 312 393 453
#     4  12  23  42  69 102 145 189 247 306 386 460
#     4  11  25  44  68 101 145 189 249 319 384 460
#     4  11  27  49  78 110 151 208 267 325 392 465
#     4  12  24  42  74 110 152 196 250 324 388 460
#     4  10  26  48  76 114 154 210 268 326 388 482
#
# _framework density 27.117819000000001
#
# number of rings (size 3 to 8) (size 9 to 14) (size 15 to 20)
#    0.000    0.667    3.333    4.000    4.667    0.667 
#    0.000    1.667    0.000    0.000    0.000    0.000 
#    0.000    0.000    0.000    0.000    0.000    0.000 
#
# Total GULP energy -66918.437789 kJ/mol
# GULP energy per Si atom -5576.536482 kJ/mol
# Density = 2.705610 g / cm^3
# Si number density = 27.117819 Si / 1000 Ang^3
#
#
#
# Elastic Constant Matrix: (Units=GPa)
#
#
# Indices 1 2 3 4 5 6 
#
# 1 144.7007 47.4931 43.8116 0.0000 -29.5429 -0.0001
# 2 47.4931 70.7706 26.0237 -0.0001 -9.7271 0.0005
# 3 43.8116 26.0237 156.1032 0.0000 -19.4169 0.0000
# 4 0.0000 -0.0001 0.0000 36.6988 -0.0001 8.8038
# 5 -29.5429 -9.7271 -19.4169 -0.0001 47.6950 0.0000
# 6 -0.0001 0.0005 0.0000 8.8038 0.0000 41.1126
#
#
#
# Elastic Compliance Matrix: (Units=1/GPa)
#
#
# Indices 1 2 3 4 5 6 
#
# 1 0.010103 -0.005666 -0.001323 0.000000 0.004564 0.000000
# 2 -0.005666 0.018444 -0.001531 0.000000 -0.000371 0.000000
# 3 -0.001323 -0.001531 0.007259 0.000000 0.001824 0.000000
# 4 0.000000 0.000000 0.000000 0.028724 0.000000 -0.006151
# 5 0.004564 -0.000371 0.001824 0.000000 0.024460 0.000000
# 6 0.000000 0.000000 0.000000 -0.006151 0.000000 0.025641
#
#
# Mechanical properties :
#
#
# Convention : Reuss Voigt Hill
#
# Bulk Modulus (GPa) = 53.28625 67.35903 60.32264
# Shear Modulus (GPa) = 36.25098 42.05105 39.15101
#
# Velocity S-wave (km/s) = 3.66019 3.94214 3.80378
# Velocity P-wave (km/s) = 6.12823 6.75381 6.44861
#
# Compressibility (1/GPa) = 0.01876657
#
# Stress axis : x y z
#
# Youngs Moduli (GPa) = 98.98175 54.21686 137.75230
#
# Poissons Ratio (x) = 0.30720 0.18228
# Poissons Ratio (y) = 0.56084 0.21087
# Poissons Ratio (z) = 0.13098 0.08299
#
# Static dielectric constant tensor:
#      x y z
#    x 2.117490 0.000000 0.073590 
#    y 0.000000 2.183460 0.000000 
#    z 0.073590 0.000000 2.286300 
# 
# From -- ./inp_files/65739.got.cif
#   From: 2010.05.17/outbox.cif.g08.bks.cpg/sg5_33_cif.got.tgz:65739.got - 2010.06.03 18:56:24.
