data_PCOD9129922
_publ_section_title
;
Structure prediction by ZEFSAII (Michael W. Deem and Ramdas Pophale) SiO2 
 PCOD9129922
Probable space group: C 2
;
_chemical_formula_sum "Si O2"
_cell_formula_units_Z 20
_cell_length_a 13.365679
_cell_length_b 4.982019
_cell_length_c 19.985395
_cell_angle_alpha 90.000000
_cell_angle_beta 34.085306
_cell_angle_gamma 90.000000
_cell_volume 745.809468
_symmetry_space_group_name_H-M "C 2"
_symmetry_group_IT_number 5
_symmetry_cell_setting 'monoclinic'
loop_
_space_group_symop_operation_xyz
x,y,z
-x,y,-z
1/2+x,1/2+y,z
1/2-x,1/2+y,-z
loop_
_atom_site_type_symbol
_atom_site_label
_atom_site_fract_x
_atom_site_fract_y
_atom_site_fract_z
Si Si1 0.006013 0.451880 0.185040
Si Si2 0.384296 0.624210 0.757247
Si Si3 0.865370 0.264437 0.027115
Si Si4 0.056449 0.608844 0.597244
Si Si5 0.314881 0.714399 0.573612
O O1 0.999992 0.205334 0.240836
O O2 0.034319 0.349786 0.095233
O O3 0.838302 0.647207 0.288024
O O4 0.187226 0.607032 0.105241
O O5 0.462423 0.384005 0.669461
O O6 0.406809 0.887185 0.699884
O O7 0.204221 0.514584 0.889912
O O8 0.000000 0.105250 0.000000
O O9 0.221316 0.588258 0.558856
O O10 0.130957 0.509627 0.484826
O O11 0.500000 0.601940 0.500000
#
# Coordination Sequence:
#
# PCOD9129922 Si02
#       5
#     4   4   4   4   4
#     4  11  26  52  81 121 172 208 282 340 402 504
#     4  11  23  50  75 113 164 211 261 343 394 474
#     4  12  26  48  83 120 162 219 267 338 419 482
#     4  11  25  49  77 111 169 206 271 338 393 485
#     4  11  26  49  82 119 163 222 270 335 417 485
#
# _framework density 26.816502
#
# number of rings (size 3 to 8) (size 9 to 14) (size 15 to 20)
#    0.000    0.800    6.000    1.200    2.800    2.400 
#    7.200   10.000    0.000    0.000    0.000    0.000 
#    0.000    0.000    0.000    0.000    0.000    0.000 
#
# Total GULP energy -55963.448951 kJ/mol
# GULP energy per Si atom -5596.344895 kJ/mol
# Density = 2.675547 g / cm^3
# Si number density = 26.816502 Si / 1000 Ang^3
#
#
#
# Elastic Constant Matrix: (Units=GPa)
#
#
# Indices 1 2 3 4 5 6 
#
# 1 152.8076 30.7660 54.1217 -0.0030 -20.2660 0.0022
# 2 30.7660 152.2562 59.9521 -0.0085 19.6589 0.0085
# 3 54.1217 59.9521 176.1276 -0.0043 28.9096 0.0024
# 4 -0.0030 -0.0085 -0.0043 38.6333 0.0009 -2.6447
# 5 -20.2660 19.6589 28.9096 0.0009 18.9095 -0.0001
# 6 0.0022 0.0085 0.0024 -2.6447 -0.0001 19.6465
#
#
#
# Elastic Compliance Matrix: (Units=1/GPa)
#
#
# Indices 1 2 3 4 5 6 
#
# 1 0.014768 -0.003844 -0.008655 -0.000001 0.033056 0.000001
# 2 -0.003844 0.008998 0.000441 0.000002 -0.014148 -0.000003
# 3 -0.008655 0.000441 0.013063 0.000002 -0.029706 -0.000001
# 4 -0.000001 0.000002 0.000002 0.026125 -0.000007 0.003517
# 5 0.033056 -0.014148 -0.029706 -0.000007 0.148435 0.000006
# 6 0.000001 -0.000003 -0.000001 0.003517 0.000006 0.051373
#
#
# Mechanical properties :
#
#
# Convention : Reuss Voigt Hill
#
# Bulk Modulus (GPa) = 78.66823 85.65232 82.16027
# Shear Modulus (GPa) = 17.17525 37.86131 27.51828
#
# Velocity S-wave (km/s) = 2.53350 3.76156 3.20686
# Velocity P-wave (km/s) = 6.16098 7.13269 6.66457
#
# Compressibility (1/GPa) = 0.01271161
#
# Stress axis : x y z
#
# Youngs Moduli (GPa) = 67.71537 111.13756 76.55047
#
# Poissons Ratio (x) = 0.42722 0.66256
# Poissons Ratio (y) = 0.26030 -0.03374
# Poissons Ratio (z) = 0.58609 -0.04898
#
# Static dielectric constant tensor:
#      x y z
#    x 2.089330 0.000000 -0.025780 
#    y 0.000000 2.188860 0.000000 
#    z -0.025780 0.000000 2.113450 
# 
# From -- ./inp_files/65606.got.cif
#   From: 2010.05.17/outbox.cif.g08.bks.cpg/sg5_33_cif.got.tgz:65606.got - 2010.06.03 18:56:24.
