data_PCOD9129331
_publ_section_title
;
Structure prediction by ZEFSAII (Michael W. Deem and Ramdas Pophale) SiO2 
 PCOD9129331
Probable space group: C 2
;
_chemical_formula_sum "Si O2"
_cell_formula_units_Z 26
_cell_length_a 10.888770
_cell_length_b 8.532969
_cell_length_c 16.276816
_cell_angle_alpha 90.000000
_cell_angle_beta 114.331401
_cell_angle_gamma 90.000000
_cell_volume 1378.007196
_symmetry_space_group_name_H-M "C 2"
_symmetry_group_IT_number 5
_symmetry_cell_setting 'monoclinic'
loop_
_space_group_symop_operation_xyz
x,y,z
-x,y,-z
1/2+x,1/2+y,z
1/2-x,1/2+y,-z
loop_
_atom_site_type_symbol
_atom_site_label
_atom_site_fract_x
_atom_site_fract_y
_atom_site_fract_z
Si Si1 0.651464 0.566480 0.552816
Si Si2 0.096691 0.966094 0.885127
Si Si3 0.910787 0.737378 0.549804
Si Si4 0.000000 0.384035 0.000000
Si Si5 0.167797 0.150776 0.159934
Si Si6 0.822733 0.619821 0.051059
Si Si7 0.150797 0.880967 0.713346
O O1 0.500000 0.639516 0.500000
O O2 0.780041 0.652326 0.549820
O O3 0.639760 0.399381 0.504096
O O4 0.672612 0.518768 0.653715
O O5 0.122097 0.797241 0.934566
O O6 0.136474 0.946937 0.801135
O O7 0.943950 0.024823 0.848427
O O8 0.191138 0.091140 0.957999
O O9 0.000000 0.659687 0.500000
O O10 0.016388 0.788101 0.649144
O O11 0.927043 0.496816 0.043953
O O12 0.099787 0.274933 0.078704
O O13 0.285145 0.080978 0.134927
O O14 0.230266 0.251884 0.250665
#
# Coordination Sequence:
#
# PCOD9129331 Si02
#       7
#     4   4   4   2   4   4   4
#     4   9  20  40  66  91 122 158 194 243 299 369
#     4  11  21  40  59  81 120 158 208 255 305 349
#     4   9  20  40  64  92 124 158 192 243 302 367
#     4  12  22  36  60  78 112 154 212 254 306 344
#     4  11  22  40  56  82 119 159 203 258 298 352
#     4  11  22  37  57  82 107 158 206 256 301 351
#     4   9  21  37  58  91 124 153 197 250 305 351
#
# _framework density 18.867826000000001
#
# number of rings (size 3 to 8) (size 9 to 14) (size 15 to 20)
#    0.000    2.154    4.615    0.000    2.154    8.000 
#    0.000    0.000    0.000    0.000    0.000    0.000 
#    0.000    0.000    0.000    0.000    0.000    0.000 
#
# Total GULP energy -72463.768172 kJ/mol
# GULP energy per Si atom -5574.136013 kJ/mol
# Density = 1.882488 g / cm^3
# Si number density = 18.867826 Si / 1000 Ang^3
#
#
#
# Elastic Constant Matrix: (Units=GPa)
#
#
# Indices 1 2 3 4 5 6 
#
# 1 114.6964 40.2178 6.7151 0.0000 -3.5953 0.0000
# 2 40.2178 60.5003 17.6519 0.0000 0.1728 0.0000
# 3 6.7151 17.6519 73.0087 0.0000 -2.0992 0.0000
# 4 0.0000 0.0000 0.0000 11.9139 0.0000 -0.0740
# 5 -3.5953 0.1728 -2.0992 0.0000 12.0058 0.0000
# 6 0.0000 0.0000 0.0000 -0.0740 0.0000 46.2893
#
#
#
# Elastic Compliance Matrix: (Units=1/GPa)
#
#
# Indices 1 2 3 4 5 6 
#
# 1 0.011583 -0.007995 0.000976 0.000000 0.003754 0.000000
# 2 -0.007995 0.023314 -0.005005 0.000000 -0.003605 0.000000
# 3 0.000976 -0.005005 0.014903 0.000000 0.002970 0.000000
# 4 0.000000 0.000000 0.000000 0.083936 0.000000 0.000134
# 5 0.003754 -0.003605 0.002970 0.000000 0.084988 0.000000
# 6 0.000000 0.000000 0.000000 0.000134 0.000000 0.021603
#
#
# Mechanical properties :
#
#
# Convention : Reuss Voigt Hill
#
# Bulk Modulus (GPa) = 38.83405 41.93054 40.38230
# Shear Modulus (GPa) = 18.31768 26.28318 22.30043
#
# Velocity S-wave (km/s) = 3.11921 3.73636 3.44165
# Velocity P-wave (km/s) = 5.79651 6.39417 6.10266
#
# Compressibility (1/GPa) = 0.02575060
#
# Stress axis : x y z
#
# Youngs Moduli (GPa) = 86.33609 42.89233 67.10150
#
# Poissons Ratio (x) = 0.34292 -0.06547
# Poissons Ratio (y) = 0.69026 0.33585
# Poissons Ratio (z) = -0.08423 0.21468
#
# Static dielectric constant tensor:
#      x y z
#    x 1.714760 0.000000 0.010090 
#    y 0.000000 1.655450 0.000000 
#    z 0.010090 0.000000 1.665960 
# 
# From -- ./inp_files/52082.got.cif
#   From: 2010.05.17/outbox.cif.g08.bks.cpg/sg5_27_cif.got.tgz:52082.got - 2010.06.03 18:56:24.
