data_PCOD9129231
_publ_section_title
;
Structure prediction by ZEFSAII (Michael W. Deem and Ramdas Pophale) SiO2 
 PCOD9129231
Probable space group: C 2
;
_chemical_formula_sum "Si O2"
_cell_formula_units_Z 20
_cell_length_a 8.207494
_cell_length_b 12.642281
_cell_length_c 7.508982
_cell_angle_alpha 90.000000
_cell_angle_beta 80.784328
_cell_angle_gamma 90.000000
_cell_volume 769.086037
_symmetry_space_group_name_H-M "C 2"
_symmetry_group_IT_number 5
_symmetry_cell_setting 'monoclinic'
loop_
_space_group_symop_operation_xyz
x,y,z
-x,y,-z
1/2+x,1/2+y,z
1/2-x,1/2+y,-z
loop_
_atom_site_type_symbol
_atom_site_label
_atom_site_fract_x
_atom_site_fract_y
_atom_site_fract_z
Si Si1 0.332924 0.964600 0.263012
Si Si2 0.179598 0.348272 0.265152
Si Si3 0.817298 0.765569 0.608385
Si Si4 0.365783 0.625260 0.869647
Si Si5 0.325275 0.549911 0.345774
O O1 0.512722 0.913661 0.253182
O O2 0.212751 0.864219 0.258783
O O3 0.292768 0.050294 0.119483
O O4 0.279397 0.018756 0.459403
O O5 0.200520 0.293109 0.457516
O O6 0.183667 0.247055 0.138258
O O7 0.315676 0.440343 0.238555
O O8 0.769931 0.654694 0.703436
O O9 0.000000 0.762751 0.500000
O O10 0.485852 0.587594 0.685839
O O11 0.500000 0.611405 0.000000
#
# Coordination Sequence:
#
# PCOD9129231 Si02
#       5
#     4   4   4   4   4
#     4  11  22  40  73  99 132 172 231 289 336 390
#     4  11  24  43  70 104 136 173 224 286 349 396
#     4  11  20  37  70 108 132 167 222 293 346 389
#     4  12  27  46  66  95 146 189 223 273 338 415
#     4  11  22  40  70 101 132 171 229 288 333 400
#
# _framework density 26.004892000000002
#
# number of rings (size 3 to 8) (size 9 to 14) (size 15 to 20)
#    0.000    0.800    4.000    6.600    0.000    1.600 
#    0.000    0.000    0.000    0.000    0.000    0.000 
#    0.000    0.000    0.000    0.000    0.000    0.000 
#
# Total GULP energy -55900.639784 kJ/mol
# GULP energy per Si atom -5590.063978 kJ/mol
# Density = 2.594570 g / cm^3
# Si number density = 26.004892 Si / 1000 Ang^3
#
#
#
# Elastic Constant Matrix: (Units=GPa)
#
#
# Indices 1 2 3 4 5 6 
#
# 1 133.1890 66.1635 1.2265 0.0000 13.1693 0.0000
# 2 66.1635 225.4443 28.3087 0.0000 15.9451 0.0000
# 3 1.2265 28.3087 75.4921 0.0000 25.2908 0.0000
# 4 0.0000 0.0000 0.0000 24.2637 0.0000 14.7212
# 5 13.1693 15.9451 25.2908 0.0000 34.2332 0.0000
# 6 0.0000 0.0000 0.0000 14.7212 0.0000 39.8653
#
#
#
# Elastic Compliance Matrix: (Units=1/GPa)
#
#
# Indices 1 2 3 4 5 6 
#
# 1 0.009214 -0.002701 0.002165 0.000000 -0.003886 0.000000
# 2 -0.002701 0.005482 -0.001999 0.000000 -0.000037 0.000000
# 3 0.002165 -0.001999 0.018509 0.000000 -0.013576 0.000000
# 4 0.000000 0.000000 0.000000 0.053114 0.000000 -0.019613
# 5 -0.003886 -0.000037 -0.013576 0.000000 0.040753 0.000000
# 6 0.000000 0.000000 0.000000 -0.019613 0.000000 0.032327
#
#
# Mechanical properties :
#
#
# Convention : Reuss Voigt Hill
#
# Bulk Modulus (GPa) = 35.54364 69.50255 52.52309
# Shear Modulus (GPa) = 28.76063 42.23421 35.49742
#
# Velocity S-wave (km/s) = 3.32922 4.03437 3.69864
# Velocity P-wave (km/s) = 5.33629 6.96321 6.20332
#
# Compressibility (1/GPa) = 0.02813443
#
# Stress axis : x y z
#
# Youngs Moduli (GPa) = 108.52683 182.41056 54.02766
#
# Poissons Ratio (x) = 0.49273 -0.11698
# Poissons Ratio (y) = 0.29316 0.10802
# Poissons Ratio (z) = -0.23497 0.36471
#
# Static dielectric constant tensor:
#      x y z
#    x 2.035160 0.000000 0.021440 
#    y 0.000000 2.014270 0.000000 
#    z 0.021440 0.000000 2.314920 
# 
# From -- ./inp_files/14238.got.cif
#   From: 2010.05.17/outbox.cif.g08.bks.cpg/sg5_8_cif.got.tgz:14238.got - 2010.06.03 18:56:24.
