data_PCOD9129539
_publ_section_title
;
Structure prediction by ZEFSAII (Michael W. Deem and Ramdas Pophale) SiO2 
 PCOD9129539
Probable space group: C 2
;
_chemical_formula_sum "Si O2"
_cell_formula_units_Z 24
_cell_length_a 23.089897
_cell_length_b 8.888518
_cell_length_c 10.647415
_cell_angle_alpha 90.000000
_cell_angle_beta 148.255946
_cell_angle_gamma 90.000000
_cell_volume 1149.701316
_symmetry_space_group_name_H-M "C 2"
_symmetry_group_IT_number 5
_symmetry_cell_setting 'monoclinic'
loop_
_space_group_symop_operation_xyz
x,y,z
-x,y,-z
1/2+x,1/2+y,z
1/2-x,1/2+y,-z
loop_
_atom_site_type_symbol
_atom_site_label
_atom_site_fract_x
_atom_site_fract_y
_atom_site_fract_z
Si Si1 0.437776 0.701890 0.515191
Si Si2 0.714799 0.389267 0.137003
Si Si3 0.481080 0.190978 0.112108
Si Si4 0.381170 0.381792 0.307517
Si Si5 0.941277 0.339770 0.025138
Si Si6 0.782239 0.711417 0.333283
O O1 0.500000 0.744361 0.500000
O O2 0.325261 0.793527 0.322827
O O3 0.407250 0.526356 0.441730
O O4 0.510831 0.738464 0.772760
O O5 0.745995 0.538631 0.270003
O O6 0.619980 0.290161 0.026023
O O7 0.668566 0.435247 0.915484
O O8 0.596122 0.231153 0.388787
O O9 0.458468 0.014084 0.092618
O O10 0.500000 0.212579 0.000000
O O11 0.500000 0.306431 0.500000
O O12 0.296134 0.270885 0.216869
O O13 0.812110 0.306566 0.774105
O O14 0.000000 0.311195 0.000000
#
# Coordination Sequence:
#
# PCOD9129539 Si02
#       6
#     4   4   4   4   4   4
#     4  11  24  44  71 103 143 186 234 289 350 414
#     4  12  24  44  71 104 140 182 234 288 349 419
#     4  11  27  47  70 105 138 184 236 285 349 418
#     4  11  22  42  68 103 141 176 232 287 345 413
#     4  11  26  49  71 103 142 186 235 289 352 415
#     4  12  25  45  71 102 141 182 229 287 347 414
#
# _framework density 20.874987000000001
#
# number of rings (size 3 to 8) (size 9 to 14) (size 15 to 20)
#    0.000    0.667    3.333    5.000    2.333    2.667 
#    0.000    0.000    0.000    0.000    0.000    0.000 
#    0.000    0.000    0.000    0.000    0.000    0.000 
#
# Total GULP energy -67139.534394 kJ/mol
# GULP energy per Si atom -5594.961200 kJ/mol
# Density = 2.082747 g / cm^3
# Si number density = 20.874987 Si / 1000 Ang^3
#
#
#
# Elastic Constant Matrix: (Units=GPa)
#
#
# Indices 1 2 3 4 5 6 
#
# 1 91.0310 51.4947 30.8421 0.0000 24.0347 0.0000
# 2 51.4947 80.0320 31.1997 0.0000 11.8972 0.0000
# 3 30.8421 31.1997 87.8778 0.0000 31.0477 0.0000
# 4 0.0000 0.0000 0.0000 33.7999 0.0000 4.6396
# 5 24.0347 11.8972 31.0477 0.0000 48.3544 0.0000
# 6 0.0000 0.0000 0.0000 4.6396 0.0000 27.5775
#
#
#
# Elastic Compliance Matrix: (Units=1/GPa)
#
#
# Indices 1 2 3 4 5 6 
#
# 1 0.019193 -0.011203 -0.000468 0.000000 -0.006483 0.000000
# 2 -0.011203 0.021046 -0.004757 0.000000 0.003445 0.000000
# 3 -0.000468 -0.004757 0.016474 0.000000 -0.009175 0.000000
# 4 0.000000 0.000000 0.000000 0.030285 0.000000 -0.005095
# 5 -0.006483 0.003445 -0.009175 0.000000 0.028946 0.000000
# 6 0.000000 0.000000 0.000000 -0.005095 0.000000 0.037119
#
#
# Mechanical properties :
#
#
# Convention : Reuss Voigt Hill
#
# Bulk Modulus (GPa) = 41.91798 54.00153 47.95975
# Shear Modulus (GPa) = 25.79023 31.63998 28.71511
#
# Velocity S-wave (km/s) = 3.51873 3.89741 3.71290
# Velocity P-wave (km/s) = 6.05249 6.79546 6.43471
#
# Compressibility (1/GPa) = 0.02385611
#
# Stress axis : x y z
#
# Youngs Moduli (GPa) = 52.10264 47.51549 60.70100
#
# Poissons Ratio (x) = 0.53232 0.02842
# Poissons Ratio (y) = 0.58371 0.28877
# Poissons Ratio (z) = 0.02439 0.22604
#
# Static dielectric constant tensor:
#      x y z
#    x 1.870390 0.000000 -0.100990 
#    y 0.000000 1.735540 0.000000 
#    z -0.100990 0.000000 1.820030 
# 
# From -- ./inp_files/47345.got.cif
#   From: 2010.05.17/outbox.cif.g08.bks.cpg/sg5_24_cif.got.tgz:47345.got - 2010.06.03 18:56:24.
