data_PCOD9129837
_publ_section_title
;
Structure prediction by ZEFSAII (Michael W. Deem and Ramdas Pophale) SiO2 
 PCOD9129837
Probable space group: C 2
;
_chemical_formula_sum "Si O2"
_cell_formula_units_Z 22
_cell_length_a 16.584487
_cell_length_b 5.015480
_cell_length_c 15.198247
_cell_angle_alpha 90.000000
_cell_angle_beta 44.264309
_cell_angle_gamma 90.000000
_cell_volume 882.357092
_symmetry_space_group_name_H-M "C 2"
_symmetry_group_IT_number 5
_symmetry_cell_setting 'monoclinic'
loop_
_space_group_symop_operation_xyz
x,y,z
-x,y,-z
1/2+x,1/2+y,z
1/2-x,1/2+y,-z
loop_
_atom_site_type_symbol
_atom_site_label
_atom_site_fract_x
_atom_site_fract_y
_atom_site_fract_z
Si Si1 0.680205 0.935300 0.832919
Si Si2 0.500000 0.267830 0.500000
Si Si3 0.188245 0.421534 0.318140
Si Si4 0.330409 0.235039 0.501936
Si Si5 0.582003 0.982368 0.723135
Si Si6 0.329405 0.863335 0.958371
O O1 0.711637 0.629681 0.787296
O O2 0.604955 0.035776 0.808757
O O3 0.787832 0.139662 0.742833
O O4 0.641762 0.937222 0.962923
O O5 0.572109 0.071327 0.379608
O O6 0.408285 0.408814 0.509464
O O7 0.178106 0.464408 0.431608
O O8 0.099821 0.727314 0.642792
O O9 0.198387 0.326435 0.601510
O O10 0.454772 0.859296 0.813878
O O11 0.256955 0.590234 0.010822
#
# Coordination Sequence:
#
# PCOD9129837 Si02
#       6
#     4   2   4   4   4   4
#     4  11  23  45  70  96 140 183 232 287 351 412
#     4   8  20  40  66 104 140 188 226 290 350 422
#     4   9  21  39  69 101 134 178 227 284 339 417
#     4   9  21  41  68 106 142 187 225 299 349 422
#     4  11  24  45  70 108 146 187 241 288 362 424
#     4  12  30  48  74 104 140 193 241 299 349 423
#
# _framework density 24.933216000000002
#
# number of rings (size 3 to 8) (size 9 to 14) (size 15 to 20)
#    1.091    0.727    0.000    2.727    5.091    5.091 
#    0.000    5.455    0.000    0.000    0.000    0.000 
#    0.000    0.000    0.000    0.000    0.000    0.000 
#
# Total GULP energy -61266.977710 kJ/mol
# GULP energy per Si atom -5569.725246 kJ/mol
# Density = 2.487647 g / cm^3
# Si number density = 24.933216 Si / 1000 Ang^3
#
#
#
# Elastic Constant Matrix: (Units=GPa)
#
#
# Indices 1 2 3 4 5 6 
#
# 1 103.2684 13.1382 69.1573 -0.0254 1.5898 0.0202
# 2 13.1382 73.8419 0.9092 -0.0496 -5.7118 0.0481
# 3 69.1573 0.9092 105.4797 -0.0469 -6.7142 0.0449
# 4 -0.0254 -0.0496 -0.0469 20.5191 0.0115 -4.3568
# 5 1.5898 -5.7118 -6.7142 0.0115 56.4086 -0.0111
# 6 0.0202 0.0481 0.0449 -4.3568 -0.0111 22.9564
#
#
#
# Elastic Compliance Matrix: (Units=1/GPa)
#
#
# Indices 1 2 3 4 5 6 
#
# 1 0.018207 -0.003267 -0.012054 -0.000009 -0.002279 0.000012
# 2 -0.003267 0.014236 0.002133 0.000029 0.001787 -0.000025
# 3 -0.012054 0.002133 0.017534 0.000024 0.002643 -0.000022
# 4 -0.000009 0.000029 0.000024 0.050781 -0.000002 0.009638
# 5 -0.002279 0.001787 0.002643 -0.000002 0.018288 0.000001
# 6 0.000012 -0.000025 -0.000022 0.009638 0.000001 0.045390
#
#
# Mechanical properties :
#
#
# Convention : Reuss Voigt Hill
#
# Bulk Modulus (GPa) = 42.37297 49.88884 46.13090
# Shear Modulus (GPa) = 25.16639 33.26918 29.21778
#
# Velocity S-wave (km/s) = 3.18048 3.65681 3.42693
# Velocity P-wave (km/s) = 5.52438 6.15485 5.84811
#
# Compressibility (1/GPa) = 0.02359995
#
# Stress axis : x y z
#
# Youngs Moduli (GPa) = 54.92498 70.24541 57.03366
#
# Poissons Ratio (x) = 0.22951 0.68748
# Poissons Ratio (y) = 0.17945 -0.12167
# Poissons Ratio (z) = 0.66207 -0.14985
#
# Static dielectric constant tensor:
#      x y z
#    x 2.127110 -0.000010 0.004400 
#    y -0.000010 2.025720 0.000000 
#    z 0.004400 0.000000 2.066430 
# 
# From -- ./inp_files/61994.got.cif
#   From: 2010.05.17/outbox.cif.g08.bks.cpg/sg5_31_cif.got.tgz:61994.got - 2010.06.03 18:56:24.
