data_PCOD9129700
_publ_section_title
;
Structure prediction by ZEFSAII (Michael W. Deem and Ramdas Pophale) SiO2 
 PCOD9129700
Probable space group: C 2
;
_chemical_formula_sum "Si O2"
_cell_formula_units_Z 20
_cell_length_a 16.383706
_cell_length_b 4.828799
_cell_length_c 22.390701
_cell_angle_alpha 90.000000
_cell_angle_beta 156.039476
_cell_angle_gamma 90.000000
_cell_volume 719.382014
_symmetry_space_group_name_H-M "C 2"
_symmetry_group_IT_number 5
_symmetry_cell_setting 'monoclinic'
loop_
_space_group_symop_operation_xyz
x,y,z
-x,y,-z
1/2+x,1/2+y,z
1/2-x,1/2+y,-z
loop_
_atom_site_type_symbol
_atom_site_label
_atom_site_fract_x
_atom_site_fract_y
_atom_site_fract_z
Si Si1 0.682586 0.562760 0.665587
Si Si2 0.272725 0.197452 0.859109
Si Si3 0.658925 0.911982 0.410185
Si Si4 0.215110 0.848357 0.936367
Si Si5 0.692442 0.595271 0.315126
O O1 0.500000 0.458147 0.500000
O O2 0.693638 0.560632 0.744317
O O3 0.859285 0.354306 0.762629
O O4 0.698002 0.882085 0.655917
O O5 0.295089 0.980418 0.928589
O O6 0.084278 0.398361 0.750105
O O7 0.500000 0.312944 0.000000
O O8 0.743055 0.709819 0.517775
O O9 0.749221 0.758457 0.412924
O O10 0.977593 0.894741 0.773012
O O11 0.247005 0.039276 0.017028
#
# Coordination Sequence:
#
# PCOD9129700 Si02
#       5
#     4   4   4   4   4
#     4  12  25  44  68 101 141 182 227 284 346 411
#     4  11  25  44  73 109 140 177 234 297 348 400
#     4  11  24  45  69  97 137 189 235 275 339 424
#     4  11  24  44  67  95 137 181 222 277 348 413
#     4  11  23  41  65  92 131 181 227 273 334 410
#
# _framework density 27.801638000000001
#
# number of rings (size 3 to 8) (size 9 to 14) (size 15 to 20)
#    0.000    0.800    0.000    7.800    0.000    8.000 
#    0.000    9.000    0.000    0.000    0.000    0.000 
#    0.000    0.000    0.000    0.000    0.000    0.000 
#
# Total GULP energy -55856.481305 kJ/mol
# GULP energy per Si atom -5585.648130 kJ/mol
# Density = 2.773836 g / cm^3
# Si number density = 27.801638 Si / 1000 Ang^3
#
#
#
# Elastic Constant Matrix: (Units=GPa)
#
#
# Indices 1 2 3 4 5 6 
#
# 1 140.2475 33.4488 60.3171 -0.0009 -24.4586 0.0010
# 2 33.4488 103.0861 17.5190 -0.0058 1.0351 0.0120
# 3 60.3171 17.5190 151.4952 0.0017 -7.7647 0.0038
# 4 -0.0009 -0.0058 0.0017 44.4994 0.0009 -8.0747
# 5 -24.4586 1.0351 -7.7647 0.0009 46.9876 -0.0002
# 6 0.0010 0.0120 0.0038 -8.0747 -0.0002 40.1994
#
#
#
# Elastic Compliance Matrix: (Units=1/GPa)
#
#
# Indices 1 2 3 4 5 6 
#
# 1 0.010099 -0.002736 -0.003461 0.000000 0.004745 0.000001
# 2 -0.002736 0.010644 -0.000228 0.000001 -0.001697 -0.000003
# 3 -0.003461 -0.000228 0.007981 -0.000001 -0.000478 -0.000001
# 4 0.000000 0.000001 -0.000001 0.023322 0.000000 0.004685
# 5 0.004745 -0.001697 -0.000478 0.000000 0.023711 0.000000
# 6 0.000001 -0.000003 -0.000001 0.004685 0.000000 0.025817
#
#
# Mechanical properties :
#
#
# Convention : Reuss Voigt Hill
#
# Bulk Modulus (GPa) = 63.00288 68.59984 65.80136
# Shear Modulus (GPa) = 41.76526 45.24021 43.50274
#
# Velocity S-wave (km/s) = 3.88010 4.03829 3.95999
# Velocity P-wave (km/s) = 6.54098 6.81704 6.68044
#
# Compressibility (1/GPa) = 0.01587229
#
# Stress axis : x y z
#
# Youngs Moduli (GPa) = 99.01993 93.94664 125.29966
#
# Poissons Ratio (x) = 0.25707 0.43369
# Poissons Ratio (y) = 0.27095 0.02862
# Poissons Ratio (z) = 0.34273 0.02146
#
# Static dielectric constant tensor:
#      x y z
#    x 2.207600 0.000000 0.152780 
#    y 0.000000 2.069670 0.000000 
#    z 0.152780 0.000000 2.482760 
# 
# From -- ./inp_files/65751.got.cif
#   From: 2010.05.17/outbox.cif.g08.bks.cpg/sg5_33_cif.got.tgz:65751.got - 2010.06.03 18:56:24.
