data_PCOD9129222
_publ_section_title
;
Structure prediction by ZEFSAII (Michael W. Deem and Ramdas Pophale) SiO2 
 PCOD9129222
Probable space group: C 2
;
_chemical_formula_sum "Si O2"
_cell_formula_units_Z 28
_cell_length_a 11.459818
_cell_length_b 19.340612
_cell_length_c 9.754320
_cell_angle_alpha 90.000000
_cell_angle_beta 140.462893
_cell_angle_gamma 90.000000
_cell_volume 1376.247158
_symmetry_space_group_name_H-M "C 2"
_symmetry_group_IT_number 5
_symmetry_cell_setting 'monoclinic'
loop_
_space_group_symop_operation_xyz
x,y,z
-x,y,-z
1/2+x,1/2+y,z
1/2-x,1/2+y,-z
loop_
_atom_site_type_symbol
_atom_site_label
_atom_site_fract_x
_atom_site_fract_y
_atom_site_fract_z
Si Si1 0.000000 0.538220 0.000000
Si Si2 0.159746 0.337100 0.965347
Si Si3 0.741118 0.310720 0.550591
Si Si4 0.784564 0.795633 0.793316
Si Si5 0.830641 0.183780 0.948735
Si Si6 0.195974 0.939290 0.671327
Si Si7 0.333563 0.639253 0.245979
Si Si8 0.500000 0.199828 0.500000
O O1 0.129873 0.487163 0.207699
O O2 0.160001 0.587616 0.086919
O O3 0.195741 0.341203 0.834713
O O4 0.945041 0.322317 0.793798
O O5 0.238703 0.262289 0.080994
O O6 0.240155 0.398183 0.132080
O O7 0.763164 0.307462 0.408116
O O8 0.649194 0.381114 0.516760
O O9 0.629076 0.247363 0.516463
O O10 0.735926 0.715791 0.776687
O O11 0.000000 0.805728 0.000000
O O12 0.645429 0.154054 0.715647
O O13 0.896776 0.147923 0.146971
O O14 0.000000 0.184262 0.000000
O O15 0.000000 0.977528 0.500000
O O16 0.500000 0.624089 0.500000
#
# Coordination Sequence:
#
# PCOD9129222 Si02
#       8
#     2   4   4   4   4   4   4   2
#     4  12  26  44  64  92 132 174 220 254 300 398
#     4  11  20  37  58  99 131 161 209 264 336 378
#     4  12  20  36  61  97 132 166 205 270 328 383
#     4  11  22  37  62  97 138 162 204 272 336 379
#     4  11  21  38  63  95 132 165 210 272 325 387
#     4  12  22  40  66  93 125 168 219 259 310 382
#     4  11  25  43  64  92 128 174 219 261 317 381
#     4  12  22  32  62 100 138 164 200 256 348 386
#
# _framework density 20.345184
#
# number of rings (size 3 to 8) (size 9 to 14) (size 15 to 20)
#    0.000    0.571    5.714    5.143    0.000    0.000 
#    0.000    0.000    0.000    7.714    0.000    0.000 
#    0.000    0.000    0.000    0.000    0.000    0.000 
#
# Total GULP energy -78040.461577 kJ/mol
# GULP energy per Si atom -5574.318684 kJ/mol
# Density = 2.029888 g / cm^3
# Si number density = 20.345184 Si / 1000 Ang^3
#
#
#
# Elastic Constant Matrix: (Units=GPa)
#
#
# Indices 1 2 3 4 5 6 
#
# 1 123.4373 21.3622 67.4255 0.0000 -9.4234 0.0000
# 2 21.3622 50.8480 18.5230 0.0000 -9.0263 0.0000
# 3 67.4255 18.5230 152.1878 0.0000 8.2641 0.0000
# 4 0.0000 0.0000 0.0000 7.5459 0.0000 11.1451
# 5 -9.4234 -9.0263 8.2641 0.0000 55.9827 0.0000
# 6 0.0000 0.0000 0.0000 11.1451 0.0000 3.2053
#
#
#
# Elastic Compliance Matrix: (Units=1/GPa)
#
#
# Indices 1 2 3 4 5 6 
#
# 1 0.011365 -0.002622 -0.004836 0.000000 0.002204 0.000000
# 2 -0.002622 0.021981 -0.001696 0.000000 0.003353 0.000000
# 3 -0.004836 -0.001696 0.009051 0.000000 -0.002424 0.000000
# 4 0.000000 0.000000 0.000000 -0.032045 0.000000 0.111422
# 5 0.002204 0.003353 -0.002424 0.000000 0.019132 0.000000
# 6 0.000000 0.000000 0.000000 0.111422 0.000000 -0.075439
#
#
# Mechanical properties :
#
#
# Convention : Reuss Voigt Hill
#
# Bulk Modulus (GPa) = 41.51041 60.12162 50.81601
# Shear Modulus (GPa) = -254.85453 27.95761 -113.44846
#
# Velocity S-wave (km/s) = -11.20434 3.71099 -7.47549
# Velocity P-wave (km/s) = 12.12170 6.92654 7.03416
#
# Compressibility (1/GPa) = 0.02409034
#
# Stress axis : x y z
#
# Youngs Moduli (GPa) = 87.99244 45.49404 110.48250
#
# Poissons Ratio (x) = 0.11927 0.53425
# Poissons Ratio (y) = 0.23069 0.18736
# Poissons Ratio (z) = 0.42550 0.07715
#
# Static dielectric constant tensor:
#      x y z
#    x 1.765900 0.000000 0.018650 
#    y 0.000000 1.763590 0.000000 
#    z 0.018650 0.000000 1.809310 
# 
# From -- ./inp_files/22045.got.cif
#   From: 2010.05.17/outbox.cif.g08.bks.cpg/sg5_12_cif.got.tgz:22045.got - 2010.06.03 18:56:24.
