data_PCOD9129434
_publ_section_title
;
Structure prediction by ZEFSAII (Michael W. Deem and Ramdas Pophale) SiO2 
 PCOD9129434
Probable space group: C 2
;
_chemical_formula_sum "Si O2"
_cell_formula_units_Z 32
_cell_length_a 10.056817
_cell_length_b 18.870988
_cell_length_c 16.298320
_cell_angle_alpha 90.000000
_cell_angle_beta 37.431797
_cell_angle_gamma 90.000000
_cell_volume 1880.055175
_symmetry_space_group_name_H-M "C 2"
_symmetry_group_IT_number 5
_symmetry_cell_setting 'monoclinic'
loop_
_space_group_symop_operation_xyz
x,y,z
-x,y,-z
1/2+x,1/2+y,z
1/2-x,1/2+y,-z
loop_
_atom_site_type_symbol
_atom_site_label
_atom_site_fract_x
_atom_site_fract_y
_atom_site_fract_z
Si Si1 0.166485 0.943780 0.724031
Si Si2 0.743222 0.741632 0.412289
Si Si3 0.533656 0.297601 0.855691
Si Si4 0.388161 0.110336 0.429768
Si Si5 0.268768 0.314941 0.576400
Si Si6 0.146444 0.110439 0.723910
Si Si7 0.351189 0.743757 0.848240
Si Si8 0.666455 0.947515 0.537113
O O1 0.042708 0.883011 0.836512
O O2 0.417019 0.933419 0.631188
O O3 0.183185 0.933769 0.617025
O O4 0.098051 0.026798 0.765322
O O5 0.500000 0.753656 0.500000
O O6 0.906094 0.768281 0.262984
O O7 0.790657 0.660559 0.409281
O O8 0.758678 0.780624 0.491445
O O9 0.711323 0.264119 0.833791
O O10 0.302827 0.271737 0.003853
O O11 0.259427 0.119556 0.579052
O O12 0.646184 0.126552 0.317918
O O13 0.343744 0.028831 0.432626
O O14 0.500000 0.296534 0.500000
O O15 0.237840 0.397661 0.575306
O O16 0.075530 0.286050 0.726963
O O17 0.938395 0.163403 0.823015
#
# Coordination Sequence:
#
# PCOD9129434 Si02
#       8
#     4   4   4   4   4   4   4   4
#     4   9  16  33  61  83 110 153 199 235 284 362
#     4  12  20  35  59  84 112 152 206 241 286 353
#     4  11  22  36  60  88 116 158 204 250 285 353
#     4   9  18  31  57  87 115 148 191 246 294 350
#     4  12  22  35  58  85 119 152 193 249 302 343
#     4   9  17  34  56  85 118 153 188 239 305 355
#     4  11  22  37  56  89 121 153 202 249 301 346
#     4   9  17  32  56  88 113 143 195 245 295 343
#
# _framework density 17.020776999999999
#
# number of rings (size 3 to 8) (size 9 to 14) (size 15 to 20)
#    0.000    1.750    5.000    2.250    0.000    0.500 
#    0.000    3.750    0.000    3.000    0.000    0.000 
#    0.000    0.000    0.000    0.000    0.000    0.000 
#
# Total GULP energy -89095.317189 kJ/mol
# GULP energy per Si atom -5568.457324 kJ/mol
# Density = 1.698204 g / cm^3
# Si number density = 17.020777 Si / 1000 Ang^3
#
#
#
# Elastic Constant Matrix: (Units=GPa)
#
#
# Indices 1 2 3 4 5 6 
#
# 1 73.4575 41.1771 37.7301 0.0011 -9.4368 -0.0017
# 2 41.1771 106.6643 59.5452 0.0008 -5.9659 -0.0013
# 3 37.7301 59.5452 115.2992 -0.0023 -11.0392 0.0004
# 4 0.0011 0.0008 -0.0023 28.4858 -0.0008 -6.4889
# 5 -9.4368 -5.9659 -11.0392 -0.0008 18.1775 0.0018
# 6 -0.0017 -0.0013 0.0004 -6.4889 0.0018 36.7130
#
#
#
# Elastic Compliance Matrix: (Units=1/GPa)
#
#
# Indices 1 2 3 4 5 6 
#
# 1 0.018874 -0.005371 -0.002796 -0.000001 0.006338 0.000000
# 2 -0.005371 0.014702 -0.005988 -0.000001 -0.001600 0.000000
# 3 -0.002796 -0.005988 0.013116 0.000001 0.004549 0.000000
# 4 -0.000001 -0.000001 0.000001 0.036578 0.000001 0.006465
# 5 0.006338 -0.001600 0.004549 0.000001 0.060541 -0.000003
# 6 0.000000 0.000000 0.000000 0.006465 -0.000003 0.028381
#
#
# Mechanical properties :
#
#
# Convention : Reuss Voigt Hill
#
# Bulk Modulus (GPa) = 54.40031 63.59176 58.99603
# Shear Modulus (GPa) = 24.19783 27.13982 25.66883
#
# Velocity S-wave (km/s) = 3.77459 3.99747 3.88762
# Velocity P-wave (km/s) = 7.14333 7.66477 7.40864
#
# Compressibility (1/GPa) = 0.01838225
#
# Stress axis : x y z
#
# Youngs Moduli (GPa) = 52.98217 68.01691 76.24224
#
# Poissons Ratio (x) = 0.36533 0.21315
# Poissons Ratio (y) = 0.28457 0.45657
# Poissons Ratio (z) = 0.14812 0.40731
#
# Static dielectric constant tensor:
#      x y z
#    x 1.554550 0.000000 0.004480 
#    y 0.000000 1.652250 0.000000 
#    z 0.004480 0.000000 1.548260 
# 
# From -- ./inp_files/46672.got.cif
#   From: 2010.05.17/outbox.cif.g08.bks.cpg/sg5_24_cif.got.tgz:46672.got - 2010.06.03 18:56:24.
