data_PCOD9129367
_publ_section_title
;
Structure prediction by ZEFSAII (Michael W. Deem and Ramdas Pophale) SiO2 
 PCOD9129367
Probable space group: C 2
;
_chemical_formula_sum "Si O2"
_cell_formula_units_Z 28
_cell_length_a 9.159493
_cell_length_b 11.273982
_cell_length_c 14.070316
_cell_angle_alpha 90.000000
_cell_angle_beta 109.441511
_cell_angle_gamma 90.000000
_cell_volume 1370.111511
_symmetry_space_group_name_H-M "C 2"
_symmetry_group_IT_number 5
_symmetry_cell_setting 'monoclinic'
loop_
_space_group_symop_operation_xyz
x,y,z
-x,y,-z
1/2+x,1/2+y,z
1/2-x,1/2+y,-z
loop_
_atom_site_type_symbol
_atom_site_label
_atom_site_fract_x
_atom_site_fract_y
_atom_site_fract_z
Si Si1 0.704764 0.409010 0.726038
Si Si2 0.390355 0.783986 0.394774
Si Si3 0.647160 0.460714 0.323439
Si Si4 0.314122 0.982486 0.952633
Si Si5 0.845355 0.224856 0.029796
Si Si6 0.941699 0.204792 0.753269
Si Si7 0.313502 0.551347 0.463378
O O1 0.518637 0.400479 0.690829
O O2 0.760524 0.481861 0.830634
O O3 0.796343 0.286418 0.745813
O O4 0.748853 0.471610 0.635969
O O5 0.500000 0.837654 0.500000
O O6 0.276993 0.871905 0.316631
O O7 0.499439 0.720178 0.341761
O O8 0.285815 0.687064 0.427690
O O9 0.607914 0.569035 0.246397
O O10 0.721250 0.512076 0.437694
O O11 0.249183 0.101134 0.989427
O O12 0.500000 0.985096 0.000000
O O13 0.267565 0.850275 0.981831
O O14 0.915993 0.239796 0.149852
O O15 0.000000 0.209325 0.000000
O O16 0.500000 0.540067 0.500000
#
# Coordination Sequence:
#
# PCOD9129367 Si02
#       7
#     4   4   4   4   4   4   4
#     4  11  21  44  68  89 132 174 212 269 330 380
#     4  11  21  42  65  93 133 170 215 266 322 388
#     4  11  23  41  66  95 130 172 216 263 326 389
#     4  11  23  46  68  96 131 175 223 275 334 391
#     4  11  24  45  69  95 135 172 221 281 332 385
#     4  12  22  44  66  92 134 171 212 274 326 381
#     4   9  18  38  64  87 128 171 202 262 320 375
#
# _framework density 20.436291000000001
#
# number of rings (size 3 to 8) (size 9 to 14) (size 15 to 20)
#    0.000    1.143    8.571    0.857    0.000    1.714 
#   10.286    0.000    0.000    0.000    0.000    0.000 
#    0.000    0.000    0.000    0.000    0.000    0.000 
#
# Total GULP energy -78058.679147 kJ/mol
# GULP energy per Si atom -5575.619939 kJ/mol
# Density = 2.038978 g / cm^3
# Si number density = 20.436291 Si / 1000 Ang^3
#
#
#
# Elastic Constant Matrix: (Units=GPa)
#
#
# Indices 1 2 3 4 5 6 
#
# 1 46.0892 42.0197 -2.5109 0.0000 6.8172 0.0000
# 2 42.0197 109.8386 3.4095 0.0000 8.2993 0.0000
# 3 -2.5109 3.4095 84.5331 0.0000 3.9780 0.0000
# 4 0.0000 0.0000 0.0000 29.0059 0.0000 3.0894
# 5 6.8172 8.2993 3.9780 0.0000 21.3171 0.0000
# 6 0.0000 0.0000 0.0000 3.0894 0.0000 35.8078
#
#
#
# Elastic Compliance Matrix: (Units=1/GPa)
#
#
# Indices 1 2 3 4 5 6 
#
# 1 0.034324 -0.012706 0.001832 0.000000 -0.006372 0.000000
# 2 -0.012706 0.014088 -0.000887 0.000000 -0.001256 0.000000
# 3 0.001832 -0.000887 0.012037 0.000000 -0.002487 0.000000
# 4 0.000000 0.000000 0.000000 0.034796 0.000000 -0.003002
# 5 -0.006372 -0.001256 -0.002487 0.000000 0.049901 0.000000
# 6 0.000000 0.000000 0.000000 -0.003002 0.000000 0.028186
#
#
# Mechanical properties :
#
#
# Convention : Reuss Voigt Hill
#
# Bulk Modulus (GPa) = 27.08099 36.25527 31.66813
# Shear Modulus (GPa) = 23.90499 30.39565 27.15032
#
# Velocity S-wave (km/s) = 3.42385 3.86078 3.64886
# Velocity P-wave (km/s) = 5.37685 6.13623 5.76905
#
# Compressibility (1/GPa) = 0.03692627
#
# Stress axis : x y z
#
# Youngs Moduli (GPa) = 29.13448 70.98477 83.07798
#
# Poissons Ratio (x) = 0.90195 -0.15219
# Poissons Ratio (y) = 0.37019 0.07365
# Poissons Ratio (z) = -0.05337 0.06293
#
# Static dielectric constant tensor:
#      x y z
#    x 1.713100 0.000000 -0.034630 
#    y 0.000000 1.782900 0.000000 
#    z -0.034630 0.000000 1.790160 
# 
# From -- ./inp_files/50266.got.cif
#   From: 2010.05.17/outbox.cif.g08.bks.cpg/sg5_26_cif.got.tgz:50266.got - 2010.06.03 18:56:24.
