data_PCOD9129538
_publ_section_title
;
Structure prediction by ZEFSAII (Michael W. Deem and Ramdas Pophale) SiO2 
 PCOD9129538
Probable space group: C 2
;
_chemical_formula_sum "Si O2"
_cell_formula_units_Z 28
_cell_length_a 18.725368
_cell_length_b 7.787979
_cell_length_c 14.107174
_cell_angle_alpha 90.000000
_cell_angle_beta 30.663364
_cell_angle_gamma 90.000000
_cell_volume 1049.202648
_symmetry_space_group_name_H-M "C 2"
_symmetry_group_IT_number 5
_symmetry_cell_setting 'monoclinic'
loop_
_space_group_symop_operation_xyz
x,y,z
-x,y,-z
1/2+x,1/2+y,z
1/2-x,1/2+y,-z
loop_
_atom_site_type_symbol
_atom_site_label
_atom_site_fract_x
_atom_site_fract_y
_atom_site_fract_z
Si Si1 0.561031 0.666800 0.025886
Si Si2 0.780417 0.092632 0.602422
Si Si3 0.655140 0.991576 0.277461
Si Si4 0.779247 0.973695 0.396016
Si Si5 0.574305 0.548302 0.219944
Si Si6 0.008662 0.649508 0.267515
Si Si7 0.305974 0.120942 0.100439
O O1 0.428918 0.534456 0.186466
O O2 0.575886 0.679170 0.127252
O O3 0.500000 0.760351 0.000000
O O4 0.723039 0.616141 0.820608
O O5 0.740234 0.283473 0.618134
O O6 0.705236 0.042144 0.783798
O O7 0.945974 0.104634 0.432597
O O8 0.770765 0.976386 0.520322
O O9 0.500000 0.982424 0.500000
O O10 0.613984 0.056974 0.219954
O O11 0.740600 0.812781 0.181016
O O12 0.645809 0.093067 0.525072
O O13 0.543549 0.351141 0.227522
O O14 0.705221 0.537966 0.138750
O O15 0.042321 0.601317 0.120007
#
# Coordination Sequence:
#
# PCOD9129538 Si02
#       7
#     4   4   4   4   4   4   4
#     4  11  22  42  68 101 142 181 237 297 356 425
#     4  11  25  45  75 100 147 193 244 298 370 438
#     4  12  25  44  75 108 139 197 251 298 362 441
#     4  11  25  46  74 106 144 194 243 298 367 442
#     4  11  24  44  71 108 148 187 243 310 357 427
#     4  12  24  44  73 107 148 191 247 304 357 432
#     4  12  23  45  73 107 145 194 246 298 369 433
#
# _framework density 26.686933
#
# number of rings (size 3 to 8) (size 9 to 14) (size 15 to 20)
#    0.000    0.571    2.857    6.429    0.000    1.714 
#    0.000    4.286    0.000    0.000    0.000    0.000 
#    0.000    0.000    0.000    0.000    0.000    0.000 
#
# Total GULP energy -78154.560577 kJ/mol
# GULP energy per Si atom -5582.468613 kJ/mol
# Density = 2.662619 g / cm^3
# Si number density = 26.686933 Si / 1000 Ang^3
#
#
#
# Elastic Constant Matrix: (Units=GPa)
#
#
# Indices 1 2 3 4 5 6 
#
# 1 122.5392 63.1575 58.5065 0.0000 17.3016 0.0000
# 2 63.1575 52.4799 34.2174 -0.0003 1.9446 0.0000
# 3 58.5065 34.2174 213.9368 -0.0001 11.4289 0.0001
# 4 0.0000 -0.0003 -0.0001 5.9647 0.0000 -17.7085
# 5 17.3016 1.9446 11.4289 0.0000 55.5354 0.0000
# 6 0.0000 0.0000 0.0001 -17.7085 0.0000 35.4832
#
#
#
# Elastic Compliance Matrix: (Units=1/GPa)
#
#
# Indices 1 2 3 4 5 6 
#
# 1 0.024169 -0.027647 -0.001858 0.000002 -0.006179 0.000001
# 2 -0.027647 0.052898 -0.001275 -0.000005 0.007023 -0.000002
# 3 -0.001858 -0.001275 0.005412 0.000000 -0.000490 0.000000
# 4 0.000002 -0.000005 0.000000 -0.348054 0.000000 -0.173703
# 5 -0.006179 0.007023 -0.000490 0.000000 0.019787 0.000000
# 6 0.000001 -0.000002 0.000000 -0.173703 0.000000 -0.058507
#
#
# Mechanical properties :
#
#
# Convention : Reuss Voigt Hill
#
# Bulk Modulus (GPa) = 47.79988 77.85764 62.82876
# Shear Modulus (GPa) = -21.20779 34.93495 6.86358
#
# Velocity S-wave (km/s) = -2.82208 3.62203 1.60545
# Velocity P-wave (km/s) = 2.70765 6.83593 5.19910
#
# Compressibility (1/GPa) = 0.02092055
#
# Stress axis : x y z
#
# Youngs Moduli (GPa) = 41.37469 18.90447 184.75862
#
# Poissons Ratio (x) = 0.52264 0.34324
# Poissons Ratio (y) = 1.14387 0.23558
# Poissons Ratio (z) = 0.07687 0.02410
#
# Static dielectric constant tensor:
#      x y z
#    x 2.205420 0.000000 0.086720 
#    y 0.000000 2.133180 0.000000 
#    z 0.086720 0.000000 2.163990 
# 
# From -- ./inp_files/56884.got.cif
#   From: 2010.05.17/outbox.cif.g08.bks.cpg/sg5_29_cif.got.tgz:56884.got - 2010.06.03 18:56:24.
