data_PCOD9129998
_publ_section_title
;
Structure prediction by ZEFSAII (Michael W. Deem and Ramdas Pophale) SiO2 
 PCOD9129998
Probable space group: C 2
;
_chemical_formula_sum "Si O2"
_cell_formula_units_Z 28
_cell_length_a 28.395804
_cell_length_b 9.467474
_cell_length_c 5.298205
_cell_angle_alpha 90.000000
_cell_angle_beta 120.415263
_cell_angle_gamma 90.000000
_cell_volume 1228.330227
_symmetry_space_group_name_H-M "C 2"
_symmetry_group_IT_number 5
_symmetry_cell_setting 'monoclinic'
loop_
_space_group_symop_operation_xyz
x,y,z
-x,y,-z
1/2+x,1/2+y,z
1/2-x,1/2+y,-z
loop_
_atom_site_type_symbol
_atom_site_label
_atom_site_fract_x
_atom_site_fract_y
_atom_site_fract_z
Si Si1 0.330075 0.058600 0.399932
Si Si2 0.561083 0.997382 0.494359
Si Si3 0.101201 0.276425 0.972951
Si Si4 0.600795 0.475154 0.850176
Si Si5 0.210685 0.429656 0.225612
Si Si6 0.500000 0.793654 0.000000
Si Si7 0.500000 0.270693 0.500000
Si Si8 0.662668 0.381074 0.515686
O O1 0.388277 0.980591 0.559483
O O2 0.346650 0.214721 0.518613
O O3 0.289881 0.003947 0.504082
O O4 0.308610 0.031354 0.058129
O O5 0.536310 0.154907 0.441922
O O6 0.584551 0.928981 0.812694
O O7 0.515624 0.893875 0.272021
O O8 0.058268 0.229357 0.076689
O O9 0.090305 0.140491 0.767313
O O10 0.167232 0.300794 0.153700
O O11 0.546513 0.377365 0.730734
O O12 0.636846 0.426558 0.710851
O O13 0.634601 0.457644 0.201954
O O14 0.272024 0.392518 0.320025
#
# Coordination Sequence:
#
# PCOD9129998 Si02
#       8
#     4   4   4   4   4   2   2   4
#     4  11  24  48  72 109 140 192 256 297 362 444
#     4  11  24  44  74 103 143 192 252 301 362 444
#     4  11  27  46  71 111 144 196 244 307 367 445
#     4  12  31  49  74 112 156 192 245 311 385 436
#     4  11  26  45  79 104 145 196 250 304 364 442
#     4  12  22  42  78  98 144 186 250 302 354 436
#     4  12  26  48  76 108 148 200 242 316 374 444
#     4  12  28  49  75 108 153 196 244 313 373 443
#
# _framework density 22.795173999999999
#
# number of rings (size 3 to 8) (size 9 to 14) (size 15 to 20)
#    0.000    0.571    4.286    1.714   12.000    0.571 
#    0.000    0.000    0.000    0.000    0.000    0.000 
#    0.000    0.000    0.000    0.000    0.000    0.000 
#
# Total GULP energy -77957.007644 kJ/mol
# GULP energy per Si atom -5568.357689 kJ/mol
# Density = 2.274329 g / cm^3
# Si number density = 22.795174 Si / 1000 Ang^3
#
#
#
# Elastic Constant Matrix: (Units=GPa)
#
#
# Indices 1 2 3 4 5 6 
#
# 1 121.5813 21.9945 31.1607 0.0000 14.3860 0.0000
# 2 21.9945 58.8285 -4.7812 0.0000 0.7676 0.0000
# 3 31.1607 -4.7812 80.6911 0.0000 -2.2879 0.0000
# 4 0.0000 0.0000 0.0000 84.5463 0.0000 41.3292
# 5 14.3860 0.7676 -2.2879 0.0000 37.2580 0.0000
# 6 0.0000 0.0000 0.0000 41.3292 0.0000 50.5950
#
#
#
# Elastic Compliance Matrix: (Units=1/GPa)
#
#
# Indices 1 2 3 4 5 6 
#
# 1 0.010663 -0.004296 -0.004495 0.000000 -0.004305 0.000000
# 2 -0.004296 0.018815 0.002815 0.000000 0.001444 0.000000
# 3 -0.004495 0.002815 0.014368 0.000000 0.002560 0.000000
# 4 0.000000 0.000000 0.000000 0.019691 0.000000 -0.016084
# 5 -0.004305 0.001444 0.002560 0.000000 0.028629 0.000000
# 6 0.000000 0.000000 0.000000 -0.016084 0.000000 0.032904
#
#
# Mechanical properties :
#
#
# Convention : Reuss Voigt Hill
#
# Bulk Modulus (GPa) = 31.35324 39.76095 35.55710
# Shear Modulus (GPa) = 33.86330 48.66163 41.26247
#
# Velocity S-wave (km/s) = 3.85846 4.62533 4.25919
# Velocity P-wave (km/s) = 5.79952 6.78273 6.31031
#
# Compressibility (1/GPa) = 0.03189463
#
# Stress axis : x y z
#
# Youngs Moduli (GPa) = 93.77894 53.15016 69.59929
#
# Poissons Ratio (x) = 0.22833 0.31281
# Poissons Ratio (y) = 0.40286 -0.19590
# Poissons Ratio (z) = 0.42149 -0.14960
#
# Static dielectric constant tensor:
#      x y z
#    x 1.849590 0.000000 0.124690 
#    y 0.000000 1.850870 0.000000 
#    z 0.124690 0.000000 2.266770 
# 
# From -- ./inp_files/11291.got.cif
#   From: 2010.05.17/outbox.cif.g08.bks.cpg/sg5_6_cif.got.tgz:11291.got - 2010.06.03 18:56:24.
