data_PCOD9129997
_publ_section_title
;
Structure prediction by ZEFSAII (Michael W. Deem and Ramdas Pophale) SiO2 
 PCOD9129997
Probable space group: C 2
;
_chemical_formula_sum "Si O2"
_cell_formula_units_Z 22
_cell_length_a 5.483438
_cell_length_b 29.755728
_cell_length_c 5.485232
_cell_angle_alpha 90.000000
_cell_angle_beta 88.877054
_cell_angle_gamma 90.000000
_cell_volume 894.818803
_symmetry_space_group_name_H-M "C 2"
_symmetry_group_IT_number 5
_symmetry_cell_setting 'monoclinic'
loop_
_space_group_symop_operation_xyz
x,y,z
-x,y,-z
1/2+x,1/2+y,z
1/2-x,1/2+y,-z
loop_
_atom_site_type_symbol
_atom_site_label
_atom_site_fract_x
_atom_site_fract_y
_atom_site_fract_z
Si Si1 0.249547 0.425590 0.130672
Si Si2 0.755285 0.612272 0.846793
Si Si3 0.847631 0.210497 0.256241
Si Si4 0.753162 0.014639 0.363372
Si Si5 0.500000 0.866922 0.500000
Si Si6 0.640174 0.307242 0.246069
O O1 0.255406 0.479784 0.142895
O O2 0.206561 0.400381 0.388460
O O3 0.500000 0.411977 0.000000
O O4 0.000000 0.414301 0.000000
O O5 0.768629 0.660943 0.720446
O O6 0.745056 0.567578 0.687020
O O7 0.500000 0.611785 0.000000
O O8 0.000000 0.607974 0.000000
O O9 0.677296 0.253557 0.237729
O O10 0.000000 0.217331 0.500000
O O11 0.000000 0.210241 0.000000
O O12 0.500000 0.004335 0.500000
O O13 0.000000 0.003507 0.500000
O O14 0.391683 0.833894 0.293412
O O15 0.500000 0.316571 0.500000
O O16 0.500000 0.318805 0.000000
#
# Coordination Sequence:
#
# PCOD9129997 Si02
#       6
#     4   4   4   4   2   4
#     4  12  29  51  81 111 162 211 270 341 418 490
#     4  11  24  44  73 113 156 207 261 321 401 487
#     4  11  24  48  77 115 160 208 266 333 406 490
#     4  12  24  45  74 113 158 206 262 332 401 489
#     4  12  32  52  74 120 160 208 290 342 422 498
#     4  12  29  50  82 115 161 215 274 345 418 493
#
# _framework density 24.585985000000001
#
# number of rings (size 3 to 8) (size 9 to 14) (size 15 to 20)
#    0.000    0.364    1.818    5.455    5.091    3.636 
#    0.000    0.000    0.000    0.000    0.000    0.000 
#    0.000    0.000    0.000    0.000    0.000    0.000 
#
# Total GULP energy -61582.085843 kJ/mol
# GULP energy per Si atom -5598.371440 kJ/mol
# Density = 2.453003 g / cm^3
# Si number density = 24.585985 Si / 1000 Ang^3
#
#
#
# Elastic Constant Matrix: (Units=GPa)
#
#
# Indices 1 2 3 4 5 6 
#
# 1 174.5241 27.9764 61.9539 0.0000 3.9301 0.0000
# 2 27.9764 161.0006 23.7211 0.0000 -4.3032 0.0000
# 3 61.9539 23.7211 123.4766 0.0000 9.9066 0.0000
# 4 0.0000 0.0000 0.0000 164.2885 0.0000 56.4712
# 5 3.9301 -4.3032 9.9066 0.0000 61.0071 0.0000
# 6 0.0000 0.0000 0.0000 56.4712 0.0000 3.7242
#
#
#
# Elastic Compliance Matrix: (Units=1/GPa)
#
#
# Indices 1 2 3 4 5 6 
#
# 1 0.007053 -0.000723 -0.003404 0.000000 0.000047 0.000000
# 2 -0.000723 0.006492 -0.000937 0.000000 0.000657 0.000000
# 3 -0.003404 -0.000937 0.010106 0.000000 -0.001488 0.000000
# 4 0.000000 0.000000 0.000000 -0.001445 0.000000 0.021912
# 5 0.000047 0.000657 -0.001488 0.000000 0.016676 0.000000
# 6 0.000000 0.000000 0.000000 0.021912 0.000000 -0.063748
#
#
# Mechanical properties :
#
#
# Convention : Reuss Voigt Hill
#
# Bulk Modulus (GPa) = 73.94445 76.25601 75.10023
# Shear Modulus (GPa) = -488.76537 68.82728 -209.96904
#
# Velocity S-wave (km/s) = -14.11488 5.29672 -9.25134
# Velocity P-wave (km/s) = 15.34597 8.27590 9.13806
#
# Compressibility (1/GPa) = 0.01352367
#
# Stress axis : x y z
#
# Youngs Moduli (GPa) = 141.78463 154.02624 98.95159
#
# Poissons Ratio (x) = 0.11133 0.33681
# Poissons Ratio (y) = 0.10248 0.09275
# Poissons Ratio (z) = 0.48260 0.14437
#
# Static dielectric constant tensor:
#      x y z
#    x 1.666490 0.000000 -0.024060 
#    y 0.000000 1.944060 0.000000 
#    z -0.024060 0.000000 2.036690 
# 
# From -- ./inp_files/1284.got.cif
#   From: 2010.05.17/outbox.cif.g08.bks.cpg/sg5_1_cif.got.tgz:1284.got - 2010.06.03 18:56:24.
