data_PCOD9129007
_publ_section_title
;
Structure prediction by ZEFSAII (Michael W. Deem and Ramdas Pophale) SiO2 
 PCOD9129007
Probable space group: C 2
;
_chemical_formula_sum "Si O2"
_cell_formula_units_Z 24
_cell_length_a 23.197495
_cell_length_b 4.972112
_cell_length_c 18.105100
_cell_angle_alpha 90.000000
_cell_angle_beta 30.454226
_cell_angle_gamma 90.000000
_cell_volume 1058.430226
_symmetry_space_group_name_H-M "C 2"
_symmetry_group_IT_number 5
_symmetry_cell_setting 'monoclinic'
loop_
_space_group_symop_operation_xyz
x,y,z
-x,y,-z
1/2+x,1/2+y,z
1/2-x,1/2+y,-z
loop_
_atom_site_type_symbol
_atom_site_label
_atom_site_fract_x
_atom_site_fract_y
_atom_site_fract_z
Si Si1 0.061771 0.722540 0.583336
Si Si2 0.203399 0.316570 0.757211
Si Si3 0.532956 0.189231 0.881443
Si Si4 0.452375 0.728747 0.635577
Si Si5 0.174875 0.915661 0.598708
Si Si6 0.291953 0.312078 0.144010
O O1 0.189035 0.736232 0.409902
O O2 0.078000 0.823454 0.648405
O O3 0.016482 0.424953 0.621087
O O4 0.982283 0.925171 0.624950
O O5 0.091648 0.401409 0.833700
O O6 0.234345 0.600321 0.761435
O O7 0.191514 0.101848 0.836057
O O8 0.624530 0.357564 0.734978
O O9 0.500000 0.291204 0.000000
O O10 0.410039 0.205367 0.978989
O O11 0.500000 0.781323 0.500000
O O12 0.319148 0.798038 0.783355
O O13 0.280578 0.712015 0.468548
#
# Coordination Sequence:
#
# PCOD9129007 Si02
#       6
#     4   4   4   4   4   4
#     4  12  23  40  67 100 136 174 235 285 338 404
#     4  11  21  40  65 100 132 177 226 287 333 405
#     4  10  26  44  69 101 140 180 227 285 350 415
#     4  12  22  40  67 101 137 182 233 285 333 412
#     4  12  27  45  70 101 141 182 228 288 354 415
#     4  11  24  40  66  99 138 177 230 282 344 396
#
# _framework density 22.675090999999998
#
# number of rings (size 3 to 8) (size 9 to 14) (size 15 to 20)
#    0.000    0.667    5.000    2.500    4.667    8.667 
#    0.000    1.667    0.000    0.000    0.000    0.000 
#    0.000    0.000    0.000    0.000    0.000    0.000 
#
# Total GULP energy -67101.730172 kJ/mol
# GULP energy per Si atom -5591.810848 kJ/mol
# Density = 2.262348 g / cm^3
# Si number density = 22.675091 Si / 1000 Ang^3
#
#
#
# Elastic Constant Matrix: (Units=GPa)
#
#
# Indices 1 2 3 4 5 6 
#
# 1 70.0493 11.1723 30.0265 -0.0737 -12.1844 0.0840
# 2 11.1723 79.0275 10.6242 -0.1389 -4.8403 0.1777
# 3 30.0265 10.6242 121.4075 -0.1226 -24.9540 0.0978
# 4 -0.0737 -0.1389 -0.1226 19.6814 0.1109 -12.5849
# 5 -12.1844 -4.8403 -24.9540 0.1109 35.5224 -0.0368
# 6 0.0840 0.1777 0.0978 -12.5849 -0.0368 39.7895
#
#
#
# Elastic Compliance Matrix: (Units=1/GPa)
#
#
# Indices 1 2 3 4 5 6 
#
# 1 0.016500 -0.001699 -0.003292 0.000002 0.003116 -0.000016
# 2 -0.001699 0.013018 -0.000554 0.000055 0.000802 -0.000035
# 3 -0.003292 -0.000554 0.010345 0.000009 0.006063 -0.000007
# 4 0.000002 0.000055 0.000009 0.063692 -0.000163 0.020144
# 5 0.003116 0.000802 0.006063 -0.000163 0.033589 -0.000046
# 6 -0.000016 -0.000035 -0.000007 0.020144 -0.000046 0.031504
#
#
# Mechanical properties :
#
#
# Convention : Reuss Voigt Hill
#
# Bulk Modulus (GPa) = 34.75472 41.57006 38.16239
# Shear Modulus (GPa) = 26.40923 33.57608 29.99265
#
# Velocity S-wave (km/s) = 3.41644 3.85222 3.64086
# Velocity P-wave (km/s) = 5.56087 6.17729 5.87717
#
# Compressibility (1/GPa) = 0.02877307
#
# Stress axis : x y z
#
# Youngs Moduli (GPa) = 60.60767 76.81791 96.66057
#
# Poissons Ratio (x) = 0.13053 0.31817
# Poissons Ratio (y) = 0.10299 0.05356
# Poissons Ratio (z) = 0.19949 0.04256
#
# Static dielectric constant tensor:
#      x y z
#    x 1.910620 -0.000170 -0.038820 
#    y -0.000170 1.823770 0.000100 
#    z -0.038820 0.000100 1.846640 
# 
# From -- ./inp_files/63138.got.cif
#   From: 2010.05.17/outbox.cif.g08.bks.cpg/sg5_32_cif.got.tgz:63138.got - 2010.06.03 18:56:24.
