data_PCOD9129332
_publ_section_title
;
Structure prediction by ZEFSAII (Michael W. Deem and Ramdas Pophale) SiO2 
 PCOD9129332
Probable space group: C 2
;
_chemical_formula_sum "Si O2"
_cell_formula_units_Z 22
_cell_length_a 25.744771
_cell_length_b 5.014410
_cell_length_c 9.794688
_cell_angle_alpha 90.000000
_cell_angle_beta 135.760094
_cell_angle_gamma 90.000000
_cell_volume 882.157139
_symmetry_space_group_name_H-M "C 2"
_symmetry_group_IT_number 5
_symmetry_cell_setting 'monoclinic'
loop_
_space_group_symop_operation_xyz
x,y,z
-x,y,-z
1/2+x,1/2+y,z
1/2-x,1/2+y,-z
loop_
_atom_site_type_symbol
_atom_site_label
_atom_site_fract_x
_atom_site_fract_y
_atom_site_fract_z
Si Si1 0.027354 0.418790 0.764940
Si Si2 0.363904 0.643667 0.840711
Si Si3 0.364870 0.743206 0.379696
Si Si4 0.143596 0.726260 0.819889
Si Si5 0.000000 0.415554 0.000000
Si Si6 0.725102 0.145789 0.259593
O O1 0.951642 0.286351 0.574590
O O2 0.064963 0.618169 0.730590
O O3 0.088299 0.197701 0.928590
O O4 0.010619 0.567944 0.878224
O O5 0.324565 0.362739 0.755235
O O6 0.299075 0.861729 0.729505
O O7 0.427331 0.728839 0.853992
O O8 0.357953 0.510822 0.254430
O O9 0.312908 0.681210 0.411556
O O10 0.335761 0.017938 0.259622
O O11 0.197270 0.686536 0.050303
#
# Coordination Sequence:
#
# PCOD9129332 Si02
#       6
#     4   4   4   4   2   4
#     4   9  22  42  66  93 127 168 222 257 312 375
#     4   9  21  40  65  85 123 167 212 251 313 377
#     4  12  24  39  63  98 130 161 207 267 318 373
#     4  11  23  39  62  92 133 168 202 255 323 387
#     4   8  20  48  66  90 124 174 220 262 312 368
#     4  11  21  40  61  94 126 167 204 254 326 383
#
# _framework density 24.938866999999998
#
# number of rings (size 3 to 8) (size 9 to 14) (size 15 to 20)
#    1.091    0.727    0.000    4.909    0.000    8.000 
#    0.000    1.818    0.000    0.000    0.000    0.000 
#    0.000    0.000    0.000    0.000    0.000    0.000 
#
# Total GULP energy -61516.432573 kJ/mol
# GULP energy per Si atom -5592.402961 kJ/mol
# Density = 2.488211 g / cm^3
# Si number density = 24.938867 Si / 1000 Ang^3
#
#
#
# Elastic Constant Matrix: (Units=GPa)
#
#
# Indices 1 2 3 4 5 6 
#
# 1 116.6207 -16.1713 12.3337 0.0000 28.2923 0.0000
# 2 -16.1713 50.0636 10.0584 0.0000 0.2350 0.0000
# 3 12.3337 10.0584 105.5123 0.0000 21.5123 0.0000
# 4 0.0000 0.0000 0.0000 10.5950 0.0000 3.7190
# 5 28.2923 0.2350 21.5123 0.0000 40.3305 0.0000
# 6 0.0000 0.0000 0.0000 3.7190 0.0000 25.8179
#
#
#
# Elastic Compliance Matrix: (Units=1/GPa)
#
#
# Indices 1 2 3 4 5 6 
#
# 1 0.010936 0.003580 -0.000057 0.000000 -0.007662 0.000000
# 2 0.003580 0.021575 -0.002174 0.000000 -0.001478 0.000000
# 3 -0.000057 -0.002174 0.010862 0.000000 -0.005741 0.000000
# 4 0.000000 0.000000 0.000000 0.099411 0.000000 -0.014320
# 5 -0.007662 -0.001478 -0.005741 0.000000 0.033241 0.000000
# 6 0.000000 0.000000 0.000000 -0.014320 0.000000 0.040796
#
#
# Mechanical properties :
#
#
# Convention : Reuss Voigt Hill
#
# Bulk Modulus (GPa) = 21.70607 31.62647 26.66627
# Shear Modulus (GPa) = 21.78843 33.08040 27.43442
#
# Velocity S-wave (km/s) = 2.95900 3.64601 3.32032
# Velocity P-wave (km/s) = 4.51629 5.51667 5.04136
#
# Compressibility (1/GPa) = 0.04607007
#
# Stress axis : x y z
#
# Youngs Moduli (GPa) = 91.44012 46.35053 92.06418
#
# Poissons Ratio (x) = -0.16594 0.00529
# Poissons Ratio (y) = -0.32736 0.20014
# Poissons Ratio (z) = 0.00526 0.10076
#
# Static dielectric constant tensor:
#      x y z
#    x 2.019210 0.000000 -0.024630 
#    y 0.000000 1.913440 0.000000 
#    z -0.024630 0.000000 2.042970 
# 
# From -- ./inp_files/47737.got.cif
#   From: 2010.05.17/outbox.cif.g08.bks.cpg/sg5_24_cif.got.tgz:47737.got - 2010.06.03 18:56:24.
