data_PCOD9129096
_publ_section_title
;
Structure prediction by ZEFSAII (Michael W. Deem and Ramdas Pophale) SiO2 
 PCOD9129096
Probable space group: C 2
;
_chemical_formula_sum "Si O2"
_cell_formula_units_Z 24
_cell_length_a 14.860761
_cell_length_b 6.022272
_cell_length_c 13.644200
_cell_angle_alpha 90.000000
_cell_angle_beta 55.781860
_cell_angle_gamma 90.000000
_cell_volume 1009.726694
_symmetry_space_group_name_H-M "C 2"
_symmetry_group_IT_number 5
_symmetry_cell_setting 'monoclinic'
loop_
_space_group_symop_operation_xyz
x,y,z
-x,y,-z
1/2+x,1/2+y,z
1/2-x,1/2+y,-z
loop_
_atom_site_type_symbol
_atom_site_label
_atom_site_fract_x
_atom_site_fract_y
_atom_site_fract_z
Si Si1 0.000000 0.142870 0.000000
Si Si2 0.430750 0.344611 0.228770
Si Si3 0.416418 0.018078 0.931501
Si Si4 0.898352 0.905994 0.708615
Si Si5 0.233269 0.271803 0.127732
Si Si6 0.500000 0.757054 0.500000
Si Si7 0.207622 0.512274 0.348000
O O1 0.912289 0.315391 0.010097
O O2 0.038020 0.010084 0.880340
O O3 0.459448 0.100726 0.164061
O O4 0.509587 0.318342 0.274670
O O5 0.318609 0.455640 0.337413
O O6 0.350001 0.925018 0.879990
O O7 0.350519 0.233307 0.009340
O O8 0.835091 0.743886 0.672267
O O9 0.814640 0.026216 0.832285
O O10 0.957245 0.098756 0.611185
O O11 0.237429 0.369158 0.233128
O O12 0.602250 0.910172 0.465541
#
# Coordination Sequence:
#
# PCOD9129096 Si02
#       7
#     2   4   4   4   4   2   4
#     4  12  24  40  62 106 152 188 242 292 332 440
#     4  12  25  43  69 109 142 193 244 285 365 435
#     4  12  24  40  64 104 151 193 241 287 344 439
#     4  11  23  49  70 101 143 189 240 303 367 433
#     4  11  23  39  67  97 145 196 231 284 358 415
#     4  10  26  50  70 104 128 182 246 302 386 424
#     4  11  24  47  72  98 141 183 239 309 361 436
#
# _framework density 23.768809000000001
#
# number of rings (size 3 to 8) (size 9 to 14) (size 15 to 20)
#    0.000    0.667    3.333    5.000    2.333    1.333 
#    6.000    0.000    0.000    0.000    0.000    0.000 
#    0.000    0.000    0.000    0.000    0.000    0.000 
#
# Total GULP energy -66920.044942 kJ/mol
# GULP energy per Si atom -5576.670412 kJ/mol
# Density = 2.371471 g / cm^3
# Si number density = 23.768809 Si / 1000 Ang^3
#
#
#
# Elastic Constant Matrix: (Units=GPa)
#
#
# Indices 1 2 3 4 5 6 
#
# 1 92.0475 23.2628 11.8757 -0.0001 -30.9265 0.0001
# 2 23.2628 76.4188 16.3024 -0.0002 -24.7458 0.0003
# 3 11.8757 16.3024 52.7396 -0.0001 -32.7166 0.0001
# 4 -0.0001 -0.0002 -0.0001 42.3731 0.0000 2.5744
# 5 -30.9265 -24.7458 -32.7166 0.0000 44.5680 0.0000
# 6 0.0001 0.0003 0.0001 2.5744 0.0000 40.4454
#
#
#
# Elastic Compliance Matrix: (Units=1/GPa)
#
#
# Indices 1 2 3 4 5 6 
#
# 1 0.015142 -0.001304 0.005623 0.000000 0.013911 0.000000
# 2 -0.001304 0.016097 0.000553 0.000000 0.008438 0.000000
# 3 0.005623 0.000553 0.036971 0.000000 0.031349 0.000000
# 4 0.000000 0.000000 0.000000 0.023692 0.000000 -0.001508
# 5 0.013911 0.008438 0.031349 0.000000 0.059789 0.000000
# 6 0.000000 0.000000 0.000000 -0.001508 0.000000 0.024821
#
#
# Mechanical properties :
#
#
# Convention : Reuss Voigt Hill
#
# Bulk Modulus (GPa) = 12.82825 36.00971 24.41898
# Shear Modulus (GPa) = 25.93995 36.79497 31.36746
#
# Velocity S-wave (km/s) = 3.30713 3.93878 3.63669
# Velocity P-wave (km/s) = 4.47120 5.98900 5.28488
#
# Compressibility (1/GPa) = 0.07795298
#
# Stress axis : x y z
#
# Youngs Moduli (GPa) = 66.04152 62.12151 27.04825
#
# Poissons Ratio (x) = 0.08103 -0.15210
# Poissons Ratio (y) = 0.08614 -0.01494
# Poissons Ratio (z) = -0.37136 -0.03432
#
# Static dielectric constant tensor:
#      x y z
#    x 2.098760 0.000000 -0.072210 
#    y 0.000000 1.952760 0.000000 
#    z -0.072210 0.000000 1.973890 
# 
# From -- ./inp_files/53761.got.cif
#   From: 2010.05.17/outbox.cif.g08.bks.cpg/sg5_27_cif.got.tgz:53761.got - 2010.06.03 18:56:24.
