data_PCOD9129751
_publ_section_title
;
Structure prediction by ZEFSAII (Michael W. Deem and Ramdas Pophale) SiO2 
 PCOD9129751
Probable space group: C 2
;
_chemical_formula_sum "Si O2"
_cell_formula_units_Z 22
_cell_length_a 13.452345
_cell_length_b 13.634153
_cell_length_c 10.553841
_cell_angle_alpha 90.000000
_cell_angle_beta 149.105325
_cell_angle_gamma 90.000000
_cell_volume 993.904356
_symmetry_space_group_name_H-M "C 2"
_symmetry_group_IT_number 5
_symmetry_cell_setting 'monoclinic'
loop_
_space_group_symop_operation_xyz
x,y,z
-x,y,-z
1/2+x,1/2+y,z
1/2-x,1/2+y,-z
loop_
_atom_site_type_symbol
_atom_site_label
_atom_site_fract_x
_atom_site_fract_y
_atom_site_fract_z
Si Si1 0.538492 0.508420 0.247142
Si Si2 0.149356 0.610063 0.280358
Si Si3 0.782909 0.328773 0.489236
Si Si4 0.617661 0.963735 0.879188
Si Si5 0.228602 0.830785 0.731888
Si Si6 0.000000 0.163901 0.000000
O O1 0.657838 0.541085 0.504132
O O2 0.619509 0.408029 0.278421
O O3 0.312201 0.495101 0.022560
O O4 0.583628 0.594649 0.199057
O O5 0.225263 0.720687 0.383018
O O6 0.019568 0.557231 0.247033
O O7 0.000000 0.609385 0.000000
O O8 0.779745 0.333475 0.639449
O O9 0.987575 0.377484 0.673808
O O10 0.686406 0.917084 0.088683
O O11 0.337990 0.730875 0.889308
O O12 0.000000 0.825980 0.500000
#
# Coordination Sequence:
#
# PCOD9129751 Si02
#       6
#     4   4   4   4   4   2
#     4  11  25  43  69 101 138 184 230 287 355 410
#     4  11  25  42  67 100 144 180 227 292 350 418
#     4  11  23  43  64 101 139 178 233 288 349 411
#     4  11  23  42  71  99 134 183 237 286 344 414
#     4  12  22  40  73 100 130 184 233 288 333 414
#     4  12  26  44  70 102 142 172 238 294 342 410
#
# _framework density 22.134924999999999
#
# number of rings (size 3 to 8) (size 9 to 14) (size 15 to 20)
#    0.000    0.727    5.455    2.182    3.818    1.455 
#    0.000    0.000    0.000    0.000    0.000    0.000 
#    0.000    0.000    0.000    0.000    0.000    0.000 
#
# Total GULP energy -61413.144775 kJ/mol
# GULP energy per Si atom -5583.013161 kJ/mol
# Density = 2.208454 g / cm^3
# Si number density = 22.134925 Si / 1000 Ang^3
#
#
#
# Elastic Constant Matrix: (Units=GPa)
#
#
# Indices 1 2 3 4 5 6 
#
# 1 32.6763 13.8282 35.1946 0.0000 25.2039 0.0000
# 2 13.8282 166.6955 63.0552 0.0000 20.8162 0.0000
# 3 35.1946 63.0552 134.5055 0.0000 41.3711 0.0000
# 4 0.0000 0.0000 0.0000 59.2897 0.0000 -4.2172
# 5 25.2039 20.8162 41.3711 0.0000 52.4073 0.0000
# 6 0.0000 0.0000 0.0000 -4.2172 0.0000 20.1688
#
#
#
# Elastic Compliance Matrix: (Units=1/GPa)
#
#
# Indices 1 2 3 4 5 6 
#
# 1 0.054996 0.001278 -0.008846 0.000000 -0.019973 0.000000
# 2 0.001278 0.007324 -0.003545 0.000000 -0.000726 0.000000
# 3 -0.008846 -0.003545 0.012770 0.000000 -0.004419 0.000000
# 4 0.000000 0.000000 0.000000 0.017121 0.000000 0.003580
# 5 -0.019973 -0.000726 -0.004419 0.000000 0.032463 0.000000
# 6 0.000000 0.000000 0.000000 0.003580 0.000000 0.050330
#
#
# Mechanical properties :
#
#
# Convention : Reuss Voigt Hill
#
# Bulk Modulus (GPa) = 18.91611 62.00371 40.45991
# Shear Modulus (GPa) = 23.27182 41.15977 32.21579
#
# Velocity S-wave (km/s) = 3.24599 4.31686 3.81915
# Velocity P-wave (km/s) = 4.75531 7.27459 6.14543
#
# Compressibility (1/GPa) = 0.05286499
#
# Stress axis : x y z
#
# Youngs Moduli (GPa) = 18.18320 136.52882 78.30728
#
# Poissons Ratio (x) = -0.17450 0.69270
# Poissons Ratio (y) = -0.02324 0.27759
# Poissons Ratio (z) = 0.16085 0.48398
#
# Static dielectric constant tensor:
#      x y z
#    x 1.809610 0.000000 -0.040110 
#    y 0.000000 1.839990 0.000000 
#    z -0.040110 0.000000 1.915790 
# 
# From -- ./inp_files/42725.got.cif
#   From: 2010.05.17/outbox.cif.g08.bks.cpg/sg5_22_cif.got.tgz:42725.got - 2010.06.03 18:56:24.
