data_PCOD9129682
_publ_section_title
;
Structure prediction by ZEFSAII (Michael W. Deem and Ramdas Pophale) SiO2 
 PCOD9129682
Probable space group: C 2
;
_chemical_formula_sum "Si O2"
_cell_formula_units_Z 20
_cell_length_a 7.251454
_cell_length_b 11.894436
_cell_length_c 14.612770
_cell_angle_alpha 90.000000
_cell_angle_beta 129.107683
_cell_angle_gamma 90.000000
_cell_volume 978.006763
_symmetry_space_group_name_H-M "C 2"
_symmetry_group_IT_number 5
_symmetry_cell_setting 'monoclinic'
loop_
_space_group_symop_operation_xyz
x,y,z
-x,y,-z
1/2+x,1/2+y,z
1/2-x,1/2+y,-z
loop_
_atom_site_type_symbol
_atom_site_label
_atom_site_fract_x
_atom_site_fract_y
_atom_site_fract_z
Si Si1 0.904972 0.424820 0.754232
Si Si2 0.408714 0.980778 0.369057
Si Si3 0.441912 0.362474 0.205508
Si Si4 0.134904 0.183238 0.191769
Si Si5 0.717857 0.030232 0.000621
O O1 0.891938 0.462559 0.646042
O O2 0.670954 0.434203 0.744548
O O3 0.958356 0.291756 0.781372
O O4 0.110707 0.495591 0.869652
O O5 0.500000 0.985249 0.500000
O O6 0.221005 0.878988 0.296969
O O7 0.262180 0.092386 0.295818
O O8 0.331935 0.240308 0.187464
O O9 0.333688 0.417679 0.080945
O O10 0.919249 0.123532 0.072683
O O11 0.500000 0.060368 0.000000
#
# Coordination Sequence:
#
# PCOD9129682 Si02
#       5
#     4   4   4   4   4
#     4   9  21  39  61  87 121 160 188 242 304 345
#     4  11  23  40  61  85 118 161 209 246 281 344
#     4   8  20  40  59  86 124 148 193 249 294 350
#     4   9  21  41  60  90 123 153 195 241 301 351
#     4   9  17  37  62  92 123 153 189 238 297 371
#
# _framework density 20.449757000000002
#
# number of rings (size 3 to 8) (size 9 to 14) (size 15 to 20)
#    1.200    1.600    0.000    0.000    0.000    8.800 
#   18.000    0.000    0.000    0.000    0.000    0.000 
#    0.000    0.000    0.000    0.000    0.000    0.000 
#
# Total GULP energy -55745.740657 kJ/mol
# GULP energy per Si atom -5574.574066 kJ/mol
# Density = 2.040321 g / cm^3
# Si number density = 20.449757 Si / 1000 Ang^3
#
#
#
# Elastic Constant Matrix: (Units=GPa)
#
#
# Indices 1 2 3 4 5 6 
#
# 1 41.4958 5.8858 15.1388 0.0000 -8.6795 0.0000
# 2 5.8858 94.2546 10.6366 0.0000 -0.8400 0.0000
# 3 15.1388 10.6366 57.2884 0.0000 -28.6589 0.0000
# 4 0.0000 0.0000 0.0000 7.4443 0.0000 -1.0961
# 5 -8.6795 -0.8400 -28.6589 0.0000 34.5326 0.0000
# 6 0.0000 0.0000 0.0000 -1.0961 0.0000 25.1319
#
#
#
# Elastic Compliance Matrix: (Units=1/GPa)
#
#
# Indices 1 2 3 4 5 6 
#
# 1 0.026800 -0.000975 -0.006058 0.000000 0.001684 0.000000
# 2 -0.000975 0.010990 -0.003029 0.000000 -0.002492 0.000000
# 3 -0.006058 -0.003029 0.032181 0.000000 0.025111 0.000000
# 4 0.000000 0.000000 0.000000 0.135199 0.000000 0.005896
# 5 0.001684 -0.002492 0.025111 0.000000 0.050160 0.000000
# 6 0.000000 0.000000 0.000000 0.005896 0.000000 0.040047
#
#
# Mechanical properties :
#
#
# Convention : Reuss Voigt Hill
#
# Bulk Modulus (GPa) = 20.06215 28.48457 24.27336
# Shear Modulus (GPa) = 15.05490 24.18028 19.61759
#
# Velocity S-wave (km/s) = 2.71623 3.44237 3.10063
# Velocity P-wave (km/s) = 4.43497 5.45520 4.97132
#
# Compressibility (1/GPa) = 0.04984510
#
# Stress axis : x y z
#
# Youngs Moduli (GPa) = 37.31391 90.99094 31.07450
#
# Poissons Ratio (x) = 0.08870 0.18826
# Poissons Ratio (y) = 0.03637 0.09414
# Poissons Ratio (z) = 0.22606 0.27566
#
# Static dielectric constant tensor:
#      x y z
#    x 1.774790 0.000000 -0.018250 
#    y 0.000000 1.722310 0.000000 
#    z -0.018250 0.000000 1.680740 
# 
# From -- ./inp_files/35017.got.cif
#   From: 2010.05.17/outbox.cif.g08.bks.cpg/sg5_18_cif.got.tgz:35017.got - 2010.06.03 18:56:24.
