data_PCOD9129394
_publ_section_title
;
Structure prediction by ZEFSAII (Michael W. Deem and Ramdas Pophale) SiO2 
 PCOD9129394
Probable space group: C 2
;
_chemical_formula_sum "Si O2"
_cell_formula_units_Z 32
_cell_length_a 15.229001
_cell_length_b 8.904475
_cell_length_c 10.084663
_cell_angle_alpha 90.000000
_cell_angle_beta 83.047806
_cell_angle_gamma 90.000000
_cell_volume 1357.488544
_symmetry_space_group_name_H-M "C 2"
_symmetry_group_IT_number 5
_symmetry_cell_setting 'monoclinic'
loop_
_space_group_symop_operation_xyz
x,y,z
-x,y,-z
1/2+x,1/2+y,z
1/2-x,1/2+y,-z
loop_
_atom_site_type_symbol
_atom_site_label
_atom_site_fract_x
_atom_site_fract_y
_atom_site_fract_z
Si Si1 0.682166 0.580930 0.714034
Si Si2 0.126689 0.411731 0.744274
Si Si3 0.436683 0.017811 0.812192
Si Si4 0.267310 0.860472 0.887382
Si Si5 0.690142 0.551335 0.244035
Si Si6 0.866766 0.572287 0.540575
Si Si7 0.911175 0.843298 0.927410
Si Si8 0.096183 0.915610 0.511305
O O1 0.630472 0.732875 0.743300
O O2 0.723540 0.511610 0.836994
O O3 0.766600 0.604734 0.604508
O O4 0.623727 0.455468 0.654380
O O5 0.216080 0.469691 0.796831
O O6 0.129577 0.473170 0.591947
O O7 0.036195 0.470113 0.821924
O O8 0.414299 0.997878 0.659069
O O9 0.429871 0.195664 0.837310
O O10 0.364727 0.921288 0.907628
O O11 0.290728 0.726802 0.779843
O O12 0.183293 0.802608 0.985802
O O13 0.616325 0.486572 0.156769
O O14 0.659328 0.496888 0.393940
O O15 0.903416 0.737591 0.505919
O O16 0.000000 0.868399 0.000000
O O17 0.000000 0.977559 0.500000
#
# Coordination Sequence:
#
# PCOD9129394 Si02
#       8
#     4   4   4   4   4   4   4   4
#     4  11  24  42  66 109 150 196 238 301 373 454
#     4  12  24  42  74 107 154 191 241 306 382 453
#     4  11  25  45  72 108 142 194 251 305 375 446
#     4  11  27  46  74 102 152 187 253 308 374 439
#     4  12  25  46  71 106 142 196 244 313 375 444
#     4  11  21  44  66 105 151 197 237 299 369 452
#     4  12  27  51  76 100 140 200 260 315 369 442
#     4  12  25  38  67 102 150 182 244 297 376 445
#
# _framework density 23.572945000000001
#
# number of rings (size 3 to 8) (size 9 to 14) (size 15 to 20)
#    0.000    0.500    3.750    4.125    7.000    0.000 
#    0.000    0.625    0.000    0.000    0.000    0.000 
#    0.000    0.000    0.000    0.000    0.000    0.000 
#
# Total GULP energy -89497.580000 kJ/mol
# GULP energy per Si atom -5593.598750 kJ/mol
# Density = 2.351929 g / cm^3
# Si number density = 23.572945 Si / 1000 Ang^3
#
#
#
# Elastic Constant Matrix: (Units=GPa)
#
#
# Indices 1 2 3 4 5 6 
#
# 1 155.4253 18.4518 24.4655 0.0000 9.4738 0.0000
# 2 18.4518 92.9047 26.1695 0.0000 -12.6028 0.0000
# 3 24.4655 26.1695 41.5515 0.0000 11.2422 0.0000
# 4 0.0000 0.0000 0.0000 20.1452 0.0000 3.3761
# 5 9.4738 -12.6028 11.2422 0.0000 31.6886 0.0000
# 6 0.0000 0.0000 0.0000 3.3761 0.0000 31.9731
#
#
#
# Elastic Compliance Matrix: (Units=1/GPa)
#
#
# Indices 1 2 3 4 5 6 
#
# 1 0.007126 -0.000567 -0.003541 0.000000 -0.001100 0.000000
# 2 -0.000567 0.015944 -0.012687 0.000000 0.011011 0.000000
# 3 -0.003541 -0.012687 0.038960 0.000000 -0.017809 0.000000
# 4 0.000000 0.000000 0.000000 0.050534 0.000000 -0.005336
# 5 -0.001100 0.011011 -0.017809 0.000000 0.042583 0.000000
# 6 0.000000 0.000000 0.000000 -0.005336 0.000000 0.031840
#
#
# Mechanical properties :
#
#
# Convention : Reuss Voigt Hill
#
# Bulk Modulus (GPa) = 35.16198 47.56168 41.36183
# Shear Modulus (GPa) = 21.73381 31.48102 26.60742
#
# Velocity S-wave (km/s) = 3.03971 3.65838 3.36330
# Velocity P-wave (km/s) = 5.22192 6.16970 5.71549
#
# Compressibility (1/GPa) = 0.02843981
#
# Stress axis : x y z
#
# Youngs Moduli (GPa) = 140.33747 62.72065 25.66724
#
# Poissons Ratio (x) = 0.03556 0.09089
# Poissons Ratio (y) = 0.07956 0.32564
# Poissons Ratio (z) = 0.49694 0.79573
#
# Static dielectric constant tensor:
#      x y z
#    x 1.944870 0.000000 -0.031020 
#    y 0.000000 1.823380 0.000000 
#    z -0.031020 0.000000 1.996260 
# 
# From -- ./inp_files/41980.got.cif
#   From: 2010.05.17/outbox.cif.g08.bks.cpg/sg5_21_cif.got.tgz:41980.got - 2010.06.03 18:56:24.
