data_PCOD9129426
_publ_section_title
;
Structure prediction by ZEFSAII (Michael W. Deem and Ramdas Pophale) SiO2 
 PCOD9129426
Probable space group: C 2
;
_chemical_formula_sum "Si O2"
_cell_formula_units_Z 24
_cell_length_a 7.680544
_cell_length_b 15.596985
_cell_length_c 13.630966
_cell_angle_alpha 90.000000
_cell_angle_beta 42.120780
_cell_angle_gamma 90.000000
_cell_volume 1095.178163
_symmetry_space_group_name_H-M "C 2"
_symmetry_group_IT_number 5
_symmetry_cell_setting 'monoclinic'
loop_
_space_group_symop_operation_xyz
x,y,z
-x,y,-z
1/2+x,1/2+y,z
1/2-x,1/2+y,-z
loop_
_atom_site_type_symbol
_atom_site_label
_atom_site_fract_x
_atom_site_fract_y
_atom_site_fract_z
Si Si1 0.747613 0.567150 0.157698
Si Si2 0.087770 0.929328 0.618074
Si Si3 0.837452 0.103047 0.159331
Si Si4 0.862675 0.239760 0.707914
Si Si5 0.098035 0.738324 0.606045
Si Si6 0.623340 0.930296 0.289257
O O1 0.626983 0.502817 0.287746
O O2 0.536949 0.585305 0.162514
O O3 0.793751 0.661424 0.181278
O O4 0.000000 0.530129 0.000000
O O5 0.986557 0.833909 0.636683
O O6 0.324785 0.944856 0.444947
O O7 0.218276 0.930785 0.672909
O O8 0.615729 0.165943 0.291571
O O9 0.717065 0.009595 0.185135
O O10 0.000000 0.138454 0.000000
O O11 0.747596 0.246429 0.646943
O O12 0.841958 0.333712 0.764787
O O13 0.171324 0.219133 0.567902
#
# Coordination Sequence:
#
# PCOD9129426 Si02
#       6
#     4   4   4   4   4   4
#     4  11  22  35  52  76 108 142 176 213 256 307
#     4   8  16  33  56  78 101 133 171 212 260 311
#     4  11  22  35  52  76 108 142 176 213 256 307
#     4   9  18  35  58  81 105 134 170 213 261 311
#     4   9  18  35  58  81 105 134 170 213 261 311
#     4   8  16  33  56  78 101 133 171 212 260 311
#
# _framework density 21.914242000000002
#
# number of rings (size 3 to 8) (size 9 to 14) (size 15 to 20)
#    0.000    2.667    0.000    4.000    0.000    3.333 
#    0.000    6.667    0.000    4.000    0.000    0.000 
#    0.000    0.000    0.000    0.000    0.000    0.000 
#
# Total GULP energy -66985.687102 kJ/mol
# GULP energy per Si atom -5582.140592 kJ/mol
# Density = 2.186436 g / cm^3
# Si number density = 21.914242 Si / 1000 Ang^3
#
#
#
# Elastic Constant Matrix: (Units=GPa)
#
#
# Indices 1 2 3 4 5 6 
#
# 1 32.7343 12.0674 4.3402 -0.0002 -9.0042 0.0005
# 2 12.0674 85.8716 27.9367 0.0008 -16.6960 -0.0002
# 3 4.3402 27.9367 27.6914 0.0001 -11.6021 0.0009
# 4 -0.0002 0.0008 0.0001 6.8820 0.0002 7.7367
# 5 -9.0042 -16.6960 -11.6021 0.0002 26.0666 -0.0006
# 6 0.0005 -0.0002 0.0009 7.7367 -0.0006 -0.7705
#
#
#
# Elastic Compliance Matrix: (Units=1/GPa)
#
#
# Indices 1 2 3 4 5 6 
#
# 1 0.034504 -0.003662 0.002824 -0.000002 0.010830 0.000003
# 2 -0.003662 0.018084 -0.016407 0.000002 0.003015 -0.000004
# 3 0.002824 -0.016407 0.059283 -0.000006 0.016853 0.000005
# 4 -0.000002 0.000002 -0.000006 0.011825 0.000001 0.118735
# 5 0.010830 0.003015 0.016853 0.000001 0.051537 -0.000002
# 6 0.000003 -0.000004 0.000005 0.118735 -0.000002 -0.105617
#
#
# Mechanical properties :
#
#
# Convention : Reuss Voigt Hill
#
# Bulk Modulus (GPa) = 12.92303 26.10955 19.51629
# Shear Modulus (GPa) = 38.49158 13.23246 25.86202
#
# Velocity S-wave (km/s) = 4.19557 2.45996 3.43905
# Velocity P-wave (km/s) = 5.42036 4.47312 4.96936
#
# Compressibility (1/GPa) = 0.07738123
#
# Stress axis : x y z
#
# Youngs Moduli (GPa) = 28.98256 55.29821 16.86829
#
# Poissons Ratio (x) = 0.20249 -0.04764
# Poissons Ratio (y) = 0.10613 0.27675
# Poissons Ratio (z) = -0.08185 0.90726
#
# Static dielectric constant tensor:
#      x y z
#    x 1.879210 0.000000 0.036980 
#    y 0.000000 1.831900 0.000000 
#    z 0.036980 0.000000 1.800920 
# 
# From -- ./inp_files/46562.got.cif
#   From: 2010.05.17/outbox.cif.g08.bks.cpg/sg5_24_cif.got.tgz:46562.got - 2010.06.03 18:56:24.
