data_PCOD9129113
_publ_section_title
;
Structure prediction by ZEFSAII (Michael W. Deem and Ramdas Pophale) SiO2 
 PCOD9129113
Probable space group: C 2
;
_chemical_formula_sum "Si O2"
_cell_formula_units_Z 28
_cell_length_a 14.956810
_cell_length_b 6.411284
_cell_length_c 19.121626
_cell_angle_alpha 90.000000
_cell_angle_beta 43.185699
_cell_angle_gamma 90.000000
_cell_volume 1254.864078
_symmetry_space_group_name_H-M "C 2"
_symmetry_group_IT_number 5
_symmetry_cell_setting 'monoclinic'
loop_
_space_group_symop_operation_xyz
x,y,z
-x,y,-z
1/2+x,1/2+y,z
1/2-x,1/2+y,-z
loop_
_atom_site_type_symbol
_atom_site_label
_atom_site_fract_x
_atom_site_fract_y
_atom_site_fract_z
Si Si1 0.394653 0.113270 0.951386
Si Si2 0.091836 0.312360 0.334958
Si Si3 0.726635 0.411748 0.326980
Si Si4 0.147217 0.921562 0.139779
Si Si5 0.000000 0.596374 0.500000
Si Si6 0.235358 0.151360 0.819900
Si Si7 0.000000 0.897621 0.000000
Si Si8 0.988963 0.310766 0.233972
O O1 0.327585 0.289472 0.943224
O O2 0.439784 0.945383 0.867761
O O3 0.502854 0.240600 0.932730
O O4 0.284177 0.043449 0.069650
O O5 0.989192 0.440839 0.440290
O O6 0.215839 0.460607 0.254219
O O7 0.041417 0.298368 0.284062
O O8 0.143667 0.108958 0.346370
O O9 0.802279 0.323644 0.215180
O O10 0.844299 0.410582 0.315551
O O11 0.621773 0.246321 0.415641
O O12 0.146654 0.758468 0.203889
O O13 0.022921 0.068098 0.196990
O O14 0.123241 0.054631 0.931770
#
# Coordination Sequence:
#
# PCOD9129113 Si02
#       8
#     4   4   4   4   2   4   2   4
#     4  12  25  40  61  98 146 198 255 299 352 426
#     4  11  23  51  72 102 148 185 238 316 377 445
#     4  11  25  47  76 107 142 189 244 307 385 446
#     4  12  23  42  63  95 149 197 247 299 354 423
#     4  10  26  52  74 108 140 176 234 316 386 454
#     4  11  24  42  66  99 150 192 246 307 359 425
#     4  12  26  40  64 104 148 202 258 306 354 432
#     4  12  25  43  73 108 139 198 248 297 367 450
#
# _framework density 22.313172000000002
#
# number of rings (size 3 to 8) (size 9 to 14) (size 15 to 20)
#    0.000    0.571    4.286    3.857    4.000    1.143 
#    5.143    0.000    0.000    0.000    0.000    0.000 
#    0.000    0.000    0.000    0.000    0.000    0.000 
#
# Total GULP energy -77976.161545 kJ/mol
# GULP energy per Si atom -5569.725825 kJ/mol
# Density = 2.226239 g / cm^3
# Si number density = 22.313172 Si / 1000 Ang^3
#
#
#
# Elastic Constant Matrix: (Units=GPa)
#
#
# Indices 1 2 3 4 5 6 
#
# 1 92.4394 47.6185 19.7939 0.0000 -6.1786 0.0000
# 2 47.6185 122.5159 42.4944 0.0000 0.2011 0.0001
# 3 19.7939 42.4944 77.8918 0.0000 4.3510 0.0000
# 4 0.0000 0.0000 0.0000 39.6329 0.0000 9.2274
# 5 -6.1786 0.2011 4.3510 0.0000 20.5814 0.0000
# 6 0.0000 0.0001 0.0000 9.2274 0.0000 36.6028
#
#
#
# Elastic Compliance Matrix: (Units=1/GPa)
#
#
# Indices 1 2 3 4 5 6 
#
# 1 0.013948 -0.005073 -0.001026 0.000000 0.004454 0.000000
# 2 -0.005073 0.011936 -0.005192 0.000000 -0.000542 0.000000
# 3 -0.001026 -0.005192 0.016137 0.000000 -0.003669 0.000000
# 4 0.000000 0.000000 0.000000 0.026805 0.000000 -0.006757
# 5 0.004454 -0.000542 -0.003669 0.000000 0.050705 0.000000
# 6 0.000000 0.000000 0.000000 -0.006757 0.000000 0.029024
#
#
# Mechanical properties :
#
#
# Convention : Reuss Voigt Hill
#
# Bulk Modulus (GPa) = 51.44327 56.96230 54.20278
# Shear Modulus (GPa) = 28.15056 31.55942 29.85499
#
# Velocity S-wave (km/s) = 3.55577 3.76491 3.66183
# Velocity P-wave (km/s) = 6.32164 6.66959 6.49794
#
# Compressibility (1/GPa) = 0.01943889
#
# Stress axis : x y z
#
# Youngs Moduli (GPa) = 71.69256 83.78241 61.97096
#
# Poissons Ratio (x) = 0.42502 0.06357
# Poissons Ratio (y) = 0.36369 0.32177
# Poissons Ratio (z) = 0.07355 0.43502
#
# Static dielectric constant tensor:
#      x y z
#    x 1.897440 0.000000 0.007770 
#    y 0.000000 1.882740 0.000000 
#    z 0.007770 0.000000 1.823590 
# 
# From -- ./inp_files/65659.got.cif
#   From: 2010.05.17/outbox.cif.g08.bks.cpg/sg5_33_cif.got.tgz:65659.got - 2010.06.03 18:56:24.
