data_PCOD9129272
_publ_section_title
;
Structure prediction by ZEFSAII (Michael W. Deem and Ramdas Pophale) SiO2 
 PCOD9129272
Probable space group: C 2
;
_chemical_formula_sum "Si O2"
_cell_formula_units_Z 24
_cell_length_a 21.175712
_cell_length_b 7.315176
_cell_length_c 8.419560
_cell_angle_alpha 90.000000
_cell_angle_beta 46.957206
_cell_angle_gamma 90.000000
_cell_volume 953.184457
_symmetry_space_group_name_H-M "C 2"
_symmetry_group_IT_number 5
_symmetry_cell_setting 'monoclinic'
loop_
_space_group_symop_operation_xyz
x,y,z
-x,y,-z
1/2+x,1/2+y,z
1/2-x,1/2+y,-z
loop_
_atom_site_type_symbol
_atom_site_label
_atom_site_fract_x
_atom_site_fract_y
_atom_site_fract_z
Si Si1 0.404899 0.009200 0.225804
Si Si2 0.763287 0.236398 0.011692
Si Si3 0.929706 0.105645 0.230585
Si Si4 0.588467 0.048507 0.406971
Si Si5 0.438196 0.658595 0.724715
Si Si6 0.755299 0.066531 0.709685
O O1 0.404569 0.037741 0.415374
O O2 0.323955 0.098764 0.274175
O O3 0.394271 0.790939 0.211244
O O4 0.500000 0.061117 0.000000
O O5 0.670178 0.154953 0.205593
O O6 0.767876 0.402427 0.129357
O O7 0.841805 0.095904 0.924409
O O8 0.768326 0.236384 0.808907
O O9 0.845413 0.024164 0.461904
O O10 0.997804 0.182729 0.241577
O O11 0.000000 0.998955 0.000000
O O12 0.500000 0.138443 0.500000
O O13 0.583719 0.852489 0.322745
O O14 0.500000 0.548856 0.500000
#
# Coordination Sequence:
#
# PCOD9129272 Si02
#       6
#     4   4   4   4   4   4
#     4  11  23  42  74 105 139 190 243 295 354 435
#     4  12  24  45  70 104 147 182 250 295 356 427
#     4  11  24  44  74 104 144 192 243 295 355 444
#     4  11  22  43  70 103 139 186 240 293 357 433
#     4  11  20  43  72  99 132 192 245 281 354 430
#     4  12  27  44  74 113 140 197 239 301 365 415
#
# _framework density 25.178757000000001
#
# number of rings (size 3 to 8) (size 9 to 14) (size 15 to 20)
#    0.000    0.667    6.667    3.000    4.667    0.000 
#    3.000    0.833    0.000    0.000    0.000    0.000 
#    0.000    0.000    0.000    0.000    0.000    0.000 
#
# Total GULP energy -66946.666602 kJ/mol
# GULP energy per Si atom -5578.888884 kJ/mol
# Density = 2.512145 g / cm^3
# Si number density = 25.178757 Si / 1000 Ang^3
#
#
#
# Elastic Constant Matrix: (Units=GPa)
#
#
# Indices 1 2 3 4 5 6 
#
# 1 201.0983 22.8253 68.4688 0.0000 -24.2190 0.0000
# 2 22.8253 54.6668 16.8207 0.0000 5.2532 0.0000
# 3 68.4688 16.8207 214.7715 0.0000 -24.4495 0.0000
# 4 0.0000 0.0000 0.0000 22.5525 0.0000 0.3457
# 5 -24.2190 5.2532 -24.4495 0.0000 55.6098 0.0000
# 6 0.0000 0.0000 0.0000 0.3457 0.0000 23.2276
#
#
#
# Elastic Compliance Matrix: (Units=1/GPa)
#
#
# Indices 1 2 3 4 5 6 
#
# 1 0.005997 -0.002254 -0.001488 0.000000 0.002170 0.000000
# 2 -0.002254 0.019940 -0.001231 0.000000 -0.003407 0.000000
# 3 -0.001488 -0.001231 0.005439 0.000000 0.001859 0.000000
# 4 0.000000 0.000000 0.000000 0.044351 0.000000 -0.000660
# 5 0.002170 -0.003407 0.001859 0.000000 0.020067 0.000000
# 6 0.000000 0.000000 0.000000 -0.000660 0.000000 0.043062
#
#
# Mechanical properties :
#
#
# Convention : Reuss Voigt Hill
#
# Bulk Modulus (GPa) = 46.66668 76.30736 61.48702
# Shear Modulus (GPa) = 32.06260 44.43941 38.25101
#
# Velocity S-wave (km/s) = 3.57234 4.20570 3.90189
# Velocity P-wave (km/s) = 5.96573 7.34547 6.69125
#
# Compressibility (1/GPa) = 0.02142857
#
# Stress axis : x y z
#
# Youngs Moduli (GPa) = 166.76069 50.15035 183.87207
#
# Poissons Ratio (x) = 0.11306 0.27361
# Poissons Ratio (y) = 0.37596 0.22630
# Poissons Ratio (z) = 0.24815 0.06172
#
# Static dielectric constant tensor:
#      x y z
#    x 2.031750 0.000000 -0.007810 
#    y 0.000000 2.126340 0.000000 
#    z -0.007810 0.000000 2.172490 
# 
# From -- ./inp_files/28884.got.cif
#   From: 2010.05.17/outbox.cif.g08.bks.cpg/sg5_15_cif.got.tgz:28884.got - 2010.06.03 18:56:24.
