data_PCOD9129049
_publ_section_title
;
Structure prediction by ZEFSAII (Michael W. Deem and Ramdas Pophale) SiO2 
 PCOD9129049
Probable space group: C 2
;
_chemical_formula_sum "Si O2"
_cell_formula_units_Z 20
_cell_length_a 13.793121
_cell_length_b 5.602866
_cell_length_c 17.471632
_cell_angle_alpha 90.000000
_cell_angle_beta 144.444725
_cell_angle_gamma 90.000000
_cell_volume 785.139953
_symmetry_space_group_name_H-M "C 2"
_symmetry_group_IT_number 5
_symmetry_cell_setting 'monoclinic'
loop_
_space_group_symop_operation_xyz
x,y,z
-x,y,-z
1/2+x,1/2+y,z
1/2-x,1/2+y,-z
loop_
_atom_site_type_symbol
_atom_site_label
_atom_site_fract_x
_atom_site_fract_y
_atom_site_fract_z
Si Si1 0.278162 0.228680 0.785191
Si Si2 0.000000 0.381546 0.500000
Si Si3 0.783883 0.528086 0.108366
Si Si4 0.020386 0.923823 0.822331
Si Si5 0.756584 0.121641 0.549708
Si Si6 0.000000 0.348446 0.000000
O O1 0.223040 0.319060 0.833207
O O2 0.398217 0.409241 0.816597
O O3 0.118692 0.216548 0.628373
O O4 0.202395 0.965432 0.974493
O O5 0.891050 0.547592 0.486393
O O6 0.099630 0.508268 0.124963
O O7 0.647883 0.704157 0.057390
O O8 0.954807 0.672084 0.205978
O O9 0.929561 0.105895 0.708251
O O10 0.763468 0.886156 0.498372
#
# Coordination Sequence:
#
# PCOD9129049 Si02
#       6
#     4   2   4   4   4   2
#     4  11  23  48  63 104 136 182 235 291 352 428
#     4  10  26  46  76  98 146 196 238 296 374 424
#     4  12  24  43  68 104 137 180 233 301 348 430
#     4  11  24  43  71 101 138 186 242 286 370 421
#     4  11  27  50  72 109 147 193 245 301 356 444
#     4  12  22  40  72  94 144 174 228 304 346 414
#
# _framework density 25.473163
#
# number of rings (size 3 to 8) (size 9 to 14) (size 15 to 20)
#    0.000    0.800    4.000    2.400    2.800    5.600 
#    0.000    0.000    0.000    0.000    0.000    0.000 
#    0.000    0.000    0.000    0.000    0.000    0.000 
#
# Total GULP energy -55945.608092 kJ/mol
# GULP energy per Si atom -5594.560809 kJ/mol
# Density = 2.541519 g / cm^3
# Si number density = 25.473163 Si / 1000 Ang^3
#
#
#
# Elastic Constant Matrix: (Units=GPa)
#
#
# Indices 1 2 3 4 5 6 
#
# 1 135.2700 15.8855 13.0468 -0.0001 -2.4062 0.0000
# 2 15.8855 62.5687 17.5188 -0.0002 -10.7586 0.0007
# 3 13.0468 17.5188 120.7282 -0.0001 2.3006 0.0000
# 4 -0.0001 -0.0002 -0.0001 13.0090 -0.0001 19.9060
# 5 -2.4062 -10.7586 2.3006 -0.0001 30.8480 -0.0001
# 6 0.0000 0.0007 0.0000 19.9060 -0.0001 40.5622
#
#
#
# Elastic Compliance Matrix: (Units=1/GPa)
#
#
# Indices 1 2 3 4 5 6 
#
# 1 0.007657 -0.001781 -0.000569 0.000000 0.000018 0.000000
# 2 -0.001781 0.018261 -0.002580 0.000003 0.006422 -0.000002
# 3 -0.000569 -0.002580 0.008749 0.000000 -0.001597 0.000000
# 4 0.000000 0.000003 0.000000 0.308630 0.000001 -0.151461
# 5 0.000018 0.006422 -0.001597 0.000001 0.034777 -0.000001
# 6 0.000000 -0.000002 0.000000 -0.151461 -0.000001 0.098983
#
#
# Mechanical properties :
#
#
# Convention : Reuss Voigt Hill
#
# Bulk Modulus (GPa) = 40.31173 45.71879 43.01526
# Shear Modulus (GPa) = 10.09718 35.02488 22.56103
#
# Velocity S-wave (km/s) = 1.99310 3.71208 2.97926
# Velocity P-wave (km/s) = 4.59958 6.02989 5.36263
#
# Compressibility (1/GPa) = 0.02480667
#
# Stress axis : x y z
#
# Youngs Moduli (GPa) = 130.59830 54.76050 114.29392
#
# Poissons Ratio (x) = 0.09755 0.06507
# Poissons Ratio (y) = 0.23266 0.29485
# Poissons Ratio (z) = 0.07435 0.14127
#
# Static dielectric constant tensor:
#      x y z
#    x 1.950860 0.000000 -0.036340 
#    y 0.000000 2.136270 0.000000 
#    z -0.036340 0.000000 2.071040 
# 
# From -- ./inp_files/60006.got.cif
#   From: 2010.05.17/outbox.cif.g08.bks.cpg/sg5_31_cif.got.tgz:60006.got - 2010.06.03 18:56:24.
