data_PCOD9129857
_publ_section_title
;
Structure prediction by ZEFSAII (Michael W. Deem and Ramdas Pophale) SiO2 
 PCOD9129857
Probable space group: C 2
;
_chemical_formula_sum "Si O2"
_cell_formula_units_Z 16
_cell_length_a 5.037733
_cell_length_b 23.595047
_cell_length_c 5.523156
_cell_angle_alpha 90.000000
_cell_angle_beta 91.524194
_cell_angle_gamma 90.000000
_cell_volume 656.280673
_symmetry_space_group_name_H-M "C 2"
_symmetry_group_IT_number 5
_symmetry_cell_setting 'monoclinic'
loop_
_space_group_symop_operation_xyz
x,y,z
-x,y,-z
1/2+x,1/2+y,z
1/2-x,1/2+y,-z
loop_
_atom_site_type_symbol
_atom_site_label
_atom_site_fract_x
_atom_site_fract_y
_atom_site_fract_z
Si Si1 0.500000 0.094700 0.000000
Si Si2 0.000000 0.177598 0.000000
Si Si3 0.251251 0.499366 0.342478
Si Si4 0.854994 0.751795 0.253798
Si Si5 0.167432 0.376287 0.252407
O O1 0.356279 0.050065 0.820468
O O2 0.251133 0.135837 0.046359
O O3 0.065292 0.222599 0.217050
O O4 0.500000 0.519924 0.500000
O O5 0.317088 0.437082 0.239386
O O6 0.000000 0.486699 0.500000
O O7 0.839122 0.819612 0.264263
O O8 0.000000 0.730612 0.500000
O O9 0.000000 0.739796 0.000000
O O10 0.000000 0.373390 0.500000
O O11 0.000000 0.373258 0.000000
#
# Coordination Sequence:
#
# PCOD9129857 Si02
#       5
#     2   2   4   4   4
#     4  12  26  51  72 109 144 206 256 312 370 446
#     4  12  28  49  74 111 148 208 260 312 370 448
#     4  11  25  47  74 111 149 196 247 315 379 453
#     4  12  27  50  78 114 155 200 252 318 383 453
#     4  11  23  45  78 116 154 196 246 313 389 460
#
# _framework density 24.379811
#
# number of rings (size 3 to 8) (size 9 to 14) (size 15 to 20)
#    0.000    0.500    3.750    3.750    0.000    5.000 
#    6.750    0.000    0.000    0.000    0.000    0.000 
#    0.000    0.000    0.000    0.000    0.000    0.000 
#
# Total GULP energy -44619.622842 kJ/mol
# GULP energy per Si atom -5577.452855 kJ/mol
# Density = 2.432432 g / cm^3
# Si number density = 24.379811 Si / 1000 Ang^3
#
#
#
# Elastic Constant Matrix: (Units=GPa)
#
#
# Indices 1 2 3 4 5 6 
#
# 1 117.9110 34.6855 66.1882 0.0000 42.7655 0.0000
# 2 34.6855 176.0600 34.6599 0.0000 16.2386 0.0000
# 3 66.1882 34.6599 182.8881 0.0000 41.9849 0.0000
# 4 0.0000 0.0000 0.0000 78.0126 0.0000 52.6208
# 5 42.7655 16.2386 41.9849 0.0000 68.5720 0.0000
# 6 0.0000 0.0000 0.0000 52.6208 0.0000 49.6826
#
#
#
# Elastic Compliance Matrix: (Units=1/GPa)
#
#
# Indices 1 2 3 4 5 6 
#
# 1 0.012646 -0.001372 -0.003003 0.000000 -0.005723 0.000000
# 2 -0.001372 0.006090 -0.000608 0.000000 -0.000214 0.000000
# 3 -0.003003 -0.000608 0.007222 0.000000 -0.002405 0.000000
# 4 0.000000 0.000000 0.000000 0.044884 0.000000 -0.047538
# 5 -0.005723 -0.000214 -0.002405 0.000000 0.019676 0.000000
# 6 0.000000 0.000000 0.000000 -0.047538 0.000000 0.070478
#
#
# Mechanical properties :
#
#
# Convention : Reuss Voigt Hill
#
# Bulk Modulus (GPa) = 62.53583 83.10293 72.81938
# Shear Modulus (GPa) = 28.36203 62.00846 45.18524
#
# Velocity S-wave (km/s) = 3.41448 5.04872 4.30977
# Velocity P-wave (km/s) = 6.42271 8.25511 7.39588
#
# Compressibility (1/GPa) = 0.01599083
#
# Stress axis : x y z
#
# Youngs Moduli (GPa) = 79.07617 164.21080 138.46712
#
# Poissons Ratio (x) = 0.22536 0.41577
# Poissons Ratio (y) = 0.10852 0.08424
# Poissons Ratio (z) = 0.23744 0.09990
#
# Static dielectric constant tensor:
#      x y z
#    x 2.013590 0.000000 -0.068070 
#    y 0.000000 2.056810 0.000000 
#    z -0.068070 0.000000 1.985140 
# 
# From -- ./inp_files/644.got.cif
#   From: 2010.05.17/outbox.cif.g08.bks.cpg/sg5_1_cif.got.tgz:644.got - 2010.06.03 18:56:24.
