data_PCOD9129252
_publ_section_title
;
Structure prediction by ZEFSAII (Michael W. Deem and Ramdas Pophale) SiO2 
 PCOD9129252
Probable space group: C 2
;
_chemical_formula_sum "Si O2"
_cell_formula_units_Z 14
_cell_length_a 12.550125
_cell_length_b 8.433078
_cell_length_c 9.493303
_cell_angle_alpha 90.000000
_cell_angle_beta 139.814056
_cell_angle_gamma 90.000000
_cell_volume 648.325616
_symmetry_space_group_name_H-M "C 2"
_symmetry_group_IT_number 5
_symmetry_cell_setting 'monoclinic'
loop_
_space_group_symop_operation_xyz
x,y,z
-x,y,-z
1/2+x,1/2+y,z
1/2-x,1/2+y,-z
loop_
_atom_site_type_symbol
_atom_site_label
_atom_site_fract_x
_atom_site_fract_y
_atom_site_fract_z
Si Si1 0.000000 0.487970 0.000000
Si Si2 0.555317 0.563447 0.903620
Si Si3 0.720976 0.226010 0.090422
Si Si4 0.346032 0.492800 0.432513
O O1 0.064373 0.605885 0.940103
O O2 0.169373 0.411121 0.227576
O O3 0.664097 0.687711 0.925879
O O4 0.403776 0.514434 0.649196
O O5 0.500000 0.616050 0.000000
O O6 0.662446 0.404185 0.032197
O O7 0.815011 0.163542 0.325120
O O8 0.500000 0.419887 0.500000
#
# Coordination Sequence:
#
# PCOD9129252 Si02
#       4
#     2   4   4   4
#     4   8  16  40  62  90 122 180 206 256 336 382
#     4  11  20  41  67 100 131 171 226 273 327 400
#     4   9  20  40  66  94 134 171 216 274 328 390
#     4   8  17  36  66  86 131 171 204 273 326 374
#
# _framework density 21.594086999999998
#
# number of rings (size 3 to 8) (size 9 to 14) (size 15 to 20)
#    1.714    1.143    1.429    0.000    0.000    0.000 
#    2.571   32.857    0.000    0.000    0.000    0.000 
#    0.000    0.000    0.000    0.000    0.000    0.000 
#
# Total GULP energy -38974.465351 kJ/mol
# GULP energy per Si atom -5567.780764 kJ/mol
# Density = 2.154494 g / cm^3
# Si number density = 21.594087 Si / 1000 Ang^3
#
#
#
# Elastic Constant Matrix: (Units=GPa)
#
#
# Indices 1 2 3 4 5 6 
#
# 1 132.2854 10.1854 79.6352 0.0000 0.3706 0.0000
# 2 10.1854 67.5101 27.9051 0.0000 2.1267 0.0000
# 3 79.6352 27.9051 115.5069 0.0000 3.3242 0.0000
# 4 0.0000 0.0000 0.0000 9.5169 0.0000 6.4242
# 5 0.3706 2.1267 3.3242 0.0000 54.1785 0.0000
# 6 0.0000 0.0000 0.0000 6.4242 0.0000 15.7740
#
#
#
# Elastic Compliance Matrix: (Units=1/GPa)
#
#
# Indices 1 2 3 4 5 6 
#
# 1 0.013162 0.001952 -0.009558 0.000000 0.000420 0.000000
# 2 0.001952 0.016754 -0.005383 0.000000 -0.000341 0.000000
# 3 -0.009558 -0.005383 0.016569 0.000000 -0.000740 0.000000
# 4 0.000000 0.000000 0.000000 0.144917 0.000000 -0.059020
# 5 0.000420 -0.000341 -0.000740 0.000000 0.018513 0.000000
# 6 0.000000 0.000000 0.000000 -0.059020 0.000000 0.087432
#
#
# Mechanical properties :
#
#
# Convention : Reuss Voigt Hill
#
# Bulk Modulus (GPa) = 48.76682 61.19488 54.98085
# Shear Modulus (GPa) = 15.14410 29.06564 22.10487
#
# Velocity S-wave (km/s) = 2.65109 3.67277 3.20293
# Velocity P-wave (km/s) = 5.65716 6.81072 6.26057
#
# Compressibility (1/GPa) = 0.02050574
#
# Stress axis : x y z
#
# Youngs Moduli (GPa) = 75.97776 59.68699 60.35394
#
# Poissons Ratio (x) = -0.11649 0.57685
# Poissons Ratio (y) = -0.14829 0.32491
# Poissons Ratio (z) = 0.72618 0.32132
#
# Static dielectric constant tensor:
#      x y z
#    x 1.839160 0.000000 0.039030 
#    y 0.000000 1.768400 0.000000 
#    z 0.039030 0.000000 1.779910 
# 
# From -- ./inp_files/18453.got.cif
#   From: 2010.05.17/outbox.cif.g08.bks.cpg/sg5_10_cif.got.tgz:18453.got - 2010.06.03 18:56:24.
