data_PCOD9129570
_publ_section_title
;
Structure prediction by ZEFSAII (Michael W. Deem and Ramdas Pophale) SiO2 
 PCOD9129570
Probable space group: C 2
;
_chemical_formula_sum "Si O2"
_cell_formula_units_Z 28
_cell_length_a 27.061839
_cell_length_b 6.568096
_cell_length_c 8.210801
_cell_angle_alpha 90.000000
_cell_angle_beta 65.555043
_cell_angle_gamma 90.000000
_cell_volume 1328.602693
_symmetry_space_group_name_H-M "C 2"
_symmetry_group_IT_number 5
_symmetry_cell_setting 'monoclinic'
loop_
_space_group_symop_operation_xyz
x,y,z
-x,y,-z
1/2+x,1/2+y,z
1/2-x,1/2+y,-z
loop_
_atom_site_type_symbol
_atom_site_label
_atom_site_fract_x
_atom_site_fract_y
_atom_site_fract_z
Si Si1 0.500000 0.734720 0.500000
Si Si2 0.871322 0.101038 0.245551
Si Si3 0.911210 0.567252 0.614690
Si Si4 0.500000 0.112860 0.000000
Si Si5 0.809521 0.421339 0.559788
Si Si6 0.108307 0.452755 0.988361
Si Si7 0.203706 0.713734 0.710748
Si Si8 0.467732 0.406788 0.320024
O O1 0.506508 0.578771 0.341883
O O2 0.451303 0.881396 0.514734
O O3 0.844009 0.267556 0.400537
O O4 0.831994 0.911271 0.277246
O O5 0.924212 0.016482 0.263622
O O6 0.881716 0.214203 0.059495
O O7 0.851991 0.529153 0.620622
O O8 0.907166 0.535256 0.813504
O O9 0.937226 0.772478 0.502178
O O10 0.557295 0.997508 0.937292
O O11 0.497711 0.249609 0.163597
O O12 0.784947 0.591325 0.472019
O O13 0.760598 0.292276 0.704700
O O14 0.163847 0.568658 0.866565
#
# Coordination Sequence:
#
# PCOD9129570 Si02
#       8
#     2   4   4   2   4   4   4   4
#     4  12  26  40  70 100 138 184 224 282 366 416
#     4  11  22  43  69  98 124 178 232 277 336 415
#     4  12  26  46  64 103 145 179 225 297 344 421
#     4  12  24  44  72  98 136 178 236 294 328 432
#     4  11  22  43  73  98 131 179 231 285 344 408
#     4  11  27  42  64 100 141 177 231 286 350 410
#     4  11  22  44  71  98 129 175 235 286 333 419
#     4  12  25  44  70 100 136 182 233 283 354 407
#
# _framework density 21.074771999999999
#
# number of rings (size 3 to 8) (size 9 to 14) (size 15 to 20)
#    0.000    0.571    5.714    3.000    4.000    1.143 
#    2.571    0.000    0.000    0.000    0.000    0.000 
#    0.000    0.000    0.000    0.000    0.000    0.000 
#
# Total GULP energy -78184.882099 kJ/mol
# GULP energy per Si atom -5584.634436 kJ/mol
# Density = 2.102681 g / cm^3
# Si number density = 21.074772 Si / 1000 Ang^3
#
#
#
# Elastic Constant Matrix: (Units=GPa)
#
#
# Indices 1 2 3 4 5 6 
#
# 1 78.9012 24.6827 0.4029 0.0000 -10.3619 0.0000
# 2 24.6827 92.7019 25.2949 0.0000 -3.5707 0.0000
# 3 0.4029 25.2949 71.5149 0.0000 2.2980 0.0000
# 4 0.0000 0.0000 0.0000 13.8995 0.0000 11.2049
# 5 -10.3619 -3.5707 2.2980 0.0000 26.0939 0.0000
# 6 0.0000 0.0000 0.0000 11.2049 0.0000 31.8880
#
#
#
# Elastic Compliance Matrix: (Units=1/GPa)
#
#
# Indices 1 2 3 4 5 6 
#
# 1 0.014598 -0.004008 0.001170 0.000000 0.005145 0.000000
# 2 -0.004008 0.013146 -0.004647 0.000000 0.000617 0.000000
# 3 0.001170 -0.004647 0.015670 0.000000 -0.001551 0.000000
# 4 0.000000 0.000000 0.000000 0.100379 0.000000 -0.035271
# 5 0.005145 0.000617 -0.001551 0.000000 0.040587 0.000000
# 6 0.000000 0.000000 0.000000 -0.035271 0.000000 0.043754
#
#
# Mechanical properties :
#
#
# Convention : Reuss Voigt Hill
#
# Bulk Modulus (GPa) = 35.15676 38.20878 36.68277
# Shear Modulus (GPa) = 19.79538 27.22545 23.51041
#
# Velocity S-wave (km/s) = 3.06811 3.59813 3.34364
# Velocity P-wave (km/s) = 5.41010 5.95244 5.68774
#
# Compressibility (1/GPa) = 0.02844403
#
# Stress axis : x y z
#
# Youngs Moduli (GPa) = 68.50455 76.06796 63.81616
#
# Poissons Ratio (x) = 0.30487 -0.07466
# Poissons Ratio (y) = 0.27455 0.29656
# Poissons Ratio (z) = -0.08015 0.35349
#
# Static dielectric constant tensor:
#      x y z
#    x 1.762210 0.000000 -0.009550 
#    y 0.000000 1.745650 0.000000 
#    z -0.009550 0.000000 1.799770 
# 
# From -- ./inp_files/31376.got.cif
#   From: 2010.05.17/outbox.cif.g08.bks.cpg/sg5_16_cif.got.tgz:31376.got - 2010.06.03 18:56:24.
