data_PCOD9129326
_publ_section_title
;
Structure prediction by ZEFSAII (Michael W. Deem and Ramdas Pophale) SiO2 
 PCOD9129326
Probable space group: C 2
;
_chemical_formula_sum "Si O2"
_cell_formula_units_Z 24
_cell_length_a 7.869684
_cell_length_b 18.676080
_cell_length_c 7.916321
_cell_angle_alpha 90.000000
_cell_angle_beta 62.071630
_cell_angle_gamma 90.000000
_cell_volume 1027.991674
_symmetry_space_group_name_H-M "C 2"
_symmetry_group_IT_number 5
_symmetry_cell_setting 'monoclinic'
loop_
_space_group_symop_operation_xyz
x,y,z
-x,y,-z
1/2+x,1/2+y,z
1/2-x,1/2+y,-z
loop_
_atom_site_type_symbol
_atom_site_label
_atom_site_fract_x
_atom_site_fract_y
_atom_site_fract_z
Si Si1 0.713248 0.666910 0.371822
Si Si2 0.210710 0.031900 0.022851
Si Si3 0.586808 0.026205 0.699013
Si Si4 0.056943 0.790666 0.663187
Si Si5 0.294073 0.697317 0.021386
Si Si6 0.398030 0.449883 0.359467
O O1 0.500000 0.636759 0.500000
O O2 0.870550 0.609886 0.363633
O O3 0.723375 0.691943 0.173011
O O4 0.755242 0.741228 0.442366
O O5 0.309634 0.029626 0.164376
O O6 0.210190 0.111625 0.943974
O O7 0.374996 0.996180 0.832702
O O8 0.006627 0.999605 0.172054
O O9 0.693760 0.979936 0.510556
O O10 0.000000 0.804848 0.500000
O O11 0.094330 0.869549 0.717238
O O12 0.884900 0.745033 0.830725
O O13 0.500000 0.723155 0.000000
O O14 0.500000 0.452818 0.500000
#
# Coordination Sequence:
#
# PCOD9129326 Si02
#       6
#     4   4   4   4   4   4
#     4  11  21  39  67  92 123 167 210 262 314 371
#     4   9  17  34  61  89 117 159 206 255 308 369
#     4   9  16  33  63  90 117 158 208 252 308 371
#     4  11  23  40  60  94 133 165 205 257 314 376
#     4  11  22  40  64  94 123 163 216 260 314 373
#     4   9  19  36  58  90 126 161 203 255 313 374
#
# _framework density 23.346491
#
# number of rings (size 3 to 8) (size 9 to 14) (size 15 to 20)
#    0.000    2.000    1.667    4.000    0.000    0.000 
#   12.000    1.667    0.000    0.000    0.000    0.000 
#    0.000    0.000    0.000    0.000    0.000    0.000 
#
# Total GULP energy -66863.073398 kJ/mol
# GULP energy per Si atom -5571.922783 kJ/mol
# Density = 2.329335 g / cm^3
# Si number density = 23.346491 Si / 1000 Ang^3
#
#
#
# Elastic Constant Matrix: (Units=GPa)
#
#
# Indices 1 2 3 4 5 6 
#
# 1 66.4137 14.4139 22.2614 0.0000 -20.9046 0.0000
# 2 14.4139 134.2377 73.3140 0.0000 -31.2592 0.0000
# 3 22.2614 73.3140 149.0254 0.0000 -36.8794 0.0000
# 4 0.0000 0.0000 0.0000 25.1605 0.0000 4.9337
# 5 -20.9046 -31.2592 -36.8794 0.0000 47.2007 0.0000
# 6 0.0000 0.0000 0.0000 4.9337 0.0000 6.4698
#
#
#
# Elastic Compliance Matrix: (Units=1/GPa)
#
#
# Indices 1 2 3 4 5 6 
#
# 1 0.017597 0.000346 -0.001008 0.000000 0.007235 0.000000
# 2 0.000346 0.010685 -0.004363 0.000000 0.003821 0.000000
# 3 -0.001008 -0.004363 0.010143 0.000000 0.004589 0.000000
# 4 0.000000 0.000000 0.000000 0.046733 0.000000 -0.035637
# 5 0.007235 0.003821 0.004589 0.000000 0.030506 0.000000
# 6 0.000000 0.000000 0.000000 -0.035637 0.000000 0.181739
#
#
# Mechanical properties :
#
#
# Convention : Reuss Voigt Hill
#
# Bulk Modulus (GPa) = 35.24281 63.29506 49.26893
# Shear Modulus (GPa) = 15.77727 31.74537 23.76132
#
# Velocity S-wave (km/s) = 2.60241 3.69148 3.19371
# Velocity P-wave (km/s) = 4.91512 6.73345 5.89482
#
# Compressibility (1/GPa) = 0.02837459
#
# Stress axis : x y z
#
# Youngs Moduli (GPa) = 56.82675 93.59240 98.59254
#
# Poissons Ratio (x) = -0.03238 0.09943
# Poissons Ratio (y) = -0.01966 0.43012
# Poissons Ratio (z) = 0.05731 0.40830
#
# Static dielectric constant tensor:
#      x y z
#    x 2.050620 0.000000 -0.008310 
#    y 0.000000 1.923910 0.000000 
#    z -0.008310 0.000000 1.909440 
# 
# From -- ./inp_files/16688.got.cif
#   From: 2010.05.17/outbox.cif.g08.bks.cpg/sg5_9_cif.got.tgz:16688.got - 2010.06.03 18:56:24.
