data_PCOD9129727
_publ_section_title
;
Structure prediction by ZEFSAII (Michael W. Deem and Ramdas Pophale) SiO2 
 PCOD9129727
Probable space group: C 2
;
_chemical_formula_sum "Si O2"
_cell_formula_units_Z 20
_cell_length_a 5.106860
_cell_length_b 24.076929
_cell_length_c 9.130962
_cell_angle_alpha 90.000000
_cell_angle_beta 59.535513
_cell_angle_gamma 90.000000
_cell_volume 967.721561
_symmetry_space_group_name_H-M "C 2"
_symmetry_group_IT_number 5
_symmetry_cell_setting 'monoclinic'
loop_
_space_group_symop_operation_xyz
x,y,z
-x,y,-z
1/2+x,1/2+y,z
1/2-x,1/2+y,-z
loop_
_atom_site_type_symbol
_atom_site_label
_atom_site_fract_x
_atom_site_fract_y
_atom_site_fract_z
Si Si1 0.726935 0.310270 0.693828
Si Si2 0.108472 0.246234 0.807857
Si Si3 0.647731 0.632805 0.617664
Si Si4 0.859327 0.032568 0.879024
Si Si5 0.145017 0.932156 0.619005
O O1 0.437377 0.274513 0.728244
O O2 0.638273 0.374868 0.711949
O O3 0.000000 0.303245 0.500000
O O4 0.867375 0.289045 0.805934
O O5 0.125419 0.192580 0.700618
O O6 0.000000 0.229869 0.000000
O O7 0.500000 0.635160 0.500000
O O8 0.477606 0.587615 0.764453
O O9 0.000000 0.617170 0.500000
O O10 0.500000 0.033834 0.000000
O O11 0.966190 0.980563 0.751311
O O12 0.000000 0.028537 0.000000
O O13 0.500000 0.947667 0.500000
O O14 0.000000 0.922000 0.500000
#
# Coordination Sequence:
#
# PCOD9129727 Si02
#       5
#     4   4   4   4   4
#     4  11  23  42  66  94 129 172 215 256 308 378
#     4  12  25  41  64  97 133 165 208 265 322 373
#     4  12  25  44  69  92 125 171 217 258 312 384
#     4  12  26  44  67  97 131 163 209 269 325 373
#     4  11  23  43  68  94 128 171 217 258 307 378
#
# _framework density 20.667100000000001
#
# number of rings (size 3 to 8) (size 9 to 14) (size 15 to 20)
#    0.000    0.400    0.000   10.800    0.000    4.000 
#    0.000    0.000    0.000    0.000    0.000    0.000 
#    0.000    0.000    0.000    0.000    0.000    0.000 
#
# Total GULP energy -56043.575146 kJ/mol
# GULP energy per Si atom -5604.357515 kJ/mol
# Density = 2.062006 g / cm^3
# Si number density = 20.667100 Si / 1000 Ang^3
#
#
#
# Elastic Constant Matrix: (Units=GPa)
#
#
# Indices 1 2 3 4 5 6 
#
# 1 177.0935 45.7195 40.4877 0.0000 -9.9992 0.0000
# 2 45.7195 109.2160 37.4865 0.0000 -25.5703 0.0000
# 3 40.4877 37.4865 62.7013 0.0000 -5.8436 0.0000
# 4 0.0000 0.0000 0.0000 -5.3684 0.0000 13.3410
# 5 -9.9992 -25.5703 -5.8436 0.0000 47.8580 0.0000
# 6 0.0000 0.0000 0.0000 13.3410 0.0000 31.5035
#
#
#
# Elastic Compliance Matrix: (Units=1/GPa)
#
#
# Indices 1 2 3 4 5 6 
#
# 1 0.006868 -0.001671 -0.003424 0.000000 0.000124 0.000000
# 2 -0.001671 0.013478 -0.006413 0.000000 0.006069 0.000000
# 3 -0.003424 -0.006413 0.021857 0.000000 -0.001473 0.000000
# 4 0.000000 0.000000 0.000000 -0.090761 0.000000 0.038435
# 5 0.000124 0.006069 -0.001473 0.000000 0.023984 0.000000
# 6 0.000000 0.000000 0.000000 0.038435 0.000000 0.015466
#
#
# Mechanical properties :
#
#
# Convention : Reuss Voigt Hill
#
# Bulk Modulus (GPa) = 52.12232 66.26648 59.19440
# Shear Modulus (GPa) = 246.26409 29.81976 138.04193
#
# Velocity S-wave (km/s) = 10.92777 3.80262 8.18157
# Velocity P-wave (km/s) = 13.58294 7.17031 10.86070
#
# Compressibility (1/GPa) = 0.01918564
#
# Stress axis : x y z
#
# Youngs Moduli (GPa) = 145.60409 74.19675 45.75214
#
# Poissons Ratio (x) = 0.12395 0.15668
# Poissons Ratio (y) = 0.24324 0.29343
# Poissons Ratio (z) = 0.49862 0.47586
#
# Static dielectric constant tensor:
#      x y z
#    x 1.701810 0.000000 0.005040 
#    y 0.000000 1.711840 0.000000 
#    z 0.005040 0.000000 1.717530 
# 
# From -- ./inp_files/12676.got.cif
#   From: 2010.05.17/outbox.cif.g08.bks.cpg/sg5_7_cif.got.tgz:12676.got - 2010.06.03 18:56:24.
