data_PCOD9129082
_publ_section_title
;
Structure prediction by ZEFSAII (Michael W. Deem and Ramdas Pophale) SiO2 
 PCOD9129082
Probable space group: C 2
;
_chemical_formula_sum "Si O2"
_cell_formula_units_Z 22
_cell_length_a 7.463691
_cell_length_b 6.842191
_cell_length_c 15.529027
_cell_angle_alpha 90.000000
_cell_angle_beta 87.432832
_cell_angle_gamma 90.000000
_cell_volume 792.240450
_symmetry_space_group_name_H-M "C 2"
_symmetry_group_IT_number 5
_symmetry_cell_setting 'monoclinic'
loop_
_space_group_symop_operation_xyz
x,y,z
-x,y,-z
1/2+x,1/2+y,z
1/2-x,1/2+y,-z
loop_
_atom_site_type_symbol
_atom_site_label
_atom_site_fract_x
_atom_site_fract_y
_atom_site_fract_z
Si Si1 0.487728 0.992460 0.719137
Si Si2 0.455129 0.669689 0.847228
Si Si3 0.343900 0.466725 0.610502
Si Si4 0.000000 0.484348 0.000000
Si Si5 0.250021 0.896659 0.584316
Si Si6 0.842108 0.732228 0.864845
O O1 0.403407 0.801204 0.767245
O O2 0.546524 0.399054 0.622535
O O3 0.687402 0.940018 0.683386
O O4 0.490653 0.155549 0.794262
O O5 0.867253 0.546818 0.638122
O O6 0.350785 0.468681 0.867323
O O7 0.475104 0.825875 0.924114
O O8 0.356565 0.699269 0.597819
O O9 0.269489 0.408637 0.517830
O O10 0.165826 0.129287 0.830663
O O11 0.134254 0.646472 0.039654
#
# Coordination Sequence:
#
# PCOD9129082 Si02
#       6
#     4   4   4   2   4   4
#     4  11  29  47  79 120 168 218 275 349 417 495
#     4  11  28  49  81 121 164 216 272 337 414 495
#     4  11  29  50  79 115 161 218 283 342 413 486
#     4  10  26  48  80 114 166 212 272 334 408 496
#     4  11  29  50  79 115 161 218 283 342 413 486
#     4  11  28  49  81 121 164 216 272 337 414 495
#
# _framework density 27.769347
#
# number of rings (size 3 to 8) (size 9 to 14) (size 15 to 20)
#    0.000    1.091    0.000    1.091   25.455    2.909 
#    0.000    0.000    0.000    0.000    0.000    0.000 
#    0.000    0.000    0.000    0.000    0.000    0.000 
#
# Total GULP energy -61498.297094 kJ/mol
# GULP energy per Si atom -5590.754281 kJ/mol
# Density = 2.770614 g / cm^3
# Si number density = 27.769347 Si / 1000 Ang^3
#
#
#
# Elastic Constant Matrix: (Units=GPa)
#
#
# Indices 1 2 3 4 5 6 
#
# 1 95.5841 23.7331 21.5061 0.0000 7.3973 0.0000
# 2 23.7331 122.6212 19.0669 0.0000 -1.2797 0.0000
# 3 21.5061 19.0669 128.9491 0.0000 14.1988 0.0000
# 4 0.0000 0.0000 0.0000 37.1475 0.0000 -11.8560
# 5 7.3973 -1.2797 14.1988 0.0000 38.6493 0.0000
# 6 0.0000 0.0000 0.0000 -11.8560 0.0000 22.7292
#
#
#
# Elastic Compliance Matrix: (Units=1/GPa)
#
#
# Indices 1 2 3 4 5 6 
#
# 1 0.011413 -0.002007 -0.001416 0.000000 -0.001731 0.000000
# 2 -0.002007 0.008721 -0.001072 0.000000 0.001067 0.000000
# 3 -0.001416 -0.001072 0.008466 0.000000 -0.002875 0.000000
# 4 0.000000 0.000000 0.000000 0.032296 0.000000 0.016847
# 5 -0.001731 0.001067 -0.002875 0.000000 0.027296 0.000000
# 6 0.000000 0.000000 0.000000 0.016847 0.000000 0.052784
#
#
# Mechanical properties :
#
#
# Convention : Reuss Voigt Hill
#
# Bulk Modulus (GPa) = 50.99438 52.86295 51.92866
# Shear Modulus (GPa) = 31.94795 38.56176 35.25486
#
# Velocity S-wave (km/s) = 3.39555 3.73049 3.56695
# Velocity P-wave (km/s) = 5.81175 6.13459 5.97535
#
# Compressibility (1/GPa) = 0.01961000
#
# Stress axis : x y z
#
# Youngs Moduli (GPa) = 87.62073 114.65936 118.11550
#
# Poissons Ratio (x) = 0.23010 0.16727
# Poissons Ratio (y) = 0.17584 0.12666
# Poissons Ratio (z) = 0.12408 0.12296
#
# Static dielectric constant tensor:
#      x y z
#    x 2.265130 0.000000 -0.025180 
#    y 0.000000 2.233620 0.000000 
#    z -0.025180 0.000000 2.214580 
# 
# From -- ./inp_files/51925.got.cif
#   From: 2010.05.17/outbox.cif.g08.bks.cpg/sg5_26_cif.got.tgz:51925.got - 2010.06.03 18:56:24.
