data_PCOD9129937
_publ_section_title
;
Structure prediction by ZEFSAII (Michael W. Deem and Ramdas Pophale) SiO2 
 PCOD9129937
Probable space group: C 2
;
_chemical_formula_sum "Si O2"
_cell_formula_units_Z 28
_cell_length_a 7.956606
_cell_length_b 18.330357
_cell_length_c 13.354181
_cell_angle_alpha 90.000000
_cell_angle_beta 133.861519
_cell_angle_gamma 90.000000
_cell_volume 1404.304635
_symmetry_space_group_name_H-M "C 2"
_symmetry_group_IT_number 5
_symmetry_cell_setting 'monoclinic'
loop_
_space_group_symop_operation_xyz
x,y,z
-x,y,-z
1/2+x,1/2+y,z
1/2-x,1/2+y,-z
loop_
_atom_site_type_symbol
_atom_site_label
_atom_site_fract_x
_atom_site_fract_y
_atom_site_fract_z
Si Si1 0.198109 0.754090 0.010651
Si Si2 0.379886 0.347859 0.211091
Si Si3 0.500000 0.171532 0.500000
Si Si4 0.242083 0.067986 0.236387
Si Si5 0.159140 0.295281 0.320637
Si Si6 0.771009 0.590266 0.015788
Si Si7 0.000000 0.467005 0.000000
Si Si8 0.876673 0.406037 0.345647
O O1 0.443828 0.765638 0.165950
O O2 0.203725 0.786755 0.901978
O O3 0.143140 0.669437 0.978073
O O4 0.000000 0.789782 0.000000
O O5 0.338097 0.326509 0.309864
O O6 0.641996 0.364781 0.284065
O O7 0.214827 0.416549 0.119494
O O8 0.406045 0.118588 0.373068
O O9 0.285490 0.228161 0.429430
O O10 0.246548 0.093613 0.124310
O O11 0.310760 0.982999 0.268488
O O12 0.966507 0.075834 0.145045
O O13 0.044749 0.355841 0.346294
O O14 0.934017 0.521862 0.060998
O O15 0.000000 0.425469 0.500000
#
# Coordination Sequence:
#
# PCOD9129937 Si02
#       8
#     4   4   2   4   4   4   2   4
#     4  12  23  41  69 103 140 180 233 293 349 411
#     4  12  25  42  71 105 140 180 237 293 347 417
#     4  12  24  46  72 100 138 188 230 286 352 428
#     4  11  24  42  71  95 140 184 235 281 352 416
#     4  12  25  44  70 100 143 183 230 288 354 418
#     4  11  24  41  67 103 137 181 229 292 347 406
#     4  12  22  40  70 104 140 170 232 292 352 408
#     4  12  26  45  68 102 141 192 233 287 352 425
#
# _framework density 19.938694999999999
#
# number of rings (size 3 to 8) (size 9 to 14) (size 15 to 20)
#    0.000    0.286    7.143    2.571    2.000    0.000 
#    0.000    0.000    0.000    0.000    0.000    0.000 
#    0.000    0.000    0.000    0.000    0.000    0.000 
#
# Total GULP energy -78146.576860 kJ/mol
# GULP energy per Si atom -5581.898347 kJ/mol
# Density = 1.989331 g / cm^3
# Si number density = 19.938695 Si / 1000 Ang^3
#
#
#
# Elastic Constant Matrix: (Units=GPa)
#
#
# Indices 1 2 3 4 5 6 
#
# 1 108.7044 49.4633 27.6136 0.0000 -1.2805 0.0000
# 2 49.4633 113.8408 24.8334 0.0000 -4.2584 0.0000
# 3 27.6136 24.8334 92.4342 0.0000 -0.0420 0.0000
# 4 0.0000 0.0000 0.0000 31.2726 0.0000 41.7465
# 5 -1.2805 -4.2584 -0.0420 0.0000 27.7428 0.0000
# 6 0.0000 0.0000 0.0000 41.7465 0.0000 95.0486
#
#
#
# Elastic Compliance Matrix: (Units=1/GPa)
#
#
# Indices 1 2 3 4 5 6 
#
# 1 0.011911 -0.004680 -0.002301 0.000000 -0.000172 0.000000
# 2 -0.004680 0.011227 -0.001617 0.000000 0.001505 0.000000
# 3 -0.002301 -0.001617 0.011940 0.000000 -0.000336 0.000000
# 4 0.000000 0.000000 0.000000 0.077297 0.000000 -0.033950
# 5 -0.000172 0.001505 -0.000336 0.000000 0.036268 0.000000
# 6 0.000000 0.000000 0.000000 -0.033950 0.000000 0.025432
#
#
# Mechanical properties :
#
#
# Convention : Reuss Voigt Hill
#
# Bulk Modulus (GPa) = 55.92393 57.64445 56.78419
# Shear Modulus (GPa) = 25.35072 45.01741 35.18407
#
# Velocity S-wave (km/s) = 3.56958 4.75678 4.20529
# Velocity P-wave (km/s) = 6.71551 7.69044 7.21945
#
# Compressibility (1/GPa) = 0.01788143
#
# Stress axis : x y z
#
# Youngs Moduli (GPa) = 83.95446 89.07354 83.74982
#
# Poissons Ratio (x) = 0.41685 0.19272
# Poissons Ratio (y) = 0.39289 0.13546
# Poissons Ratio (z) = 0.19319 0.14407
#
# Static dielectric constant tensor:
#      x y z
#    x 1.698600 0.000000 0.047800 
#    y 0.000000 1.694010 0.000000 
#    z 0.047800 0.000000 1.715330 
# 
# From -- ./inp_files/51132.got.cif
#   From: 2010.05.17/outbox.cif.g08.bks.cpg/sg5_26_cif.got.tgz:51132.got - 2010.06.03 18:56:24.
