data_PCOD9129771
_publ_section_title
;
Structure prediction by ZEFSAII (Michael W. Deem and Ramdas Pophale) SiO2 
 PCOD9129771
Probable space group: C 2
;
_chemical_formula_sum "Si O2"
_cell_formula_units_Z 20
_cell_length_a 16.201482
_cell_length_b 11.476828
_cell_length_c 4.973113
_cell_angle_alpha 90.000000
_cell_angle_beta 71.351468
_cell_angle_gamma 90.000000
_cell_volume 876.159548
_symmetry_space_group_name_H-M "C 2"
_symmetry_group_IT_number 5
_symmetry_cell_setting 'monoclinic'
loop_
_space_group_symop_operation_xyz
x,y,z
-x,y,-z
1/2+x,1/2+y,z
1/2-x,1/2+y,-z
loop_
_atom_site_type_symbol
_atom_site_label
_atom_site_fract_x
_atom_site_fract_y
_atom_site_fract_z
Si Si1 0.656265 0.255710 0.735395
Si Si2 0.937154 0.527289 0.317013
Si Si3 0.834701 0.158972 0.798670
Si Si4 0.595428 0.780444 0.766347
Si Si5 0.398369 0.399872 0.694676
O O1 0.611462 0.148529 0.625774
O O2 0.743902 0.199171 0.762504
O O3 0.655990 0.353730 0.505676
O O4 0.607978 0.311804 0.045038
O O5 0.879227 0.412670 0.334348
O O6 0.000000 0.505714 0.500000
O O7 0.000000 0.537408 0.000000
O O8 0.902663 0.206482 0.506513
O O9 0.855641 0.023445 0.818341
O O10 0.844163 0.223701 0.071878
O O11 0.500000 0.782868 0.000000
O O12 0.500000 0.411558 0.500000
#
# Coordination Sequence:
#
# PCOD9129771 Si02
#       5
#     4   4   4   4   4
#     4  12  27  43  73 104 144 182 238 297 354 414
#     4  11  23  43  71 100 135 181 231 285 346 423
#     4  12  27  44  72 103 147 181 237 297 354 418
#     4  11  23  45  71 102 136 185 232 287 352 425
#     4  12  26  49  73 103 143 197 239 286 358 440
#
# _framework density 22.826892000000001
#
# number of rings (size 3 to 8) (size 9 to 14) (size 15 to 20)
#    0.000    0.400    0.000   10.200    5.600    0.000 
#    0.000    0.000    0.000    0.000    0.000    0.000 
#    0.000    0.000    0.000    0.000    0.000    0.000 
#
# Total GULP energy -55962.001249 kJ/mol
# GULP energy per Si atom -5596.200125 kJ/mol
# Density = 2.277494 g / cm^3
# Si number density = 22.826892 Si / 1000 Ang^3
#
#
#
# Elastic Constant Matrix: (Units=GPa)
#
#
# Indices 1 2 3 4 5 6 
#
# 1 92.4797 52.5317 15.1373 0.0000 10.8203 0.0000
# 2 52.5317 156.3729 33.0256 0.0000 16.9403 0.0000
# 3 15.1373 33.0256 95.3508 0.0000 26.6303 0.0000
# 4 0.0000 0.0000 0.0000 -340.1518 0.0000 -252.9814
# 5 10.8203 16.9403 26.6303 0.0000 36.6780 0.0000
# 6 0.0000 0.0000 0.0000 -252.9814 0.0000 -147.8778
#
#
#
# Elastic Compliance Matrix: (Units=1/GPa)
#
#
# Indices 1 2 3 4 5 6 
#
# 1 0.013500 -0.004303 -0.000120 0.000000 -0.001908 0.000000
# 2 -0.004303 0.008370 -0.001870 0.000000 -0.001239 0.000000
# 3 -0.000120 -0.001870 0.013676 0.000000 -0.009031 0.000000
# 4 0.000000 0.000000 0.000000 0.010795 0.000000 -0.018468
# 5 -0.001908 -0.001239 -0.009031 0.000000 0.034956 0.000000
# 6 0.000000 0.000000 0.000000 -0.018468 0.000000 0.024831
#
#
# Mechanical properties :
#
#
# Convention : Reuss Voigt Hill
#
# Bulk Modulus (GPa) = 43.55266 60.62140 52.08703
# Shear Modulus (GPa) = 39.56685 -74.03641 -17.23478
#
# Velocity S-wave (km/s) = 4.16786 -5.70125 -2.75075
# Velocity P-wave (km/s) = 6.50249 4.08954 3.57477
#
# Compressibility (1/GPa) = 0.02296071
#
# Stress axis : x y z
#
# Youngs Moduli (GPa) = 74.07138 119.47862 73.11822
#
# Poissons Ratio (x) = 0.51415 0.00876
# Poissons Ratio (y) = 0.31875 0.13672
# Poissons Ratio (z) = 0.00888 0.22341
#
# Static dielectric constant tensor:
#      x y z
#    x 3.014340 0.000000 -0.003150 
#    y 0.000000 1.908320 0.000000 
#    z -0.003150 0.000000 1.813290 
# 
# From -- ./inp_files/8211.got.cif
#   From: 2010.05.17/outbox.cif.g08.bks.cpg/sg5_5_cif.got.tgz:8211.got - 2010.06.03 18:56:24.
