data_PCOD9129521
_publ_section_title
;
Structure prediction by ZEFSAII (Michael W. Deem and Ramdas Pophale) SiO2 
 PCOD9129521
Probable space group: C 2
;
_chemical_formula_sum "Si O2"
_cell_formula_units_Z 30
_cell_length_a 8.888401
_cell_length_b 13.121572
_cell_length_c 12.893408
_cell_angle_alpha 90.000000
_cell_angle_beta 71.405588
_cell_angle_gamma 90.000000
_cell_volume 1425.258745
_symmetry_space_group_name_H-M "C 2"
_symmetry_group_IT_number 5
_symmetry_cell_setting 'monoclinic'
loop_
_space_group_symop_operation_xyz
x,y,z
-x,y,-z
1/2+x,1/2+y,z
1/2-x,1/2+y,-z
loop_
_atom_site_type_symbol
_atom_site_label
_atom_site_fract_x
_atom_site_fract_y
_atom_site_fract_z
Si Si1 0.025074 0.541960 0.612178
Si Si2 0.631966 0.917783 0.172779
Si Si3 0.500000 0.036245 0.000000
Si Si4 0.983929 0.847483 0.114573
Si Si5 0.344491 0.542880 0.854759
Si Si6 0.958726 0.230739 0.126215
Si Si7 0.631992 0.475813 0.383652
Si Si8 0.603631 0.254667 0.286811
O O1 0.203662 0.515829 0.605806
O O2 0.000000 0.510262 0.500000
O O3 0.920894 0.477587 0.714597
O O4 0.969166 0.658866 0.637671
O O5 0.819417 0.906164 0.139146
O O6 0.550501 0.807265 0.182515
O O7 0.565499 0.975897 0.086391
O O8 0.666139 0.080627 0.918544
O O9 0.988737 0.778502 0.214791
O O10 0.123173 0.930357 0.104871
O O11 0.000000 0.793074 0.000000
O O12 0.467576 0.619886 0.877555
O O13 0.382143 0.531889 0.724507
O O14 0.774132 0.231321 0.196349
O O15 0.000000 0.264471 0.000000
O O16 0.500000 0.494523 0.500000
O O17 0.626326 0.355644 0.352442
#
# Coordination Sequence:
#
# PCOD9129521 Si02
#       8
#     4   4   2   4   4   4   4   4
#     4  12  28  49  74 103 138 196 244 304 361 434
#     4  12  24  45  71 101 146 183 244 293 371 434
#     4  12  22  46  68 102 148 194 230 312 358 436
#     4  11  22  41  70 107 140 190 231 297 363 451
#     4  11  25  43  71 103 149 189 243 297 373 435
#     4  12  25  43  68 109 148 191 229 304 368 449
#     4  11  26  51  74 102 144 194 244 308 360 430
#     4  11  26  49  73 104 147 186 247 301 374 430
#
# _framework density 21.048811000000001
#
# number of rings (size 3 to 8) (size 9 to 14) (size 15 to 20)
#    0.000    0.533    4.667    3.200    9.333    0.000 
#    2.400    0.667    0.000    0.000    0.000    0.000 
#    0.000    0.000    0.000    0.000    0.000    0.000 
#
# Total GULP energy -83842.741389 kJ/mol
# GULP energy per Si atom -5589.516093 kJ/mol
# Density = 2.100090 g / cm^3
# Si number density = 21.048811 Si / 1000 Ang^3
#
#
#
# Elastic Constant Matrix: (Units=GPa)
#
#
# Indices 1 2 3 4 5 6 
#
# 1 111.0463 7.6293 52.3232 0.0000 -6.9759 0.0000
# 2 7.6293 61.4375 28.7295 0.0000 1.2928 0.0000
# 3 52.3232 28.7295 158.6688 0.0000 -2.9543 0.0000
# 4 0.0000 0.0000 0.0000 14.8917 0.0000 -1.9179
# 5 -6.9759 1.2928 -2.9543 0.0000 41.6305 0.0000
# 6 0.0000 0.0000 0.0000 -1.9179 0.0000 34.5150
#
#
#
# Elastic Compliance Matrix: (Units=1/GPa)
#
#
# Indices 1 2 3 4 5 6 
#
# 1 0.010766 0.000303 -0.003577 0.000000 0.001541 0.000000
# 2 0.000303 0.017816 -0.003340 0.000000 -0.000739 0.000000
# 3 -0.003577 -0.003340 0.008088 0.000000 0.000078 0.000000
# 4 0.000000 0.000000 0.000000 0.067636 0.000000 0.003758
# 5 0.001541 -0.000739 0.000078 0.000000 0.024308 0.000000
# 6 0.000000 0.000000 0.000000 0.003758 0.000000 0.029182
#
#
# Mechanical properties :
#
#
# Convention : Reuss Voigt Hill
#
# Bulk Modulus (GPa) = 42.65389 56.50185 49.57787
# Shear Modulus (GPa) = 27.95845 34.37214 31.16529
#
# Velocity S-wave (km/s) = 3.64849 4.04539 3.85206
# Velocity P-wave (km/s) = 6.16903 6.98010 6.58706
#
# Compressibility (1/GPa) = 0.02344452
#
# Stress axis : x y z
#
# Youngs Moduli (GPa) = 92.88113 56.12832 123.63968
#
# Poissons Ratio (x) = -0.01701 0.44221
# Poissons Ratio (y) = -0.02815 0.41291
# Poissons Ratio (z) = 0.33220 0.18745
#
# Static dielectric constant tensor:
#      x y z
#    x 1.735240 0.000000 0.012480 
#    y 0.000000 1.779590 0.000000 
#    z 0.012480 0.000000 1.665720 
# 
# From -- ./inp_files/36367.got.cif
#   From: 2010.05.17/outbox.cif.g08.bks.cpg/sg5_19_cif.got.tgz:36367.got - 2010.06.03 18:56:24.
