data_PCOD9129993
_publ_section_title
;
Structure prediction by ZEFSAII (Michael W. Deem and Ramdas Pophale) SiO2 
 PCOD9129993
Probable space group: C 2
;
_chemical_formula_sum "Si O2"
_cell_formula_units_Z 28
_cell_length_a 16.173806
_cell_length_b 5.716836
_cell_length_c 19.704603
_cell_angle_alpha 90.000000
_cell_angle_beta 35.884929
_cell_angle_gamma 90.000000
_cell_volume 1067.950900
_symmetry_space_group_name_H-M "C 2"
_symmetry_group_IT_number 5
_symmetry_cell_setting 'monoclinic'
loop_
_space_group_symop_operation_xyz
x,y,z
-x,y,-z
1/2+x,1/2+y,z
1/2-x,1/2+y,-z
loop_
_atom_site_type_symbol
_atom_site_label
_atom_site_fract_x
_atom_site_fract_y
_atom_site_fract_z
Si Si1 0.500000 0.321970 0.500000
Si Si2 0.670886 0.398825 0.768827
Si Si3 0.663533 0.024897 0.501322
Si Si4 0.426480 0.737940 0.938283
Si Si5 0.926609 0.772170 0.305024
Si Si6 0.189823 0.053586 0.125524
Si Si7 0.500000 0.393428 0.000000
Si Si8 0.574719 0.700921 0.347418
O O1 0.607065 0.188459 0.479265
O O2 0.587305 0.480070 0.388163
O O3 0.588759 0.648205 0.818359
O O4 0.633370 0.238553 0.729957
O O5 0.599492 0.271590 0.880601
O O6 0.833509 0.406374 0.678961
O O7 0.607410 0.100786 0.611811
O O8 0.831201 0.998857 0.388506
O O9 0.587495 0.777160 0.540335
O O10 0.352609 0.975899 0.012679
O O11 0.353100 0.690213 0.914367
O O12 0.399904 0.556845 0.018675
O O13 0.091280 0.821002 0.188597
O O14 0.133160 0.164556 0.232915
#
# Coordination Sequence:
#
# PCOD9129993 Si02
#       8
#     2   4   4   4   4   4   2   4
#     4  12  26  48  76 114 148 206 258 312 378 476
#     4   9  22  43  72  98 146 189 243 306 368 440
#     4  12  27  46  74 112 159 190 260 318 372 476
#     4   9  23  42  70  98 145 188 251 304 361 443
#     4  11  24  44  71 107 148 199 236 311 383 436
#     4  11  24  45  72 108 144 198 251 300 386 440
#     4   8  20  42  66  96 146 186 242 304 360 430
#     4  12  26  47  79 111 147 205 252 311 394 447
#
# _framework density 26.218433999999998
#
# number of rings (size 3 to 8) (size 9 to 14) (size 15 to 20)
#    0.857    0.571    1.429    3.000    6.000    1.143 
#    0.000    3.571    3.143    0.000    0.000    0.000 
#    0.000    0.000    0.000    0.000    0.000    0.000 
#
# Total GULP energy -78147.764554 kJ/mol
# GULP energy per Si atom -5581.983182 kJ/mol
# Density = 2.615876 g / cm^3
# Si number density = 26.218434 Si / 1000 Ang^3
#
#
#
# Elastic Constant Matrix: (Units=GPa)
#
#
# Indices 1 2 3 4 5 6 
#
# 1 118.8616 33.5703 51.0832 -0.0002 22.0975 -0.0002
# 2 33.5703 48.6963 23.8920 -0.0007 4.7251 0.0014
# 3 51.0832 23.8920 114.6550 0.0001 28.9538 0.0000
# 4 -0.0002 -0.0007 0.0001 41.7882 0.0002 2.8460
# 5 22.0975 4.7251 28.9538 0.0002 76.7420 -0.0003
# 6 -0.0002 0.0014 0.0000 2.8460 -0.0003 36.2430
#
#
#
# Elastic Compliance Matrix: (Units=1/GPa)
#
#
# Indices 1 2 3 4 5 6 
#
# 1 0.012096 -0.006395 -0.003622 0.000000 -0.001723 0.000000
# 2 -0.006395 0.026268 -0.002964 0.000000 0.001342 -0.000001
# 3 -0.003622 -0.002964 0.011764 0.000000 -0.003213 0.000000
# 4 0.000000 0.000000 0.000000 0.024059 0.000000 -0.001889
# 5 -0.001723 0.001342 -0.003213 0.000000 0.014656 0.000000
# 6 0.000000 -0.000001 0.000000 -0.001889 0.000000 0.027740
#
#
# Mechanical properties :
#
#
# Convention : Reuss Voigt Hill
#
# Bulk Modulus (GPa) = 41.37649 55.47820 48.42735
# Shear Modulus (GPa) = 33.20076 42.53245 37.86660
#
# Velocity S-wave (km/s) = 3.56239 4.03207 3.80448
# Velocity P-wave (km/s) = 5.72159 6.54849 6.14895
#
# Compressibility (1/GPa) = 0.02416831
#
# Stress axis : x y z
#
# Youngs Moduli (GPa) = 82.67217 38.06968 85.00242
#
# Poissons Ratio (x) = 0.24344 0.30785
# Poissons Ratio (y) = 0.52866 0.25191
# Poissons Ratio (z) = 0.29941 0.11282
#
# Static dielectric constant tensor:
#      x y z
#    x 2.068620 0.000000 0.033380 
#    y 0.000000 2.052790 0.000000 
#    z 0.033380 0.000000 2.052990 
# 
# From -- ./inp_files/61448.got.cif
#   From: 2010.05.17/outbox.cif.g08.bks.cpg/sg5_31_cif.got.tgz:61448.got - 2010.06.03 18:56:24.
