data_PCOD9129763
_publ_section_title
;
Structure prediction by ZEFSAII (Michael W. Deem and Ramdas Pophale) SiO2 
 PCOD9129763
Probable space group: C 2
;
_chemical_formula_sum "Si O2"
_cell_formula_units_Z 28
_cell_length_a 15.889416
_cell_length_b 5.282434
_cell_length_c 14.538214
_cell_angle_alpha 90.000000
_cell_angle_beta 114.473372
_cell_angle_gamma 90.000000
_cell_volume 1110.626180
_symmetry_space_group_name_H-M "C 2"
_symmetry_group_IT_number 5
_symmetry_cell_setting 'monoclinic'
loop_
_space_group_symop_operation_xyz
x,y,z
-x,y,-z
1/2+x,1/2+y,z
1/2-x,1/2+y,-z
loop_
_atom_site_type_symbol
_atom_site_label
_atom_site_fract_x
_atom_site_fract_y
_atom_site_fract_z
Si Si1 0.500000 0.862581 0.000000
Si Si2 0.308735 0.161662 0.187070
Si Si3 0.075340 0.158348 0.719630
Si Si4 0.711509 0.830733 0.536180
Si Si5 0.804869 0.813759 0.774687
Si Si6 0.000000 0.287208 0.500000
Si Si7 0.012795 0.999504 0.151763
Si Si8 0.842371 0.716252 0.000929
O O1 0.551551 0.685255 0.094120
O O2 0.423280 0.013166 0.020663
O O3 0.357234 0.424173 0.231017
O O4 0.283894 0.154197 0.066349
O O5 0.379921 0.931601 0.240645
O O6 0.229282 0.103379 0.223869
O O7 0.038347 0.131948 0.601809
O O8 0.993235 0.126303 0.753669
O O9 0.736832 0.583772 0.482632
O O10 0.751359 0.750497 0.656457
O O11 0.600266 0.896318 0.503702
O O12 0.913806 0.775506 0.808819
O O13 0.795204 0.729168 0.879251
O O14 0.910564 0.938970 0.067511
#
# Coordination Sequence:
#
# PCOD9129763 Si02
#       8
#     2   4   4   4   4   2   4   4
#     4  12  18  38  74 100 148 198 254 298 396 468
#     4  11  27  47  72 111 156 192 257 313 405 480
#     4  11  26  49  75 108 145 209 259 321 403 481
#     4  12  32  56  85 128 163 220 292 350 420 501
#     4  12  25  50  73 113 159 201 262 339 399 485
#     4  12  28  58  88 112 172 216 282 356 426 470
#     4  11  23  43  68 108 149 198 253 317 395 482
#     4  11  24  42  70 110 150 202 251 315 394 493
#
# _framework density 25.211002000000001
#
# number of rings (size 3 to 8) (size 9 to 14) (size 15 to 20)
#    0.000    0.571    5.714    0.857    2.000   11.429 
#    0.000    0.000    0.000    0.000    0.000    0.000 
#    0.000    0.000    0.000    0.000    0.000    0.000 
#
# Total GULP energy -77974.771240 kJ/mol
# GULP energy per Si atom -5569.626517 kJ/mol
# Density = 2.515362 g / cm^3
# Si number density = 25.211002 Si / 1000 Ang^3
#
#
#
# Elastic Constant Matrix: (Units=GPa)
#
#
# Indices 1 2 3 4 5 6 
#
# 1 119.7199 15.1533 48.4986 0.0000 2.6445 0.0000
# 2 15.1533 81.8916 37.1415 0.0000 0.5874 0.0000
# 3 48.4986 37.1415 201.0615 0.0000 -14.7418 0.0000
# 4 0.0000 0.0000 0.0000 20.4523 0.0000 -14.7563
# 5 2.6445 0.5874 -14.7418 0.0000 40.6198 0.0000
# 6 0.0000 0.0000 0.0000 -14.7563 0.0000 23.5573
#
#
#
# Elastic Compliance Matrix: (Units=1/GPa)
#
#
# Indices 1 2 3 4 5 6 
#
# 1 0.009379 -0.000712 -0.002234 0.000000 -0.001411 0.000000
# 2 -0.000712 0.013431 -0.002384 0.000000 -0.001013 0.000000
# 3 -0.002234 -0.002384 0.006129 0.000000 0.002404 0.000000
# 4 0.000000 0.000000 0.000000 0.089215 0.000000 0.055884
# 5 -0.001411 -0.001013 0.002404 0.000000 0.025598 0.000000
# 6 0.000000 0.000000 0.000000 0.055884 0.000000 0.077456
#
#
# Mechanical properties :
#
#
# Convention : Reuss Voigt Hill
#
# Bulk Modulus (GPa) = 54.70542 67.13998 60.92270
# Shear Modulus (GPa) = 21.01179 37.05116 29.03148
#
# Velocity S-wave (km/s) = 2.89006 3.83775 3.39712
# Velocity P-wave (km/s) = 5.73435 6.80638 6.29323
#
# Compressibility (1/GPa) = 0.01827973
#
# Stress axis : x y z
#
# Youngs Moduli (GPa) = 106.61824 74.45249 163.15446
#
# Poissons Ratio (x) = 0.05301 0.36454
# Poissons Ratio (y) = 0.07592 0.38890
# Poissons Ratio (z) = 0.23822 0.17747
#
# Static dielectric constant tensor:
#      x y z
#    x 2.084470 0.000000 0.052980 
#    y 0.000000 2.097100 0.000000 
#    z 0.052980 0.000000 1.934400 
# 
# From -- ./inp_files/55386.got.cif
#   From: 2010.05.17/outbox.cif.g08.bks.cpg/sg5_28_cif.got.tgz:55386.got - 2010.06.03 18:56:24.
