data_PCOD9129258
_publ_section_title
;
Structure prediction by ZEFSAII (Michael W. Deem and Ramdas Pophale) SiO2 
 PCOD9129258
Probable space group: C 2
;
_chemical_formula_sum "Si O2"
_cell_formula_units_Z 30
_cell_length_a 21.968049
_cell_length_b 6.368333
_cell_length_c 9.476421
_cell_angle_alpha 90.000000
_cell_angle_beta 84.865243
_cell_angle_gamma 90.000000
_cell_volume 1320.429598
_symmetry_space_group_name_H-M "C 2"
_symmetry_group_IT_number 5
_symmetry_cell_setting 'monoclinic'
loop_
_space_group_symop_operation_xyz
x,y,z
-x,y,-z
1/2+x,1/2+y,z
1/2-x,1/2+y,-z
loop_
_atom_site_type_symbol
_atom_site_label
_atom_site_fract_x
_atom_site_fract_y
_atom_site_fract_z
Si Si1 0.301981 0.803700 0.097855
Si Si2 0.083676 0.200665 0.448296
Si Si3 0.303330 0.169446 0.316115
Si Si4 0.192559 0.458761 0.382303
Si Si5 0.166212 0.655809 0.104534
Si Si6 0.891787 0.918099 0.112164
Si Si7 0.500000 0.087727 0.500000
Si Si8 0.011388 0.962405 0.700388
O O1 0.235891 0.728833 0.057022
O O2 0.347574 0.618799 0.130926
O O3 0.286723 0.965628 0.226639
O O4 0.337541 0.931962 0.970631
O O5 0.153872 0.244610 0.410906
O O6 0.056905 0.430702 0.488159
O O7 0.952648 0.105990 0.677656
O O8 0.063617 0.057179 0.583416
O O9 0.257174 0.366355 0.318083
O O10 0.365677 0.249983 0.231579
O O11 0.305020 0.089242 0.475028
O O12 0.163405 0.608848 0.269799
O O13 0.119711 0.814077 0.038648
O O14 0.959650 0.965606 0.151887
O O15 0.498089 0.234678 0.637682
#
# Coordination Sequence:
#
# PCOD9129258 Si02
#       8
#     4   4   4   4   4   4   2   4
#     4  11  20  42  58  86 119 169 206 244 300 377
#     4   9  20  36  60  86 128 153 197 265 310 358
#     4  11  25  36  61  92 131 158 204 255 308 381
#     4  12  23  40  56  99 131 162 192 259 328 357
#     4  11  22  37  60  86 126 164 203 244 310 375
#     4  11  22  39  65  89 119 165 216 250 293 378
#     4   8  16  38  62  86 114 154 206 254 302 362
#     4   9  19  37  61  90 110 165 213 250 299 361
#
# _framework density 22.719878000000001
#
# number of rings (size 3 to 8) (size 9 to 14) (size 15 to 20)
#    0.000    1.867    2.667    3.200    1.867    3.200 
#    4.800    0.000    0.000    4.800    0.000    1.867 
#    0.000    0.000    0.000    0.000    0.000    0.000 
#
# Total GULP energy -83830.546124 kJ/mol
# GULP energy per Si atom -5588.703075 kJ/mol
# Density = 2.266817 g / cm^3
# Si number density = 22.719878 Si / 1000 Ang^3
#
#
#
# Elastic Constant Matrix: (Units=GPa)
#
#
# Indices 1 2 3 4 5 6 
#
# 1 32.4043 1.1497 11.5608 0.0000 16.6710 0.0000
# 2 1.1497 94.8280 33.8534 0.0000 17.9296 0.0000
# 3 11.5608 33.8534 121.7270 0.0000 25.7520 0.0000
# 4 0.0000 0.0000 0.0000 35.2622 0.0000 11.4688
# 5 16.6710 17.9296 25.7520 0.0000 35.2216 0.0000
# 6 0.0000 0.0000 0.0000 11.4688 0.0000 16.2399
#
#
#
# Elastic Compliance Matrix: (Units=1/GPa)
#
#
# Indices 1 2 3 4 5 6 
#
# 1 0.041890 0.003705 -0.000491 0.000000 -0.021354 0.000000
# 2 0.003705 0.012595 -0.002516 0.000000 -0.006325 0.000000
# 3 -0.000491 -0.002516 0.010223 0.000000 -0.005961 0.000000
# 4 0.000000 0.000000 0.000000 0.036815 0.000000 -0.025999
# 5 -0.021354 -0.006325 -0.005961 0.000000 0.046077 0.000000
# 6 0.000000 0.000000 0.000000 -0.025999 0.000000 0.079938
#
#
# Mechanical properties :
#
#
# Convention : Reuss Voigt Hill
#
# Bulk Modulus (GPa) = 15.12819 38.00968 26.56893
# Shear Modulus (GPa) = 20.14699 30.83777 25.49238
#
# Velocity S-wave (km/s) = 2.98108 3.68816 3.35331
# Velocity P-wave (km/s) = 4.30373 5.90785 5.16840
#
# Compressibility (1/GPa) = 0.06610177
#
# Stress axis : x y z
#
# Youngs Moduli (GPa) = 23.87215 79.39789 97.82226
#
# Poissons Ratio (x) = -0.29417 0.04806
# Poissons Ratio (y) = -0.08845 0.24617
# Poissons Ratio (z) = 0.01173 0.19980
#
# Static dielectric constant tensor:
#      x y z
#    x 1.894170 0.000000 0.005130 
#    y 0.000000 1.823020 0.000000 
#    z 0.005130 0.000000 1.855830 
# 
# From -- ./inp_files/32155.got.cif
#   From: 2010.05.17/outbox.cif.g08.bks.cpg/sg5_17_cif.got.tgz:32155.got - 2010.06.03 18:56:24.
