data_PCOD9129949
_publ_section_title
;
Structure prediction by ZEFSAII (Michael W. Deem and Ramdas Pophale) SiO2 
 PCOD9129949
Probable space group: C 2
;
_chemical_formula_sum "Si O2"
_cell_formula_units_Z 24
_cell_length_a 9.530787
_cell_length_b 9.714696
_cell_length_c 13.549046
_cell_angle_alpha 90.000000
_cell_angle_beta 80.250600
_cell_angle_gamma 90.000000
_cell_volume 1236.370999
_symmetry_space_group_name_H-M "C 2"
_symmetry_group_IT_number 5
_symmetry_cell_setting 'monoclinic'
loop_
_space_group_symop_operation_xyz
x,y,z
-x,y,-z
1/2+x,1/2+y,z
1/2-x,1/2+y,-z
loop_
_atom_site_type_symbol
_atom_site_label
_atom_site_fract_x
_atom_site_fract_y
_atom_site_fract_z
Si Si1 0.884548 0.315270 0.426608
Si Si2 0.859679 0.934121 0.231081
Si Si3 0.356689 0.498091 0.453187
Si Si4 0.568223 0.639066 0.098718
Si Si5 0.459427 0.921576 0.787388
Si Si6 0.392557 0.153220 0.104301
O O1 0.764596 0.425024 0.468809
O O2 0.962154 0.358455 0.316969
O O3 0.000000 0.318564 0.500000
O O4 0.826843 0.158448 0.430766
O O5 0.870717 0.918775 0.347519
O O6 0.697021 0.975183 0.224813
O O7 0.883289 0.794828 0.166576
O O8 0.976568 0.044524 0.183140
O O9 0.500000 0.494168 0.500000
O O10 0.555471 0.797098 0.133472
O O11 0.736433 0.609209 0.084149
O O12 0.500000 0.617959 0.000000
O O13 0.549182 0.039847 0.827785
O O14 0.500000 0.168109 0.000000
#
# Coordination Sequence:
#
# PCOD9129949 Si02
#       6
#     4   4   4   4   4   4
#     4  11  24  44  66  95 136 172 214 270 323 388
#     4  11  24  44  66  99 132 171 216 272 324 384
#     4  11  26  42  67  99 134 172 219 265 327 384
#     4  11  24  44  67  92 132 170 216 275 329 383
#     4  11  24  42  69  96 130 174 219 264 327 388
#     4  11  26  43  67  99 130 170 222 270 324 392
#
# _framework density 19.411649000000001
#
# number of rings (size 3 to 8) (size 9 to 14) (size 15 to 20)
#    0.000    1.000    3.333    2.000    4.667    7.333 
#    0.000    0.000    0.000    0.000    0.000    0.000 
#    0.000    0.000    0.000    0.000    0.000    0.000 
#
# Total GULP energy -67092.545580 kJ/mol
# GULP energy per Si atom -5591.045465 kJ/mol
# Density = 1.936747 g / cm^3
# Si number density = 19.411649 Si / 1000 Ang^3
#
#
#
# Elastic Constant Matrix: (Units=GPa)
#
#
# Indices 1 2 3 4 5 6 
#
# 1 140.5003 54.9115 42.9118 0.0000 -4.9731 0.0000
# 2 54.9115 73.0010 12.9513 0.0000 -1.6883 0.0000
# 3 42.9118 12.9513 90.2777 0.0000 1.5051 0.0000
# 4 0.0000 0.0000 0.0000 25.2456 0.0000 4.5131
# 5 -4.9731 -1.6883 1.5051 0.0000 36.9575 0.0000
# 6 0.0000 0.0000 0.0000 4.5131 0.0000 2.6231
#
#
#
# Elastic Compliance Matrix: (Units=1/GPa)
#
#
# Indices 1 2 3 4 5 6 
#
# 1 0.011605 -0.007916 -0.004404 0.000000 0.001379 0.000000
# 2 -0.007916 0.019476 0.000972 0.000000 -0.000215 0.000000
# 3 -0.004404 0.000972 0.013049 0.000000 -0.001080 0.000000
# 4 0.000000 0.000000 0.000000 0.057206 0.000000 -0.098425
# 5 0.001379 -0.000215 -0.001080 0.000000 0.027278 0.000000
# 6 0.000000 0.000000 0.000000 -0.098425 0.000000 0.550578
#
#
# Mechanical properties :
#
#
# Convention : Reuss Voigt Hill
#
# Bulk Modulus (GPa) = 46.65382 58.36980 52.51181
# Shear Modulus (GPa) = 7.05188 25.83219 16.44204
#
# Velocity S-wave (km/s) = 1.90806 3.65191 2.91352
# Velocity P-wave (km/s) = 5.37963 6.92219 6.19907
#
# Compressibility (1/GPa) = 0.02143447
#
# Stress axis : x y z
#
# Youngs Moduli (GPa) = 86.16931 51.34650 76.63671
#
# Poissons Ratio (x) = 0.40647 0.33748
# Poissons Ratio (y) = 0.68213 -0.07452
# Poissons Ratio (z) = 0.37945 -0.04993
#
# Static dielectric constant tensor:
#      x y z
#    x 1.662180 0.000000 -0.012070 
#    y 0.000000 1.662790 0.000000 
#    z -0.012070 0.000000 1.658780 
# 
# From -- ./inp_files/49866.got.cif
#   From: 2010.05.17/outbox.cif.g08.bks.cpg/sg5_25_cif.got.tgz:49866.got - 2010.06.03 18:56:24.
