data_PCOD9129142
_publ_section_title
;
Structure prediction by ZEFSAII (Michael W. Deem and Ramdas Pophale) SiO2 
 PCOD9129142
Probable space group: C 2
;
_chemical_formula_sum "Si O2"
_cell_formula_units_Z 26
_cell_length_a 9.935275
_cell_length_b 9.732105
_cell_length_c 11.906408
_cell_angle_alpha 90.000000
_cell_angle_beta 112.662390
_cell_angle_gamma 90.000000
_cell_volume 1062.357985
_symmetry_space_group_name_H-M "C 2"
_symmetry_group_IT_number 5
_symmetry_cell_setting 'monoclinic'
loop_
_space_group_symop_operation_xyz
x,y,z
-x,y,-z
1/2+x,1/2+y,z
1/2-x,1/2+y,-z
loop_
_atom_site_type_symbol
_atom_site_label
_atom_site_fract_x
_atom_site_fract_y
_atom_site_fract_z
Si Si1 0.964654 0.427230 0.289947
Si Si2 0.084923 0.230967 0.146266
Si Si3 0.331954 0.118577 0.915327
Si Si4 0.173913 0.845938 0.917417
Si Si5 0.134944 0.939628 0.246577
Si Si6 0.500000 0.710122 0.500000
Si Si7 0.311636 0.163128 0.644662
O O1 0.792294 0.453144 0.239051
O O2 0.992659 0.310296 0.391101
O O3 0.020480 0.361699 0.191411
O O4 0.058235 0.563114 0.350419
O O5 0.250448 0.269626 0.163597
O O6 0.713434 0.255594 0.035971
O O7 0.081375 0.097986 0.226314
O O8 0.299906 0.133692 0.774345
O O9 0.242518 0.994875 0.939207
O O10 0.500000 0.094837 0.000000
O O11 0.000766 0.863104 0.856479
O O12 0.500000 0.707719 0.000000
O O13 0.161096 0.828697 0.356106
O O14 0.652881 0.629527 0.543507
#
# Coordination Sequence:
#
# PCOD9129142 Si02
#       7
#     4   4   4   4   4   2   4
#     4  11  27  55  74 111 151 197 256 317 379 444
#     4  12  28  42  72 114 160 199 247 302 379 459
#     4  12  27  44  73 112 159 196 245 306 382 457
#     4  12  27  42  70 114 151 206 237 297 375 459
#     4  11  27  44  72 109 156 200 245 297 374 454
#     4  10  28  48  82 106 142 202 258 328 370 436
#     4  11  25  52  76 105 149 196 253 317 377 437
#
# _framework density 24.473858
#
# number of rings (size 3 to 8) (size 9 to 14) (size 15 to 20)
#    0.000    0.615    3.077    2.308   12.923    2.462 
#    0.000    0.000    0.000    0.923    0.000    0.000 
#    0.000    0.000    0.000    0.000    0.000    0.000 
#
# Total GULP energy -72741.130471 kJ/mol
# GULP energy per Si atom -5595.471575 kJ/mol
# Density = 2.441815 g / cm^3
# Si number density = 24.473858 Si / 1000 Ang^3
#
#
#
# Elastic Constant Matrix: (Units=GPa)
#
#
# Indices 1 2 3 4 5 6 
#
# 1 118.2813 44.8208 28.8325 0.0000 30.8917 0.0000
# 2 44.8208 132.7661 15.7787 0.0000 27.5143 0.0000
# 3 28.8325 15.7787 70.8219 0.0000 23.1769 0.0000
# 4 0.0000 0.0000 0.0000 25.3076 0.0000 11.4776
# 5 30.8917 27.5143 23.1769 0.0000 41.7651 0.0000
# 6 0.0000 0.0000 0.0000 11.4776 0.0000 52.0762
#
#
#
# Elastic Compliance Matrix: (Units=1/GPa)
#
#
# Indices 1 2 3 4 5 6 
#
# 1 0.011377 -0.002418 -0.002273 0.000000 -0.005560 0.000000
# 2 -0.002418 0.009237 0.000406 0.000000 -0.004522 0.000000
# 3 -0.002273 0.000406 0.017708 0.000000 -0.008413 0.000000
# 4 0.000000 0.000000 0.000000 0.043902 0.000000 -0.009676
# 5 -0.005560 -0.004522 -0.008413 0.000000 0.035704 0.000000
# 6 0.000000 0.000000 0.000000 -0.009676 0.000000 0.021335
#
#
# Mechanical properties :
#
#
# Convention : Reuss Voigt Hill
#
# Bulk Modulus (GPa) = 33.61087 55.63704 44.62395
# Shear Modulus (GPa) = 31.69529 39.32559 35.51044
#
# Velocity S-wave (km/s) = 3.60261 4.01289 3.81327
# Velocity P-wave (km/s) = 5.57389 6.65234 6.13685
#
# Compressibility (1/GPa) = 0.02975228
#
# Stress axis : x y z
#
# Youngs Moduli (GPa) = 87.89513 108.25630 56.47122
#
# Poissons Ratio (x) = 0.26180 0.12838
# Poissons Ratio (y) = 0.21256 -0.02295
# Poissons Ratio (z) = 0.19981 -0.04400
#
# Static dielectric constant tensor:
#      x y z
#    x 1.984870 0.000000 0.018000 
#    y 0.000000 1.976030 0.000000 
#    z 0.018000 0.000000 1.939410 
# 
# From -- ./inp_files/50224.got.cif
#   From: 2010.05.17/outbox.cif.g08.bks.cpg/sg5_26_cif.got.tgz:50224.got - 2010.06.03 18:56:24.
