data_PCOD9129267
_publ_section_title
;
Structure prediction by ZEFSAII (Michael W. Deem and Ramdas Pophale) SiO2 
 PCOD9129267
Probable space group: C 2
;
_chemical_formula_sum "Si O2"
_cell_formula_units_Z 18
_cell_length_a 16.831900
_cell_length_b 6.417758
_cell_length_c 8.720555
_cell_angle_alpha 90.000000
_cell_angle_beta 127.554850
_cell_angle_gamma 90.000000
_cell_volume 746.806213
_symmetry_space_group_name_H-M "C 2"
_symmetry_group_IT_number 5
_symmetry_cell_setting 'monoclinic'
loop_
_space_group_symop_operation_xyz
x,y,z
-x,y,-z
1/2+x,1/2+y,z
1/2-x,1/2+y,-z
loop_
_atom_site_type_symbol
_atom_site_label
_atom_site_fract_x
_atom_site_fract_y
_atom_site_fract_z
Si Si1 0.346257 0.010780 0.969428
Si Si2 0.608278 0.503777 0.409642
Si Si3 0.739766 0.854210 0.648199
Si Si4 0.156761 0.733640 0.737277
Si Si5 0.500000 0.685980 0.000000
O O1 0.391889 0.118286 0.174724
O O2 0.315806 0.197171 0.820498
O O3 0.240995 0.899673 0.891792
O O4 0.414858 0.840901 0.966132
O O5 0.636072 0.732026 0.504352
O O6 0.710932 0.420290 0.453156
O O7 0.591782 0.352850 0.532801
O O8 0.533473 0.540889 0.181482
O O9 0.718069 0.056343 0.720417
#
# Coordination Sequence:
#
# PCOD9129267 Si02
#       5
#     4   4   4   4   2
#     4  11  24  43  77 104 142 180 247 292 360 417
#     4  11  23  41  73 104 144 179 247 287 359 417
#     4  11  20  42  74 100 127 196 241 284 335 447
#     4  11  22  43  77 104 133 195 243 292 335 447
#     4  12  26  46  72 112 150 188 226 310 364 418
#
# _framework density 24.102639
#
# number of rings (size 3 to 8) (size 9 to 14) (size 15 to 20)
#    0.000    0.889    6.667    1.333    0.000    0.889 
#    0.000    1.111    9.778    0.000    0.000    0.000 
#    0.000    0.000    0.000    0.000    0.000    0.000 
#
# Total GULP energy -50357.465276 kJ/mol
# GULP energy per Si atom -5595.273920 kJ/mol
# Density = 2.404778 g / cm^3
# Si number density = 24.102639 Si / 1000 Ang^3
#
#
#
# Elastic Constant Matrix: (Units=GPa)
#
#
# Indices 1 2 3 4 5 6 
#
# 1 73.7599 23.1089 30.2807 0.0000 -13.7260 0.0000
# 2 23.1089 118.9896 70.5279 0.0000 -5.3188 0.0000
# 3 30.2807 70.5279 183.0607 0.0000 -16.1995 0.0000
# 4 0.0000 0.0000 0.0000 45.4415 0.0000 -20.5696
# 5 -13.7260 -5.3188 -16.1995 0.0000 27.5838 0.0000
# 6 0.0000 0.0000 0.0000 -20.5696 0.0000 18.3863
#
#
#
# Elastic Compliance Matrix: (Units=1/GPa)
#
#
# Indices 1 2 3 4 5 6 
#
# 1 0.015985 -0.002061 -0.001246 0.000000 0.006825 0.000000
# 2 -0.002061 0.011161 -0.004071 0.000000 -0.001264 0.000000
# 3 -0.001246 -0.004071 0.007503 0.000000 0.003001 0.000000
# 4 0.000000 0.000000 0.000000 0.044584 0.000000 0.049878
# 5 0.006825 -0.001264 0.003001 0.000000 0.041168 0.000000
# 6 0.000000 0.000000 0.000000 0.049878 0.000000 0.110189
#
#
# Mechanical properties :
#
#
# Convention : Reuss Voigt Hill
#
# Bulk Modulus (GPa) = 50.26968 69.29393 59.78180
# Shear Modulus (GPa) = 19.84311 35.07518 27.45914
#
# Velocity S-wave (km/s) = 2.87239 3.81890 3.37895
# Velocity P-wave (km/s) = 5.64824 6.94675 6.33087
#
# Compressibility (1/GPa) = 0.01989271
#
# Stress axis : x y z
#
# Youngs Moduli (GPa) = 62.55949 89.60008 133.28379
#
# Poissons Ratio (x) = 0.18464 0.16610
# Poissons Ratio (y) = 0.12891 0.54258
# Poissons Ratio (z) = 0.07796 0.36475
#
# Static dielectric constant tensor:
#      x y z
#    x 1.905730 0.000000 0.013410 
#    y 0.000000 1.872060 0.000000 
#    z 0.013410 0.000000 1.956220 
# 
# From -- ./inp_files/25826.got.cif
#   From: 2010.05.17/outbox.cif.g08.bks.cpg/sg5_13_cif.got.tgz:25826.got - 2010.06.03 18:56:24.
