data_PCOD9129323
_publ_section_title
;
Structure prediction by ZEFSAII (Michael W. Deem and Ramdas Pophale) SiO2 
 PCOD9129323
Probable space group: C 2
;
_chemical_formula_sum "Si O2"
_cell_formula_units_Z 28
_cell_length_a 27.123547
_cell_length_b 5.542346
_cell_length_c 8.960545
_cell_angle_alpha 90.000000
_cell_angle_beta 124.404285
_cell_angle_gamma 90.000000
_cell_volume 1111.388742
_symmetry_space_group_name_H-M "C 2"
_symmetry_group_IT_number 5
_symmetry_cell_setting 'monoclinic'
loop_
_space_group_symop_operation_xyz
x,y,z
-x,y,-z
1/2+x,1/2+y,z
1/2-x,1/2+y,-z
loop_
_atom_site_type_symbol
_atom_site_label
_atom_site_fract_x
_atom_site_fract_y
_atom_site_fract_z
Si Si1 0.813247 0.563010 0.921197
Si Si2 0.297161 0.669082 0.681550
Si Si3 0.962917 0.688141 0.779609
Si Si4 0.998456 0.185804 0.316077
Si Si5 0.372680 0.470266 0.078804
Si Si6 0.163130 0.481269 0.474147
Si Si7 0.186493 0.240412 0.796948
O O1 0.808871 0.443040 0.755299
O O2 0.752670 0.708510 0.848233
O O3 0.876071 0.684117 0.066707
O O4 0.806323 0.350171 0.027297
O O5 0.227387 0.614449 0.573333
O O6 0.325864 0.705542 0.569466
O O7 0.332894 0.510549 0.860348
O O8 0.983009 0.442325 0.724988
O O9 0.892559 0.630091 0.682976
O O10 0.970105 0.942891 0.701044
O O11 0.000000 0.705517 0.000000
O O12 0.929747 0.130830 0.159200
O O13 0.000000 0.189741 0.500000
O O14 0.346963 0.501927 0.203713
O O15 0.151949 0.418455 0.629580
#
# Coordination Sequence:
#
# PCOD9129323 Si02
#       7
#     4   4   4   4   4   4   4
#     4  11  21  40  65 103 144 179 231 287 389 441
#     4  11  26  43  68 109 140 193 234 308 388 455
#     4  12  30  54  78 113 158 215 263 326 392 471
#     4  12  29  52  82 114 153 210 276 324 385 455
#     4  11  25  43  75  99 149 188 244 309 376 460
#     4  12  26  45  73 104 153 183 256 307 381 458
#     4  11  21  39  65 107 139 182 230 299 373 442
#
# _framework density 25.193705999999999
#
# number of rings (size 3 to 8) (size 9 to 14) (size 15 to 20)
#    0.000    0.571    2.857    4.286    8.000    2.286 
#    0.000    0.000    0.000    0.000    0.000    0.000 
#    0.000    0.000    0.000    0.000    0.000    0.000 
#
# Total GULP energy -78100.306937 kJ/mol
# GULP energy per Si atom -5578.593353 kJ/mol
# Density = 2.513636 g / cm^3
# Si number density = 25.193706 Si / 1000 Ang^3
#
#
#
# Elastic Constant Matrix: (Units=GPa)
#
#
# Indices 1 2 3 4 5 6 
#
# 1 87.6929 25.5700 18.6105 0.0000 5.0748 0.0000
# 2 25.5700 95.9834 3.4751 0.0000 -15.5764 0.0000
# 3 18.6105 3.4751 86.3619 0.0000 1.2791 0.0000
# 4 0.0000 0.0000 0.0000 20.6937 0.0000 -4.1664
# 5 5.0748 -15.5764 1.2791 0.0000 33.3836 0.0000
# 6 0.0000 0.0000 0.0000 -4.1664 0.0000 29.0663
#
#
#
# Elastic Compliance Matrix: (Units=1/GPa)
#
#
# Indices 1 2 3 4 5 6 
#
# 1 0.013384 -0.004093 -0.002663 0.000000 -0.003842 0.000000
# 2 -0.004093 0.012548 0.000281 0.000000 0.006466 0.000000
# 3 -0.002663 0.000281 0.012141 0.000000 0.000071 0.000000
# 4 0.000000 0.000000 0.000000 0.049760 0.000000 0.007133
# 5 -0.003842 0.006466 0.000071 0.000000 0.033553 0.000000
# 6 0.000000 0.000000 0.000000 0.007133 0.000000 0.035427
#
#
# Mechanical properties :
#
#
# Convention : Reuss Voigt Hill
#
# Bulk Modulus (GPa) = 39.80156 40.59438 40.19797
# Shear Modulus (GPa) = 28.06857 31.45423 29.76140
#
# Velocity S-wave (km/s) = 3.34145 3.53724 3.44074
# Velocity P-wave (km/s) = 5.54252 5.72980 5.63694
#
# Compressibility (1/GPa) = 0.02512464
#
# Stress axis : x y z
#
# Youngs Moduli (GPa) = 74.71491 79.69457 82.36826
#
# Poissons Ratio (x) = 0.32616 0.21932
# Poissons Ratio (y) = 0.30578 -0.02317
# Poissons Ratio (z) = 0.19894 -0.02242
#
# Static dielectric constant tensor:
#      x y z
#    x 3.651590 0.000000 0.097080 
#    y 0.000000 2.423190 0.000000 
#    z 0.097080 0.000000 1.994840 
# 
# From -- ./inp_files/32336.got.cif
#   From: 2010.05.17/outbox.cif.g08.bks.cpg/sg5_17_cif.got.tgz:32336.got - 2010.06.03 18:56:24.
