data_PCOD9129228
_publ_section_title
;
Structure prediction by ZEFSAII (Michael W. Deem and Ramdas Pophale) SiO2 
 PCOD9129228
Probable space group: C 2
;
_chemical_formula_sum "Si O2"
_cell_formula_units_Z 30
_cell_length_a 20.854538
_cell_length_b 6.634122
_cell_length_c 18.101676
_cell_angle_alpha 90.000000
_cell_angle_beta 141.523853
_cell_angle_gamma 90.000000
_cell_volume 1558.206401
_symmetry_space_group_name_H-M "C 2"
_symmetry_group_IT_number 5
_symmetry_cell_setting 'monoclinic'
loop_
_space_group_symop_operation_xyz
x,y,z
-x,y,-z
1/2+x,1/2+y,z
1/2-x,1/2+y,-z
loop_
_atom_site_type_symbol
_atom_site_label
_atom_site_fract_x
_atom_site_fract_y
_atom_site_fract_z
Si Si1 0.395075 0.410360 0.645248
Si Si2 0.708308 0.380254 0.230909
Si Si3 0.279377 0.500688 0.921126
Si Si4 0.859941 0.221916 0.742557
Si Si5 0.500000 0.206645 0.000000
Si Si6 0.104200 0.683291 0.864449
Si Si7 0.740810 0.614564 0.588526
Si Si8 0.929381 0.376864 0.037575
O O1 0.398985 0.575484 0.713445
O O2 0.501754 0.289279 0.740640
O O3 0.362229 0.529822 0.542130
O O4 0.302385 0.260727 0.587372
O O5 0.741288 0.390439 0.175581
O O6 0.718328 0.599361 0.277009
O O7 0.583608 0.333211 0.121678
O O8 0.764221 0.227721 0.337238
O O9 0.180467 0.596936 0.871354
O O10 0.336211 0.347026 0.029431
O O11 0.351659 0.692084 0.966752
O O12 0.810610 0.420137 0.664983
O O13 0.958513 0.288718 0.877037
O O14 0.423166 0.064437 0.976720
O O15 0.073511 0.490191 0.886346
#
# Coordination Sequence:
#
# PCOD9129228 Si02
#       8
#     4   4   4   4   2   4   4   4
#     4  11  22  39  65 100 126 163 223 263 325 396
#     4  11  24  37  58  98 135 166 213 262 340 398
#     4  12  25  41  61  95 134 173 217 265 324 402
#     4  11  20  37  61  95 128 160 200 273 330 374
#     4  12  20  36  60  94 134 158 198 272 328 404
#     4  12  24  41  64  96 127 175 223 264 319 394
#     4  11  22  38  64  99 130 165 210 280 333 382
#     4  12  21  36  62  93 131 165 205 261 332 380
#
# _framework density 19.252904000000001
#
# number of rings (size 3 to 8) (size 9 to 14) (size 15 to 20)
#    0.000    0.533    8.000    2.400    0.000    0.000 
#    0.000    0.000    0.000    0.800    6.933    0.000 
#    0.000    0.000    0.000    0.000    0.000    0.000 
#
# Total GULP energy -83723.693754 kJ/mol
# GULP energy per Si atom -5581.579584 kJ/mol
# Density = 1.920908 g / cm^3
# Si number density = 19.252904 Si / 1000 Ang^3
#
#
#
# Elastic Constant Matrix: (Units=GPa)
#
#
# Indices 1 2 3 4 5 6 
#
# 1 91.1186 30.6089 43.1603 0.0000 -13.8032 0.0000
# 2 30.6089 91.0484 31.0874 0.0000 -12.4583 0.0000
# 3 43.1603 31.0874 91.9153 0.0000 -21.1792 0.0000
# 4 0.0000 0.0000 0.0000 31.2380 0.0000 -1.6227
# 5 -13.8032 -12.4583 -21.1792 0.0000 21.6900 0.0000
# 6 0.0000 0.0000 0.0000 -1.6227 0.0000 28.3096
#
#
#
# Elastic Compliance Matrix: (Units=1/GPa)
#
#
# Indices 1 2 3 4 5 6 
#
# 1 0.014883 -0.002792 -0.005460 0.000000 0.002536 0.000000
# 2 -0.002792 0.013204 -0.002344 0.000000 0.003518 0.000000
# 3 -0.005460 -0.002344 0.016936 0.000000 0.011716 0.000000
# 4 0.000000 0.000000 0.000000 0.032108 0.000000 0.001840
# 5 0.002536 0.003518 0.011716 0.000000 0.061179 0.000000
# 6 0.000000 0.000000 0.000000 0.001840 0.000000 0.035429
#
#
# Mechanical properties :
#
#
# Convention : Reuss Voigt Hill
#
# Bulk Modulus (GPa) = 41.96284 53.75505 47.85895
# Shear Modulus (GPa) = 24.64585 27.52923 26.08754
#
# Velocity S-wave (km/s) = 3.58175 3.78547 3.68502
# Velocity P-wave (km/s) = 6.24084 6.86203 6.55879
#
# Compressibility (1/GPa) = 0.02383061
#
# Stress axis : x y z
#
# Youngs Moduli (GPa) = 67.19055 75.73718 59.04698
#
# Poissons Ratio (x) = 0.21147 0.32238
# Poissons Ratio (y) = 0.18761 0.13840
# Poissons Ratio (z) = 0.36684 0.17752
#
# Static dielectric constant tensor:
#      x y z
#    x 1.699460 0.000000 -0.033300 
#    y 0.000000 1.698020 0.000000 
#    z -0.033300 0.000000 1.698640 
# 
# From -- ./inp_files/45662.got.cif
#   From: 2010.05.17/outbox.cif.g08.bks.cpg/sg5_23_cif.got.tgz:45662.got - 2010.06.03 18:56:24.
