data_PCOD9129474
_publ_section_title
;
Structure prediction by ZEFSAII (Michael W. Deem and Ramdas Pophale) SiO2 
 PCOD9129474
Probable space group: C 2
;
_chemical_formula_sum "Si O2"
_cell_formula_units_Z 22
_cell_length_a 13.427455
_cell_length_b 5.735316
_cell_length_c 11.889381
_cell_angle_alpha 90.000000
_cell_angle_beta 55.734422
_cell_angle_gamma 90.000000
_cell_volume 756.693312
_symmetry_space_group_name_H-M "C 2"
_symmetry_group_IT_number 5
_symmetry_cell_setting 'monoclinic'
loop_
_space_group_symop_operation_xyz
x,y,z
-x,y,-z
1/2+x,1/2+y,z
1/2-x,1/2+y,-z
loop_
_atom_site_type_symbol
_atom_site_label
_atom_site_fract_x
_atom_site_fract_y
_atom_site_fract_z
Si Si1 0.616664 0.427030 0.120778
Si Si2 0.500000 0.128500 0.000000
Si Si3 0.338304 0.783273 0.577313
Si Si4 0.161049 0.783663 0.506249
Si Si5 0.710779 0.015280 0.173273
Si Si6 0.897256 0.234431 0.208670
O O1 0.747444 0.476283 0.981716
O O2 0.523254 0.644256 0.180209
O O3 0.411342 0.959345 0.123034
O O4 0.633051 0.255514 0.217471
O O5 0.443117 0.268886 0.935918
O O6 0.335752 0.562468 0.158584
O O7 0.201256 0.787037 0.611206
O O8 0.391144 0.031403 0.495979
O O9 0.341401 0.817659 0.710454
O O10 0.388988 0.533458 0.503041
O O11 0.293337 0.777915 0.364173
#
# Coordination Sequence:
#
# PCOD9129474 Si02
#       6
#     4   2   4   4   4   4
#     4  12  24  39  61 102 134 183 224 280 354 412
#     4  12  20  40  60  90 140 178 224 278 348 408
#     4   9  19  38  63 101 127 174 233 278 337 409
#     4   9  19  36  67  97 130 174 228 284 336 404
#     4  11  22  41  63  97 137 172 233 281 343 415
#     4  11  22  40  62  98 135 176 229 283 342 415
#
# _framework density 29.073865999999999
#
# number of rings (size 3 to 8) (size 9 to 14) (size 15 to 20)
#    0.000    1.455    3.636    2.182    2.545    1.455 
#    0.000    0.000    0.000    1.091   18.909    0.000 
#    0.000    0.000    0.000    0.000    0.000    0.000 
#
# Total GULP energy -61485.692052 kJ/mol
# GULP energy per Si atom -5589.608368 kJ/mol
# Density = 2.900769 g / cm^3
# Si number density = 29.073866 Si / 1000 Ang^3
#
#
#
# Elastic Constant Matrix: (Units=GPa)
#
#
# Indices 1 2 3 4 5 6 
#
# 1 153.3149 33.9552 20.1104 0.0000 -5.8002 -0.0002
# 2 33.9552 173.1143 22.0259 -0.0012 0.1467 0.0017
# 3 20.1104 22.0259 96.6615 0.0000 16.1459 0.0001
# 4 0.0000 -0.0012 0.0000 46.3158 0.0001 13.9526
# 5 -5.8002 0.1467 16.1459 0.0001 33.6537 -0.0001
# 6 -0.0002 0.0017 0.0001 13.9526 -0.0001 61.1594
#
#
#
# Elastic Compliance Matrix: (Units=1/GPa)
#
#
# Indices 1 2 3 4 5 6 
#
# 1 0.007060 -0.001193 -0.001523 0.000000 0.001953 0.000000
# 2 -0.001193 0.006165 -0.001215 0.000000 0.000351 0.000000
# 3 -0.001523 -0.001215 0.011939 0.000000 -0.005985 0.000000
# 4 0.000000 0.000000 0.000000 0.023184 0.000000 -0.005289
# 5 0.001953 0.000351 -0.005985 0.000000 0.032921 0.000000
# 6 0.000000 0.000000 0.000000 -0.005289 0.000000 0.017557
#
#
# Mechanical properties :
#
#
# Convention : Reuss Voigt Hill
#
# Bulk Modulus (GPa) = 57.79773 63.91930 60.85851
# Shear Modulus (GPa) = 44.46177 51.35906 47.91042
#
# Velocity S-wave (km/s) = 3.91483 4.20754 4.06382
# Velocity P-wave (km/s) = 6.35274 6.75554 6.55724
#
# Compressibility (1/GPa) = 0.01730172
#
# Stress axis : x y z
#
# Youngs Moduli (GPa) = 141.63566 162.21181 83.75962
#
# Poissons Ratio (x) = 0.19347 0.12759
# Poissons Ratio (y) = 0.16893 0.10178
# Poissons Ratio (z) = 0.21576 0.19711
#
# Static dielectric constant tensor:
#      x y z
#    x 2.225420 0.000000 0.077800 
#    y 0.000000 2.537950 0.000000 
#    z 0.077800 0.000000 2.367010 
# 
# From -- ./inp_files/66398.got.cif
#   From: 2010.05.17/outbox.cif.g08.bks.cpg/sg5_34_cif.got.tgz:66398.got - 2010.06.03 18:56:24.
