data_PCOD9129845
_publ_section_title
;
Structure prediction by ZEFSAII (Michael W. Deem and Ramdas Pophale) SiO2 
 PCOD9129845
Probable space group: C 2
;
_chemical_formula_sum "Si O2"
_cell_formula_units_Z 30
_cell_length_a 10.566561
_cell_length_b 10.819456
_cell_length_c 11.862830
_cell_angle_alpha 90.000000
_cell_angle_beta 79.343694
_cell_angle_gamma 90.000000
_cell_volume 1332.822333
_symmetry_space_group_name_H-M "C 2"
_symmetry_group_IT_number 5
_symmetry_cell_setting 'monoclinic'
loop_
_space_group_symop_operation_xyz
x,y,z
-x,y,-z
1/2+x,1/2+y,z
1/2-x,1/2+y,-z
loop_
_atom_site_type_symbol
_atom_site_label
_atom_site_fract_x
_atom_site_fract_y
_atom_site_fract_z
Si Si1 0.194285 0.737700 0.372331
Si Si2 0.500000 0.898750 0.500000
Si Si3 0.677735 0.095773 0.597815
Si Si4 0.017884 0.224381 0.696066
Si Si5 0.555554 0.114003 0.207089
Si Si6 0.086134 0.978573 0.310542
Si Si7 0.384131 0.360973 0.935547
Si Si8 0.900249 0.351311 0.915274
O O1 0.200767 0.700083 0.500716
O O2 0.337380 0.774966 0.308898
O O3 0.151952 0.626745 0.297338
O O4 0.088950 0.844129 0.367619
O O5 0.458118 0.806249 0.606150
O O6 0.606642 0.987268 0.538365
O O7 0.582671 0.134013 0.713634
O O8 0.804097 0.048575 0.637820
O O9 0.028243 0.078457 0.666694
O O10 0.929383 0.245850 0.818799
O O11 0.587595 0.222919 0.115306
O O12 0.565420 0.981365 0.149130
O O13 0.117450 0.947176 0.175296
O O14 0.500000 0.397297 0.000000
O O15 0.245857 0.358416 0.018147
O O16 0.000000 0.332116 0.000000
#
# Coordination Sequence:
#
# PCOD9129845 Si02
#       8
#     4   2   4   4   4   4   4   4
#     4  11  23  47  70 111 151 189 250 310 377 455
#     4  12  22  48  68 110 142 194 250 294 380 464
#     4  12  22  46  76 100 147 200 238 307 373 464
#     4  12  26  46  73 109 145 198 250 303 382 461
#     4  11  23  45  73 102 143 195 247 301 379 455
#     4  11  27  46  72 106 153 188 251 308 375 456
#     4  11  28  47  69 110 146 188 255 321 377 439
#     4  12  25  46  78 102 143 199 250 313 378 457
#
# _framework density 22.508626
#
# number of rings (size 3 to 8) (size 9 to 14) (size 15 to 20)
#    0.000    0.533    4.000    3.600    5.600    0.533 
#   14.400    0.000    0.000    0.000    0.000    0.000 
#    0.000    0.000    0.000    0.000    0.000    0.000 
#
# Total GULP energy -83899.961346 kJ/mol
# GULP energy per Si atom -5593.330756 kJ/mol
# Density = 2.245740 g / cm^3
# Si number density = 22.508626 Si / 1000 Ang^3
#
#
#
# Elastic Constant Matrix: (Units=GPa)
#
#
# Indices 1 2 3 4 5 6 
#
# 1 60.9824 -0.7407 35.3130 0.0000 13.5884 0.0000
# 2 -0.7407 84.1127 24.6383 0.0000 5.6951 0.0000
# 3 35.3130 24.6383 127.2912 0.0000 6.1040 0.0000
# 4 0.0000 0.0000 0.0000 20.2218 0.0000 5.6690
# 5 13.5884 5.6951 6.1040 0.0000 38.6906 0.0000
# 6 0.0000 0.0000 0.0000 5.6690 0.0000 31.8768
#
#
#
# Elastic Compliance Matrix: (Units=1/GPa)
#
#
# Indices 1 2 3 4 5 6 
#
# 1 0.021515 0.002450 -0.006109 0.000000 -0.006953 0.000000
# 2 0.002450 0.012967 -0.003080 0.000000 -0.002283 0.000000
# 3 -0.006109 -0.003080 0.010099 0.000000 0.001006 0.000000
# 4 0.000000 0.000000 0.000000 0.052046 0.000000 -0.009256
# 5 -0.006953 -0.002283 0.001006 0.000000 0.028465 0.000000
# 6 0.000000 0.000000 0.000000 -0.009256 0.000000 0.033017
#
#
# Mechanical properties :
#
#
# Convention : Reuss Voigt Hill
#
# Bulk Modulus (GPa) = 32.15264 43.42307 37.78785
# Shear Modulus (GPa) = 27.47912 32.36954 29.92433
#
# Velocity S-wave (km/s) = 3.49782 3.79634 3.65013
# Velocity P-wave (km/s) = 5.53431 6.20885 5.88126
#
# Compressibility (1/GPa) = 0.03110165
#
# Stress axis : x y z
#
# Youngs Moduli (GPa) = 46.47918 77.11778 99.02147
#
# Poissons Ratio (x) = -0.18892 0.60497
# Poissons Ratio (y) = -0.11387 0.30499
# Poissons Ratio (z) = 0.28396 0.23753
#
# Static dielectric constant tensor:
#      x y z
#    x 1.825140 0.000000 0.013370 
#    y 0.000000 1.892540 0.000000 
#    z 0.013370 0.000000 1.823330 
# 
# From -- ./inp_files/39175.got.cif
#   From: 2010.05.17/outbox.cif.g08.bks.cpg/sg5_20_cif.got.tgz:39175.got - 2010.06.03 18:56:24.
