data_PCOD9129707
_publ_section_title
;
Structure prediction by ZEFSAII (Michael W. Deem and Ramdas Pophale) SiO2 
 PCOD9129707
Probable space group: C 2
;
_chemical_formula_sum "Si O2"
_cell_formula_units_Z 32
_cell_length_a 22.993807
_cell_length_b 11.372390
_cell_length_c 5.951616
_cell_angle_alpha 90.000000
_cell_angle_beta 113.317411
_cell_angle_gamma 90.000000
_cell_volume 1429.204833
_symmetry_space_group_name_H-M "C 2"
_symmetry_group_IT_number 5
_symmetry_cell_setting 'monoclinic'
loop_
_space_group_symop_operation_xyz
x,y,z
-x,y,-z
1/2+x,1/2+y,z
1/2-x,1/2+y,-z
loop_
_atom_site_type_symbol
_atom_site_label
_atom_site_fract_x
_atom_site_fract_y
_atom_site_fract_z
Si Si1 0.764094 0.810570 0.277529
Si Si2 0.865065 0.961694 0.512708
Si Si3 0.176590 0.654060 0.980637
Si Si4 0.307497 0.692942 0.450406
Si Si5 0.532258 0.766793 0.806162
Si Si6 0.847802 0.396703 0.189785
Si Si7 0.568143 0.278906 0.094257
Si Si8 0.557717 0.501974 0.762936
O O1 0.797950 0.907971 0.479919
O O2 0.816304 0.750036 0.203516
O O3 0.727139 0.720279 0.372040
O O4 0.715711 0.872591 0.042739
O O5 0.911444 0.857361 0.659635
O O6 0.861530 0.096384 0.586138
O O7 0.876734 0.988616 0.269984
O O8 0.151452 0.537756 0.814231
O O9 0.248489 0.649904 0.198363
O O10 0.125523 0.699104 0.087607
O O11 0.339040 0.811483 0.394011
O O12 0.500000 0.774631 0.500000
O O13 0.593524 0.847129 0.861818
O O14 0.551205 0.629747 0.859880
O O15 0.500000 0.798347 0.000000
O O16 0.500000 0.214921 0.000000
O O17 0.555406 0.388613 0.910832
O O18 0.500000 0.497729 0.500000
#
# Coordination Sequence:
#
# PCOD9129707 Si02
#       8
#     4   4   4   4   4   4   4   4
#     4  11  25  41  68  98 138 178 226 298 360 438
#     4  12  23  42  69 102 133 176 238 296 363 430
#     4  11  25  44  64 103 139 181 237 288 368 451
#     4  11  25  43  68 102 134 184 235 297 364 426
#     4  11  27  48  72 105 146 192 251 307 366 440
#     4  11  26  44  68  99 140 185 237 291 367 444
#     4  12  25  41  69 100 137 182 235 302 364 445
#     4  11  23  41  67 101 137 177 234 299 367 424
#
# _framework density 22.390070999999999
#
# number of rings (size 3 to 8) (size 9 to 14) (size 15 to 20)
#    0.000    0.750    6.250    0.375    7.000    0.500 
#    0.000    1.875    0.000    0.000    0.000    0.000 
#    0.000    0.000    0.000    0.000    0.000    0.000 
#
# Total GULP energy -89102.267255 kJ/mol
# GULP energy per Si atom -5568.891703 kJ/mol
# Density = 2.233911 g / cm^3
# Si number density = 22.390071 Si / 1000 Ang^3
#
#
#
# Elastic Constant Matrix: (Units=GPa)
#
#
# Indices 1 2 3 4 5 6 
#
# 1 119.5515 36.8760 13.0594 0.0000 -18.0743 0.0000
# 2 36.8760 81.5725 8.1545 0.0000 10.6827 0.0000
# 3 13.0594 8.1545 41.8354 0.0000 -1.0465 0.0000
# 4 0.0000 0.0000 0.0000 7.6708 0.0000 2.3519
# 5 -18.0743 10.6827 -1.0465 0.0000 27.1614 0.0000
# 6 0.0000 0.0000 0.0000 2.3519 0.0000 20.3413
#
#
#
# Elastic Compliance Matrix: (Units=1/GPa)
#
#
# Indices 1 2 3 4 5 6 
#
# 1 0.012324 -0.006756 -0.002261 0.000000 0.010771 0.000000
# 2 -0.006756 0.016928 -0.001471 0.000000 -0.011210 0.000000
# 3 -0.002261 -0.001471 0.024897 0.000000 0.000033 0.000000
# 4 0.000000 0.000000 0.000000 0.135156 0.000000 -0.015627
# 5 0.010771 -0.011210 0.000033 0.000000 0.048394 0.000000
# 6 0.000000 0.000000 0.000000 -0.015627 0.000000 0.050968
#
#
# Mechanical properties :
#
#
# Convention : Reuss Voigt Hill
#
# Bulk Modulus (GPa) = 30.14476 39.90434 35.02455
# Shear Modulus (GPa) = 15.59093 23.35934 19.47514
#
# Velocity S-wave (km/s) = 2.64167 3.23350 2.95246
# Velocity P-wave (km/s) = 4.77465 5.63931 5.22489
#
# Compressibility (1/GPa) = 0.03317326
#
# Stress axis : x y z
#
# Youngs Moduli (GPa) = 81.14450 59.07325 40.16622
#
# Poissons Ratio (x) = 0.39908 0.09081
# Poissons Ratio (y) = 0.54818 0.05909
# Poissons Ratio (z) = 0.18345 0.08691
#
# Static dielectric constant tensor:
#      x y z
#    x 1.935930 0.000000 0.058630 
#    y 0.000000 1.827440 0.000000 
#    z 0.058630 0.000000 1.969630 
# 
# From -- ./inp_files/10398.got.cif
#   From: 2010.05.17/outbox.cif.g08.bks.cpg/sg5_6_cif.got.tgz:10398.got - 2010.06.03 18:56:24.
