data_PCOD9129109
_publ_section_title
;
Structure prediction by ZEFSAII (Michael W. Deem and Ramdas Pophale) SiO2 
 PCOD9129109
Probable space group: C 2
;
_chemical_formula_sum "Si O2"
_cell_formula_units_Z 16
_cell_length_a 16.380216
_cell_length_b 7.883197
_cell_length_c 5.173230
_cell_angle_alpha 90.000000
_cell_angle_beta 111.336551
_cell_angle_gamma 90.000000
_cell_volume 622.225318
_symmetry_space_group_name_H-M "C 2"
_symmetry_group_IT_number 5
_symmetry_cell_setting 'monoclinic'
loop_
_space_group_symop_operation_xyz
x,y,z
-x,y,-z
1/2+x,1/2+y,z
1/2-x,1/2+y,-z
loop_
_atom_site_type_symbol
_atom_site_label
_atom_site_fract_x
_atom_site_fract_y
_atom_site_fract_z
Si Si1 0.906164 0.144670 0.992881
Si Si2 0.896534 0.448662 0.351813
Si Si3 0.733764 0.449059 0.486666
Si Si4 0.151097 0.812697 0.908870
O O1 0.873689 0.280992 0.161710
O O2 0.922328 0.958236 0.137506
O O3 0.000000 0.204473 0.000000
O O4 0.830059 0.101093 0.695593
O O5 0.836116 0.464834 0.537236
O O6 0.877881 0.625860 0.189202
O O7 0.000000 0.438563 0.500000
O O8 0.707857 0.394560 0.742226
O O9 0.701238 0.309623 0.238468
#
# Coordination Sequence:
#
# PCOD9129109 Si02
#       4
#     4   4   4   4
#     4  10  27  47  79 106 154 195 258 301 383 440
#     4  12  28  44  78 116 151 195 259 310 381 444
#     4  10  26  51  77 103 157 197 251 304 386 442
#     4  10  27  48  78 106 153 198 251 311 376 447
#
# _framework density 25.714158000000001
#
# number of rings (size 3 to 8) (size 9 to 14) (size 15 to 20)
#    1.500    0.000    0.000    1.500   10.500    5.000 
#    0.000    0.000    0.000    0.000    0.000    0.000 
#    0.000    0.000    0.000    0.000    0.000    0.000 
#
# Total GULP energy -44748.748281 kJ/mol
# GULP energy per Si atom -5593.593535 kJ/mol
# Density = 2.565563 g / cm^3
# Si number density = 25.714158 Si / 1000 Ang^3
#
#
#
# Elastic Constant Matrix: (Units=GPa)
#
#
# Indices 1 2 3 4 5 6 
#
# 1 148.2083 16.0514 45.6030 0.0000 -0.1844 0.0000
# 2 16.0514 153.9606 18.6383 0.0000 -6.9346 0.0000
# 3 45.6030 18.6383 64.9096 0.0000 -4.7558 0.0000
# 4 0.0000 0.0000 0.0000 46.6300 0.0000 -14.8482
# 5 -0.1844 -6.9346 -4.7558 0.0000 44.8053 0.0000
# 6 0.0000 0.0000 0.0000 -14.8482 0.0000 37.9838
#
#
#
# Elastic Compliance Matrix: (Units=1/GPa)
#
#
# Indices 1 2 3 4 5 6 
#
# 1 0.008630 -0.000196 -0.006054 0.000000 -0.000637 0.000000
# 2 -0.000196 0.006765 -0.001742 0.000000 0.000861 0.000000
# 3 -0.006054 -0.001742 0.020296 0.000000 0.001860 0.000000
# 4 0.000000 0.000000 0.000000 0.024494 0.000000 0.009575
# 5 -0.000637 0.000861 0.001860 0.000000 0.022647 0.000000
# 6 0.000000 0.000000 0.000000 0.009575 0.000000 0.030070
#
#
# Mechanical properties :
#
#
# Convention : Reuss Voigt Hill
#
# Bulk Modulus (GPa) = 50.74014 58.62931 54.68473
# Shear Modulus (GPa) = 36.91253 45.00285 40.95769
#
# Velocity S-wave (km/s) = 3.79290 4.18798 3.99533
# Velocity P-wave (km/s) = 6.24153 6.79967 6.52657
#
# Compressibility (1/GPa) = 0.01970826
#
# Stress axis : x y z
#
# Youngs Moduli (GPa) = 115.86925 147.81419 49.27136
#
# Poissons Ratio (x) = 0.02891 0.29829
# Poissons Ratio (y) = 0.02266 0.08583
# Poissons Ratio (z) = 0.70146 0.25750
#
# Static dielectric constant tensor:
#      x y z
#    x 1.958450 0.000000 0.023830 
#    y 0.000000 2.065830 0.000000 
#    z 0.023830 0.000000 2.037260 
# 
# From -- ./inp_files/6380.got.cif
#   From: 2010.05.17/outbox.cif.g08.bks.cpg/sg5_4_cif.got.tgz:6380.got - 2010.06.03 18:56:24.
