data_PCOD9129747
_publ_section_title
;
Structure prediction by ZEFSAII (Michael W. Deem and Ramdas Pophale) SiO2 
 PCOD9129747
Probable space group: C 2
;
_chemical_formula_sum "Si O2"
_cell_formula_units_Z 28
_cell_length_a 16.856742
_cell_length_b 7.307163
_cell_length_c 9.431860
_cell_angle_alpha 90.000000
_cell_angle_beta 78.275858
_cell_angle_gamma 90.000000
_cell_volume 1137.531328
_symmetry_space_group_name_H-M "C 2"
_symmetry_group_IT_number 5
_symmetry_cell_setting 'monoclinic'
loop_
_space_group_symop_operation_xyz
x,y,z
-x,y,-z
1/2+x,1/2+y,z
1/2-x,1/2+y,-z
loop_
_atom_site_type_symbol
_atom_site_label
_atom_site_fract_x
_atom_site_fract_y
_atom_site_fract_z
Si Si1 0.403486 0.681840 0.700007
Si Si2 0.586885 0.185106 0.708655
Si Si3 0.352986 0.819386 0.410920
Si Si4 0.000000 0.871129 0.000000
Si Si5 0.169599 0.503819 0.143425
Si Si6 0.163973 0.918588 0.072989
Si Si7 0.720386 0.457494 0.638609
Si Si8 0.000000 0.897200 0.500000
O O1 0.387819 0.770362 0.552584
O O2 0.400604 0.852765 0.809842
O O3 0.335666 0.546413 0.788650
O O4 0.471412 0.533286 0.636087
O O5 0.673530 0.279161 0.708411
O O6 0.561453 0.266026 0.563089
O O7 0.595751 0.968637 0.689876
O O8 0.528789 0.251233 0.854816
O O9 0.341589 0.623891 0.344604
O O10 0.264523 0.906780 0.476132
O O11 0.082537 0.979366 0.015666
O O12 0.146928 0.704854 0.103391
O O13 0.209771 0.523313 0.283013
O O14 0.246802 0.434165 0.025441
#
# Coordination Sequence:
#
# PCOD9129747 Si02
#       8
#     4   4   4   2   4   4   4   2
#     4  11  26  45  71 108 143 196 254 303 378 448
#     4  12  26  48  71 107 150 200 245 310 383 458
#     4  11  25  41  75 106 138 184 249 312 373 431
#     4  12  28  50  74 108 160 198 240 318 396 446
#     4  11  26  43  79 105 142 197 257 306 372 454
#     4  12  25  49  73 110 153 200 251 314 377 457
#     4  11  23  42  70 108 139 182 242 316 367 436
#     4  12  26  46  74 102 160 196 246 316 378 460
#
# _framework density 24.614706999999999
#
# number of rings (size 3 to 8) (size 9 to 14) (size 15 to 20)
#    0.000    0.571    7.143    0.000    6.000    2.857 
#    0.000    1.429    0.000    0.000    0.000    0.000 
#    0.000    0.000    0.000    0.000    0.000    0.000 
#
# Total GULP energy -78175.647380 kJ/mol
# GULP energy per Si atom -5583.974813 kJ/mol
# Density = 2.455868 g / cm^3
# Si number density = 24.614707 Si / 1000 Ang^3
#
#
#
# Elastic Constant Matrix: (Units=GPa)
#
#
# Indices 1 2 3 4 5 6 
#
# 1 66.2936 0.0266 4.9292 0.0000 -1.4780 0.0000
# 2 0.0266 114.6004 14.0549 0.0000 -2.9543 0.0000
# 3 4.9292 14.0549 77.0859 0.0000 -19.7794 0.0000
# 4 0.0000 0.0000 0.0000 31.5207 0.0000 0.9882
# 5 -1.4780 -2.9543 -19.7794 0.0000 28.0164 0.0000
# 6 0.0000 0.0000 0.0000 0.9882 0.0000 19.3813
#
#
#
# Elastic Compliance Matrix: (Units=1/GPa)
#
#
# Indices 1 2 3 4 5 6 
#
# 1 0.015158 0.000117 -0.000955 0.000000 0.000138 0.000000
# 2 0.000117 0.008928 -0.001700 0.000000 -0.000253 0.000000
# 3 -0.000955 -0.001700 0.016224 0.000000 0.011224 0.000000
# 4 0.000000 0.000000 0.000000 0.031776 0.000000 -0.001620
# 5 0.000138 -0.000253 0.011224 0.000000 0.043598 0.000000
# 6 0.000000 0.000000 0.000000 -0.001620 0.000000 0.051679
#
#
# Mechanical properties :
#
#
# Convention : Reuss Voigt Hill
#
# Bulk Modulus (GPa) = 28.38219 32.88906 30.63562
# Shear Modulus (GPa) = 27.14679 31.71498 29.43088
#
# Velocity S-wave (km/s) = 3.32455 3.59340 3.46159
# Velocity P-wave (km/s) = 5.12762 5.53238 5.33384
#
# Compressibility (1/GPa) = 0.03523337
#
# Stress axis : x y z
#
# Youngs Moduli (GPa) = 65.96976 112.00794 61.63864
#
# Poissons Ratio (x) = -0.01313 0.05889
# Poissons Ratio (y) = -0.00773 0.10479
# Poissons Ratio (z) = 0.06303 0.19043
#
# Static dielectric constant tensor:
#      x y z
#    x 2.041590 0.000000 -0.008080 
#    y 0.000000 1.936620 0.000000 
#    z -0.008080 0.000000 2.037230 
# 
# From -- ./inp_files/45445.got.cif
#   From: 2010.05.17/outbox.cif.g08.bks.cpg/sg5_23_cif.got.tgz:45445.got - 2010.06.03 18:56:24.
