data_PCOD9129194
_publ_section_title
;
Structure prediction by ZEFSAII (Michael W. Deem and Ramdas Pophale) SiO2 
 PCOD9129194
Probable space group: C 2
;
_chemical_formula_sum "Si O2"
_cell_formula_units_Z 20
_cell_length_a 18.420912
_cell_length_b 7.646139
_cell_length_c 17.426455
_cell_angle_alpha 90.000000
_cell_angle_beta 157.949434
_cell_angle_gamma 90.000000
_cell_volume 921.478570
_symmetry_space_group_name_H-M "C 2"
_symmetry_group_IT_number 5
_symmetry_cell_setting 'monoclinic'
loop_
_space_group_symop_operation_xyz
x,y,z
-x,y,-z
1/2+x,1/2+y,z
1/2-x,1/2+y,-z
loop_
_atom_site_type_symbol
_atom_site_label
_atom_site_fract_x
_atom_site_fract_y
_atom_site_fract_z
Si Si1 0.500000 0.864940 0.500000
Si Si2 0.596548 0.164453 0.918089
Si Si3 0.826885 0.814660 0.172128
Si Si4 0.818110 0.596051 0.765602
Si Si5 0.000000 0.843735 0.500000
Si Si6 0.357514 0.513012 0.933246
O O1 0.649513 0.742292 0.600747
O O2 0.643604 0.982191 0.689310
O O3 0.598594 0.225231 0.832755
O O4 0.403476 0.078738 0.764635
O O5 0.614287 0.344324 0.984777
O O6 0.760124 0.015569 0.092703
O O7 0.983113 0.797927 0.392801
O O8 0.647843 0.692450 0.024773
O O9 0.709404 0.437344 0.699015
O O10 0.000000 0.636285 0.000000
O O11 0.500000 0.522128 0.000000
#
# Coordination Sequence:
#
# PCOD9129194 Si02
#       6
#     2   4   4   4   2   4
#     4  11  19  40  72 107 141 180 243 291 340 441
#     4  12  23  48  71 103 147 192 228 305 362 417
#     4  12  27  46  74 107 148 187 246 294 362 429
#     4  11  20  42  77 101 144 193 232 292 371 415
#     4  11  25  46  72 109 139 190 249 297 344 443
#     4  12  25  44  75 107 142 194 241 292 365 431
#
# _framework density 21.704249000000001
#
# number of rings (size 3 to 8) (size 9 to 14) (size 15 to 20)
#    0.000    0.400    8.000    1.800    2.800    0.000 
#    3.600    0.000    0.000    0.000    0.000    0.000 
#    0.000    0.000    0.000    0.000    0.000    0.000 
#
# Total GULP energy -55681.904333 kJ/mol
# GULP energy per Si atom -5568.190433 kJ/mol
# Density = 2.165485 g / cm^3
# Si number density = 21.704249 Si / 1000 Ang^3
#
#
#
# Elastic Constant Matrix: (Units=GPa)
#
#
# Indices 1 2 3 4 5 6 
#
# 1 206.2114 46.1813 53.5562 0.0000 -7.0829 0.0000
# 2 46.1813 59.5554 13.8950 0.0000 -10.7827 0.0000
# 3 53.5562 13.8950 89.8875 0.0000 6.4545 0.0000
# 4 0.0000 0.0000 0.0000 10.9423 0.0000 0.1163
# 5 -7.0829 -10.7827 6.4545 0.0000 36.7604 0.0000
# 6 0.0000 0.0000 0.0000 0.1163 0.0000 30.5541
#
#
#
# Elastic Compliance Matrix: (Units=1/GPa)
#
#
# Indices 1 2 3 4 5 6 
#
# 1 0.006712 -0.004303 -0.003379 0.000000 0.000624 0.000000
# 2 -0.004303 0.021421 -0.001153 0.000000 0.005657 0.000000
# 3 -0.003379 -0.001153 0.013558 0.000000 -0.003370 0.000000
# 4 0.000000 0.000000 0.000000 0.091392 0.000000 -0.000348
# 5 0.000624 0.005657 -0.003370 0.000000 0.029574 0.000000
# 6 0.000000 0.000000 0.000000 -0.000348 0.000000 0.032730
#
#
# Mechanical properties :
#
#
# Convention : Reuss Voigt Hill
#
# Bulk Modulus (GPa) = 41.63107 64.76884 53.19996
# Shear Modulus (GPa) = 22.61759 31.78615 27.20187
#
# Velocity S-wave (km/s) = 3.23163 3.83105 3.54403
# Velocity P-wave (km/s) = 5.75737 7.03389 6.42740
#
# Compressibility (1/GPa) = 0.02402052
#
# Stress axis : x y z
#
# Youngs Moduli (GPa) = 148.98431 46.68218 73.75493
#
# Poissons Ratio (x) = 0.20090 0.24920
# Poissons Ratio (y) = 0.64115 0.08508
# Poissons Ratio (z) = 0.50338 0.05385
#
# Static dielectric constant tensor:
#      x y z
#    x 1.824980 0.000000 -0.005440 
#    y 0.000000 2.027450 0.000000 
#    z -0.005440 0.000000 1.742060 
# 
# From -- ./inp_files/62283.got.cif
#   From: 2010.05.17/outbox.cif.g08.bks.cpg/sg5_32_cif.got.tgz:62283.got - 2010.06.03 18:56:24.
