data_PCOD9129288
_publ_section_title
;
Structure prediction by ZEFSAII (Michael W. Deem and Ramdas Pophale) SiO2 
 PCOD9129288
Probable space group: C 2
;
_chemical_formula_sum "Si O2"
_cell_formula_units_Z 24
_cell_length_a 12.077039
_cell_length_b 21.289489
_cell_length_c 11.976261
_cell_angle_alpha 90.000000
_cell_angle_beta 156.081814
_cell_angle_gamma 90.000000
_cell_volume 1248.431506
_symmetry_space_group_name_H-M "C 2"
_symmetry_group_IT_number 5
_symmetry_cell_setting 'monoclinic'
loop_
_space_group_symop_operation_xyz
x,y,z
-x,y,-z
1/2+x,1/2+y,z
1/2-x,1/2+y,-z
loop_
_atom_site_type_symbol
_atom_site_label
_atom_site_fract_x
_atom_site_fract_y
_atom_site_fract_z
Si Si1 0.095192 0.510970 0.713379
Si Si2 0.797654 0.310173 0.418808
Si Si3 0.251675 0.263855 0.996710
Si Si4 0.579078 0.446653 0.291011
Si Si5 0.786901 0.875920 0.208023
Si Si6 0.291082 0.157665 0.210277
O O1 0.827599 0.494334 0.538148
O O2 0.000000 0.493657 0.500000
O O3 0.156162 0.584785 0.769229
O O4 0.358514 0.472921 0.998991
O O5 0.502221 0.277090 0.142967
O O6 0.722718 0.381789 0.383585
O O7 0.000000 0.310943 0.500000
O O8 0.968132 0.274173 0.671662
O O9 0.256179 0.318052 0.094973
O O10 0.293260 0.199669 0.101739
O O11 0.413570 0.431262 0.250327
O O12 0.000000 0.858444 0.500000
O O13 0.500000 0.891322 0.000000
O O14 0.500000 0.178135 0.500000
O O15 0.000000 0.163045 0.000000
#
# Coordination Sequence:
#
# PCOD9129288 Si02
#       6
#     4   4   4   4   4   4
#     4  11  22  37  59  88 119 152 189 235 290 344
#     4  11  23  38  58  86 116 151 190 235 287 343
#     4  11  22  38  60  86 114 150 189 238 291 340
#     4  11  22  37  58  86 118 153 190 236 288 344
#     4  11  21  36  56  82 113 148 188 235 286 340
#     4  11  22  38  61  90 118 150 190 239 290 343
#
# _framework density 19.224122000000001
#
# number of rings (size 3 to 8) (size 9 to 14) (size 15 to 20)
#    0.000    1.000    0.000   10.500    0.000    2.667 
#    0.000    0.000    0.000   10.000    0.000    0.000 
#    0.000    0.000    0.000    0.000    0.000    0.000 
#
# Total GULP energy -67068.921903 kJ/mol
# GULP energy per Si atom -5589.076825 kJ/mol
# Density = 1.918037 g / cm^3
# Si number density = 19.224122 Si / 1000 Ang^3
#
#
#
# Elastic Constant Matrix: (Units=GPa)
#
#
# Indices 1 2 3 4 5 6 
#
# 1 104.9281 27.6432 21.2434 -0.0015 28.8615 -0.0070
# 2 27.6432 38.5675 22.5890 0.0019 6.7674 0.0089
# 3 21.2434 22.5890 123.4152 -0.0009 13.9470 -0.0034
# 4 -0.0015 0.0019 -0.0009 41.7812 -0.0015 19.8132
# 5 28.8615 6.7674 13.9470 -0.0015 44.0051 -0.0081
# 6 -0.0070 0.0089 -0.0034 19.8132 -0.0081 119.7340
#
#
#
# Elastic Compliance Matrix: (Units=1/GPa)
#
#
# Indices 1 2 3 4 5 6 
#
# 1 0.013957 -0.008669 0.000071 0.000000 -0.007843 0.000001
# 2 -0.008669 0.034784 -0.005095 -0.000001 0.001951 -0.000003
# 3 0.000071 -0.005095 0.009272 0.000000 -0.002201 0.000000
# 4 0.000000 -0.000001 0.000000 0.025972 0.000000 -0.004298
# 5 -0.007843 0.001951 -0.002201 0.000000 0.028266 0.000001
# 6 0.000001 -0.000003 0.000000 -0.004298 0.000001 0.009063
#
#
# Mechanical properties :
#
#
# Convention : Reuss Voigt Hill
#
# Bulk Modulus (GPa) = 32.65150 45.54020 39.09585
# Shear Modulus (GPa) = 31.46438 54.13308 42.79873
#
# Velocity S-wave (km/s) = 4.05002 5.31226 4.72349
# Velocity P-wave (km/s) = 6.23632 7.83373 7.08022
#
# Compressibility (1/GPa) = 0.03062646
#
# Stress axis : x y z
#
# Youngs Moduli (GPa) = 71.64742 28.74905 107.85302
#
# Poissons Ratio (x) = 0.24922 -0.00762
# Poissons Ratio (y) = 0.62111 0.54950
# Poissons Ratio (z) = -0.00506 0.14647
#
# Static dielectric constant tensor:
#      x y z
#    x 1.695460 0.000000 0.001160 
#    y 0.000000 1.661190 0.000000 
#    z 0.001160 0.000000 1.664750 
# 
# From -- ./inp_files/40838.got.cif
#   From: 2010.05.17/outbox.cif.g08.bks.cpg/sg5_21_cif.got.tgz:40838.got - 2010.06.03 18:56:24.
