data_PCOD9129078
_publ_section_title
;
Structure prediction by ZEFSAII (Michael W. Deem and Ramdas Pophale) SiO2 
 PCOD9129078
Probable space group: C 2
;
_chemical_formula_sum "Si O2"
_cell_formula_units_Z 32
_cell_length_a 17.757690
_cell_length_b 11.120827
_cell_length_c 16.749425
_cell_angle_alpha 90.000000
_cell_angle_beta 25.405304
_cell_angle_gamma 90.000000
_cell_volume 1419.056659
_symmetry_space_group_name_H-M "C 2"
_symmetry_group_IT_number 5
_symmetry_cell_setting 'monoclinic'
loop_
_space_group_symop_operation_xyz
x,y,z
-x,y,-z
1/2+x,1/2+y,z
1/2-x,1/2+y,-z
loop_
_atom_site_type_symbol
_atom_site_label
_atom_site_fract_x
_atom_site_fract_y
_atom_site_fract_z
Si Si1 0.047411 0.234130 0.876235
Si Si2 0.716684 0.144696 0.104365
Si Si3 0.659310 0.120402 0.515162
Si Si4 0.729020 0.397050 0.685704
Si Si5 0.710013 0.630586 0.149712
Si Si6 0.306646 0.401039 0.102008
Si Si7 0.698331 0.634537 0.446518
Si Si8 0.787170 0.951513 0.707990
O O1 0.188037 0.184667 0.679606
O O2 0.158823 0.339864 0.813891
O O3 0.868669 0.230678 0.994615
O O4 0.000000 0.153982 0.000000
O O5 0.745309 0.006760 0.103168
O O6 0.528484 0.180267 0.319947
O O7 0.710521 0.137003 0.014705
O O8 0.692965 0.126407 0.576874
O O9 0.677039 0.984897 0.466297
O O10 0.766945 0.433031 0.740059
O O11 0.785673 0.263408 0.609980
O O12 0.516967 0.399939 0.887673
O O13 0.745982 0.763736 0.148815
O O14 0.502582 0.613292 0.337486
O O15 0.759358 0.526225 0.166393
O O16 0.750530 0.538967 0.330230
O O17 0.000000 0.926666 0.500000
#
# Coordination Sequence:
#
# PCOD9129078 Si02
#       8
#     4   4   4   4   4   4   4   4
#     4  12  28  49  74 109 154 199 252 314 384 465
#     4  12  27  48  75 112 153 203 258 316 388 455
#     4  12  27  46  75 108 153 198 255 318 386 454
#     4  11  23  43  72 106 147 192 247 312 379 453
#     4  11  23  48  74 112 151 201 261 315 384 464
#     4  11  23  43  74 107 148 193 252 315 373 464
#     4  11  23  46  74 109 150 195 256 321 381 456
#     4  10  26  48  78 111 156 205 258 317 389 463
#
# _framework density 22.550193
#
# number of rings (size 3 to 8) (size 9 to 14) (size 15 to 20)
#    0.000    0.750    3.750    2.250    3.500    6.500 
#    2.250    0.000    0.000    0.000    0.000    0.000 
#    0.000    0.000    0.000    0.000    0.000    0.000 
#
# Total GULP energy -89392.849919 kJ/mol
# GULP energy per Si atom -5587.053120 kJ/mol
# Density = 2.249887 g / cm^3
# Si number density = 22.550193 Si / 1000 Ang^3
#
#
#
# Elastic Constant Matrix: (Units=GPa)
#
#
# Indices 1 2 3 4 5 6 
#
# 1 96.3660 44.6433 53.3464 0.0001 5.4332 -0.0004
# 2 44.6433 88.5744 12.3883 0.0004 -2.6208 -0.0001
# 3 53.3464 12.3883 119.5874 0.0006 -6.4160 -0.0004
# 4 0.0001 0.0004 0.0006 33.1051 -0.0004 11.1109
# 5 5.4332 -2.6208 -6.4160 -0.0004 43.4254 0.0002
# 6 -0.0004 -0.0001 -0.0004 11.1109 0.0002 -10.4034
#
#
#
# Elastic Compliance Matrix: (Units=1/GPa)
#
#
# Indices 1 2 3 4 5 6 
#
# 1 0.018838 -0.008532 -0.007735 0.000000 -0.004015 0.000000
# 2 -0.008532 0.015332 0.002343 0.000000 0.002339 0.000000
# 3 -0.007735 0.002343 0.011722 0.000000 0.002841 0.000000
# 4 0.000000 0.000000 0.000000 0.022236 0.000000 0.023749
# 5 -0.004015 0.002339 0.002841 0.000000 0.024091 0.000001
# 6 0.000000 0.000000 0.000000 0.023749 0.000001 -0.070759
#
#
# Mechanical properties :
#
#
# Convention : Reuss Voigt Hill
#
# Bulk Modulus (GPa) = 55.41768 58.36487 56.89128
# Shear Modulus (GPa) = 90.38103 26.16875 58.27489
#
# Velocity S-wave (km/s) = 6.33774 3.41026 5.08905
# Velocity P-wave (km/s) = 8.84220 6.43777 7.73400
#
# Compressibility (1/GPa) = 0.01804478
#
# Stress axis : x y z
#
# Youngs Moduli (GPa) = 53.08498 65.22510 85.30816
#
# Poissons Ratio (x) = 0.55647 0.65985
# Poissons Ratio (y) = 0.45290 -0.19988
# Poissons Ratio (z) = 0.41060 -0.15283
#
# Static dielectric constant tensor:
#      x y z
#    x 1.849880 0.000000 -0.011380 
#    y 0.000000 1.848620 0.000000 
#    z -0.011380 0.000000 1.889430 
# 
# From -- ./inp_files/56021.got.cif
#   From: 2010.05.17/outbox.cif.g08.bks.cpg/sg5_29_cif.got.tgz:56021.got - 2010.06.03 18:56:24.
