data_PCOD9129782
_publ_section_title
;
Structure prediction by ZEFSAII (Michael W. Deem and Ramdas Pophale) SiO2 
 PCOD9129782
Probable space group: C 2
;
_chemical_formula_sum "Si O2"
_cell_formula_units_Z 18
_cell_length_a 13.593770
_cell_length_b 7.160097
_cell_length_c 18.445193
_cell_angle_alpha 90.000000
_cell_angle_beta 20.319096
_cell_angle_gamma 90.000000
_cell_volume 623.421901
_symmetry_space_group_name_H-M "C 2"
_symmetry_group_IT_number 5
_symmetry_cell_setting 'monoclinic'
loop_
_space_group_symop_operation_xyz
x,y,z
-x,y,-z
1/2+x,1/2+y,z
1/2-x,1/2+y,-z
loop_
_atom_site_type_symbol
_atom_site_label
_atom_site_fract_x
_atom_site_fract_y
_atom_site_fract_z
Si Si1 0.331123 0.184030 0.880548
Si Si2 0.000000 0.354392 0.000000
Si Si3 0.469561 0.741083 0.436729
Si Si4 0.208220 0.274346 0.126913
Si Si5 0.560437 0.188803 0.540466
O O1 0.657583 0.175456 0.630747
O O2 0.194859 0.991500 0.944542
O O3 0.338458 0.197490 0.962462
O O4 0.148083 0.360002 0.979067
O O5 0.698224 0.275812 0.238049
O O6 0.500000 0.686324 0.500000
O O7 0.710974 0.691541 0.208895
O O8 0.453420 0.964998 0.444981
O O9 0.872091 0.258474 0.344643
O O10 0.500000 0.239081 0.500000
#
# Coordination Sequence:
#
# PCOD9129782 Si02
#       5
#     4   2   4   4   4
#     4  12  27  42  74 102 141 184 229 284 345 412
#     4  12  22  44  70 104 130 192 228 272 350 414
#     4  11  25  45  72 102 140 181 233 283 343 402
#     4  12  24  45  68 107 141 177 234 281 345 409
#     4  11  23  43  74  99 137 182 230 283 342 411
#
# _framework density 28.872900999999999
#
# number of rings (size 3 to 8) (size 9 to 14) (size 15 to 20)
#    0.000    0.444    6.667    1.333    3.111    1.778 
#    0.000    0.000    0.000    2.667    0.000    0.000 
#    0.000    0.000    0.000    0.000    0.000    0.000 
#
# Total GULP energy -50250.172986 kJ/mol
# GULP energy per Si atom -5583.352554 kJ/mol
# Density = 2.880719 g / cm^3
# Si number density = 28.872901 Si / 1000 Ang^3
#
#
#
# Elastic Constant Matrix: (Units=GPa)
#
#
# Indices 1 2 3 4 5 6 
#
# 1 158.3078 2.2501 -0.1898 -0.0158 36.7458 0.0033
# 2 2.2501 69.7301 -45.9675 -0.0140 26.1249 0.0005
# 3 -0.1898 -45.9675 159.8792 -0.0515 22.0021 0.0106
# 4 -0.0158 -0.0140 -0.0515 8.7072 0.0132 10.1830
# 5 36.7458 26.1249 22.0021 0.0132 65.0698 -0.0058
# 6 0.0033 0.0005 0.0106 10.1830 -0.0058 34.1117
#
#
#
# Elastic Compliance Matrix: (Units=1/GPa)
#
#
# Indices 1 2 3 4 5 6 
#
# 1 0.007742 0.003336 0.001840 0.000066 -0.006333 -0.000022
# 2 0.003336 0.026728 0.009885 0.000214 -0.015957 -0.000070
# 3 0.001840 0.009885 0.010266 0.000151 -0.008479 -0.000050
# 4 0.000066 0.000214 0.000151 0.176451 -0.000215 -0.052674
# 5 -0.006333 -0.015957 -0.008479 -0.000215 0.028218 0.000072
# 6 -0.000022 -0.000070 -0.000050 -0.052674 0.000072 0.045040
#
#
# Mechanical properties :
#
#
# Convention : Reuss Voigt Hill
#
# Bulk Modulus (GPa) = 13.35882 33.34475 23.35178
# Shear Modulus (GPa) = 17.28454 50.36602 33.82528
#
# Velocity S-wave (km/s) = 2.44937 4.18114 3.42647
# Velocity P-wave (km/s) = 3.55472 5.90619 4.87438
#
# Compressibility (1/GPa) = 0.07485693
#
# Stress axis : x y z
#
# Youngs Moduli (GPa) = 129.17110 37.41366 97.41070
#
# Poissons Ratio (x) = -0.12481 -0.17923
# Poissons Ratio (y) = -0.43091 -0.96288
# Poissons Ratio (z) = -0.23766 -0.36983
#
# Static dielectric constant tensor:
#      x y z
#    x 2.569510 0.000000 0.143440 
#    y 0.000000 2.444320 0.000000 
#    z 0.143440 0.000000 2.131460 
# 
# From -- ./inp_files/65841.got.cif
#   From: 2010.05.17/outbox.cif.g08.bks.cpg/sg5_33_cif.got.tgz:65841.got - 2010.06.03 18:56:24.
