data_PCOD9129842
_publ_section_title
;
Structure prediction by ZEFSAII (Michael W. Deem and Ramdas Pophale) SiO2 
 PCOD9129842
Probable space group: C 2
;
_chemical_formula_sum "Si O2"
_cell_formula_units_Z 24
_cell_length_a 8.568539
_cell_length_b 18.646409
_cell_length_c 13.281767
_cell_angle_alpha 90.000000
_cell_angle_beta 149.166070
_cell_angle_gamma 90.000000
_cell_volume 1087.665370
_symmetry_space_group_name_H-M "C 2"
_symmetry_group_IT_number 5
_symmetry_cell_setting 'monoclinic'
loop_
_space_group_symop_operation_xyz
x,y,z
-x,y,-z
1/2+x,1/2+y,z
1/2-x,1/2+y,-z
loop_
_atom_site_type_symbol
_atom_site_label
_atom_site_fract_x
_atom_site_fract_y
_atom_site_fract_z
Si Si1 0.781872 0.195290 0.467590
Si Si2 0.246925 0.950035 0.943952
Si Si3 0.235727 0.056627 0.289229
Si Si4 0.358351 0.031209 0.668819
Si Si5 0.817085 0.789642 0.118288
Si Si6 0.797026 0.169307 0.106020
O O1 0.661083 0.118002 0.359188
O O2 0.528924 0.255983 0.322757
O O3 0.000000 0.220942 0.500000
O O4 0.969426 0.187232 0.674176
O O5 0.125932 0.869504 0.891831
O O6 0.500000 0.945775 0.000000
O O7 0.959689 0.999130 0.756818
O O8 0.430211 0.991955 0.132480
O O9 0.500000 0.092919 0.500000
O O10 0.427027 0.015830 0.310194
O O11 0.981002 0.117428 0.130964
O O12 0.000000 0.012880 0.500000
O O13 0.500000 0.791257 0.000000
O O14 0.811448 0.736037 0.020090
O O15 0.500000 0.137157 0.000000
#
# Coordination Sequence:
#
# PCOD9129842 Si02
#       6
#     4   4   4   4   4   4
#     4  11  23  45  72 106 136 182 235 295 352 413
#     4  11  26  47  66 100 145 188 233 287 348 417
#     4  12  24  42  70 106 130 181 235 289 348 416
#     4  11  24  45  72 101 138 179 234 292 351 409
#     4  11  26  46  70 103 144 189 234 288 349 425
#     4  12  25  46  75 107 143 184 234 294 356 414
#
# _framework density 22.065608999999998
#
# number of rings (size 3 to 8) (size 9 to 14) (size 15 to 20)
#    0.000    0.667    3.333    4.000    4.667    2.000 
#    9.000    0.000    0.000    0.000    0.000    0.000 
#    0.000    0.000    0.000    0.000    0.000    0.000 
#
# Total GULP energy -66810.037072 kJ/mol
# GULP energy per Si atom -5567.503089 kJ/mol
# Density = 2.201539 g / cm^3
# Si number density = 22.065609 Si / 1000 Ang^3
#
#
#
# Elastic Constant Matrix: (Units=GPa)
#
#
# Indices 1 2 3 4 5 6 
#
# 1 79.9197 -5.3257 18.7234 0.0045 11.7116 0.0013
# 2 -5.3257 83.0361 45.5498 0.0024 6.2149 0.0003
# 3 18.7234 45.5498 130.9072 0.0107 2.4319 0.0036
# 4 0.0045 0.0024 0.0107 -13.7405 0.0048 0.8168
# 5 11.7116 6.2149 2.4319 0.0048 46.9920 0.0017
# 6 0.0013 0.0003 0.0036 0.8168 0.0017 21.6907
#
#
#
# Elastic Compliance Matrix: (Units=1/GPa)
#
#
# Indices 1 2 3 4 5 6 
#
# 1 0.013909 0.002745 -0.002876 0.000001 -0.003681 0.000000
# 2 0.002745 0.015563 -0.005762 -0.000002 -0.002444 0.000001
# 3 -0.002876 -0.005762 0.010038 0.000006 0.000959 -0.000002
# 4 0.000001 -0.000002 0.000006 -0.072615 0.000007 0.002734
# 5 -0.003681 -0.002444 0.000959 0.000007 0.022471 -0.000002
# 6 0.000000 0.000001 -0.000002 0.002734 -0.000002 0.046000
#
#
# Mechanical properties :
#
#
# Convention : Reuss Voigt Hill
#
# Bulk Modulus (GPa) = 36.07168 45.75089 40.91129
# Shear Modulus (GPa) = 88.66382 26.64948 57.65665
#
# Velocity S-wave (km/s) = 6.34580 3.47902 5.11726
# Velocity P-wave (km/s) = 8.37109 6.07595 7.31411
#
# Compressibility (1/GPa) = 0.02772258
#
# Stress axis : x y z
#
# Youngs Moduli (GPa) = 71.89747 64.25498 99.62512
#
# Poissons Ratio (x) = -0.17640 0.28654
# Poissons Ratio (y) = -0.19738 0.57409
# Poissons Ratio (z) = 0.20679 0.37027
#
# Static dielectric constant tensor:
#      x y z
#    x 1.932380 0.000000 0.053200 
#    y 0.000000 1.865890 0.000000 
#    z 0.053200 0.000000 2.025680 
# 
# From -- ./inp_files/51442.got.cif
#   From: 2010.05.17/outbox.cif.g08.bks.cpg/sg5_26_cif.got.tgz:51442.got - 2010.06.03 18:56:24.
