data_PCOD9129448
_publ_section_title
;
Structure prediction by ZEFSAII (Michael W. Deem and Ramdas Pophale) SiO2 
 PCOD9129448
Probable space group: C 2
;
_chemical_formula_sum "Si O2"
_cell_formula_units_Z 32
_cell_length_a 18.348843
_cell_length_b 7.846575
_cell_length_c 23.558616
_cell_angle_alpha 90.000000
_cell_angle_beta 150.837152
_cell_angle_gamma 90.000000
_cell_volume 1652.833990
_symmetry_space_group_name_H-M "C 2"
_symmetry_group_IT_number 5
_symmetry_cell_setting 'monoclinic'
loop_
_space_group_symop_operation_xyz
x,y,z
-x,y,-z
1/2+x,1/2+y,z
1/2-x,1/2+y,-z
loop_
_atom_site_type_symbol
_atom_site_label
_atom_site_fract_x
_atom_site_fract_y
_atom_site_fract_z
Si Si1 0.077166 0.776790 0.407006
Si Si2 0.842600 0.941349 0.175364
Si Si3 0.408773 0.990323 0.495817
Si Si4 0.102323 0.661210 0.229140
Si Si5 0.137670 0.579024 0.130162
Si Si6 0.679537 0.647591 0.515479
Si Si7 0.536115 0.842712 0.911812
Si Si8 0.444190 0.532512 0.772778
O O1 0.037470 0.646345 0.429334
O O2 0.219106 0.705294 0.468876
O O3 0.945864 0.796577 0.272378
O O4 0.108516 0.965911 0.452528
O O5 0.771228 0.048454 0.178231
O O6 0.950109 0.056848 0.209787
O O7 0.704957 0.859223 0.047760
O O8 0.500000 0.980307 0.500000
O O9 0.421036 0.811214 0.537465
O O10 0.231940 0.027493 0.362939
O O11 0.173120 0.671302 0.213697
O O12 0.219068 0.629105 0.358816
O O13 0.022426 0.839714 0.185068
O O14 0.992639 0.500498 0.150692
O O15 0.071526 0.398662 0.109059
O O16 0.000000 0.656741 0.000000
O O17 0.484770 0.670642 0.847410
#
# Coordination Sequence:
#
# PCOD9129448 Si02
#       8
#     4   4   4   4   4   4   4   4
#     4  12  23  40  67  92 129 171 213 267 330 363
#     4  11  22  38  65  94 127 164 212 262 312 388
#     4  11  26  44  64  96 131 164 220 274 314 387
#     4   9  20  40  67  86 128 162 210 257 313 374
#     4   8  19  40  62  86 129 163 196 257 314 371
#     4  11  22  43  66  93 127 170 216 271 315 384
#     4   9  22  40  65  87 129 163 206 259 320 370
#     4  11  22  41  65  94 120 167 217 257 314 381
#
# _framework density 19.360686999999999
#
# number of rings (size 3 to 8) (size 9 to 14) (size 15 to 20)
#    0.750    1.000    3.750    0.750    3.500    2.500 
#    0.000    3.125    2.750    0.000    0.000    0.000 
#    0.000    0.000    0.000    0.000    0.000    0.000 
#
# Total GULP energy -89193.186858 kJ/mol
# GULP energy per Si atom -5574.574179 kJ/mol
# Density = 1.931662 g / cm^3
# Si number density = 19.360687 Si / 1000 Ang^3
#
#
#
# Elastic Constant Matrix: (Units=GPa)
#
#
# Indices 1 2 3 4 5 6 
#
# 1 91.1056 0.4649 1.6321 0.0000 13.2196 0.0000
# 2 0.4649 103.1371 37.2760 0.0000 -9.8276 0.0000
# 3 1.6321 37.2760 60.2376 0.0000 -7.0305 0.0000
# 4 0.0000 0.0000 0.0000 18.7907 0.0000 -16.3139
# 5 13.2196 -9.8276 -7.0305 0.0000 26.7676 0.0000
# 6 0.0000 0.0000 0.0000 -16.3139 0.0000 25.3049
#
#
#
# Elastic Compliance Matrix: (Units=1/GPa)
#
#
# Indices 1 2 3 4 5 6 
#
# 1 0.011896 -0.000345 -0.000835 0.000000 -0.006221 0.000000
# 2 -0.000345 0.012682 -0.007505 0.000000 0.002855 0.000000
# 3 -0.000835 -0.007505 0.021658 0.000000 0.003346 0.000000
# 4 0.000000 0.000000 0.000000 0.120870 0.000000 0.077924
# 5 -0.006221 0.002855 0.003346 0.000000 0.042358 0.000000
# 6 0.000000 0.000000 0.000000 0.077924 0.000000 0.089755
#
#
# Mechanical properties :
#
#
# Convention : Reuss Voigt Hill
#
# Bulk Modulus (GPa) = 34.64265 37.02514 35.83389
# Shear Modulus (GPa) = 15.32749 28.51314 21.92032
#
# Velocity S-wave (km/s) = 2.81674 3.84179 3.36848
# Velocity P-wave (km/s) = 5.33955 6.23253 5.80324
#
# Compressibility (1/GPa) = 0.02886615
#
# Stress axis : x y z
#
# Youngs Moduli (GPa) = 84.06447 78.85189 46.17141
#
# Poissons Ratio (x) = 0.02717 0.03856
# Poissons Ratio (y) = 0.02896 0.34653
# Poissons Ratio (z) = 0.07021 0.59181
#
# Static dielectric constant tensor:
#      x y z
#    x 1.703970 0.000000 0.003320 
#    y 0.000000 1.657780 0.000000 
#    z 0.003320 0.000000 1.702840 
# 
# From -- ./inp_files/69102.got.cif
#   From: 2010.05.17/outbox.cif.g08.bks.cpg/sg5_35_cif.got.tgz:69102.got - 2010.06.03 18:56:24.
