data_PCOD9129881
_publ_section_title
;
Structure prediction by ZEFSAII (Michael W. Deem and Ramdas Pophale) SiO2 
 PCOD9129881
Probable space group: C 2
;
_chemical_formula_sum "Si O2"
_cell_formula_units_Z 20
_cell_length_a 15.108312
_cell_length_b 8.519961
_cell_length_c 11.738102
_cell_angle_alpha 90.000000
_cell_angle_beta 150.830364
_cell_angle_gamma 90.000000
_cell_volume 736.434741
_symmetry_space_group_name_H-M "C 2"
_symmetry_group_IT_number 5
_symmetry_cell_setting 'monoclinic'
loop_
_space_group_symop_operation_xyz
x,y,z
-x,y,-z
1/2+x,1/2+y,z
1/2-x,1/2+y,-z
loop_
_atom_site_type_symbol
_atom_site_label
_atom_site_fract_x
_atom_site_fract_y
_atom_site_fract_z
Si Si1 0.849662 0.867110 0.488013
Si Si2 0.155054 0.631221 0.842048
Si Si3 0.600938 0.845626 0.505713
Si Si4 0.939190 0.128798 0.755897
Si Si5 0.315812 0.121320 0.851504
O O1 0.697187 0.727929 0.316708
O O2 0.049896 0.793654 0.705569
O O3 0.814883 0.991987 0.351317
O O4 0.848342 0.967855 0.606275
O O5 0.561434 0.744306 0.352133
O O6 0.343586 0.608811 0.985319
O O7 0.180495 0.618330 0.007702
O O8 0.500000 0.769138 0.500000
O O9 0.493869 0.005095 0.365859
O O10 0.203545 0.796464 0.226888
O O11 0.500000 0.062082 0.000000
#
# Coordination Sequence:
#
# PCOD9129881 Si02
#       5
#     4   4   4   4   4
#     4  11  26  47  76 112 147 194 256 308 362 464
#     4  12  25  50  77 108 151 199 248 310 378 440
#     4  11  23  47  70 109 143 190 253 299 360 454
#     4  11  23  46  79 105 154 197 243 310 380 433
#     4  11  25  48  77 106 149 201 243 310 382 433
#
# _framework density 27.157869999999999
#
# number of rings (size 3 to 8) (size 9 to 14) (size 15 to 20)
#    0.000    0.800    2.000    6.000    0.000    0.000 
#   10.800    0.000    0.000    0.000    0.000    0.000 
#    0.000    0.000    0.000    0.000    0.000    0.000 
#
# Total GULP energy -55862.765076 kJ/mol
# GULP energy per Si atom -5586.276508 kJ/mol
# Density = 2.709606 g / cm^3
# Si number density = 27.157870 Si / 1000 Ang^3
#
#
#
# Elastic Constant Matrix: (Units=GPa)
#
#
# Indices 1 2 3 4 5 6 
#
# 1 92.9783 42.8926 65.7372 0.0000 -18.6125 0.0000
# 2 42.8926 164.0801 102.0699 0.0000 0.7568 0.0000
# 3 65.7372 102.0699 164.2677 0.0000 5.9751 0.0000
# 4 0.0000 0.0000 0.0000 61.6195 0.0000 -9.4345
# 5 -18.6125 0.7568 5.9751 0.0000 56.1722 0.0000
# 6 0.0000 0.0000 0.0000 -9.4345 0.0000 75.3872
#
#
#
# Elastic Compliance Matrix: (Units=1/GPa)
#
#
# Indices 1 2 3 4 5 6 
#
# 1 0.017013 -0.000159 -0.006942 0.000000 0.006378 0.000000
# 2 -0.000159 0.009952 -0.006137 0.000000 0.000466 0.000000
# 3 -0.006942 -0.006137 0.012809 0.000000 -0.003580 0.000000
# 4 0.000000 0.000000 0.000000 0.016546 0.000000 0.002071
# 5 0.006378 0.000466 -0.003580 0.000000 0.020290 0.000000
# 6 0.000000 0.000000 0.000000 0.002071 0.000000 0.013524
#
#
# Mechanical properties :
#
#
# Convention : Reuss Voigt Hill
#
# Bulk Modulus (GPa) = 75.19370 93.63616 84.41493
# Shear Modulus (GPa) = 41.30821 52.67754 46.99287
#
# Velocity S-wave (km/s) = 3.90428 4.40896 4.16427
# Velocity P-wave (km/s) = 6.93342 7.77636 7.36696
#
# Compressibility (1/GPa) = 0.01329899
#
# Stress axis : x y z
#
# Youngs Moduli (GPa) = 58.77860 100.48653 78.06904
#
# Poissons Ratio (x) = 0.01593 0.54194
# Poissons Ratio (y) = 0.00932 0.47911
# Poissons Ratio (z) = 0.40803 0.61669
#
# Static dielectric constant tensor:
#      x y z
#    x 2.137800 0.000000 -0.108780 
#    y 0.000000 2.131710 0.000000 
#    z -0.108780 0.000000 1.081700 
# 
# From -- ./inp_files/26331.got.cif
#   From: 2010.05.17/outbox.cif.g08.bks.cpg/sg5_14_cif.got.tgz:26331.got - 2010.06.03 18:56:24.
