data_PCOD9129365
_publ_section_title
;
Structure prediction by ZEFSAII (Michael W. Deem and Ramdas Pophale) SiO2 
 PCOD9129365
Probable space group: C 2
;
_chemical_formula_sum "Si O2"
_cell_formula_units_Z 26
_cell_length_a 9.680290
_cell_length_b 10.000469
_cell_length_c 23.241733
_cell_angle_alpha 90.000000
_cell_angle_beta 34.592217
_cell_angle_gamma 90.000000
_cell_volume 1277.381319
_symmetry_space_group_name_H-M "C 2"
_symmetry_group_IT_number 5
_symmetry_cell_setting 'monoclinic'
loop_
_space_group_symop_operation_xyz
x,y,z
-x,y,-z
1/2+x,1/2+y,z
1/2-x,1/2+y,-z
loop_
_atom_site_type_symbol
_atom_site_label
_atom_site_fract_x
_atom_site_fract_y
_atom_site_fract_z
Si Si1 0.679796 0.992390 0.273278
Si Si2 0.000000 0.352596 0.000000
Si Si3 0.905931 0.969487 0.788870
Si Si4 0.550553 0.775442 0.225203
Si Si5 0.183378 0.124173 0.487703
Si Si6 0.003981 0.854242 0.567633
Si Si7 0.934602 0.260750 0.144589
O O1 0.658807 0.878112 0.233133
O O2 0.416905 0.049093 0.380262
O O3 0.830440 0.115907 0.195222
O O4 0.822970 0.943832 0.281121
O O5 0.769763 0.442399 0.095924
O O6 0.047165 0.269197 0.042081
O O7 0.889938 0.123923 0.777696
O O8 0.791993 0.865798 0.782765
O O9 0.610461 0.797845 0.137195
O O10 0.258040 0.796645 0.325612
O O11 0.286826 0.252428 0.484723
O O12 0.000000 0.164673 0.500000
O O13 0.054288 0.007254 0.569427
O O14 0.000000 0.860006 0.500000
#
# Coordination Sequence:
#
# PCOD9129365 Si02
#       7
#     4   2   4   4   4   4   4
#     4  11  21  42  63  91 123 162 207 254 306 357
#     4   8  20  48  60  92 126 152 204 264 300 372
#     4   9  21  42  65  85 127 159 200 256 306 373
#     4  11  21  42  63  91 123 162 207 254 306 357
#     4  11  23  42  61  89 129 164 209 256 290 365
#     4  11  23  42  61  89 129 164 209 256 290 365
#     4   9  21  42  65  85 127 159 200 256 306 373
#
# _framework density 20.354140000000001
#
# number of rings (size 3 to 8) (size 9 to 14) (size 15 to 20)
#    0.923    0.923    6.154    0.000    0.000    4.308 
#   11.077    0.000    0.000    0.000    0.000    0.000 
#    0.000    0.000    0.000    0.000    0.000    0.000 
#
# Total GULP energy -72470.638848 kJ/mol
# GULP energy per Si atom -5574.664527 kJ/mol
# Density = 2.030781 g / cm^3
# Si number density = 20.354140 Si / 1000 Ang^3
#
#
#
# Elastic Constant Matrix: (Units=GPa)
#
#
# Indices 1 2 3 4 5 6 
#
# 1 92.3335 49.2794 -25.7569 0.0001 -1.7962 0.0000
# 2 49.2794 103.7594 -20.4585 0.0002 -3.9863 0.0000
# 3 -25.7569 -20.4585 26.7538 -0.0005 1.6203 0.0002
# 4 0.0001 0.0002 -0.0005 22.5772 -0.0001 -0.7033
# 5 -1.7962 -3.9863 1.6203 -0.0001 26.1514 0.0000
# 6 0.0000 0.0000 0.0002 -0.7033 0.0000 21.3712
#
#
#
# Elastic Compliance Matrix: (Units=1/GPa)
#
#
# Indices 1 2 3 4 5 6 
#
# 1 0.017365 -0.005844 0.012277 0.000000 -0.000459 0.000000
# 2 -0.005844 0.013353 0.004502 0.000000 0.001355 0.000000
# 3 0.012277 0.004502 0.052745 0.000001 -0.001739 0.000000
# 4 0.000000 0.000000 0.000001 0.044338 0.000000 0.001459
# 5 -0.000459 0.001355 -0.001739 0.000000 0.038522 0.000000
# 6 0.000000 0.000000 0.000000 0.001459 0.000000 0.046840
#
#
# Mechanical properties :
#
#
# Convention : Reuss Voigt Hill
#
# Bulk Modulus (GPa) = 9.49367 25.44165 17.46766
# Shear Modulus (GPa) = 22.08432 28.67215 25.37824
#
# Velocity S-wave (km/s) = 3.29751 3.75729 3.53488
# Velocity P-wave (km/s) = 4.37864 5.59907 5.02604
#
# Compressibility (1/GPa) = 0.10533337
#
# Stress axis : x y z
#
# Youngs Moduli (GPa) = 57.58608 74.88809 18.95901
#
# Poissons Ratio (x) = 0.43768 -0.23276
# Poissons Ratio (y) = 0.33656 -0.08536
# Poissons Ratio (z) = -0.70697 -0.33718
#
# Static dielectric constant tensor:
#      x y z
#    x 1.744670 0.000000 0.003820 
#    y 0.000000 1.714990 0.000000 
#    z 0.003820 0.000000 1.774100 
# 
# From -- ./inp_files/52130.got.cif
#   From: 2010.05.17/outbox.cif.g08.bks.cpg/sg5_27_cif.got.tgz:52130.got - 2010.06.03 18:56:24.
