data_PCOD9129377
_publ_section_title
;
Structure prediction by ZEFSAII (Michael W. Deem and Ramdas Pophale) SiO2 
 PCOD9129377
Probable space group: C 2
;
_chemical_formula_sum "Si O2"
_cell_formula_units_Z 22
_cell_length_a 7.878047
_cell_length_b 15.471104
_cell_length_c 8.593868
_cell_angle_alpha 90.000000
_cell_angle_beta 103.980910
_cell_angle_gamma 90.000000
_cell_volume 1016.409516
_symmetry_space_group_name_H-M "C 2"
_symmetry_group_IT_number 5
_symmetry_cell_setting 'monoclinic'
loop_
_space_group_symop_operation_xyz
x,y,z
-x,y,-z
1/2+x,1/2+y,z
1/2-x,1/2+y,-z
loop_
_atom_site_type_symbol
_atom_site_label
_atom_site_fract_x
_atom_site_fract_y
_atom_site_fract_z
Si Si1 0.073452 0.268780 0.169677
Si Si2 0.000000 0.631248 0.000000
Si Si3 0.709095 0.372707 0.533582
Si Si4 0.740200 0.222859 0.301364
Si Si5 0.197708 0.060452 0.478979
Si Si6 0.683893 0.582830 0.112518
O O1 0.921579 0.227172 0.244874
O O2 0.200061 0.323404 0.304985
O O3 0.172484 0.186902 0.120098
O O4 0.000000 0.316394 0.000000
O O5 0.851045 0.570186 0.041759
O O6 0.091392 0.692910 0.148439
O O7 0.500000 0.377011 0.500000
O O8 0.736176 0.315425 0.384771
O O9 0.781457 0.470255 0.550410
O O10 0.729538 0.149172 0.433192
O O11 0.201871 0.055379 0.294181
O O12 0.000000 0.060816 0.500000
O O13 0.500000 0.551285 0.000000
#
# Coordination Sequence:
#
# PCOD9129377 Si02
#       6
#     4   2   4   4   4   4
#     4  11  21  44  72  92 136 185 224 283 348 401
#     4  12  24  40  72 106 130 188 234 282 348 404
#     4  11  25  42  68 105 135 178 237 281 340 418
#     4  12  23  43  69  95 140 178 235 279 349 410
#     4  11  22  44  71  98 137 186 226 283 349 410
#     4  11  21  42  71 100 133 182 229 286 344 410
#
# _framework density 21.644821
#
# number of rings (size 3 to 8) (size 9 to 14) (size 15 to 20)
#    0.000    0.727    7.273    1.636    0.000    0.000 
#    9.818    0.000    0.000    0.000    0.000    0.000 
#    0.000    0.000    0.000    0.000    0.000    0.000 
#
# Total GULP energy -61436.168195 kJ/mol
# GULP energy per Si atom -5585.106200 kJ/mol
# Density = 2.159556 g / cm^3
# Si number density = 21.644821 Si / 1000 Ang^3
#
#
#
# Elastic Constant Matrix: (Units=GPa)
#
#
# Indices 1 2 3 4 5 6 
#
# 1 108.1634 4.2474 35.5480 0.0000 -11.6896 0.0000
# 2 4.2474 61.7532 9.8015 0.0000 0.0864 0.0000
# 3 35.5480 9.8015 122.1041 0.0000 5.5686 0.0000
# 4 0.0000 0.0000 0.0000 -13.4169 0.0000 37.6581
# 5 -11.6896 0.0864 5.5686 0.0000 43.2997 0.0000
# 6 0.0000 0.0000 0.0000 37.6581 0.0000 -37.2155
#
#
#
# Elastic Compliance Matrix: (Units=1/GPa)
#
#
# Indices 1 2 3 4 5 6 
#
# 1 0.010676 -0.000225 -0.003240 0.000000 0.003299 0.000000
# 2 -0.000225 0.016408 -0.001255 0.000000 0.000068 0.000000
# 3 -0.003240 -0.001255 0.009328 0.000000 -0.002072 0.000000
# 4 0.000000 0.000000 0.000000 0.040504 0.000000 0.040985
# 5 0.003299 0.000068 -0.002072 0.000000 0.024252 0.000000
# 6 0.000000 0.000000 0.000000 0.040985 0.000000 0.014602
#
#
# Mechanical properties :
#
#
# Convention : Reuss Voigt Hill
#
# Bulk Modulus (GPa) = 37.07499 43.46826 40.27163
# Shear Modulus (GPa) = 37.25774 14.69504 25.97639
#
# Velocity S-wave (km/s) = 4.15338 2.60843 3.46803
# Velocity P-wave (km/s) = 6.33773 5.40352 5.88918
#
# Compressibility (1/GPa) = 0.02697236
#
# Stress axis : x y z
#
# Youngs Moduli (GPa) = 93.67139 60.94585 107.20030
#
# Poissons Ratio (x) = 0.01369 0.34737
# Poissons Ratio (y) = 0.02104 0.13452
# Poissons Ratio (z) = 0.30353 0.07648
#
# Static dielectric constant tensor:
#      x y z
#    x 2.263160 0.000000 -0.312020 
#    y 0.000000 1.791680 0.000000 
#    z -0.312020 0.000000 2.048470 
# 
# From -- ./inp_files/14881.got.cif
#   From: 2010.05.17/outbox.cif.g08.bks.cpg/sg5_8_cif.got.tgz:14881.got - 2010.06.03 18:56:24.
