data_PCOD9129905
_publ_section_title
;
Structure prediction by ZEFSAII (Michael W. Deem and Ramdas Pophale) SiO2 
 PCOD9129905
Probable space group: C 2
;
_chemical_formula_sum "Si O2"
_cell_formula_units_Z 32
_cell_length_a 8.356992
_cell_length_b 12.875967
_cell_length_c 13.395101
_cell_angle_alpha 90.000000
_cell_angle_beta 90.611928
_cell_angle_gamma 90.000000
_cell_volume 1441.288975
_symmetry_space_group_name_H-M "C 2"
_symmetry_group_IT_number 5
_symmetry_cell_setting 'monoclinic'
loop_
_space_group_symop_operation_xyz
x,y,z
-x,y,-z
1/2+x,1/2+y,z
1/2-x,1/2+y,-z
loop_
_atom_site_type_symbol
_atom_site_label
_atom_site_fract_x
_atom_site_fract_y
_atom_site_fract_z
Si Si1 0.940052 0.937410 0.888156
Si Si2 0.877528 0.761531 0.235364
Si Si3 0.370071 0.610623 0.744542
Si Si4 0.700320 0.434660 0.391413
Si Si5 0.883016 0.263897 0.261619
Si Si6 0.310870 0.435873 0.380023
Si Si7 0.366497 0.103052 0.758294
Si Si8 0.446659 0.933337 0.112747
O O1 0.747023 0.935859 0.886483
O O2 0.029966 0.838304 0.839713
O O3 0.971156 0.034333 0.815816
O O4 0.000000 0.951446 0.000000
O O5 0.746877 0.682556 0.190739
O O6 0.788925 0.831665 0.316305
O O7 0.005600 0.684024 0.286066
O O8 0.264498 0.538944 0.670781
O O9 0.491895 0.685292 0.686902
O O10 0.783492 0.339330 0.334074
O O11 0.505828 0.437970 0.385470
O O12 0.747958 0.433733 0.506783
O O13 0.763072 0.186286 0.202667
O O14 0.977507 0.336511 0.185472
O O15 0.221112 0.527997 0.321011
O O16 0.458093 0.031270 0.839433
O O17 0.500000 0.918600 0.000000
#
# Coordination Sequence:
#
# PCOD9129905 Si02
#       8
#     4   4   4   4   4   4   4   4
#     4  12  27  50  72 104 147 184 235 301 354 415
#     4  12  24  50  73 102 145 192 235 292 350 423
#     4  12  25  48  75 102 146 192 235 290 356 421
#     4  11  23  48  69 110 151 178 240 299 344 422
#     4  12  24  48  74 101 149 190 234 294 353 418
#     4  11  24  44  75 107 147 188 231 297 354 417
#     4  12  23  48  75 101 145 192 229 289 361 416
#     4  12  28  48  71 108 146 180 240 299 347 430
#
# _framework density 22.202349999999999
#
# number of rings (size 3 to 8) (size 9 to 14) (size 15 to 20)
#    0.000    0.250    7.500    0.750    5.250    2.000 
#    0.000    4.375    0.000    0.000    0.000    0.000 
#    0.000    0.000    0.000    0.000    0.000    0.000 
#
# Total GULP energy -89287.331919 kJ/mol
# GULP energy per Si atom -5580.458245 kJ/mol
# Density = 2.215182 g / cm^3
# Si number density = 22.202350 Si / 1000 Ang^3
#
#
#
# Elastic Constant Matrix: (Units=GPa)
#
#
# Indices 1 2 3 4 5 6 
#
# 1 79.4143 60.3282 33.8653 0.0000 -10.1459 0.0000
# 2 60.3282 162.9725 68.1102 0.0000 -13.1204 0.0000
# 3 33.8653 68.1102 154.4723 0.0000 -9.3763 0.0000
# 4 0.0000 0.0000 0.0000 1.3315 0.0000 -0.6516
# 5 -10.1459 -13.1204 -9.3763 0.0000 26.5178 0.0000
# 6 0.0000 0.0000 0.0000 -0.6516 0.0000 69.7438
#
#
#
# Elastic Compliance Matrix: (Units=1/GPa)
#
#
# Indices 1 2 3 4 5 6 
#
# 1 0.018020 -0.005912 -0.001127 0.000000 0.003571 0.000000
# 2 -0.005912 0.009642 -0.002864 0.000000 0.001496 0.000000
# 3 -0.001127 -0.002864 0.008044 0.000000 0.000996 0.000000
# 4 0.000000 0.000000 0.000000 0.754508 0.000000 0.007049
# 5 0.003571 0.001496 0.000996 0.000000 0.040169 0.000000
# 6 0.000000 0.000000 0.000000 0.007049 0.000000 0.014404
#
#
# Mechanical properties :
#
#
# Convention : Reuss Voigt Hill
#
# Bulk Modulus (GPa) = 62.89631 80.16295 71.52963
# Shear Modulus (GPa) = 5.74782 35.15564 20.45173
#
# Velocity S-wave (km/s) = 1.61073 3.98354 3.03834
# Velocity P-wave (km/s) = 5.64353 7.57246 6.67801
#
# Compressibility (1/GPa) = 0.01589918
#
# Stress axis : x y z
#
# Youngs Moduli (GPa) = 55.49309 103.71219 124.31315
#
# Poissons Ratio (x) = 0.61316 0.14011
# Poissons Ratio (y) = 0.32808 0.35609
# Poissons Ratio (z) = 0.06255 0.29708
#
# Static dielectric constant tensor:
#      x y z
#    x 1.940830 0.000000 -0.008340 
#    y 0.000000 1.852450 0.000000 
#    z -0.008340 0.000000 1.762000 
# 
# From -- ./inp_files/50508.got.cif
#   From: 2010.05.17/outbox.cif.g08.bks.cpg/sg5_26_cif.got.tgz:50508.got - 2010.06.03 18:56:24.
