data_PCOD9129246
_publ_section_title
;
Structure prediction by ZEFSAII (Michael W. Deem and Ramdas Pophale) SiO2 
 PCOD9129246
Probable space group: C 2
;
_chemical_formula_sum "Si O2"
_cell_formula_units_Z 32
_cell_length_a 14.778688
_cell_length_b 10.748832
_cell_length_c 19.429652
_cell_angle_alpha 90.000000
_cell_angle_beta 150.886138
_cell_angle_gamma 90.000000
_cell_volume 1501.712399
_symmetry_space_group_name_H-M "C 2"
_symmetry_group_IT_number 5
_symmetry_cell_setting 'monoclinic'
loop_
_space_group_symop_operation_xyz
x,y,z
-x,y,-z
1/2+x,1/2+y,z
1/2-x,1/2+y,-z
loop_
_atom_site_type_symbol
_atom_site_label
_atom_site_fract_x
_atom_site_fract_y
_atom_site_fract_z
Si Si1 0.439370 0.513160 0.318471
Si Si2 0.664599 0.366909 0.570133
Si Si3 0.890723 0.694381 0.859477
Si Si4 0.929633 0.379440 0.377956
Si Si5 0.033388 0.474389 0.866487
Si Si6 0.207151 0.207093 0.473305
Si Si7 0.692967 0.815945 0.088400
Si Si8 0.090539 0.573445 0.758150
O O1 0.558878 0.484359 0.465841
O O2 0.260123 0.595627 0.212927
O O3 0.578705 0.591668 0.364246
O O4 0.363875 0.385660 0.238408
O O5 0.500000 0.295558 0.500000
O O6 0.828730 0.411879 0.728168
O O7 0.745648 0.290865 0.560628
O O8 0.764518 0.803479 0.744289
O O9 0.014586 0.610590 0.889868
O O10 0.000000 0.738445 0.000000
O O11 0.903481 0.492405 0.307133
O O12 0.000000 0.416810 0.500000
O O13 0.083410 0.287084 0.444802
O O14 0.091645 0.487864 0.826325
O O15 0.164661 0.383661 0.996818
O O16 0.395307 0.149047 0.628916
O O17 0.744368 0.672096 0.123971
O O18 0.500000 0.838920 0.000000
#
# Coordination Sequence:
#
# PCOD9129246 Si02
#       8
#     4   4   4   4   4   4   4   4
#     4  11  20  40  70 100 136 181 243 296 347 411
#     4  12  22  38  71 106 141 185 241 301 356 421
#     4  11  22  41  75 100 137 187 244 294 348 435
#     4  11  26  47  71 105 142 190 242 297 370 424
#     4  12  23  43  69 109 138 187 250 286 355 430
#     4  11  23  42  72 102 142 179 238 306 354 415
#     4  12  25  48  72 102 144 198 241 291 357 443
#     4  12  27  45  69 106 153 178 233 311 363 426
#
# _framework density 21.309007000000001
#
# number of rings (size 3 to 8) (size 9 to 14) (size 15 to 20)
#    0.000    0.500    7.500    0.750    1.750    3.000 
#    0.000    1.250    0.000    0.000    0.000    0.000 
#    0.000    0.000    0.000    0.000    0.000    0.000 
#
# Total GULP energy -89436.477491 kJ/mol
# GULP energy per Si atom -5589.779843 kJ/mol
# Density = 2.126051 g / cm^3
# Si number density = 21.309007 Si / 1000 Ang^3
#
#
#
# Elastic Constant Matrix: (Units=GPa)
#
#
# Indices 1 2 3 4 5 6 
#
# 1 88.7853 37.0869 29.9897 -0.0002 -21.9976 -0.0002
# 2 37.0869 83.4663 41.1492 0.0001 -10.8982 -0.0002
# 3 29.9897 41.1492 103.0129 0.0006 -24.1418 0.0012
# 4 -0.0002 0.0001 0.0006 30.2586 -0.0001 8.7648
# 5 -21.9976 -10.8982 -24.1418 -0.0001 34.2845 0.0001
# 6 -0.0002 -0.0002 0.0012 8.7648 0.0001 23.4585
#
#
#
# Elastic Compliance Matrix: (Units=1/GPa)
#
#
# Indices 1 2 3 4 5 6 
#
# 1 0.015798 -0.005768 -0.000419 0.000000 0.008008 0.000000
# 2 -0.005768 0.017037 -0.005658 0.000000 -0.002269 0.000000
# 3 -0.000419 -0.005658 0.013899 0.000000 0.007720 -0.000001
# 4 0.000000 0.000000 0.000000 0.037059 0.000000 -0.013846
# 5 0.008008 -0.002269 0.007720 0.000000 0.039021 -0.000001
# 6 0.000000 0.000000 -0.000001 -0.013846 -0.000001 0.047802
#
#
# Mechanical properties :
#
#
# Convention : Reuss Voigt Hill
#
# Bulk Modulus (GPa) = 43.39363 54.63511 49.01437
# Shear Modulus (GPa) = 24.75429 28.73623 26.74526
#
# Velocity S-wave (km/s) = 3.41204 3.67624 3.54660
# Velocity P-wave (km/s) = 5.99424 6.61172 6.31053
#
# Compressibility (1/GPa) = 0.02304486
#
# Stress axis : x y z
#
# Youngs Moduli (GPa) = 63.30003 58.69640 71.94881
#
# Poissons Ratio (x) = 0.33853 0.03011
# Poissons Ratio (y) = 0.36509 0.40710
# Poissons Ratio (z) = 0.02649 0.33212
#
# Static dielectric constant tensor:
#      x y z
#    x 1.798170 0.000000 0.012310 
#    y 0.000000 1.787310 0.000000 
#    z 0.012310 0.000000 1.765210 
# 
# From -- ./inp_files/61729.got.cif
#   From: 2010.05.17/outbox.cif.g08.bks.cpg/sg5_31_cif.got.tgz:61729.got - 2010.06.03 18:56:24.
