data_PCOD9129255
_publ_section_title
;
Structure prediction by ZEFSAII (Michael W. Deem and Ramdas Pophale) SiO2 
 PCOD9129255
Probable space group: C 2
;
_chemical_formula_sum "Si O2"
_cell_formula_units_Z 28
_cell_length_a 13.776295
_cell_length_b 9.335720
_cell_length_c 11.554750
_cell_angle_alpha 90.000000
_cell_angle_beta 60.502891
_cell_angle_gamma 90.000000
_cell_volume 1293.450992
_symmetry_space_group_name_H-M "C 2"
_symmetry_group_IT_number 5
_symmetry_cell_setting 'monoclinic'
loop_
_space_group_symop_operation_xyz
x,y,z
-x,y,-z
1/2+x,1/2+y,z
1/2-x,1/2+y,-z
loop_
_atom_site_type_symbol
_atom_site_label
_atom_site_fract_x
_atom_site_fract_y
_atom_site_fract_z
Si Si1 0.415537 0.100790 0.208567
Si Si2 0.388141 0.063744 0.576591
Si Si3 0.002067 0.071730 0.363651
Si Si4 0.760585 0.006952 0.878588
Si Si5 0.358473 0.303679 0.424171
Si Si6 0.840099 0.678619 0.859136
Si Si7 0.633710 0.860759 0.592459
O O1 0.349037 0.045803 0.134971
O O2 0.333848 0.210404 0.324359
O O3 0.537750 0.175508 0.147464
O O4 0.428805 0.961957 0.282017
O O5 0.500000 0.966575 0.500000
O O6 0.423195 0.188805 0.466245
O O7 0.351236 0.109919 0.724028
O O8 0.313239 0.954961 0.545807
O O9 0.127875 0.073688 0.243854
O O10 0.000000 0.038145 0.500000
O O11 0.935666 0.218806 0.386588
O O12 0.932710 0.939560 0.351859
O O13 0.789027 0.838038 0.875798
O O14 0.737686 0.079832 0.015533
O O15 0.254076 0.320407 0.572259
#
# Coordination Sequence:
#
# PCOD9129255 Si02
#       7
#     4   4   4   4   4   4   4
#     4  11  24  47  70  99 146 193 239 300 366 439
#     4  11  20  41  68  93 134 185 230 289 364 427
#     4  12  23  40  68 107 145 179 245 301 358 438
#     4  12  28  47  74 105 142 199 244 305 370 439
#     4  11  21  40  70 105 140 182 240 303 370 428
#     4  12  26  48  74 102 146 197 245 299 372 442
#     4  11  23  36  71 107 139 185 238 303 366 434
#
# _framework density 21.647514999999999
#
# number of rings (size 3 to 8) (size 9 to 14) (size 15 to 20)
#    0.000    0.571    4.286    6.429    2.000    1.143 
#    0.000    0.000    0.000    0.000    0.000    0.000 
#    0.000    0.000    0.000    0.000    0.000    0.000 
#
# Total GULP energy -77965.500446 kJ/mol
# GULP energy per Si atom -5568.964318 kJ/mol
# Density = 2.159824 g / cm^3
# Si number density = 21.647515 Si / 1000 Ang^3
#
#
#
# Elastic Constant Matrix: (Units=GPa)
#
#
# Indices 1 2 3 4 5 6 
#
# 1 64.9612 32.7201 26.2716 0.0000 6.9344 0.0000
# 2 32.7201 135.9688 46.7407 0.0000 14.1476 0.0000
# 3 26.2716 46.7407 137.0778 0.0000 9.7757 0.0000
# 4 0.0000 0.0000 0.0000 34.4662 0.0000 -10.9790
# 5 6.9344 14.1476 9.7757 0.0000 28.8551 0.0000
# 6 0.0000 0.0000 0.0000 -10.9790 0.0000 23.0219
#
#
#
# Elastic Compliance Matrix: (Units=1/GPa)
#
#
# Indices 1 2 3 4 5 6 
#
# 1 0.018212 -0.003429 -0.002182 0.000000 -0.001956 0.000000
# 2 -0.003429 0.009275 -0.002295 0.000000 -0.002946 0.000000
# 3 -0.002182 -0.002295 0.008586 0.000000 -0.001259 0.000000
# 4 0.000000 0.000000 0.000000 0.034211 0.000000 0.016315
# 5 -0.001956 -0.002946 -0.001259 0.000000 0.036997 0.000000
# 6 0.000000 0.000000 0.000000 0.016315 0.000000 0.051217
#
#
# Mechanical properties :
#
#
# Convention : Reuss Voigt Hill
#
# Bulk Modulus (GPa) = 49.35620 61.05252 55.20436
# Shear Modulus (GPa) = 27.61443 32.75365 30.18404
#
# Velocity S-wave (km/s) = 3.57548 3.89401 3.73814
# Velocity P-wave (km/s) = 6.31624 6.96290 6.64744
#
# Compressibility (1/GPa) = 0.02026088
#
# Stress axis : x y z
#
# Youngs Moduli (GPa) = 54.90837 107.81162 116.47227
#
# Poissons Ratio (x) = 0.36970 0.25410
# Poissons Ratio (y) = 0.18829 0.26735
# Poissons Ratio (z) = 0.11979 0.24747
#
# Static dielectric constant tensor:
#      x y z
#    x 1.643440 0.000000 -0.165880 
#    y 0.000000 1.819050 0.000000 
#    z -0.165880 0.000000 1.633710 
# 
# From -- ./inp_files/41875.got.cif
#   From: 2010.05.17/outbox.cif.g08.bks.cpg/sg5_21_cif.got.tgz:41875.got - 2010.06.03 18:56:24.
