data_PCOD9129476
_publ_section_title
;
Structure prediction by ZEFSAII (Michael W. Deem and Ramdas Pophale) SiO2 
 PCOD9129476
Probable space group: C 2
;
_chemical_formula_sum "Si O2"
_cell_formula_units_Z 24
_cell_length_a 15.582971
_cell_length_b 9.086983
_cell_length_c 11.685915
_cell_angle_alpha 90.000000
_cell_angle_beta 139.193287
_cell_angle_gamma 90.000000
_cell_volume 1081.395276
_symmetry_space_group_name_H-M "C 2"
_symmetry_group_IT_number 5
_symmetry_cell_setting 'monoclinic'
loop_
_space_group_symop_operation_xyz
x,y,z
-x,y,-z
1/2+x,1/2+y,z
1/2-x,1/2+y,-z
loop_
_atom_site_type_symbol
_atom_site_label
_atom_site_fract_x
_atom_site_fract_y
_atom_site_fract_z
Si Si1 0.500000 0.457760 0.000000
Si Si2 0.899524 0.107403 0.678487
Si Si3 0.837188 0.805603 0.502451
Si Si4 0.307275 0.555428 0.070506
Si Si5 0.500000 0.944719 0.000000
Si Si6 0.454862 0.191008 0.115864
Si Si7 0.754799 0.777557 0.168076
O O1 0.415269 0.553682 0.826558
O O2 0.559876 0.341338 0.970468
O O3 0.047334 0.126059 0.778546
O O4 0.797504 0.239333 0.581562
O O5 0.844028 0.974087 0.547668
O O6 0.614235 0.843409 0.065324
O O7 0.960639 0.725195 0.686331
O O8 0.838714 0.786852 0.367835
O O9 0.305221 0.389565 0.118593
O O10 0.191324 0.628085 0.026298
O O11 0.260862 0.612940 0.898053
O O12 0.461943 0.062404 0.863672
#
# Coordination Sequence:
#
# PCOD9129476 Si02
#       7
#     2   4   4   4   2   4   4
#     4   9  18  39  64  88 124 170 206 240 302 386
#     4  11  23  41  65  94 124 163 208 254 306 369
#     4  11  23  40  65  95 127 161 205 260 311 361
#     4  11  24  40  63  91 123 162 209 253 306 368
#     4   9  18  37  64  90 124 172 212 240 302 386
#     4   9  20  38  63  93 125 162 207 256 305 364
#     4  11  22  40  64  92 125 166 208 257 308 367
#
# _framework density 22.193549999999998
#
# number of rings (size 3 to 8) (size 9 to 14) (size 15 to 20)
#    0.000    1.667    0.000    5.000    0.000    5.333 
#    0.000    0.000    0.000    8.000    0.000    0.000 
#    0.000    0.000    0.000    0.000    0.000    0.000 
#
# Total GULP energy -66929.883417 kJ/mol
# GULP energy per Si atom -5577.490285 kJ/mol
# Density = 2.214304 g / cm^3
# Si number density = 22.193550 Si / 1000 Ang^3
#
#
#
# Elastic Constant Matrix: (Units=GPa)
#
#
# Indices 1 2 3 4 5 6 
#
# 1 119.7843 25.6951 46.2758 0.0000 6.2846 0.0000
# 2 25.6951 70.9760 47.1117 0.0000 -16.3241 0.0000
# 3 46.2758 47.1117 124.3869 0.0000 -17.1564 0.0000
# 4 0.0000 0.0000 0.0000 37.5306 0.0000 3.0079
# 5 6.2846 -16.3241 -17.1564 0.0000 40.0461 0.0000
# 6 0.0000 0.0000 0.0000 3.0079 0.0000 42.6451
#
#
#
# Elastic Compliance Matrix: (Units=1/GPa)
#
#
# Indices 1 2 3 4 5 6 
#
# 1 0.010449 -0.002370 -0.003559 0.000000 -0.004131 0.000000
# 2 -0.002370 0.020312 -0.005971 0.000000 0.006094 0.000000
# 3 -0.003559 -0.005971 0.012080 0.000000 0.003300 0.000000
# 4 0.000000 0.000000 0.000000 0.026796 0.000000 -0.001890
# 5 -0.004131 0.006094 0.003300 0.000000 0.029517 0.000000
# 6 0.000000 0.000000 0.000000 -0.001890 0.000000 0.023583
#
#
# Mechanical properties :
#
#
# Convention : Reuss Voigt Hill
#
# Bulk Modulus (GPa) = 52.52035 61.47918 56.99976
# Shear Modulus (GPa) = 32.70435 37.11533 34.90984
#
# Velocity S-wave (km/s) = 3.84291 4.09387 3.97037
# Velocity P-wave (km/s) = 6.58837 7.07869 6.83793
#
# Compressibility (1/GPa) = 0.01904024
#
# Stress axis : x y z
#
# Youngs Moduli (GPa) = 95.70748 49.23133 82.77967
#
# Poissons Ratio (x) = 0.11669 0.29463
# Poissons Ratio (y) = 0.22684 0.49428
# Poissons Ratio (z) = 0.34064 0.29396
#
# Static dielectric constant tensor:
#      x y z
#    x 1.933710 0.000000 -0.011070 
#    y 0.000000 1.861520 0.000000 
#    z -0.011070 0.000000 1.816170 
# 
# From -- ./inp_files/46090.got.cif
#   From: 2010.05.17/outbox.cif.g08.bks.cpg/sg5_24_cif.got.tgz:46090.got - 2010.06.03 18:56:24.
