data_PCOD9129590
_publ_section_title
;
Structure prediction by ZEFSAII (Michael W. Deem and Ramdas Pophale) SiO2 
 PCOD9129590
Probable space group: C 2
;
_chemical_formula_sum "Si O2"
_cell_formula_units_Z 32
_cell_length_a 11.042891
_cell_length_b 9.739248
_cell_length_c 13.054338
_cell_angle_alpha 90.000000
_cell_angle_beta 86.330917
_cell_angle_gamma 90.000000
_cell_volume 1401.109166
_symmetry_space_group_name_H-M "C 2"
_symmetry_group_IT_number 5
_symmetry_cell_setting 'monoclinic'
loop_
_space_group_symop_operation_xyz
x,y,z
-x,y,-z
1/2+x,1/2+y,z
1/2-x,1/2+y,-z
loop_
_atom_site_type_symbol
_atom_site_label
_atom_site_fract_x
_atom_site_fract_y
_atom_site_fract_z
Si Si1 0.706894 0.711360 0.441149
Si Si2 0.170470 0.080599 0.786527
Si Si3 0.355215 0.393899 0.028965
Si Si4 0.563715 0.499662 0.326648
Si Si5 0.031387 0.711035 0.665436
Si Si6 0.835834 0.518950 0.595523
Si Si7 0.938618 0.638071 0.114696
Si Si8 0.779283 0.393017 0.178868
O O1 0.597572 0.622095 0.400670
O O2 0.756832 0.630437 0.537089
O O3 0.824756 0.708536 0.359506
O O4 0.669269 0.869988 0.456657
O O5 0.183130 0.020614 0.899340
O O6 0.268856 0.009165 0.708447
O O7 0.186876 0.242734 0.785773
O O8 0.039388 0.043289 0.747964
O O9 0.337803 0.253233 0.093868
O O10 0.500000 0.404178 0.000000
O O11 0.285484 0.385468 0.927437
O O12 0.516892 0.355727 0.375346
O O13 0.686796 0.461691 0.262115
O O14 0.966081 0.585521 0.612119
O O15 0.995976 0.702939 0.788556
O O16 0.891930 0.493753 0.157435
O O17 0.000000 0.618021 0.000000
#
# Coordination Sequence:
#
# PCOD9129590 Si02
#       8
#     4   4   4   4   4   4   4   4
#     4  12  28  50  75 109 140 194 244 300 376 432
#     4  12  26  46  74 110 145 193 243 301 366 425
#     4  11  22  44  69 101 146 198 238 287 362 425
#     4  12  24  48  75 102 149 187 242 302 360 434
#     4  12  24  51  74 102 150 191 240 301 365 433
#     4  12  28  48  78 106 143 189 243 306 369 435
#     4  11  24  43  69 104 147 195 240 298 365 422
#     4  12  25  43  70 108 147 190 245 300 352 442
#
# _framework density 22.839047999999998
#
# number of rings (size 3 to 8) (size 9 to 14) (size 15 to 20)
#    0.000    0.250    6.250    2.625    3.500    1.000 
#    4.500    0.000    0.000    0.000    0.000    0.000 
#    0.000    0.000    0.000    0.000    0.000    0.000 
#
# Total GULP energy -89568.477910 kJ/mol
# GULP energy per Si atom -5598.029869 kJ/mol
# Density = 2.278707 g / cm^3
# Si number density = 22.839048 Si / 1000 Ang^3
#
#
#
# Elastic Constant Matrix: (Units=GPa)
#
#
# Indices 1 2 3 4 5 6 
#
# 1 46.0744 44.0433 6.2331 0.0000 -2.0533 0.0000
# 2 44.0433 146.3494 27.4343 0.0000 17.3187 0.0000
# 3 6.2331 27.4343 83.2404 0.0000 -2.4908 0.0000
# 4 0.0000 0.0000 0.0000 40.8680 0.0000 9.1146
# 5 -2.0533 17.3187 -2.4908 0.0000 32.7265 0.0000
# 6 0.0000 0.0000 0.0000 9.1146 0.0000 43.2355
#
#
#
# Elastic Compliance Matrix: (Units=1/GPa)
#
#
# Indices 1 2 3 4 5 6 
#
# 1 0.032310 -0.010926 0.001419 0.000000 0.007917 0.000000
# 2 -0.010926 0.011555 -0.003201 0.000000 -0.007044 0.000000
# 3 0.001419 -0.003201 0.013045 0.000000 0.002776 0.000000
# 4 0.000000 0.000000 0.000000 0.025676 0.000000 -0.005413
# 5 0.007917 -0.007044 0.002776 0.000000 0.034992 0.000000
# 6 0.000000 0.000000 0.000000 -0.005413 0.000000 0.024270
#
#
# Mechanical properties :
#
#
# Convention : Reuss Voigt Hill
#
# Bulk Modulus (GPa) = 31.75358 47.89840 39.82599
# Shear Modulus (GPa) = 28.12742 36.56288 32.34515
#
# Velocity S-wave (km/s) = 3.51315 4.00546 3.76735
# Velocity P-wave (km/s) = 5.51268 6.51224 6.03320
#
# Compressibility (1/GPa) = 0.03149251
#
# Stress axis : x y z
#
# Youngs Moduli (GPa) = 30.95058 86.54426 76.65684
#
# Poissons Ratio (x) = 0.94561 -0.10875
# Poissons Ratio (y) = 0.33818 0.24536
# Poissons Ratio (z) = -0.04391 0.27701
#
# Static dielectric constant tensor:
#      x y z
#    x 1.853980 0.000000 -0.019270 
#    y 0.000000 1.845510 0.000000 
#    z -0.019270 0.000000 1.867930 
# 
# From -- ./inp_files/52455.got.cif
#   From: 2010.05.17/outbox.cif.g08.bks.cpg/sg5_27_cif.got.tgz:52455.got - 2010.06.03 18:56:24.
