data_PCOD9129911
_publ_section_title
;
Structure prediction by ZEFSAII (Michael W. Deem and Ramdas Pophale) SiO2 
 PCOD9129911
Probable space group: C 2
;
_chemical_formula_sum "Si O2"
_cell_formula_units_Z 24
_cell_length_a 10.654486
_cell_length_b 8.627949
_cell_length_c 18.707980
_cell_angle_alpha 90.000000
_cell_angle_beta 145.824383
_cell_angle_gamma 90.000000
_cell_volume 966.041165
_symmetry_space_group_name_H-M "C 2"
_symmetry_group_IT_number 5
_symmetry_cell_setting 'monoclinic'
loop_
_space_group_symop_operation_xyz
x,y,z
-x,y,-z
1/2+x,1/2+y,z
1/2-x,1/2+y,-z
loop_
_atom_site_type_symbol
_atom_site_label
_atom_site_fract_x
_atom_site_fract_y
_atom_site_fract_z
Si Si1 0.233928 0.095410 0.386931
Si Si2 0.640386 0.016093 0.764487
Si Si3 0.144069 0.542325 0.923144
Si Si4 0.975964 0.887245 0.815093
Si Si5 0.744361 0.320993 0.729098
Si Si6 0.628500 0.558694 0.494408
O O1 0.500000 0.073286 0.500000
O O2 0.168940 0.224490 0.298629
O O3 0.172047 0.138171 0.438510
O O4 0.105725 0.939506 0.301574
O O5 0.723530 0.982713 0.882977
O O6 0.373065 0.012170 0.636381
O O7 0.759291 0.906939 0.763296
O O8 0.076602 0.718841 0.876092
O O9 0.924672 0.445132 0.839703
O O10 0.337449 0.508935 0.070149
O O11 0.201576 0.690260 0.767944
O O12 0.527970 0.412798 0.599038
O O13 0.500000 0.640284 0.500000
#
# Coordination Sequence:
#
# PCOD9129911 Si02
#       6
#     4   4   4   4   4   4
#     4  11  23  48  78 111 156 201 251 315 384 444
#     4  11  25  47  74 109 154 198 251 318 371 452
#     4  12  26  49  75 115 151 198 258 310 380 452
#     4  11  25  48  78 112 149 205 252 313 377 453
#     4  11  25  46  76 112 154 201 248 320 373 458
#     4  12  24  44  74 117 152 200 250 313 380 452
#
# _framework density 24.843661000000001
#
# number of rings (size 3 to 8) (size 9 to 14) (size 15 to 20)
#    0.000    0.667    5.000    4.000    0.000    2.667 
#    3.000    7.500    0.000    0.000    0.000    0.000 
#    0.000    0.000    0.000    0.000    0.000    0.000 
#
# Total GULP energy -67251.901916 kJ/mol
# GULP energy per Si atom -5604.325160 kJ/mol
# Density = 2.478712 g / cm^3
# Si number density = 24.843661 Si / 1000 Ang^3
#
#
#
# Elastic Constant Matrix: (Units=GPa)
#
#
# Indices 1 2 3 4 5 6 
#
# 1 136.6179 26.9388 42.9262 0.0003 1.2425 0.0002
# 2 26.9388 80.9732 31.0903 0.0006 11.4082 0.0002
# 3 42.9262 31.0903 132.9095 0.0008 13.3205 0.0004
# 4 0.0003 0.0006 0.0008 41.3018 0.0006 8.6132
# 5 1.2425 11.4082 13.3205 0.0006 35.6698 0.0004
# 6 0.0002 0.0002 0.0004 8.6132 0.0004 40.5684
#
#
#
# Elastic Compliance Matrix: (Units=1/GPa)
#
#
# Indices 1 2 3 4 5 6 
#
# 1 0.008464 -0.002082 -0.002373 0.000000 0.001257 0.000000
# 2 -0.002082 0.014460 -0.002341 0.000000 -0.003678 0.000000
# 3 -0.002373 -0.002341 0.009095 0.000000 -0.002565 0.000000
# 4 0.000000 0.000000 0.000000 0.025334 0.000000 -0.005379
# 5 0.001257 -0.003678 -0.002565 0.000000 0.030125 0.000000
# 6 0.000000 0.000000 0.000000 -0.005379 0.000000 0.025792
#
#
# Mechanical properties :
#
#
# Convention : Reuss Voigt Hill
#
# Bulk Modulus (GPa) = 54.26927 61.37902 57.82415
# Shear Modulus (GPa) = 37.59288 40.14436 38.86862
#
# Velocity S-wave (km/s) = 3.89418 4.02416 3.95970
# Velocity P-wave (km/s) = 6.48932 6.80820 6.65067
#
# Compressibility (1/GPa) = 0.01842663
#
# Stress axis : x y z
#
# Youngs Moduli (GPa) = 118.14296 69.15840 109.95062
#
# Poissons Ratio (x) = 0.14399 0.26088
# Poissons Ratio (y) = 0.24598 0.25743
# Poissons Ratio (z) = 0.28032 0.16192
#
# Static dielectric constant tensor:
#      x y z
#    x 1.982770 0.000000 -0.010050 
#    y 0.000000 2.000280 0.000000 
#    z -0.010050 0.000000 1.931870 
# 
# From -- ./inp_files/59506.got.cif
#   From: 2010.05.17/outbox.cif.g08.bks.cpg/sg5_30_cif.got.tgz:59506.got - 2010.06.03 18:56:24.
