data_PCOD9129621
_publ_section_title
;
Structure prediction by ZEFSAII (Michael W. Deem and Ramdas Pophale) SiO2 
 PCOD9129621
Probable space group: C 2
;
_chemical_formula_sum "Si O2"
_cell_formula_units_Z 32
_cell_length_a 17.692630
_cell_length_b 13.667436
_cell_length_c 11.725874
_cell_angle_alpha 90.000000
_cell_angle_beta 29.585032
_cell_angle_gamma 90.000000
_cell_volume 1399.911972
_symmetry_space_group_name_H-M "C 2"
_symmetry_group_IT_number 5
_symmetry_cell_setting 'monoclinic'
loop_
_space_group_symop_operation_xyz
x,y,z
-x,y,-z
1/2+x,1/2+y,z
1/2-x,1/2+y,-z
loop_
_atom_site_type_symbol
_atom_site_label
_atom_site_fract_x
_atom_site_fract_y
_atom_site_fract_z
Si Si1 0.586320 0.194910 0.667836
Si Si2 0.547730 0.990718 0.620742
Si Si3 0.221509 0.209741 0.153173
Si Si4 0.122340 0.430417 0.927687
Si Si5 0.289441 0.930649 0.801032
Si Si6 0.221718 0.123796 0.389460
Si Si7 0.170803 0.757091 0.328968
Si Si8 0.102217 0.103706 0.089350
O O1 0.619769 0.094123 0.556390
O O2 0.656194 0.187063 0.700498
O O3 0.651912 0.269938 0.490409
O O4 0.404898 0.202389 0.914559
O O5 0.405923 0.998947 0.719602
O O6 0.664443 0.927305 0.392463
O O7 0.479912 0.956300 0.828719
O O8 0.189801 0.323765 0.174217
O O9 0.164746 0.179193 0.351819
O O10 0.160047 0.137578 0.138142
O O11 0.198259 0.524397 0.763892
O O12 0.253945 0.360067 0.803106
O O13 0.000000 0.383978 0.000000
O O14 0.134809 0.990368 0.018566
O O15 0.080216 0.113829 0.662142
O O16 0.000000 0.740484 0.500000
O O17 0.295035 0.674761 0.126789
#
# Coordination Sequence:
#
# PCOD9129621 Si02
#       8
#     4   4   4   4   4   4   4   4
#     4  12  24  50  71  97 147 194 231 291 359 424
#     4  11  22  45  74  97 140 185 236 285 355 419
#     4  12  25  45  76 103 142 190 238 291 354 425
#     4  12  26  47  74 106 145 191 235 294 364 426
#     4  11  25  43  74 105 136 186 240 294 347 413
#     4  12  28  46  69 107 147 186 235 297 359 422
#     4  12  27  47  74 106 141 191 241 295 356 424
#     4  12  26  46  72 108 144 182 240 299 351 423
#
# _framework density 22.858578999999999
#
# number of rings (size 3 to 8) (size 9 to 14) (size 15 to 20)
#    0.000    0.250    6.250    1.500    8.750    1.000 
#    0.000    1.250    0.000    0.000    0.000    0.000 
#    0.000    0.000    0.000    0.000    0.000    0.000 
#
# Total GULP energy -89364.093322 kJ/mol
# GULP energy per Si atom -5585.255833 kJ/mol
# Density = 2.280655 g / cm^3
# Si number density = 22.858579 Si / 1000 Ang^3
#
#
#
# Elastic Constant Matrix: (Units=GPa)
#
#
# Indices 1 2 3 4 5 6 
#
# 1 50.4394 -1.0476 32.6880 0.0000 10.2092 0.0000
# 2 -1.0476 63.1179 12.1559 0.0000 5.1073 0.0000
# 3 32.6880 12.1559 124.4453 0.0000 13.0379 0.0000
# 4 0.0000 0.0000 0.0000 15.1076 0.0000 0.5845
# 5 10.2092 5.1073 13.0379 0.0000 34.0780 0.0000
# 6 0.0000 0.0000 0.0000 0.5845 0.0000 17.1135
#
#
#
# Elastic Compliance Matrix: (Units=1/GPa)
#
#
# Indices 1 2 3 4 5 6 
#
# 1 0.024979 0.002046 -0.006193 0.000000 -0.005420 0.000000
# 2 0.002046 0.016433 -0.001896 0.000000 -0.002350 0.000000
# 3 -0.006193 -0.001896 0.010025 0.000000 -0.001696 0.000000
# 4 0.000000 0.000000 0.000000 0.066279 0.000000 -0.002264
# 5 -0.005420 -0.002350 -0.001696 0.000000 0.031969 0.000000
# 6 0.000000 0.000000 0.000000 -0.002264 0.000000 0.058511
#
#
# Mechanical properties :
#
#
# Convention : Reuss Voigt Hill
#
# Bulk Modulus (GPa) = 25.41303 36.17724 30.79514
# Shear Modulus (GPa) = 21.42242 26.20691 23.81467
#
# Velocity S-wave (km/s) = 3.06465 3.38965 3.23123
# Velocity P-wave (km/s) = 4.86461 5.58395 5.23664
#
# Compressibility (1/GPa) = 0.03934989
#
# Stress axis : x y z
#
# Youngs Moduli (GPa) = 40.03366 60.85426 99.74724
#
# Poissons Ratio (x) = -0.12450 0.61775
# Poissons Ratio (y) = -0.08191 0.18915
# Poissons Ratio (z) = 0.24794 0.11540
#
# Static dielectric constant tensor:
#      x y z
#    x 1.874970 0.000000 0.017160 
#    y 0.000000 1.915410 0.000000 
#    z 0.017160 0.000000 1.932980 
# 
# From -- ./inp_files/44967.got.cif
#   From: 2010.05.17/outbox.cif.g08.bks.cpg/sg5_23_cif.got.tgz:44967.got - 2010.06.03 18:56:24.
