data_PCOD9129479
_publ_section_title
;
Structure prediction by ZEFSAII (Michael W. Deem and Ramdas Pophale) SiO2 
 PCOD9129479
Probable space group: C 2
;
_chemical_formula_sum "Si O2"
_cell_formula_units_Z 20
_cell_length_a 16.633588
_cell_length_b 5.316853
_cell_length_c 12.634106
_cell_angle_alpha 90.000000
_cell_angle_beta 39.782662
_cell_angle_gamma 90.000000
_cell_volume 714.959982
_symmetry_space_group_name_H-M "C 2"
_symmetry_group_IT_number 5
_symmetry_cell_setting 'monoclinic'
loop_
_space_group_symop_operation_xyz
x,y,z
-x,y,-z
1/2+x,1/2+y,z
1/2-x,1/2+y,-z
loop_
_atom_site_type_symbol
_atom_site_label
_atom_site_fract_x
_atom_site_fract_y
_atom_site_fract_z
Si Si1 0.878737 0.135790 0.567944
Si Si2 0.376374 0.707157 0.118736
Si Si3 0.273012 0.838133 0.865793
Si Si4 0.044810 0.549709 0.154342
Si Si5 0.326585 0.144132 0.513222
O O1 0.787979 0.124431 0.760743
O O2 0.831549 0.347942 0.536040
O O3 0.000000 0.252529 0.500000
O O4 0.904061 0.864176 0.495298
O O5 0.263632 0.579606 0.165970
O O6 0.310675 0.725340 0.301722
O O7 0.500000 0.524490 0.000000
O O8 0.440515 0.907799 0.971960
O O9 0.394301 0.868198 0.816626
O O10 0.148036 0.771509 0.055999
O O11 0.905973 0.644250 0.323859
#
# Coordination Sequence:
#
# PCOD9129479 Si02
#       5
#     4   4   4   4   4
#     4  11  22  40  66 107 146 186 239 313 375 432
#     4  11  27  51  69 106 154 200 242 318 382 455
#     4  11  24  42  73 108 149 191 254 316 377 448
#     4  12  24  44  76 110 142 200 253 315 374 456
#     4  11  26  43  71 105 146 194 251 301 377 448
#
# _framework density 27.973590999999999
#
# number of rings (size 3 to 8) (size 9 to 14) (size 15 to 20)
#    0.000    0.800    6.000    0.600    8.400    0.800 
#    3.600    0.000    0.000    0.000    0.000    0.000 
#    0.000    0.000    0.000    0.000    0.000    0.000 
#
# Total GULP energy -55727.531251 kJ/mol
# GULP energy per Si atom -5572.753125 kJ/mol
# Density = 2.790992 g / cm^3
# Si number density = 27.973591 Si / 1000 Ang^3
#
#
#
# Elastic Constant Matrix: (Units=GPa)
#
#
# Indices 1 2 3 4 5 6 
#
# 1 86.2244 34.7056 44.0843 -0.0008 9.4222 -0.0017
# 2 34.7056 105.9245 29.5431 -0.0220 19.7716 0.0096
# 3 44.0843 29.5431 245.5229 -0.0093 -5.5739 0.0078
# 4 -0.0008 -0.0220 -0.0093 44.6264 0.0027 14.0476
# 5 9.4222 19.7716 -5.5739 0.0027 35.9568 -0.0015
# 6 -0.0017 0.0096 0.0078 14.0476 -0.0015 38.2604
#
#
#
# Elastic Compliance Matrix: (Units=1/GPa)
#
#
# Indices 1 2 3 4 5 6 
#
# 1 0.014448 -0.003736 -0.002192 -0.000003 -0.002072 0.000003
# 2 -0.003736 0.011991 -0.000903 0.000008 -0.005754 -0.000006
# 3 -0.002192 -0.000903 0.004616 0.000001 0.001786 -0.000001
# 4 -0.000003 0.000008 0.000001 0.025337 -0.000006 -0.009303
# 5 -0.002072 -0.005754 0.001786 -0.000006 0.031795 0.000004
# 6 0.000003 -0.000006 -0.000001 -0.009303 0.000004 0.029552
#
#
# Mechanical properties :
#
#
# Convention : Reuss Voigt Hill
#
# Bulk Modulus (GPa) = 57.49144 72.70421 65.09783
# Shear Modulus (GPa) = 36.44401 45.72465 41.08433
#
# Velocity S-wave (km/s) = 3.61335 4.04736 3.83650
# Velocity P-wave (km/s) = 6.16482 6.92013 6.55337
#
# Compressibility (1/GPa) = 0.01739389
#
# Stress axis : x y z
#
# Youngs Moduli (GPa) = 69.21220 83.39886 216.65518
#
# Poissons Ratio (x) = 0.31158 0.47485
# Poissons Ratio (y) = 0.25857 0.19556
# Poissons Ratio (z) = 0.15169 0.07528
#
# Static dielectric constant tensor:
#      x y z
#    x 2.357970 -0.000030 -0.048150 
#    y -0.000030 2.158510 0.000010 
#    z -0.048150 0.000010 2.311160 
# 
# From -- ./inp_files/56453.got.cif
#   From: 2010.05.17/outbox.cif.g08.bks.cpg/sg5_29_cif.got.tgz:56453.got - 2010.06.03 18:56:24.
