data_PCOD9129490
_publ_section_title
;
Structure prediction by ZEFSAII (Michael W. Deem and Ramdas Pophale) SiO2 
 PCOD9129490
Probable space group: C 2
;
_chemical_formula_sum "Si O2"
_cell_formula_units_Z 24
_cell_length_a 8.783211
_cell_length_b 18.344461
_cell_length_c 7.695841
_cell_angle_alpha 90.000000
_cell_angle_beta 125.595087
_cell_angle_gamma 90.000000
_cell_volume 1008.289825
_symmetry_space_group_name_H-M "C 2"
_symmetry_group_IT_number 5
_symmetry_cell_setting 'monoclinic'
loop_
_space_group_symop_operation_xyz
x,y,z
-x,y,-z
1/2+x,1/2+y,z
1/2-x,1/2+y,-z
loop_
_atom_site_type_symbol
_atom_site_label
_atom_site_fract_x
_atom_site_fract_y
_atom_site_fract_z
Si Si1 0.545067 0.093500 0.325374
Si Si2 0.108814 0.997392 0.419039
Si Si3 0.858122 0.111027 0.068867
Si Si4 0.217451 0.384824 0.695373
Si Si5 0.838269 0.754525 0.530384
Si Si6 0.435299 0.761224 0.250589
O O1 0.500000 0.090309 0.500000
O O2 0.697763 0.032460 0.386858
O O3 0.626881 0.175605 0.356648
O O4 0.346799 0.080277 0.104140
O O5 0.000000 0.954868 0.500000
O O6 0.971816 0.063246 0.280531
O O7 0.160105 0.953979 0.276036
O O8 0.823815 0.192281 0.114372
O O9 0.000000 0.113624 0.000000
O O10 0.319496 0.322306 0.647668
O O11 0.175486 0.337317 0.840172
O O12 0.000000 0.402971 0.500000
O O13 0.638476 0.756102 0.298165
O O14 0.000000 0.763915 0.500000
O O15 0.500000 0.752990 0.500000
#
# Coordination Sequence:
#
# PCOD9129490 Si02
#       6
#     4   4   4   4   4   4
#     4  11  22  40  69 101 138 184 233 288 347 417
#     4  12  25  43  68 103 145 185 233 291 356 414
#     4  12  23  40  71 105 141 180 238 293 348 414
#     4   9  21  39  70  92 139 188 226 283 353 413
#     4   9  16  34  62  95 129 169 227 281 341 396
#     4   9  19  40  66  99 133 181 230 290 342 417
#
# _framework density 23.802679000000001
#
# number of rings (size 3 to 8) (size 9 to 14) (size 15 to 20)
#    0.000    2.000    3.333    2.500    2.333    0.667 
#    0.000    1.667    0.000    0.000    8.667    0.000 
#    0.000    0.000    0.000    0.000    0.000    0.000 
#
# Total GULP energy -66920.974188 kJ/mol
# GULP energy per Si atom -5576.747849 kJ/mol
# Density = 2.374850 g / cm^3
# Si number density = 23.802679 Si / 1000 Ang^3
#
#
#
# Elastic Constant Matrix: (Units=GPa)
#
#
# Indices 1 2 3 4 5 6 
#
# 1 152.8837 34.4292 25.8721 0.0000 23.8291 0.0000
# 2 34.4292 86.4665 10.4533 0.0000 16.0819 0.0000
# 3 25.8721 10.4533 65.4188 0.0000 28.9257 0.0000
# 4 0.0000 0.0000 0.0000 -6.2016 0.0000 -6.3824
# 5 23.8291 16.0819 28.9257 0.0000 32.8320 0.0000
# 6 0.0000 0.0000 0.0000 -6.3824 0.0000 36.8150
#
#
#
# Elastic Compliance Matrix: (Units=1/GPa)
#
#
# Indices 1 2 3 4 5 6 
#
# 1 0.007806 -0.002316 -0.001169 0.000000 -0.003501 0.000000
# 2 -0.002316 0.013468 0.001536 0.000000 -0.006269 0.000000
# 3 -0.001169 0.001536 0.025327 0.000000 -0.022217 0.000000
# 4 0.000000 0.000000 0.000000 -0.136835 0.000000 -0.023722
# 5 -0.003501 -0.006269 -0.022217 0.000000 0.055644 0.000000
# 6 0.000000 0.000000 0.000000 -0.023722 0.000000 0.023050
#
#
# Mechanical properties :
#
#
# Convention : Reuss Voigt Hill
#
# Bulk Modulus (GPa) = 23.41784 49.58646 36.50215
# Shear Modulus (GPa) = 758.56028 28.29004 393.42516
#
# Velocity S-wave (km/s) = 17.87117 3.45124 12.87031
# Velocity P-wave (km/s) = 20.87338 6.06291 15.36973
#
# Compressibility (1/GPa) = 0.04270248
#
# Stress axis : x y z
#
# Youngs Moduli (GPa) = 128.10737 74.25259 39.48424
#
# Poissons Ratio (x) = 0.17194 0.04615
# Poissons Ratio (y) = 0.29665 -0.06064
# Poissons Ratio (z) = 0.14975 -0.11404
#
# Static dielectric constant tensor:
#      x y z
#    x 2.031000 0.000000 -0.032100 
#    y 0.000000 1.957470 0.000000 
#    z -0.032100 0.000000 1.939360 
# 
# From -- ./inp_files/16868.got.cif
#   From: 2010.05.17/outbox.cif.g08.bks.cpg/sg5_9_cif.got.tgz:16868.got - 2010.06.03 18:56:24.
