data_PCOD9129615
_publ_section_title
;
Structure prediction by ZEFSAII (Michael W. Deem and Ramdas Pophale) SiO2 
 PCOD9129615
Probable space group: C 2
;
_chemical_formula_sum "Si O2"
_cell_formula_units_Z 28
_cell_length_a 15.485001
_cell_length_b 11.671770
_cell_length_c 8.036418
_cell_angle_alpha 90.000000
_cell_angle_beta 119.811825
_cell_angle_gamma 90.000000
_cell_volume 1260.263876
_symmetry_space_group_name_H-M "C 2"
_symmetry_group_IT_number 5
_symmetry_cell_setting 'monoclinic'
loop_
_space_group_symop_operation_xyz
x,y,z
-x,y,-z
1/2+x,1/2+y,z
1/2-x,1/2+y,-z
loop_
_atom_site_type_symbol
_atom_site_label
_atom_site_fract_x
_atom_site_fract_y
_atom_site_fract_z
Si Si1 0.016984 0.446270 0.703677
Si Si2 0.961705 0.222572 0.794091
Si Si3 0.779649 0.519215 0.987494
Si Si4 0.785664 0.061948 0.720549
Si Si5 0.419515 0.344947 0.787338
Si Si6 0.859389 0.597613 0.710707
Si Si7 0.052983 0.010355 0.717957
O O1 0.000000 0.489731 0.500000
O O2 0.964488 0.322738 0.664131
O O3 0.964205 0.536206 0.776000
O O4 0.132246 0.433952 0.869276
O O5 0.856743 0.163610 0.726466
O O6 0.035576 0.116868 0.825875
O O7 0.000000 0.279402 0.000000
O O8 0.819829 0.580737 0.859926
O O9 0.668890 0.478840 0.827524
O O10 0.762075 0.587108 0.145061
O O11 0.710642 0.041497 0.496870
O O12 0.850401 0.944973 0.797166
O O13 0.363044 0.232571 0.677125
O O14 0.484406 0.405453 0.708032
O O15 0.500000 0.306340 0.000000
O O16 0.000000 0.053193 0.500000
#
# Coordination Sequence:
#
# PCOD9129615 Si02
#       7
#     4   4   4   4   4   4   4
#     4  12  27  47  70 105 156 194 240 309 376 438
#     4  11  22  45  72 104 148 186 240 312 359 433
#     4  12  23  48  75 104 144 194 244 294 374 442
#     4  11  24  47  76 107 144 191 247 303 370 443
#     4  11  23  48  73 101 151 191 239 315 368 431
#     4  12  28  47  70 111 151 191 245 308 372 442
#     4  11  23  46  75 108 138 188 253 302 362 446
#
# _framework density 22.217569999999998
#
# number of rings (size 3 to 8) (size 9 to 14) (size 15 to 20)
#    0.000    0.571    4.286    5.143    2.000    1.714 
#   10.286    0.000    0.000    0.000    0.000    0.000 
#    0.000    0.000    0.000    0.000    0.000    0.000 
#
# Total GULP energy -78186.677629 kJ/mol
# GULP energy per Si atom -5584.762688 kJ/mol
# Density = 2.216700 g / cm^3
# Si number density = 22.217570 Si / 1000 Ang^3
#
#
#
# Elastic Constant Matrix: (Units=GPa)
#
#
# Indices 1 2 3 4 5 6 
#
# 1 132.7393 45.8265 43.4173 0.0000 -15.4120 0.0000
# 2 45.8265 88.2865 2.2068 0.0000 -13.3229 0.0000
# 3 43.4173 2.2068 102.5402 0.0000 7.3547 0.0000
# 4 0.0000 0.0000 0.0000 22.3514 0.0000 -0.3019
# 5 -15.4120 -13.3229 7.3547 0.0000 27.9141 0.0000
# 6 0.0000 0.0000 0.0000 -0.3019 0.0000 15.6879
#
#
#
# Elastic Compliance Matrix: (Units=1/GPa)
#
#
# Indices 1 2 3 4 5 6 
#
# 1 0.011609 -0.005089 -0.005189 0.000000 0.005348 0.000000
# 2 -0.005089 0.014485 0.001579 0.000000 0.003688 0.000000
# 3 -0.005189 0.001579 0.012300 0.000000 -0.005352 0.000000
# 4 0.000000 0.000000 0.000000 0.044751 0.000000 0.000861
# 5 0.005348 0.003688 -0.005352 0.000000 0.041947 0.000000
# 6 0.000000 0.000000 0.000000 0.000861 0.000000 0.063760
#
#
# Mechanical properties :
#
#
# Convention : Reuss Voigt Hill
#
# Bulk Modulus (GPa) = 47.63304 56.27414 51.95359
# Shear Modulus (GPa) = 23.44662 28.66503 26.05583
#
# Velocity S-wave (km/s) = 3.25209 3.59583 3.42827
# Velocity P-wave (km/s) = 5.96551 6.52868 6.25344
#
# Compressibility (1/GPa) = 0.02099383
#
# Stress axis : x y z
#
# Youngs Moduli (GPa) = 86.14151 69.03523 81.30406
#
# Poissons Ratio (x) = 0.35132 0.42192
# Poissons Ratio (y) = 0.43837 -0.12834
# Poissons Ratio (z) = 0.44703 -0.10897
#
# Static dielectric constant tensor:
#      x y z
#    x 1.854310 0.000000 -0.014970 
#    y 0.000000 1.762130 0.000000 
#    z -0.014970 0.000000 1.936550 
# 
# From -- ./inp_files/23955.got.cif
#   From: 2010.05.17/outbox.cif.g08.bks.cpg/sg5_12_cif.got.tgz:23955.got - 2010.06.03 18:56:24.
