data_PCOD9129373
_publ_section_title
;
Structure prediction by ZEFSAII (Michael W. Deem and Ramdas Pophale) SiO2 
 PCOD9129373
Probable space group: C 2
;
_chemical_formula_sum "Si O2"
_cell_formula_units_Z 32
_cell_length_a 11.599953
_cell_length_b 13.461077
_cell_length_c 11.011298
_cell_angle_alpha 90.000000
_cell_angle_beta 111.999910
_cell_angle_gamma 90.000000
_cell_volume 1594.192238
_symmetry_space_group_name_H-M "C 2"
_symmetry_group_IT_number 5
_symmetry_cell_setting 'monoclinic'
loop_
_space_group_symop_operation_xyz
x,y,z
-x,y,-z
1/2+x,1/2+y,z
1/2-x,1/2+y,-z
loop_
_atom_site_type_symbol
_atom_site_label
_atom_site_fract_x
_atom_site_fract_y
_atom_site_fract_z
Si Si1 0.318388 0.225250 0.006419
Si Si2 0.631870 0.102809 0.490074
Si Si3 0.132577 0.105996 0.105026
Si Si4 0.147275 0.379689 0.537971
Si Si5 0.582190 0.141657 0.194274
Si Si6 0.541993 0.908696 0.148962
Si Si7 0.721030 0.900834 0.828907
Si Si8 0.817310 0.246730 0.675345
O O1 0.209703 0.179708 0.046424
O O2 0.451475 0.199756 0.120292
O O3 0.324795 0.176446 0.874661
O O4 0.294241 0.339167 0.960399
O O5 0.500000 0.088661 0.500000
O O6 0.622328 0.145073 0.350110
O O7 0.695731 0.181666 0.604989
O O8 0.687997 0.990457 0.508229
O O9 0.103200 0.166045 0.217846
O O10 0.223062 0.011400 0.155290
O O11 0.000000 0.075038 0.000000
O O12 0.221642 0.360631 0.691615
O O13 0.158303 0.290554 0.447616
O O14 0.000000 0.386039 0.500000
O O15 0.563028 0.025555 0.158677
O O16 0.423948 0.894707 0.190709
O O17 0.661540 0.846103 0.237278
O O18 0.500000 0.875228 0.000000
#
# Coordination Sequence:
#
# PCOD9129373 Si02
#       8
#     4   4   4   4   4   4   4   4
#     4  11  24  41  68  98 129 178 219 275 334 392
#     4  11  22  41  66  96 133 170 221 271 329 399
#     4  12  26  43  65 101 139 172 219 286 338 393
#     4  11  22  41  70  91 124 178 221 267 323 406
#     4  11  21  42  69  95 125 173 230 268 317 404
#     4  12  21  40  69  97 124 167 226 275 322 395
#     4  12  23  44  66  95 137 175 220 267 346 399
#     4  12  23  39  68  96 127 171 217 274 327 388
#
# _framework density 20.072862000000001
#
# number of rings (size 3 to 8) (size 9 to 14) (size 15 to 20)
#    0.000    0.500    6.250    4.125    1.750    0.000 
#    0.000    0.000    0.000    0.750    0.000    0.000 
#    0.000    0.000    0.000    0.000    0.000    0.000 
#
# Total GULP energy -89175.012066 kJ/mol
# GULP energy per Si atom -5573.438254 kJ/mol
# Density = 2.002717 g / cm^3
# Si number density = 20.072862 Si / 1000 Ang^3
#
#
#
# Elastic Constant Matrix: (Units=GPa)
#
#
# Indices 1 2 3 4 5 6 
#
# 1 46.7466 23.8871 14.8845 0.0000 -5.1869 0.0000
# 2 23.8871 107.7354 30.1671 0.0000 4.1427 0.0000
# 3 14.8845 30.1671 118.0000 0.0000 -4.4108 0.0000
# 4 0.0000 0.0000 0.0000 -120.8166 0.0000 -85.1029
# 5 -5.1869 4.1427 -4.4108 0.0000 26.6467 0.0000
# 6 0.0000 0.0000 0.0000 -85.1029 0.0000 -21.9261
#
#
#
# Elastic Compliance Matrix: (Units=1/GPa)
#
#
# Indices 1 2 3 4 5 6 
#
# 1 0.025251 -0.005359 -0.001610 0.000000 0.005482 0.000000
# 2 -0.005359 0.011241 -0.002316 0.000000 -0.003174 0.000000
# 3 -0.001610 -0.002316 0.009329 0.000000 0.001591 0.000000
# 4 0.000000 0.000000 0.000000 0.004773 0.000000 -0.018527
# 5 0.005482 -0.003174 0.001591 0.000000 0.039352 0.000000
# 6 0.000000 0.000000 0.000000 -0.018527 0.000000 0.026302
#
#
# Mechanical properties :
#
#
# Convention : Reuss Voigt Hill
#
# Bulk Modulus (GPa) = 36.69647 45.59548 41.14598
# Shear Modulus (GPa) = 34.74573 -9.64964 12.54805
#
# Velocity S-wave (km/s) = 4.16502 -2.19494 2.50296
# Velocity P-wave (km/s) = 6.43826 4.04236 5.37549
#
# Compressibility (1/GPa) = 0.02725057
#
# Stress axis : x y z
#
# Youngs Moduli (GPa) = 39.60228 88.96177 107.18817
#
# Poissons Ratio (x) = 0.47671 0.17261
# Poissons Ratio (y) = 0.21221 0.24830
# Poissons Ratio (z) = 0.06377 0.20608
#
# Static dielectric constant tensor:
#      x y z
#    x 1.699680 0.000000 -0.007740 
#    y 0.000000 1.729030 0.000000 
#    z -0.007740 0.000000 1.762890 
# 
# From -- ./inp_files/39446.got.cif
#   From: 2010.05.17/outbox.cif.g08.bks.cpg/sg5_20_cif.got.tgz:39446.got - 2010.06.03 18:56:24.
