data_PCOD9129316
_publ_section_title
;
Structure prediction by ZEFSAII (Michael W. Deem and Ramdas Pophale) SiO2 
 PCOD9129316
Probable space group: C 2
;
_chemical_formula_sum "Si O2"
_cell_formula_units_Z 30
_cell_length_a 13.345519
_cell_length_b 13.493404
_cell_length_c 18.955646
_cell_angle_alpha 90.000000
_cell_angle_beta 151.878600
_cell_angle_gamma 90.000000
_cell_volume 1608.907580
_symmetry_space_group_name_H-M "C 2"
_symmetry_group_IT_number 5
_symmetry_cell_setting 'monoclinic'
loop_
_space_group_symop_operation_xyz
x,y,z
-x,y,-z
1/2+x,1/2+y,z
1/2-x,1/2+y,-z
loop_
_atom_site_type_symbol
_atom_site_label
_atom_site_fract_x
_atom_site_fract_y
_atom_site_fract_z
Si Si1 0.000000 0.605070 0.000000
Si Si2 0.528692 0.597070 0.901137
Si Si3 0.614101 0.934738 0.174466
Si Si4 0.375499 0.390602 0.116992
Si Si5 0.503040 0.324899 0.345131
Si Si6 0.098114 0.417794 0.328529
Si Si7 0.712672 0.748460 0.910443
Si Si8 0.139105 0.605504 0.763536
O O1 0.890605 0.535024 0.873702
O O2 0.825569 0.672747 0.928824
O O3 0.571917 0.494087 0.887721
O O4 0.552819 0.686394 0.860833
O O5 0.304899 0.593332 0.802261
O O6 0.712378 0.612082 0.074190
O O7 0.648120 0.949942 0.278916
O O8 0.788879 0.861808 0.251141
O O9 0.374871 0.892942 0.017935
O O10 0.503656 0.371585 0.267332
O O11 0.388083 0.301463 0.068936
O O12 0.701056 0.365482 0.511706
O O13 0.488443 0.206864 0.327260
O O14 0.911031 0.336617 0.204973
O O15 0.012410 0.511592 0.318657
#
# Coordination Sequence:
#
# PCOD9129316 Si02
#       8
#     2   4   4   4   4   4   4   4
#     4  12  22  36  74  98 124 162 230 266 332 370
#     4  11  21  39  68  97 122 164 221 271 307 380
#     4  11  21  42  64  97 122 167 219 273 308 380
#     4  11  21  38  63  93 127 160 217 266 317 373
#     4  12  24  41  66  92 130 173 211 265 325 392
#     4  11  26  43  61  94 138 167 212 265 334 391
#     4  11  22  39  64  96 129 166 214 271 322 381
#     4  11  23  39  67  95 124 169 216 264 325 377
#
# _framework density 18.646191999999999
#
# number of rings (size 3 to 8) (size 9 to 14) (size 15 to 20)
#    0.000    0.800    6.667    2.000    3.733    2.133 
#    0.000    2.000    0.000    0.000    0.000    0.000 
#    0.000    0.000    0.000    0.000    0.000    0.000 
#
# Total GULP energy -83838.275925 kJ/mol
# GULP energy per Si atom -5589.218395 kJ/mol
# Density = 1.860375 g / cm^3
# Si number density = 18.646192 Si / 1000 Ang^3
#
#
#
# Elastic Constant Matrix: (Units=GPa)
#
#
# Indices 1 2 3 4 5 6 
#
# 1 94.9493 75.0277 42.4561 -0.0001 -9.0332 0.0002
# 2 75.0277 156.7330 38.0912 0.0022 -1.6169 0.0010
# 3 42.4561 38.0912 77.9537 0.0041 -19.3694 0.0020
# 4 -0.0001 0.0022 0.0041 18.2286 0.0006 -4.4440
# 5 -9.0332 -1.6169 -19.3694 0.0006 18.8011 0.0003
# 6 0.0002 0.0010 0.0020 -4.4440 0.0003 42.2159
#
#
#
# Elastic Compliance Matrix: (Units=1/GPa)
#
#
# Indices 1 2 3 4 5 6 
#
# 1 0.019876 -0.007942 -0.006372 0.000003 0.002302 0.000001
# 2 -0.007942 0.010652 -0.002150 -0.000001 -0.005115 0.000000
# 3 -0.006372 -0.002150 0.022235 -0.000006 0.019660 -0.000002
# 4 0.000003 -0.000001 -0.000006 0.056304 -0.000007 0.005927
# 5 0.002302 -0.005115 0.019660 -0.000007 0.074109 -0.000002
# 6 0.000001 0.000000 -0.000002 0.005927 -0.000002 0.024312
#
#
# Mechanical properties :
#
#
# Convention : Reuss Voigt Hill
#
# Bulk Modulus (GPa) = 50.42202 71.19844 60.81023
# Shear Modulus (GPa) = 20.24065 27.45320 23.84692
#
# Velocity S-wave (km/s) = 3.29828 3.84125 3.58007
# Velocity P-wave (km/s) = 6.45020 7.61186 7.05498
#
# Compressibility (1/GPa) = 0.01983261
#
# Stress axis : x y z
#
# Youngs Moduli (GPa) = 50.31164 93.87866 44.97512
#
# Poissons Ratio (x) = 0.74560 0.28660
# Poissons Ratio (y) = 0.39959 0.09672
# Poissons Ratio (z) = 0.32061 0.20188
#
# Static dielectric constant tensor:
#      x y z
#    x 1.659250 0.000000 -0.013810 
#    y 0.000000 1.647500 0.000000 
#    z -0.013810 0.000000 1.616910 
# 
# From -- ./inp_files/60660.got.cif
#   From: 2010.05.17/outbox.cif.g08.bks.cpg/sg5_31_cif.got.tgz:60660.got - 2010.06.03 18:56:24.
