data_PCOD9129307
_publ_section_title
;
Structure prediction by ZEFSAII (Michael W. Deem and Ramdas Pophale) SiO2 
 PCOD9129307
Probable space group: C 2
;
_chemical_formula_sum "Si O2"
_cell_formula_units_Z 24
_cell_length_a 8.855440
_cell_length_b 12.916738
_cell_length_c 8.934461
_cell_angle_alpha 90.000000
_cell_angle_beta 91.845390
_cell_angle_gamma 90.000000
_cell_volume 1021.423988
_symmetry_space_group_name_H-M "C 2"
_symmetry_group_IT_number 5
_symmetry_cell_setting 'monoclinic'
loop_
_space_group_symop_operation_xyz
x,y,z
-x,y,-z
1/2+x,1/2+y,z
1/2-x,1/2+y,-z
loop_
_atom_site_type_symbol
_atom_site_label
_atom_site_fract_x
_atom_site_fract_y
_atom_site_fract_z
Si Si1 0.475226 0.987600 0.667492
Si Si2 0.885161 0.718867 0.370041
Si Si3 0.576453 0.268230 0.136223
Si Si4 0.912634 0.100552 0.651257
Si Si5 0.261297 0.965616 0.130310
Si Si6 0.216805 0.085220 0.821827
O O1 0.500000 0.944032 0.500000
O O2 0.570321 0.937869 0.806699
O O3 0.545974 0.104133 0.661792
O O4 0.302219 0.004743 0.712586
O O5 0.707449 0.695021 0.378897
O O6 0.000000 0.757914 0.500000
O O7 0.933949 0.791292 0.235935
O O8 0.662280 0.367823 0.082224
O O9 0.700753 0.193836 0.208903
O O10 0.500000 0.205876 0.000000
O O11 0.000000 0.080662 0.500000
O O12 0.043970 0.108245 0.779137
O O13 0.814762 0.008085 0.718726
O O14 0.247138 0.045588 0.992033
#
# Coordination Sequence:
#
# PCOD9129307 Si02
#       6
#     4   4   4   4   4   4
#     4   9  18  38  64  88 120 164 203 248 312 377
#     4   9  19  38  62  86 117 160 208 254 310 374
#     4  11  22  39  61  86 121 166 210 258 316 376
#     4  11  21  37  62  90 122 165 213 262 313 374
#     4  11  23  39  59  91 125 164 213 257 312 380
#     4  11  21  39  64  91 125 163 207 263 318 377
#
# _framework density 23.496608999999999
#
# number of rings (size 3 to 8) (size 9 to 14) (size 15 to 20)
#    0.000    1.667    0.000    9.000    0.000    0.667 
#    0.000   12.500    0.000    0.000    0.000    0.000 
#    0.000    0.000    0.000    0.000    0.000    0.000 
#
# Total GULP energy -66830.554070 kJ/mol
# GULP energy per Si atom -5569.212839 kJ/mol
# Density = 2.344313 g / cm^3
# Si number density = 23.496609 Si / 1000 Ang^3
#
#
#
# Elastic Constant Matrix: (Units=GPa)
#
#
# Indices 1 2 3 4 5 6 
#
# 1 150.0111 22.0518 35.3094 0.0000 16.4415 0.0000
# 2 22.0518 29.2177 9.7935 0.0000 -3.8408 0.0000
# 3 35.3094 9.7935 113.5165 0.0000 5.3037 0.0000
# 4 0.0000 0.0000 0.0000 8.6459 0.0000 -3.2333
# 5 16.4415 -3.8408 5.3037 0.0000 42.8208 0.0000
# 6 0.0000 0.0000 0.0000 -3.2333 0.0000 19.9174
#
#
#
# Elastic Compliance Matrix: (Units=1/GPa)
#
#
# Indices 1 2 3 4 5 6 
#
# 1 0.008414 -0.006174 -0.001919 0.000000 -0.003547 0.000000
# 2 -0.006174 0.040322 -0.001849 0.000000 0.006216 0.000000
# 3 -0.001919 -0.001849 0.009595 0.000000 -0.000617 0.000000
# 4 0.000000 0.000000 0.000000 0.123137 0.000000 0.019990
# 5 -0.003547 0.006216 -0.000617 0.000000 0.025349 0.000000
# 6 0.000000 0.000000 0.000000 0.019990 0.000000 0.053452
#
#
# Mechanical properties :
#
#
# Convention : Reuss Voigt Hill
#
# Bulk Modulus (GPa) = 26.00905 47.45051 36.72978
# Shear Modulus (GPa) = 17.06671 29.31618 23.19144
#
# Velocity S-wave (km/s) = 2.69801 3.53608 3.14508
# Velocity P-wave (km/s) = 4.56059 6.07538 5.37165
#
# Compressibility (1/GPa) = 0.03844815
#
# Stress axis : x y z
#
# Youngs Moduli (GPa) = 118.84839 24.80030 104.22612
#
# Poissons Ratio (x) = 0.15310 0.20000
# Poissons Ratio (y) = 0.73371 0.19270
# Poissons Ratio (z) = 0.22806 0.04585
#
# Static dielectric constant tensor:
#      x y z
#    x 2.058070 0.000000 0.055780 
#    y 0.000000 1.901370 0.000000 
#    z 0.055780 0.000000 2.113290 
# 
# From -- ./inp_files/15027.got.cif
#   From: 2010.05.17/outbox.cif.g08.bks.cpg/sg5_8_cif.got.tgz:15027.got - 2010.06.03 18:56:24.
