data_PCOD9129849
_publ_section_title
;
Structure prediction by ZEFSAII (Michael W. Deem and Ramdas Pophale) SiO2 
 PCOD9129849
Probable space group: C 2
;
_chemical_formula_sum "Si O2"
_cell_formula_units_Z 20
_cell_length_a 17.061804
_cell_length_b 7.749219
_cell_length_c 11.525167
_cell_angle_alpha 90.000000
_cell_angle_beta 150.085427
_cell_angle_gamma 90.000000
_cell_volume 759.935326
_symmetry_space_group_name_H-M "C 2"
_symmetry_group_IT_number 5
_symmetry_cell_setting 'monoclinic'
loop_
_space_group_symop_operation_xyz
x,y,z
-x,y,-z
1/2+x,1/2+y,z
1/2-x,1/2+y,-z
loop_
_atom_site_type_symbol
_atom_site_label
_atom_site_fract_x
_atom_site_fract_y
_atom_site_fract_z
Si Si1 0.388766 0.228000 0.162178
Si Si2 0.169828 0.106855 0.667219
Si Si3 0.120496 0.435245 0.436794
Si Si4 0.653173 0.802361 0.068827
Si Si5 0.028171 0.960828 0.152589
O O1 0.479025 0.379385 0.211053
O O2 0.516480 0.084879 0.363075
O O3 0.273459 0.162320 0.911742
O O4 0.277545 0.279496 0.124241
O O5 0.146114 0.268195 0.551008
O O6 0.000000 0.058995 0.500000
O O7 0.263101 0.939295 0.740432
O O8 0.287959 0.501748 0.607729
O O9 0.008131 0.379831 0.187767
O O10 0.597259 0.613002 0.031813
O O11 0.000000 0.844309 0.000000
#
# Coordination Sequence:
#
# PCOD9129849 Si02
#       5
#     4   4   4   4   4
#     4  11  24  47  78 110 155 205 263 319 387 477
#     4  11  23  45  74 112 150 208 261 320 389 466
#     4  11  24  46  76 109 155 206 261 328 388 468
#     4  11  26  47  75 113 156 209 263 316 394 479
#     4  12  25  47  72 116 157 196 260 327 393 457
#
# _framework density 26.318028999999999
#
# number of rings (size 3 to 8) (size 9 to 14) (size 15 to 20)
#    0.000    0.800    4.000    3.600    0.000    1.600 
#   10.800    0.000    0.000    0.000    0.000    0.000 
#    0.000    0.000    0.000    0.000    0.000    0.000 
#
# Total GULP energy -56034.359245 kJ/mol
# GULP energy per Si atom -5603.435925 kJ/mol
# Density = 2.625813 g / cm^3
# Si number density = 26.318029 Si / 1000 Ang^3
#
#
#
# Elastic Constant Matrix: (Units=GPa)
#
#
# Indices 1 2 3 4 5 6 
#
# 1 155.5135 54.2014 71.0510 0.0000 30.9475 0.0000
# 2 54.2014 147.3536 74.0858 0.0000 13.5046 0.0000
# 3 71.0510 74.0858 180.1581 0.0000 36.5230 0.0000
# 4 0.0000 0.0000 0.0000 62.8346 0.0000 11.7046
# 5 30.9475 13.5046 36.5230 0.0000 50.6050 0.0000
# 6 0.0000 0.0000 0.0000 11.7046 0.0000 20.9654
#
#
#
# Elastic Compliance Matrix: (Units=1/GPa)
#
#
# Indices 1 2 3 4 5 6 
#
# 1 0.008653 -0.001893 -0.001949 0.000000 -0.003380 0.000000
# 2 -0.001893 0.008973 -0.003154 0.000000 0.001040 0.000000
# 3 -0.001949 -0.003154 0.008439 0.000000 -0.004057 0.000000
# 4 0.000000 0.000000 0.000000 0.017762 0.000000 -0.009916
# 5 -0.003380 0.001040 -0.004057 0.000000 0.024479 0.000000
# 6 0.000000 0.000000 0.000000 -0.009916 0.000000 0.053234
#
#
# Mechanical properties :
#
#
# Convention : Reuss Voigt Hill
#
# Bulk Modulus (GPa) = 82.83125 97.96683 90.39904
# Shear Modulus (GPa) = 35.82776 45.79346 40.81061
#
# Velocity S-wave (km/s) = 3.69364 4.17586 3.94213
# Velocity P-wave (km/s) = 7.05210 7.78174 7.42589
#
# Compressibility (1/GPa) = 0.01207274
#
# Stress axis : x y z
#
# Youngs Moduli (GPa) = 115.56374 111.44070 118.50018
#
# Poissons Ratio (x) = 0.21099 0.23094
# Poissons Ratio (y) = 0.21880 0.37377
# Poissons Ratio (z) = 0.22522 0.35150
#
# Static dielectric constant tensor:
#      x y z
#    x 2.035850 0.000000 -0.039320 
#    y 0.000000 2.238920 0.000000 
#    z -0.039320 0.000000 2.011040 
# 
# From -- ./inp_files/44352.got.cif
#   From: 2010.05.17/outbox.cif.g08.bks.cpg/sg5_23_cif.got.tgz:44352.got - 2010.06.03 18:56:24.
