data_PCOD9129243
_publ_section_title
;
Structure prediction by ZEFSAII (Michael W. Deem and Ramdas Pophale) SiO2 
 PCOD9129243
Probable space group: C 2
;
_chemical_formula_sum "Si O2"
_cell_formula_units_Z 20
_cell_length_a 7.183337
_cell_length_b 26.301833
_cell_length_c 5.155487
_cell_angle_alpha 90.000000
_cell_angle_beta 114.466498
_cell_angle_gamma 90.000000
_cell_volume 886.585246
_symmetry_space_group_name_H-M "C 2"
_symmetry_group_IT_number 5
_symmetry_cell_setting 'monoclinic'
loop_
_space_group_symop_operation_xyz
x,y,z
-x,y,-z
1/2+x,1/2+y,z
1/2-x,1/2+y,-z
loop_
_atom_site_type_symbol
_atom_site_label
_atom_site_fract_x
_atom_site_fract_y
_atom_site_fract_z
Si Si1 0.500000 0.262661 0.500000
Si Si2 0.216253 0.456506 0.470517
Si Si3 0.358657 0.843216 0.665711
Si Si4 0.000000 0.691617 0.000000
Si Si5 0.000000 0.022007 0.000000
Si Si6 0.000000 0.523670 0.000000
Si Si7 0.214169 0.099479 0.770949
O O1 0.696865 0.299021 0.619589
O O2 0.504764 0.226805 0.253080
O O3 0.251399 0.396714 0.463166
O O4 0.174359 0.480940 0.165507
O O5 0.000000 0.463005 0.500000
O O6 0.387836 0.487128 0.723696
O O7 0.500000 0.830868 0.500000
O O8 0.500000 0.850670 0.000000
O O9 0.195792 0.654052 0.111232
O O10 0.832777 0.061745 0.016393
O O11 0.102900 0.566530 0.254301
O O12 0.000000 0.102877 0.500000
#
# Coordination Sequence:
#
# PCOD9129243 Si02
#       7
#     2   4   4   2   2   2   4
#     4  12  28  54  76 104 144 188 254 328 372 420
#     4  11  23  39  66 104 148 188 229 284 358 440
#     4  11  26  47  78 110 146 193 246 299 372 449
#     4  11  30  49  74 100 142 191 246 323 376 410
#     4  12  24  39  70 106 146 193 236 286 358 448
#     4  11  20  40  62  96 146 180 222 285 350 436
#     4  11  25  41  68 103 138 189 246 290 361 443
#
# _framework density 22.55846
#
# number of rings (size 3 to 8) (size 9 to 14) (size 15 to 20)
#    0.000    0.800    5.000    1.200    2.800    8.000 
#    0.000    0.000    0.000    0.000    0.000    0.000 
#    0.000    0.000    0.000    0.000    0.000    0.000 
#
# Total GULP energy -55783.347854 kJ/mol
# GULP energy per Si atom -5578.334785 kJ/mol
# Density = 2.250712 g / cm^3
# Si number density = 22.558460 Si / 1000 Ang^3
#
#
#
# Elastic Constant Matrix: (Units=GPa)
#
#
# Indices 1 2 3 4 5 6 
#
# 1 112.0627 69.7652 61.8297 0.0000 11.3475 0.0000
# 2 69.7652 206.6941 84.8153 0.0000 14.7542 0.0000
# 3 61.8297 84.8153 175.0772 0.0000 24.6179 0.0000
# 4 0.0000 0.0000 0.0000 38.9560 0.0000 2.8606
# 5 11.3475 14.7542 24.6179 0.0000 46.4832 0.0000
# 6 0.0000 0.0000 0.0000 2.8606 0.0000 38.5696
#
#
#
# Elastic Compliance Matrix: (Units=1/GPa)
#
#
# Indices 1 2 3 4 5 6 
#
# 1 0.012412 -0.002974 -0.002862 0.000000 -0.000570 0.000000
# 2 -0.002974 0.006758 -0.002187 0.000000 -0.000261 0.000000
# 3 -0.002862 -0.002187 0.008197 0.000000 -0.002948 0.000000
# 4 0.000000 0.000000 0.000000 0.025811 0.000000 -0.001914
# 5 -0.000570 -0.000261 -0.002948 0.000000 0.023296 0.000000
# 6 0.000000 0.000000 0.000000 -0.001914 0.000000 0.026069
#
#
# Mechanical properties :
#
#
# Convention : Reuss Voigt Hill
#
# Bulk Modulus (GPa) = 88.34093 102.96161 95.65127
# Shear Modulus (GPa) = 40.86200 43.29668 42.07934
#
# Velocity S-wave (km/s) = 4.26065 4.38575 4.32365
# Velocity P-wave (km/s) = 7.96556 8.44912 8.21090
#
# Compressibility (1/GPa) = 0.01131978
#
# Stress axis : x y z
#
# Youngs Moduli (GPa) = 80.56548 147.97496 122.00206
#
# Poissons Ratio (x) = 0.44011 0.34923
# Poissons Ratio (y) = 0.23962 0.26679
# Poissons Ratio (z) = 0.23062 0.32359
#
# Static dielectric constant tensor:
#      x y z
#    x 0.993150 0.000000 0.080620 
#    y 0.000000 1.786550 0.000000 
#    z 0.080620 0.000000 1.819800 
# 
# From -- ./inp_files/3307.got.cif
#   From: 2010.05.17/outbox.cif.g08.bks.cpg/sg5_2_cif.got.tgz:3307.got - 2010.06.03 18:56:24.
