data_PCOD9129285
_publ_section_title
;
Structure prediction by ZEFSAII (Michael W. Deem and Ramdas Pophale) SiO2 
 PCOD9129285
Probable space group: C 2
;
_chemical_formula_sum "Si O2"
_cell_formula_units_Z 26
_cell_length_a 6.342899
_cell_length_b 23.297701
_cell_length_c 9.716550
_cell_angle_alpha 90.000000
_cell_angle_beta 106.846381
_cell_angle_gamma 90.000000
_cell_volume 1374.243082
_symmetry_space_group_name_H-M "C 2"
_symmetry_group_IT_number 5
_symmetry_cell_setting 'monoclinic'
loop_
_space_group_symop_operation_xyz
x,y,z
-x,y,-z
1/2+x,1/2+y,z
1/2-x,1/2+y,-z
loop_
_atom_site_type_symbol
_atom_site_label
_atom_site_fract_x
_atom_site_fract_y
_atom_site_fract_z
Si Si1 0.500000 0.507290 0.500000
Si Si2 0.961446 0.541296 0.655846
Si Si3 0.541763 0.146609 0.848654
Si Si4 0.946659 0.824115 0.647763
Si Si5 0.193608 0.430921 0.637764
Si Si6 0.652651 0.755003 0.154760
Si Si7 0.354072 0.717341 0.352120
O O1 0.695520 0.540394 0.616808
O O2 0.366910 0.468258 0.582476
O O3 0.078675 0.589114 0.768845
O O4 0.000000 0.552385 0.500000
O O5 0.066017 0.478206 0.705387
O O6 0.726163 0.195801 0.867096
O O7 0.322171 0.174304 0.743346
O O8 0.500000 0.133990 0.000000
O O9 0.827660 0.875265 0.708459
O O10 0.780647 0.770416 0.608611
O O11 0.000000 0.841931 0.500000
O O12 0.162680 0.800733 0.765505
O O13 0.000000 0.408769 0.500000
O O14 0.505070 0.740878 0.258735
O O15 0.500000 0.774550 0.000000
O O16 0.500000 0.690449 0.500000
#
# Coordination Sequence:
#
# PCOD9129285 Si02
#       7
#     2   4   4   4   4   4   4
#     4   8  16  34  56  86 120 148 192 252 296 348
#     4   9  21  35  59  92 119 156 209 253 300 357
#     4  11  24  40  60  89 125 168 204 251 313 377
#     4  11  21  34  64  97 120 158 208 253 305 374
#     4   9  18  34  58  92 123 152 199 253 306 353
#     4  11  24  42  58  89 129 167 202 247 325 370
#     4  11  23  37  61  94 124 154 208 261 305 370
#
# _framework density 18.919505000000001
#
# number of rings (size 3 to 8) (size 9 to 14) (size 15 to 20)
#    0.000    2.154    3.846    0.462    3.231    1.231 
#    0.000    0.000    0.000    5.538    0.000    0.000 
#    0.000    0.000    0.000    0.000    0.000    0.000 
#
# Total GULP energy -72489.360765 kJ/mol
# GULP energy per Si atom -5576.104674 kJ/mol
# Density = 1.887644 g / cm^3
# Si number density = 18.919505 Si / 1000 Ang^3
#
#
#
# Elastic Constant Matrix: (Units=GPa)
#
#
# Indices 1 2 3 4 5 6 
#
# 1 88.9031 16.2011 20.7909 0.0000 12.3032 0.0000
# 2 16.2011 91.4216 22.1198 0.0000 13.5607 0.0000
# 3 20.7909 22.1198 82.5184 0.0000 9.0111 0.0000
# 4 0.0000 0.0000 0.0000 -1.2198 0.0000 2.7040
# 5 12.3032 13.5607 9.0111 0.0000 26.1143 0.0000
# 6 0.0000 0.0000 0.0000 2.7040 0.0000 17.5684
#
#
#
# Elastic Compliance Matrix: (Units=1/GPa)
#
#
# Indices 1 2 3 4 5 6 
#
# 1 0.012629 -0.000969 -0.002419 0.000000 -0.004612 0.000000
# 2 -0.000969 0.012489 -0.002541 0.000000 -0.005152 0.000000
# 3 -0.002419 -0.002541 0.013655 0.000000 -0.002253 0.000000
# 4 0.000000 0.000000 0.000000 -0.611266 0.000000 0.094083
# 5 -0.004612 -0.005152 -0.002253 0.000000 0.043919 0.000000
# 6 0.000000 0.000000 0.000000 0.094083 0.000000 0.042440
#
#
# Mechanical properties :
#
#
# Convention : Reuss Voigt Hill
#
# Bulk Modulus (GPa) = 37.15251 42.34073 39.74662
# Shear Modulus (GPa) = -10.74561 22.07468 5.66453
#
# Velocity S-wave (km/s) = -2.38579 3.41950 1.73220
# Velocity P-wave (km/s) = 3.47714 6.16593 5.00545
#
# Compressibility (1/GPa) = 0.02691608
#
# Stress axis : x y z
#
# Youngs Moduli (GPa) = 79.18543 80.07015 73.23291
#
# Poissons Ratio (x) = 0.07756 0.17712
# Poissons Ratio (y) = 0.07670 0.18609
# Poissons Ratio (z) = 0.19151 0.20347
#
# Static dielectric constant tensor:
#      x y z
#    x 1.691560 0.000000 0.006660 
#    y 0.000000 1.684390 0.000000 
#    z 0.006660 0.000000 1.638620 
# 
# From -- ./inp_files/13011.got.cif
#   From: 2010.05.17/outbox.cif.g08.bks.cpg/sg5_7_cif.got.tgz:13011.got - 2010.06.03 18:56:24.
