data_PCOD9129808
_publ_section_title
;
Structure prediction by ZEFSAII (Michael W. Deem and Ramdas Pophale) SiO2 
 PCOD9129808
Probable space group: C 2
;
_chemical_formula_sum "Si O2"
_cell_formula_units_Z 18
_cell_length_a 12.108343
_cell_length_b 8.470352
_cell_length_c 9.409568
_cell_angle_alpha 90.000000
_cell_angle_beta 128.737424
_cell_angle_gamma 90.000000
_cell_volume 752.770562
_symmetry_space_group_name_H-M "C 2"
_symmetry_group_IT_number 5
_symmetry_cell_setting 'monoclinic'
loop_
_space_group_symop_operation_xyz
x,y,z
-x,y,-z
1/2+x,1/2+y,z
1/2-x,1/2+y,-z
loop_
_atom_site_type_symbol
_atom_site_label
_atom_site_fract_x
_atom_site_fract_y
_atom_site_fract_z
Si Si1 0.110831 0.871630 0.335729
Si Si2 0.154267 0.385281 0.973058
Si Si3 0.659013 0.021268 0.273650
Si Si4 0.000000 0.713642 0.500000
Si Si5 0.286748 0.558368 0.826884
O O1 0.151482 0.705701 0.298415
O O2 0.990905 0.820823 0.351004
O O3 0.229282 0.936516 0.536927
O O4 0.103329 0.996750 0.202825
O O5 0.243136 0.423584 0.904309
O O6 0.991872 0.438347 0.816874
O O7 0.196888 0.495016 0.140295
O O8 0.166025 0.209714 0.044456
O O9 0.857449 0.609201 0.375154
#
# Coordination Sequence:
#
# PCOD9129808 Si02
#       5
#     4   4   4   2   4
#     4  12  23  48  75 104 148 202 238 306 362 443
#     4  11  24  46  67 112 148 192 244 313 358 443
#     4  11  23  44  72 104 155 189 249 299 364 437
#     4  12  24  48  76 108 144 190 252 296 350 456
#     4  12  24  48  76 106 152 196 241 304 377 422
#
# _framework density 23.911670999999998
#
# number of rings (size 3 to 8) (size 9 to 14) (size 15 to 20)
#    0.000    0.444    6.667    1.333    0.000    0.000 
#   12.000    1.111    0.000    0.000    0.000    0.000 
#    0.000    0.000    0.000    0.000    0.000    0.000 
#
# Total GULP energy -50389.554864 kJ/mol
# GULP energy per Si atom -5598.839429 kJ/mol
# Density = 2.385725 g / cm^3
# Si number density = 23.911671 Si / 1000 Ang^3
#
#
#
# Elastic Constant Matrix: (Units=GPa)
#
#
# Indices 1 2 3 4 5 6 
#
# 1 72.0189 12.0377 14.0894 0.0000 -43.4385 0.0000
# 2 12.0377 102.4377 9.6739 0.0000 -2.1119 0.0000
# 3 14.0894 9.6739 80.9757 0.0000 -9.8589 0.0000
# 4 0.0000 0.0000 0.0000 33.7783 0.0000 -23.1121
# 5 -43.4385 -2.1119 -9.8589 0.0000 49.3756 0.0000
# 6 0.0000 0.0000 0.0000 -23.1121 0.0000 44.3968
#
#
#
# Elastic Compliance Matrix: (Units=1/GPa)
#
#
# Indices 1 2 3 4 5 6 
#
# 1 0.030739 -0.002898 -0.001768 0.000000 0.026566 0.000000
# 2 -0.002898 0.010148 -0.000990 0.000000 -0.002313 0.000000
# 3 -0.001768 -0.000990 0.012894 0.000000 0.000977 0.000000
# 4 0.000000 0.000000 0.000000 0.045984 0.000000 0.023938
# 5 0.026566 -0.002313 0.000977 0.000000 0.043720 0.000000
# 6 0.000000 0.000000 0.000000 0.023938 0.000000 0.034986
#
#
# Mechanical properties :
#
#
# Convention : Reuss Voigt Hill
#
# Bulk Modulus (GPa) = 23.54560 36.33714 29.94137
# Shear Modulus (GPa) = 24.51714 40.15222 32.33468
#
# Velocity S-wave (km/s) = 3.20554 4.10224 3.68129
# Velocity P-wave (km/s) = 4.85478 6.13736 5.53336
#
# Compressibility (1/GPa) = 0.04247079
#
# Stress axis : x y z
#
# Youngs Moduli (GPa) = 32.53241 98.53853 77.55440
#
# Poissons Ratio (x) = 0.28552 0.13710
# Poissons Ratio (y) = 0.09426 0.07676
# Poissons Ratio (z) = 0.05751 0.09753
#
# Static dielectric constant tensor:
#      x y z
#    x 1.963770 0.000000 0.020220 
#    y 0.000000 1.882470 0.000000 
#    z 0.020220 0.000000 1.910170 
# 
# From -- ./inp_files/18222.got.cif
#   From: 2010.05.17/outbox.cif.g08.bks.cpg/sg5_10_cif.got.tgz:18222.got - 2010.06.03 18:56:24.
