data_PCOD9129656
_publ_section_title
;
Structure prediction by ZEFSAII (Michael W. Deem and Ramdas Pophale) SiO2 
 PCOD9129656
Probable space group: C 2
;
_chemical_formula_sum "Si O2"
_cell_formula_units_Z 24
_cell_length_a 16.091454
_cell_length_b 12.174900
_cell_length_c 11.821342
_cell_angle_alpha 90.000000
_cell_angle_beta 34.234054
_cell_angle_gamma 90.000000
_cell_volume 1302.890123
_symmetry_space_group_name_H-M "C 2"
_symmetry_group_IT_number 5
_symmetry_cell_setting 'monoclinic'
loop_
_space_group_symop_operation_xyz
x,y,z
-x,y,-z
1/2+x,1/2+y,z
1/2-x,1/2+y,-z
loop_
_atom_site_type_symbol
_atom_site_label
_atom_site_fract_x
_atom_site_fract_y
_atom_site_fract_z
Si Si1 0.333187 0.909920 0.642127
Si Si2 0.164967 0.687976 0.775693
Si Si3 0.377283 0.108395 0.430058
Si Si4 0.679242 0.261798 0.307757
Si Si5 0.833126 0.010822 0.731816
Si Si6 0.725695 0.072869 0.093189
O O1 0.500000 0.891972 0.500000
O O2 0.260935 0.797133 0.685445
O O3 0.325238 0.994911 0.546246
O O4 0.263883 0.974758 0.827105
O O5 0.161015 0.637365 0.654602
O O6 0.230640 0.595900 0.783005
O O7 0.000000 0.715275 0.000000
O O8 0.304711 0.205181 0.588213
O O9 0.555731 0.095351 0.244163
O O10 0.500000 0.255041 0.500000
O O11 0.718311 0.387266 0.240339
O O12 0.757575 0.184061 0.127160
O O13 0.000000 0.021729 0.500000
O O14 0.820646 0.040054 0.878154
#
# Coordination Sequence:
#
# PCOD9129656 Si02
#       6
#     4   4   4   4   4   4
#     4   9  21  41  66  86 115 162 198 237 292 359
#     4  12  24  37  59  89 124 153 196 248 302 337
#     4   9  19  40  61  85 119 154 191 240 302 353
#     4   8  18  36  62  83 110 156 195 237 289 353
#     4  11  23  36  58  90 118 153 202 243 285 348
#     4   9  18  39  64  85 114 155 201 235 291 357
#
# _framework density 18.420586
#
# number of rings (size 3 to 8) (size 9 to 14) (size 15 to 20)
#    0.000    2.333    1.667    2.500    4.667    1.333 
#    0.000    0.000    0.000    0.000    0.000    0.000 
#    0.000    0.000    0.000    0.000    0.000    0.000 
#
# Total GULP energy -66859.628457 kJ/mol
# GULP energy per Si atom -5571.635705 kJ/mol
# Density = 1.837866 g / cm^3
# Si number density = 18.420586 Si / 1000 Ang^3
#
#
#
# Elastic Constant Matrix: (Units=GPa)
#
#
# Indices 1 2 3 4 5 6 
#
# 1 82.5317 48.5784 32.5999 0.0000 30.6275 0.0000
# 2 48.5784 112.5259 58.3714 0.0000 15.5261 0.0000
# 3 32.5999 58.3714 97.4963 0.0000 33.6256 0.0000
# 4 0.0000 0.0000 0.0000 9.4967 0.0000 -3.2277
# 5 30.6275 15.5261 33.6256 0.0000 28.8025 0.0000
# 6 0.0000 0.0000 0.0000 -3.2277 0.0000 22.7931
#
#
#
# Elastic Compliance Matrix: (Units=1/GPa)
#
#
# Indices 1 2 3 4 5 6 
#
# 1 0.029046 -0.013030 0.010579 0.000000 -0.036213 0.000000
# 2 -0.013030 0.018944 -0.013797 0.000000 0.019752 0.000000
# 3 0.010579 -0.013797 0.027278 0.000000 -0.035657 0.000000
# 4 0.000000 0.000000 0.000000 0.110624 0.000000 0.015665
# 5 -0.036213 0.019752 -0.035657 0.000000 0.104207 0.000000
# 6 0.000000 0.000000 0.000000 0.015665 0.000000 0.046091
#
#
# Mechanical properties :
#
#
# Convention : Reuss Voigt Hill
#
# Bulk Modulus (GPa) = 23.38079 63.51704 43.44892
# Shear Modulus (GPa) = 13.05672 22.41874 17.73773
#
# Velocity S-wave (km/s) = 2.66524 3.49241 3.10648
# Velocity P-wave (km/s) = 4.71080 7.12874 6.04196
#
# Compressibility (1/GPa) = 0.04277015
#
# Stress axis : x y z
#
# Youngs Moduli (GPa) = 34.42781 52.78751 36.66008
#
# Poissons Ratio (x) = 0.68785 -0.38781
# Poissons Ratio (y) = 0.44861 0.50579
# Poissons Ratio (z) = -0.36420 0.72830
#
# Static dielectric constant tensor:
#      x y z
#    x 1.624860 0.000000 -0.005190 
#    y 0.000000 1.622080 0.000000 
#    z -0.005190 0.000000 1.652530 
# 
# From -- ./inp_files/39087.got.cif
#   From: 2010.05.17/outbox.cif.g08.bks.cpg/sg5_20_cif.got.tgz:39087.got - 2010.06.03 18:56:24.
