data_PCOD9129396
_publ_section_title
;
Structure prediction by ZEFSAII (Michael W. Deem and Ramdas Pophale) SiO2 
 PCOD9129396
Probable space group: C 2
;
_chemical_formula_sum "Si O2"
_cell_formula_units_Z 16
_cell_length_a 7.621108
_cell_length_b 19.667642
_cell_length_c 8.132009
_cell_angle_alpha 90.000000
_cell_angle_beta 36.990807
_cell_angle_gamma 90.000000
_cell_volume 733.396444
_symmetry_space_group_name_H-M "C 2"
_symmetry_group_IT_number 5
_symmetry_cell_setting 'monoclinic'
loop_
_space_group_symop_operation_xyz
x,y,z
-x,y,-z
1/2+x,1/2+y,z
1/2-x,1/2+y,-z
loop_
_atom_site_type_symbol
_atom_site_label
_atom_site_fract_x
_atom_site_fract_y
_atom_site_fract_z
Si Si1 0.270848 0.439270 0.547548
Si Si2 0.679402 0.366329 0.022467
Si Si3 0.000000 0.134362 0.000000
Si Si4 0.322557 0.713225 0.804912
Si Si5 0.500000 0.042295 0.500000
O O1 0.500000 0.471694 0.500000
O O2 0.963745 0.411321 0.840830
O O3 0.195321 0.493761 0.466384
O O4 0.450399 0.374934 0.340167
O O5 0.773880 0.290604 0.904807
O O6 0.500000 0.393253 0.000000
O O7 0.287174 0.088586 0.766911
O O8 0.966990 0.175743 0.853098
O O9 0.500000 0.712971 0.500000
O O10 0.000000 0.685916 0.000000
#
# Coordination Sequence:
#
# PCOD9129396 Si02
#       5
#     4   4   2   4   2
#     4  12  25  41  70 103 138 186 231 290 353 415
#     4  11  21  44  69 103 146 174 225 297 361 415
#     4  12  28  46  76  98 142 200 238 280 348 436
#     4  11  25  46  71 108 141 183 233 298 355 416
#     4  12  26  48  66 102 148 188 238 286 342 424
#
# _framework density 21.816305
#
# number of rings (size 3 to 8) (size 9 to 14) (size 15 to 20)
#    0.000    0.500    2.500    6.750    3.500    3.000 
#    0.000    0.000    0.000    0.000    0.000    0.000 
#    0.000    0.000    0.000    0.000    0.000    0.000 
#
# Total GULP energy -44716.884143 kJ/mol
# GULP energy per Si atom -5589.610518 kJ/mol
# Density = 2.176665 g / cm^3
# Si number density = 21.816305 Si / 1000 Ang^3
#
#
#
# Elastic Constant Matrix: (Units=GPa)
#
#
# Indices 1 2 3 4 5 6 
#
# 1 184.2955 57.2030 38.6449 0.0000 3.0795 0.0000
# 2 57.2030 79.6919 42.6185 0.0000 8.2726 0.0000
# 3 38.6449 42.6185 133.8075 0.0000 0.2223 0.0000
# 4 0.0000 0.0000 0.0000 35.4569 0.0000 3.9858
# 5 3.0795 8.2726 0.2223 0.0000 39.4933 0.0000
# 6 0.0000 0.0000 0.0000 3.9858 0.0000 11.5332
#
#
#
# Elastic Compliance Matrix: (Units=1/GPa)
#
#
# Indices 1 2 3 4 5 6 
#
# 1 0.007018 -0.004823 -0.000492 0.000000 0.000466 0.000000
# 2 -0.004823 0.018839 -0.004602 0.000000 -0.003544 0.000000
# 3 -0.000492 -0.004602 0.009079 0.000000 0.000951 0.000000
# 4 0.000000 0.000000 0.000000 0.029343 0.000000 -0.010141
# 5 0.000466 -0.003544 0.000951 0.000000 0.026021 0.000000
# 6 0.000000 0.000000 0.000000 -0.010141 0.000000 0.090211
#
#
# Mechanical properties :
#
#
# Convention : Reuss Voigt Hill
#
# Bulk Modulus (GPa) = 66.20584 74.96974 70.58779
# Shear Modulus (GPa) = 24.34508 34.58525 29.46516
#
# Velocity S-wave (km/s) = 3.34415 3.98589 3.67904
# Velocity P-wave (km/s) = 6.73231 7.45800 7.10443
#
# Compressibility (1/GPa) = 0.01510441
#
# Stress axis : x y z
#
# Youngs Moduli (GPa) = 142.48137 53.08053 110.13938
#
# Poissons Ratio (x) = 0.25603 0.05413
# Poissons Ratio (y) = 0.68724 0.50681
# Poissons Ratio (z) = 0.07003 0.24425
#
# Static dielectric constant tensor:
#      x y z
#    x 1.828340 0.000000 0.046580 
#    y 0.000000 1.777460 0.000000 
#    z 0.046580 0.000000 1.802280 
# 
# From -- ./inp_files/15987.got.cif
#   From: 2010.05.17/outbox.cif.g08.bks.cpg/sg5_8_cif.got.tgz:15987.got - 2010.06.03 18:56:24.
