data_PCOD9129874
_publ_section_title
;
Structure prediction by ZEFSAII (Michael W. Deem and Ramdas Pophale) SiO2 
 PCOD9129874
Probable space group: C 2
;
_chemical_formula_sum "Si O2"
_cell_formula_units_Z 16
_cell_length_a 8.640485
_cell_length_b 15.423333
_cell_length_c 5.359068
_cell_angle_alpha 90.000000
_cell_angle_beta 122.718940
_cell_angle_gamma 90.000000
_cell_volume 600.859745
_symmetry_space_group_name_H-M "C 2"
_symmetry_group_IT_number 5
_symmetry_cell_setting 'monoclinic'
loop_
_space_group_symop_operation_xyz
x,y,z
-x,y,-z
1/2+x,1/2+y,z
1/2-x,1/2+y,-z
loop_
_atom_site_type_symbol
_atom_site_label
_atom_site_fract_x
_atom_site_fract_y
_atom_site_fract_z
Si Si1 0.200591 0.637330 0.305229
Si Si2 0.476193 0.894698 0.726882
Si Si3 0.292145 0.541296 0.900268
Si Si4 0.383089 0.329890 0.648262
O O1 0.214406 0.589760 0.585443
O O2 0.214658 0.737932 0.389175
O O3 0.317911 0.599751 0.174568
O O4 0.000000 0.628441 0.000000
O O5 0.500000 0.841900 0.500000
O O6 0.257592 0.909170 0.527291
O O7 0.633124 0.969287 0.844201
O O8 0.500000 0.844518 0.000000
O O9 0.500000 0.516563 0.000000
O O10 0.500000 0.321485 0.500000
O O11 0.500000 0.342659 0.000000
#
# Coordination Sequence:
#
# PCOD9129874 Si02
#       4
#     4   4   4   4
#     4  11  23  46  75 107 147 194 251 316 376 449
#     4  12  27  46  70 105 152 197 246 306 372 448
#     4  12  26  45  73 110 151 199 251 308 374 447
#     4  11  25  47  76 110 149 196 248 310 383 456
#
# _framework density 26.628513000000002
#
# number of rings (size 3 to 8) (size 9 to 14) (size 15 to 20)
#    0.000    0.500    0.000    9.750    0.000    6.000 
#    0.000    2.500    0.000    0.000    0.000    0.000 
#    0.000    0.000    0.000    0.000    0.000    0.000 
#
# Total GULP energy -44612.138872 kJ/mol
# GULP energy per Si atom -5576.517359 kJ/mol
# Density = 2.656791 g / cm^3
# Si number density = 26.628513 Si / 1000 Ang^3
#
#
#
# Elastic Constant Matrix: (Units=GPa)
#
#
# Indices 1 2 3 4 5 6 
#
# 1 204.0627 98.6761 88.1069 0.0000 -25.3751 0.0000
# 2 98.6761 123.8929 52.5896 0.0000 -6.1974 0.0000
# 3 88.1069 52.5896 236.9794 0.0000 -40.4102 0.0000
# 4 0.0000 0.0000 0.0000 26.5118 0.0000 5.8820
# 5 -25.3751 -6.1974 -40.4102 0.0000 82.0237 0.0000
# 6 0.0000 0.0000 0.0000 5.8820 0.0000 13.4169
#
#
#
# Elastic Compliance Matrix: (Units=1/GPa)
#
#
# Indices 1 2 3 4 5 6 
#
# 1 0.008810 -0.006248 -0.001643 0.000000 0.001444 0.000000
# 2 -0.006248 0.013349 -0.000870 0.000000 -0.001353 0.000000
# 3 -0.001643 -0.000870 0.005378 0.000000 0.002075 0.000000
# 4 0.000000 0.000000 0.000000 0.041783 0.000000 -0.018318
# 5 0.001444 -0.001353 0.002075 0.000000 0.013559 0.000000
# 6 0.000000 0.000000 0.000000 -0.018318 0.000000 0.082564
#
#
# Mechanical properties :
#
#
# Convention : Reuss Voigt Hill
#
# Bulk Modulus (GPa) = 99.84404 115.96445 107.90425
# Shear Modulus (GPa) = 26.83800 46.09465 36.46632
#
# Velocity S-wave (km/s) = 3.17814 4.16507 3.70462
# Velocity P-wave (km/s) = 7.14451 8.17153 7.67522
#
# Compressibility (1/GPa) = 0.01001562
#
# Stress axis : x y z
#
# Youngs Moduli (GPa) = 113.50146 74.91093 185.95508
#
# Poissons Ratio (x) = 0.46801 0.30552
# Poissons Ratio (y) = 0.70911 0.16184
# Poissons Ratio (z) = 0.18648 0.06520
#
# Static dielectric constant tensor:
#      x y z
#    x 2.343360 0.000000 0.043120 
#    y 0.000000 2.099780 0.000000 
#    z 0.043120 0.000000 2.174700 
# 
# From -- ./inp_files/1946.got.cif
#   From: 2010.05.17/outbox.cif.g08.bks.cpg/sg5_1_cif.got.tgz:1946.got - 2010.06.03 18:56:24.
