data_PCOD9129249
_publ_section_title
;
Structure prediction by ZEFSAII (Michael W. Deem and Ramdas Pophale) SiO2 
 PCOD9129249
Probable space group: C 2
;
_chemical_formula_sum "Si O2"
_cell_formula_units_Z 32
_cell_length_a 23.324179
_cell_length_b 15.363803
_cell_length_c 8.879129
_cell_angle_alpha 90.000000
_cell_angle_beta 28.825668
_cell_angle_gamma 90.000000
_cell_volume 1534.101917
_symmetry_space_group_name_H-M "C 2"
_symmetry_group_IT_number 5
_symmetry_cell_setting 'monoclinic'
loop_
_space_group_symop_operation_xyz
x,y,z
-x,y,-z
1/2+x,1/2+y,z
1/2-x,1/2+y,-z
loop_
_atom_site_type_symbol
_atom_site_label
_atom_site_fract_x
_atom_site_fract_y
_atom_site_fract_z
Si Si1 0.792608 0.973340 0.138797
Si Si2 0.500522 0.351370 0.320290
Si Si3 0.170870 0.295529 0.339456
Si Si4 0.714808 0.290488 0.377048
Si Si5 0.170822 0.721465 0.789868
Si Si6 0.144173 0.156392 0.149850
Si Si7 0.616692 0.048645 0.802944
Si Si8 0.552960 0.873333 0.045148
O O1 0.736360 0.889823 0.180053
O O2 0.702672 0.004882 0.479129
O O3 0.913711 0.930935 0.930531
O O4 0.820010 0.055897 0.967933
O O5 0.500000 0.363057 0.500000
O O6 0.372948 0.339314 0.535773
O O7 0.568025 0.260684 0.130275
O O8 0.210552 0.261355 0.411575
O O9 0.193311 0.214510 0.177132
O O10 0.033528 0.321404 0.646491
O O11 0.646011 0.255756 0.680122
O O12 0.791562 0.210927 0.131367
O O13 0.813477 0.351674 0.222488
O O14 0.183394 0.619057 0.747806
O O15 0.000000 0.157693 0.500000
O O16 0.500000 0.093264 0.000000
O O17 0.553638 0.976805 0.051569
O O18 0.500000 0.856167 0.000000
#
# Coordination Sequence:
#
# PCOD9129249 Si02
#       8
#     4   4   4   4   4   4   4   4
#     4  11  23  46  73  98 147 190 236 299 364 426
#     4  11  25  46  72 100 146 187 236 301 368 425
#     4  11  23  46  69 100 145 192 233 299 363 422
#     4  12  22  42  74 103 136 190 248 292 360 434
#     4  11  23  41  71 108 139 182 247 298 355 430
#     4  12  26  43  71 101 141 196 238 288 372 432
#     4  11  21  40  70 106 138 186 242 303 357 420
#     4  11  20  40  71  98 137 184 236 293 360 425
#
# _framework density 20.859110000000001
#
# number of rings (size 3 to 8) (size 9 to 14) (size 15 to 20)
#    0.000    0.750    6.250    3.750    0.000    0.000 
#    6.750    0.000    0.000    0.000    0.000    0.000 
#    0.000    0.000    0.000    0.000    0.000    0.000 
#
# Total GULP energy -89095.593701 kJ/mol
# GULP energy per Si atom -5568.474606 kJ/mol
# Density = 2.081163 g / cm^3
# Si number density = 20.859110 Si / 1000 Ang^3
#
#
#
# Elastic Constant Matrix: (Units=GPa)
#
#
# Indices 1 2 3 4 5 6 
#
# 1 76.6304 52.4726 26.1264 0.0000 -15.7218 0.0000
# 2 52.4726 143.3698 41.4900 0.0000 -8.2074 0.0000
# 3 26.1264 41.4900 81.9869 0.0000 -15.6954 0.0000
# 4 0.0000 0.0000 0.0000 29.5545 0.0000 7.5791
# 5 -15.7218 -8.2074 -15.6954 0.0000 36.5467 0.0000
# 6 0.0000 0.0000 0.0000 7.5791 0.0000 32.0662
#
#
#
# Elastic Compliance Matrix: (Units=1/GPa)
#
#
# Indices 1 2 3 4 5 6 
#
# 1 0.019105 -0.006115 -0.001834 0.000000 0.006058 0.000000
# 2 -0.006115 0.010129 -0.003536 0.000000 -0.001874 0.000000
# 3 -0.001834 -0.003536 0.015546 0.000000 0.005093 0.000000
# 4 0.000000 0.000000 0.000000 0.036019 0.000000 -0.008513
# 5 0.006058 -0.001874 0.005093 0.000000 0.031735 0.000000
# 6 0.000000 0.000000 0.000000 -0.008513 0.000000 0.033198
#
#
# Mechanical properties :
#
#
# Convention : Reuss Voigt Hill
#
# Bulk Modulus (GPa) = 45.85011 60.24058 53.04534
# Shear Modulus (GPa) = 28.41379 31.76001 30.08690
#
# Velocity S-wave (km/s) = 3.69477 3.90628 3.80200
# Velocity P-wave (km/s) = 6.34274 7.02053 6.69022
#
# Compressibility (1/GPa) = 0.02181020
#
# Stress axis : x y z
#
# Youngs Moduli (GPa) = 52.34278 98.72687 64.32508
#
# Poissons Ratio (x) = 0.60369 0.11797
# Poissons Ratio (y) = 0.32006 0.22746
# Poissons Ratio (z) = 0.09599 0.34911
#
# Static dielectric constant tensor:
#      x y z
#    x 1.761420 0.000000 -0.002130 
#    y 0.000000 1.763350 0.000000 
#    z -0.002130 0.000000 1.833760 
# 
# From -- ./inp_files/31032.got.cif
#   From: 2010.05.17/outbox.cif.g08.bks.cpg/sg5_16_cif.got.tgz:31032.got - 2010.06.03 18:56:24.
