data_PCOD9129204
_publ_section_title
;
Structure prediction by ZEFSAII (Michael W. Deem and Ramdas Pophale) SiO2 
 PCOD9129204
Probable space group: C 2
;
_chemical_formula_sum "Si O2"
_cell_formula_units_Z 28
_cell_length_a 23.321846
_cell_length_b 7.270752
_cell_length_c 18.718813
_cell_angle_alpha 90.000000
_cell_angle_beta 27.658137
_cell_angle_gamma 90.000000
_cell_volume 1473.401234
_symmetry_space_group_name_H-M "C 2"
_symmetry_group_IT_number 5
_symmetry_cell_setting 'monoclinic'
loop_
_space_group_symop_operation_xyz
x,y,z
-x,y,-z
1/2+x,1/2+y,z
1/2-x,1/2+y,-z
loop_
_atom_site_type_symbol
_atom_site_label
_atom_site_fract_x
_atom_site_fract_y
_atom_site_fract_z
Si Si1 0.261926 0.228110 0.936670
Si Si2 0.833299 0.625735 0.010813
Si Si3 0.019596 0.729046 0.399397
Si Si4 0.835529 0.821996 0.481870
Si Si5 0.898556 0.515667 0.298679
Si Si6 0.918015 0.164845 0.656219
Si Si7 0.002610 0.175881 0.273143
O O1 0.220071 0.426546 0.954178
O O2 0.363571 0.145538 0.771556
O O3 0.324613 0.234006 0.945443
O O4 0.131079 0.131567 0.091966
O O5 0.730149 0.696017 0.180469
O O6 0.976133 0.599077 0.874018
O O7 0.000000 0.653391 0.500000
O O8 0.899999 0.731670 0.480125
O O9 0.055926 0.944569 0.369315
O O10 0.837361 0.672922 0.416011
O O11 0.702275 0.916897 0.640263
O O12 0.920688 0.994281 0.365444
O O13 0.942538 0.350048 0.301410
O O14 0.965717 0.231337 0.680499
O O15 0.000000 0.233778 0.500000
#
# Coordination Sequence:
#
# PCOD9129204 Si02
#       7
#     4   4   4   4   4   4   4
#     4   9  16  29  50  76 104 130 174 228 273 307
#     4   9  17  28  49  77 105 135 176 227 262 315
#     4   9  17  31  53  78 108 138 176 220 272 319
#     4  11  20  34  53  79 108 144 174 222 264 312
#     4  11  20  32  52  80 108 139 184 215 262 317
#     4   8  15  30  53  78 109 137 171 222 277 316
#     4   9  19  32  52  80 105 135 178 227 269 311
#
# _framework density 19.00365
#
# number of rings (size 3 to 8) (size 9 to 14) (size 15 to 20)
#    0.000    2.571    2.857    0.857    0.000    0.000 
#    0.000    0.714    0.000   21.429    0.000    2.000 
#    0.000    0.000    0.000    0.000    0.000    0.000 
#
# Total GULP energy -77981.933698 kJ/mol
# GULP energy per Si atom -5570.138121 kJ/mol
# Density = 1.896040 g / cm^3
# Si number density = 19.003650 Si / 1000 Ang^3
#
#
#
# Elastic Constant Matrix: (Units=GPa)
#
#
# Indices 1 2 3 4 5 6 
#
# 1 57.4845 5.9139 64.8972 -0.0008 -2.8519 0.0003
# 2 5.9139 56.4796 9.2446 -0.0027 -5.1833 0.0015
# 3 64.8972 9.2446 160.4621 -0.0036 -3.3505 0.0020
# 4 -0.0008 -0.0027 -0.0036 17.8194 0.0016 -8.1743
# 5 -2.8519 -5.1833 -3.3505 0.0016 34.8358 -0.0008
# 6 0.0003 0.0015 0.0020 -8.1743 -0.0008 15.2627
#
#
#
# Elastic Compliance Matrix: (Units=1/GPa)
#
#
# Indices 1 2 3 4 5 6 
#
# 1 0.032151 -0.001141 -0.012912 -0.000001 0.001220 0.000001
# 2 -0.001141 0.018146 -0.000531 0.000002 0.002556 0.000000
# 3 -0.012912 -0.000531 0.011484 0.000001 -0.000031 0.000000
# 4 -0.000001 0.000002 0.000001 0.074397 -0.000002 0.039845
# 5 0.001220 0.002556 -0.000031 -0.000002 0.029183 0.000000
# 6 0.000001 0.000000 0.000000 0.039845 0.000000 0.086859
#
#
# Mechanical properties :
#
#
# Convention : Reuss Voigt Hill
#
# Bulk Modulus (GPa) = 30.66154 48.28196 39.47175
# Shear Modulus (GPa) = 17.10818 26.54162 21.82490
#
# Velocity S-wave (km/s) = 3.00368 3.74124 3.39257
# Velocity P-wave (km/s) = 5.31028 6.64262 6.01346
#
# Compressibility (1/GPa) = 0.03261415
#
# Stress axis : x y z
#
# Youngs Moduli (GPa) = 31.10354 55.10745 87.07806
#
# Poissons Ratio (x) = 0.06288 1.12433
# Poissons Ratio (y) = 0.03549 0.04621
# Poissons Ratio (z) = 0.40160 0.02924
#
# Static dielectric constant tensor:
#      x y z
#    x 1.660940 0.000000 -0.013260 
#    y 0.000000 1.735720 0.000000 
#    z -0.013260 0.000000 1.726390 
# 
# From -- ./inp_files/32492.got.cif
#   From: 2010.05.17/outbox.cif.g08.bks.cpg/sg5_17_cif.got.tgz:32492.got - 2010.06.03 18:56:24.
