data_PCOD9129835
_publ_section_title
;
Structure prediction by ZEFSAII (Michael W. Deem and Ramdas Pophale) SiO2 
 PCOD9129835
Probable space group: C 2
;
_chemical_formula_sum "Si O2"
_cell_formula_units_Z 24
_cell_length_a 11.812338
_cell_length_b 8.444496
_cell_length_c 24.215281
_cell_angle_alpha 90.000000
_cell_angle_beta 153.947620
_cell_angle_gamma 90.000000
_cell_volume 1060.850464
_symmetry_space_group_name_H-M "C 2"
_symmetry_group_IT_number 5
_symmetry_cell_setting 'monoclinic'
loop_
_space_group_symop_operation_xyz
x,y,z
-x,y,-z
1/2+x,1/2+y,z
1/2-x,1/2+y,-z
loop_
_atom_site_type_symbol
_atom_site_label
_atom_site_fract_x
_atom_site_fract_y
_atom_site_fract_z
Si Si1 0.533462 0.059370 0.151117
Si Si2 0.918287 0.208596 0.255467
Si Si3 0.824475 0.213588 0.084570
Si Si4 0.199672 0.549578 0.747358
Si Si5 0.192086 0.768556 0.849481
Si Si6 0.705129 0.003025 0.627601
O O1 0.830592 0.083401 0.265350
O O2 0.412017 0.146693 0.150176
O O3 0.441360 0.879433 0.114587
O O4 0.442449 0.167738 0.059527
O O5 0.818045 0.214394 0.147377
O O6 0.878004 0.382587 0.261780
O O7 0.210074 0.157013 0.369527
O O8 0.998327 0.074652 0.134129
O O9 0.162366 0.682206 0.777569
O O10 0.094798 0.552743 0.638887
O O11 0.975586 0.906236 0.753765
O O12 0.500000 0.805806 0.000000
O O13 0.500000 0.911807 0.500000
#
# Coordination Sequence:
#
# PCOD9129835 Si02
#       6
#     4   4   4   4   4   4
#     4  12  23  39  67 102 149 190 231 295 372 435
#     4  11  24  42  67  99 139 192 239 299 357 430
#     4  11  24  38  63 101 149 187 233 294 366 435
#     4  11  23  45  69 104 143 188 244 299 362 441
#     4  12  25  44  75 110 152 190 241 308 373 442
#     4  11  28  51  75 106 146 199 254 301 367 442
#
# _framework density 22.623356999999999
#
# number of rings (size 3 to 8) (size 9 to 14) (size 15 to 20)
#    0.000    0.667    5.000    2.500    2.333    1.333 
#    0.000    0.833    0.000    0.000    0.000    0.000 
#    0.000    0.000    0.000    0.000    0.000    0.000 
#
# Total GULP energy -66822.780270 kJ/mol
# GULP energy per Si atom -5568.565023 kJ/mol
# Density = 2.257186 g / cm^3
# Si number density = 22.623357 Si / 1000 Ang^3
#
#
#
# Elastic Constant Matrix: (Units=GPa)
#
#
# Indices 1 2 3 4 5 6 
#
# 1 186.7322 59.6309 40.2890 0.0003 -11.2766 0.0001
# 2 59.6309 126.0954 33.3373 0.0004 5.0306 0.0000
# 3 40.2890 33.3373 81.2481 0.0039 -15.4608 0.0007
# 4 0.0003 0.0004 0.0039 8.4495 0.0002 1.3535
# 5 -11.2766 5.0306 -15.4608 0.0002 17.5935 -0.0001
# 6 0.0001 0.0000 0.0007 1.3535 -0.0001 56.7168
#
#
#
# Elastic Compliance Matrix: (Units=1/GPa)
#
#
# Indices 1 2 3 4 5 6 
#
# 1 0.006872 -0.003045 -0.001386 0.000000 0.004057 0.000000
# 2 -0.003045 0.011003 -0.004773 0.000002 -0.009292 0.000000
# 3 -0.001386 -0.004773 0.018065 -0.000008 0.016352 0.000000
# 4 0.000000 0.000002 -0.000008 0.118804 -0.000009 -0.002835
# 5 0.004057 -0.009292 0.016352 -0.000009 0.076466 0.000000
# 6 0.000000 0.000000 0.000000 -0.002835 0.000000 0.017699
#
#
# Mechanical properties :
#
#
# Convention : Reuss Voigt Hill
#
# Bulk Modulus (GPa) = 57.03886 73.39888 65.21887
# Shear Modulus (GPa) = 18.30417 33.93987 26.12202
#
# Velocity S-wave (km/s) = 2.84752 3.87746 3.40170
# Velocity P-wave (km/s) = 6.00652 7.24987 6.65728
#
# Compressibility (1/GPa) = 0.01753191
#
# Stress axis : x y z
#
# Youngs Moduli (GPa) = 145.52373 90.88309 55.35466
#
# Poissons Ratio (x) = 0.27675 0.07672
# Poissons Ratio (y) = 0.44313 0.26421
# Poissons Ratio (z) = 0.20170 0.43379
#
# Static dielectric constant tensor:
#      x y z
#    x 1.863310 0.000000 0.047150 
#    y 0.000000 1.884940 0.000000 
#    z 0.047150 0.000000 2.050800 
# 
# From -- ./inp_files/47342.got.cif
#   From: 2010.05.17/outbox.cif.g08.bks.cpg/sg5_24_cif.got.tgz:47342.got - 2010.06.03 18:56:24.
