data_PCOD9129988
_publ_section_title
;
Structure prediction by ZEFSAII (Michael W. Deem and Ramdas Pophale) SiO2 
 PCOD9129988
Probable space group: C 2
;
_chemical_formula_sum "Si O2"
_cell_formula_units_Z 30
_cell_length_a 19.257348
_cell_length_b 6.369351
_cell_length_c 20.232077
_cell_angle_alpha 90.000000
_cell_angle_beta 32.636654
_cell_angle_gamma 90.000000
_cell_volume 1338.351829
_symmetry_space_group_name_H-M "C 2"
_symmetry_group_IT_number 5
_symmetry_cell_setting 'monoclinic'
loop_
_space_group_symop_operation_xyz
x,y,z
-x,y,-z
1/2+x,1/2+y,z
1/2-x,1/2+y,-z
loop_
_atom_site_type_symbol
_atom_site_label
_atom_site_fract_x
_atom_site_fract_y
_atom_site_fract_z
Si Si1 0.201530 0.892770 0.911578
Si Si2 0.500000 0.695042 0.000000
Si Si3 0.108452 0.061582 0.307018
Si Si4 0.520017 0.282512 0.824446
Si Si5 0.191169 0.447612 0.749850
Si Si6 0.838513 0.135178 0.341753
Si Si7 0.070630 0.670719 0.243184
Si Si8 0.889129 0.332290 0.445588
O O1 0.290743 0.741076 0.796627
O O2 0.297537 0.046292 0.873322
O O3 0.112494 0.756107 0.030422
O O4 0.105392 0.041066 0.947929
O O5 0.418028 0.837129 0.116705
O O6 0.968157 0.167949 0.426811
O O7 0.176972 0.960136 0.315030
O O8 0.096121 0.891156 0.258244
O O9 0.541413 0.528469 0.791968
O O10 0.505340 0.184568 0.764098
O O11 0.631449 0.171631 0.777056
O O12 0.210542 0.315433 0.667361
O O13 0.866891 0.223381 0.391841
O O14 0.741403 0.938535 0.425766
O O15 0.983336 0.529872 0.360671
#
# Coordination Sequence:
#
# PCOD9129988 Si02
#       8
#     4   2   4   4   4   4   4   4
#     4  11  25  39  70 104 148 189 240 291 358 435
#     4  12  22  46  70 104 154 192 232 298 362 438
#     4  11  25  47  71 102 149 193 228 300 370 418
#     4  12  25  42  70 109 141 185 249 290 358 434
#     4  12  26  45  74 107 145 193 237 296 361 436
#     4  12  26  47  78 105 137 187 252 297 360 428
#     4  11  24  44  69 104 142 192 236 297 359 423
#     4  11  26  48  77 100 140 190 244 307 355 426
#
# _framework density 22.41563
#
# number of rings (size 3 to 8) (size 9 to 14) (size 15 to 20)
#    0.000    0.533    5.333    2.400    1.867    0.000 
#    0.000    4.000    0.000    0.000    0.000    0.000 
#    0.000    0.000    0.000    0.000    0.000    0.000 
#
# Total GULP energy -83899.694746 kJ/mol
# GULP energy per Si atom -5593.312983 kJ/mol
# Density = 2.236461 g / cm^3
# Si number density = 22.415630 Si / 1000 Ang^3
#
#
#
# Elastic Constant Matrix: (Units=GPa)
#
#
# Indices 1 2 3 4 5 6 
#
# 1 103.3604 25.9860 22.6259 0.0006 -16.1186 -0.0002
# 2 25.9860 70.2285 19.7025 0.0059 -3.8167 -0.0058
# 3 22.6259 19.7025 58.7355 0.0012 -11.3147 -0.0012
# 4 0.0006 0.0059 0.0012 45.4166 -0.0007 -10.7466
# 5 -16.1186 -3.8167 -11.3147 -0.0007 24.3634 0.0011
# 6 -0.0002 -0.0058 -0.0012 -10.7466 0.0011 47.3918
#
#
#
# Elastic Compliance Matrix: (Units=1/GPa)
#
#
# Indices 1 2 3 4 5 6 
#
# 1 0.012034 -0.003478 -0.002241 0.000000 0.006376 -0.000001
# 2 -0.003478 0.016723 -0.004622 -0.000002 -0.001828 0.000002
# 3 -0.002241 -0.004622 0.020882 0.000000 0.007491 0.000000
# 4 0.000000 -0.000002 0.000000 0.023267 0.000000 0.005276
# 5 0.006376 -0.001828 0.007491 0.000000 0.048456 -0.000001
# 6 -0.000001 0.000002 0.000000 0.005276 -0.000001 0.022297
#
#
# Mechanical properties :
#
#
# Convention : Reuss Voigt Hill
#
# Bulk Modulus (GPa) = 34.53229 40.99479 37.76354
# Shear Modulus (GPa) = 28.73655 34.36835 31.55245
#
# Velocity S-wave (km/s) = 3.58437 3.91990 3.75588
# Velocity P-wave (km/s) = 5.70694 6.23022 5.97431
#
# Compressibility (1/GPa) = 0.02895840
#
# Stress axis : x y z
#
# Youngs Moduli (GPa) = 83.09734 59.79618 47.88738
#
# Poissons Ratio (x) = 0.20795 0.10731
# Poissons Ratio (y) = 0.28898 0.22135
# Poissons Ratio (z) = 0.18621 0.27639
#
# Static dielectric constant tensor:
#      x y z
#    x 1.800820 0.000000 -0.020860 
#    y 0.000000 1.847270 0.000000 
#    z -0.020860 0.000000 1.869790 
# 
# From -- ./inp_files/45692.got.cif
#   From: 2010.05.17/outbox.cif.g08.bks.cpg/sg5_23_cif.got.tgz:45692.got - 2010.06.03 18:56:24.
