data_PCOD9129185
_publ_section_title
;
Structure prediction by ZEFSAII (Michael W. Deem and Ramdas Pophale) SiO2 
 PCOD9129185
Probable space group: C 2
;
_chemical_formula_sum "Si O2"
_cell_formula_units_Z 30
_cell_length_a 8.126787
_cell_length_b 19.384110
_cell_length_c 9.547994
_cell_angle_alpha 90.000000
_cell_angle_beta 93.321989
_cell_angle_gamma 90.000000
_cell_volume 1501.573172
_symmetry_space_group_name_H-M "C 2"
_symmetry_group_IT_number 5
_symmetry_cell_setting 'monoclinic'
loop_
_space_group_symop_operation_xyz
x,y,z
-x,y,-z
1/2+x,1/2+y,z
1/2-x,1/2+y,-z
loop_
_atom_site_type_symbol
_atom_site_label
_atom_site_fract_x
_atom_site_fract_y
_atom_site_fract_z
Si Si1 0.500000 0.540170 0.000000
Si Si2 0.495442 0.117625 0.833151
Si Si3 0.337257 0.349117 0.212730
Si Si4 0.649982 0.641721 0.195972
Si Si5 0.821345 0.268496 0.020015
Si Si6 0.671878 0.982805 0.095588
Si Si7 0.340870 0.753639 0.576116
Si Si8 0.139204 0.759625 0.290984
O O1 0.511602 0.589751 0.136276
O O2 0.328168 0.499837 0.002622
O O3 0.678085 0.101304 0.788909
O O4 0.452584 0.189218 0.756816
O O5 0.377089 0.051569 0.819332
O O6 0.500000 0.132097 0.000000
O O7 0.254474 0.423842 0.195410
O O8 0.220606 0.306173 0.310471
O O9 0.521055 0.326756 0.269592
O O10 0.315324 0.315732 0.058022
O O11 0.621903 0.683482 0.336646
O O12 0.674144 0.697604 0.070074
O O13 0.784149 0.262298 0.181578
O O14 0.000000 0.300322 0.000000
O O15 0.500000 0.967103 0.000000
O O16 0.500000 0.777315 0.500000
O O17 0.202425 0.749247 0.450391
#
# Coordination Sequence:
#
# PCOD9129185 Si02
#       8
#     2   4   4   4   4   4   4   4
#     4  12  22  40  72 104 136 180 222 290 350 424
#     4  11  19  39  66 101 131 172 225 286 350 409
#     4  11  24  42  62  97 131 178 235 278 343 410
#     4  11  21  38  66 102 134 165 225 286 347 403
#     4  11  20  33  63  99 131 166 220 291 339 398
#     4  11  25  42  68 102 144 179 225 286 356 419
#     4  11  26  41  65  99 139 178 227 293 348 405
#     4  12  21  39  70  95 132 181 232 288 343 410
#
# _framework density 19.979046
#
# number of rings (size 3 to 8) (size 9 to 14) (size 15 to 20)
#    0.000    0.800    7.333    2.800    3.733    0.000 
#    0.000    0.000    8.800    0.000    0.000    0.000 
#    0.000    0.000    0.000    0.000    0.000    0.000 
#
# Total GULP energy -83623.991923 kJ/mol
# GULP energy per Si atom -5574.932795 kJ/mol
# Density = 1.993357 g / cm^3
# Si number density = 19.979046 Si / 1000 Ang^3
#
#
#
# Elastic Constant Matrix: (Units=GPa)
#
#
# Indices 1 2 3 4 5 6 
#
# 1 103.6669 30.2936 24.9034 0.0000 3.5648 0.0000
# 2 30.2936 80.1807 31.9177 0.0000 16.0107 0.0000
# 3 24.9034 31.9177 95.1852 0.0000 7.3044 0.0000
# 4 0.0000 0.0000 0.0000 15.4442 0.0000 4.2771
# 5 3.5648 16.0107 7.3044 0.0000 35.1642 0.0000
# 6 0.0000 0.0000 0.0000 4.2771 0.0000 20.2375
#
#
#
# Elastic Compliance Matrix: (Units=1/GPa)
#
#
# Indices 1 2 3 4 5 6 
#
# 1 0.011111 -0.003687 -0.001741 0.000000 0.000914 0.000000
# 2 -0.003687 0.016809 -0.004180 0.000000 -0.006411 0.000000
# 3 -0.001741 -0.004180 0.012401 0.000000 -0.000496 0.000000
# 4 0.000000 0.000000 0.000000 0.068774 0.000000 -0.014535
# 5 0.000914 -0.006411 -0.000496 0.000000 0.031368 0.000000
# 6 0.000000 0.000000 0.000000 -0.014535 0.000000 0.052485
#
#
# Mechanical properties :
#
#
# Convention : Reuss Voigt Hill
#
# Bulk Modulus (GPa) = 47.38189 50.36246 48.87217
# Shear Modulus (GPa) = 22.81044 26.96373 24.88708
#
# Velocity S-wave (km/s) = 3.38260 3.67768 3.53322
# Velocity P-wave (km/s) = 6.24686 6.57998 6.41558
#
# Compressibility (1/GPa) = 0.02110511
#
# Stress axis : x y z
#
# Youngs Moduli (GPa) = 90.00488 59.49180 80.63967
#
# Poissons Ratio (x) = 0.21937 0.14036
# Poissons Ratio (y) = 0.33189 0.33705
# Poissons Ratio (z) = 0.15666 0.24866
#
# Static dielectric constant tensor:
#      x y z
#    x 1.815690 0.000000 0.036590 
#    y 0.000000 1.760650 0.000000 
#    z 0.036590 0.000000 1.687490 
# 
# From -- ./inp_files/16816.got.cif
#   From: 2010.05.17/outbox.cif.g08.bks.cpg/sg5_9_cif.got.tgz:16816.got - 2010.06.03 18:56:24.
