data_PCOD9129956
_publ_section_title
;
Structure prediction by ZEFSAII (Michael W. Deem and Ramdas Pophale) SiO2 
 PCOD9129956
Probable space group: C 2
;
_chemical_formula_sum "Si O2"
_cell_formula_units_Z 24
_cell_length_a 23.776388
_cell_length_b 10.155509
_cell_length_c 18.580008
_cell_angle_alpha 90.000000
_cell_angle_beta 167.284204
_cell_angle_gamma 90.000000
_cell_volume 987.514299
_symmetry_space_group_name_H-M "C 2"
_symmetry_group_IT_number 5
_symmetry_cell_setting 'monoclinic'
loop_
_space_group_symop_operation_xyz
x,y,z
-x,y,-z
1/2+x,1/2+y,z
1/2-x,1/2+y,-z
loop_
_atom_site_type_symbol
_atom_site_label
_atom_site_fract_x
_atom_site_fract_y
_atom_site_fract_z
Si Si1 0.576286 0.327610 0.988552
Si Si2 0.752074 0.092387 0.274963
Si Si3 0.149786 0.512751 0.762104
Si Si4 0.304762 0.593429 0.702104
Si Si5 0.098159 0.218804 0.323324
Si Si6 0.689707 0.435375 0.791281
O O1 0.464679 0.464947 0.877607
O O2 0.328523 0.238906 0.665014
O O3 0.747905 0.249884 0.260778
O O4 0.731266 0.369910 0.110368
O O5 0.726035 0.047445 0.159135
O O6 0.500000 0.047454 0.000000
O O7 0.002935 0.012005 0.612881
O O8 0.000000 0.545827 0.500000
O O9 0.949063 0.543714 0.574756
O O10 0.393950 0.604498 0.081516
O O11 0.275365 0.685229 0.595997
O O12 0.500000 0.665966 0.000000
O O13 0.925855 0.350585 0.109954
O O14 0.500000 0.353177 0.500000
#
# Coordination Sequence:
#
# PCOD9129956 Si02
#       6
#     4   4   4   4   4   4
#     4  11  25  41  68  97 140 165 222 285 333 381
#     4   9  21  38  64  93 127 174 221 258 323 400
#     4  11  24  44  71  97 129 180 228 272 332 412
#     4  11  24  42  74  97 129 184 230 262 340 409
#     4  11  24  44  65  98 139 166 219 288 334 381
#     4   8  22  36  63  90 123 172 216 263 321 385
#
# _framework density 24.303443999999999
#
# number of rings (size 3 to 8) (size 9 to 14) (size 15 to 20)
#    1.000    0.667    3.333    1.000    7.000    3.333 
#    3.000    0.000    3.667    0.000    0.000    0.000 
#    0.000    0.000    0.000    0.000    0.000    0.000 
#
# Total GULP energy -66930.244261 kJ/mol
# GULP energy per Si atom -5577.520355 kJ/mol
# Density = 2.424813 g / cm^3
# Si number density = 24.303444 Si / 1000 Ang^3
#
#
#
# Elastic Constant Matrix: (Units=GPa)
#
#
# Indices 1 2 3 4 5 6 
#
# 1 85.4023 13.8256 51.9400 0.0045 34.6507 0.0195
# 2 13.8256 71.2651 43.1350 0.0223 6.6649 0.0266
# 3 51.9400 43.1350 151.2930 0.0273 30.7636 0.0291
# 4 0.0045 0.0223 0.0273 42.2530 0.0141 14.6791
# 5 34.6507 6.6649 30.7636 0.0141 59.2612 0.0067
# 6 0.0195 0.0266 0.0291 14.6791 0.0067 17.5545
#
#
#
# Elastic Compliance Matrix: (Units=1/GPa)
#
#
# Indices 1 2 3 4 5 6 
#
# 1 0.017661 0.000008 -0.004433 0.000010 -0.008026 -0.000017
# 2 0.000008 0.016983 -0.004981 0.000000 0.000671 -0.000018
# 3 -0.004433 -0.004981 0.009962 -0.000002 -0.002019 -0.000001
# 4 0.000010 0.000000 -0.000002 0.033358 -0.000009 -0.027894
# 5 -0.008026 0.000671 -0.002019 -0.000009 0.022540 0.000011
# 6 -0.000017 -0.000018 -0.000001 -0.027894 0.000011 0.080290
#
#
# Mechanical properties :
#
#
# Convention : Reuss Voigt Hill
#
# Bulk Modulus (GPa) = 38.77081 58.41793 48.59437
# Shear Modulus (GPa) = 24.01484 37.08439 30.54962
#
# Velocity S-wave (km/s) = 3.14686 3.91050 3.54928
# Velocity P-wave (km/s) = 5.40287 6.66922 6.06916
#
# Compressibility (1/GPa) = 0.02579260
#
# Stress axis : x y z
#
# Youngs Moduli (GPa) = 56.62311 58.88327 100.37728
#
# Poissons Ratio (x) = -0.00046 0.44500
# Poissons Ratio (y) = -0.00044 0.49999
# Poissons Ratio (z) = 0.25103 0.29330
#
# Static dielectric constant tensor:
#      x y z
#    x 1.975130 -0.000010 0.020040 
#    y -0.000010 1.967610 0.000010 
#    z 0.020040 0.000010 1.940620 
# 
# From -- ./inp_files/70034.got.cif
#   From: 2010.05.17/outbox.cif.g08.bks.cpg/sg5_36_cif.got.tgz:70034.got - 2010.06.03 18:56:24.
