data_PCOD9129357
_publ_section_title
;
Structure prediction by ZEFSAII (Michael W. Deem and Ramdas Pophale) SiO2 
 PCOD9129357
Probable space group: C 2
;
_chemical_formula_sum "Si O2"
_cell_formula_units_Z 30
_cell_length_a 28.175929
_cell_length_b 8.708591
_cell_length_c 6.871490
_cell_angle_alpha 90.000000
_cell_angle_beta 44.505883
_cell_angle_gamma 90.000000
_cell_volume 1181.909519
_symmetry_space_group_name_H-M "C 2"
_symmetry_group_IT_number 5
_symmetry_cell_setting 'monoclinic'
loop_
_space_group_symop_operation_xyz
x,y,z
-x,y,-z
1/2+x,1/2+y,z
1/2-x,1/2+y,-z
loop_
_atom_site_type_symbol
_atom_site_label
_atom_site_fract_x
_atom_site_fract_y
_atom_site_fract_z
Si Si1 0.972043 0.745260 0.366828
Si Si2 0.054889 0.479416 0.990852
Si Si3 0.160863 0.552592 0.178329
Si Si4 0.684905 0.122575 0.654872
Si Si5 0.900888 0.041104 0.590396
Si Si6 0.784953 0.242633 0.825709
Si Si7 0.000000 0.281203 0.500000
Si Si8 0.195742 0.924939 0.783962
O O1 0.911750 0.619678 0.552482
O O2 0.000000 0.780898 0.500000
O O3 0.032112 0.655433 0.089820
O O4 0.942076 0.902468 0.374356
O O5 0.042910 0.385889 0.224780
O O6 0.132152 0.507343 0.700514
O O7 0.000000 0.412894 0.000000
O O8 0.179720 0.376194 0.154374
O O9 0.166530 0.584090 0.932523
O O10 0.220277 0.653867 0.106957
O O11 0.675560 0.306650 0.672068
O O12 0.762484 0.073225 0.401099
O O13 0.842568 0.115228 0.628099
O O14 0.951156 0.172130 0.518158
O O15 0.862960 0.969900 0.892603
O O16 0.750745 0.326711 0.745180
#
# Coordination Sequence:
#
# PCOD9129357 Si02
#       8
#     4   4   4   4   4   4   2   4
#     4  12  21  46  71  96 140 188 242 284 356 430
#     4  12  27  48  75 105 141 194 244 294 363 428
#     4  11  21  41  70  98 141 183 230 287 353 420
#     4  11  25  45  67  99 145 183 228 295 357 417
#     4  12  24  44  75 103 137 191 239 293 366 424
#     4  11  22  40  66 103 130 179 236 282 344 422
#     4  12  28  46  80 102 146 196 236 306 350 440
#     4  11  26  44  69 103 141 186 231 297 354 427
#
# _framework density 25.382656000000001
#
# number of rings (size 3 to 8) (size 9 to 14) (size 15 to 20)
#    0.000    0.533    6.667    1.600    7.467    0.000 
#    4.800    0.667    0.000    0.000    0.000    0.000 
#    0.000    0.000    0.000    0.000    0.000    0.000 
#
# Total GULP energy -83939.781236 kJ/mol
# GULP energy per Si atom -5595.985416 kJ/mol
# Density = 2.532488 g / cm^3
# Si number density = 25.382656 Si / 1000 Ang^3
#
#
#
# Elastic Constant Matrix: (Units=GPa)
#
#
# Indices 1 2 3 4 5 6 
#
# 1 69.4206 11.4977 0.1149 0.0000 -20.8694 0.0000
# 2 11.4977 125.2169 38.8926 0.0000 -18.2137 0.0000
# 3 0.1149 38.8926 87.2188 0.0000 -30.8843 0.0000
# 4 0.0000 0.0000 0.0000 40.6770 0.0000 -15.6135
# 5 -20.8694 -18.2137 -30.8843 0.0000 42.1148 0.0000
# 6 0.0000 0.0000 0.0000 -15.6135 0.0000 52.0832
#
#
#
# Elastic Compliance Matrix: (Units=1/GPa)
#
#
# Indices 1 2 3 4 5 6 
#
# 1 0.018236 -0.001442 0.004860 0.000000 0.011977 0.000000
# 2 -0.001442 0.009439 -0.004072 0.000000 0.000381 0.000000
# 3 0.004860 -0.004072 0.018241 0.000000 0.014024 0.000000
# 4 0.000000 0.000000 0.000000 0.027781 0.000000 0.008328
# 5 0.011977 0.000381 0.014024 0.000000 0.040129 0.000000
# 6 0.000000 0.000000 0.000000 0.008328 0.000000 0.021697
#
#
# Mechanical properties :
#
#
# Convention : Reuss Voigt Hill
#
# Bulk Modulus (GPa) = 22.41733 42.54076 32.47905
# Shear Modulus (GPa) = 32.96000 42.39840 37.67920
#
# Velocity S-wave (km/s) = 3.60741 4.09145 3.85703
# Velocity P-wave (km/s) = 5.11881 6.25429 5.71482
#
# Compressibility (1/GPa) = 0.04460834
#
# Stress axis : x y z
#
# Youngs Moduli (GPa) = 54.83548 105.94577 54.82251
#
# Poissons Ratio (x) = 0.15276 -0.26644
# Poissons Ratio (y) = 0.07907 0.22324
# Poissons Ratio (z) = -0.26651 0.43141
#
# Static dielectric constant tensor:
#      x y z
#    x 2.138660 0.000000 0.009650 
#    y 0.000000 1.997520 0.000000 
#    z 0.009650 0.000000 1.962700 
# 
# From -- ./inp_files/32503.got.cif
#   From: 2010.05.17/outbox.cif.g08.bks.cpg/sg5_17_cif.got.tgz:32503.got - 2010.06.03 18:56:24.
