data_PCOD9129303
_publ_section_title
;
Structure prediction by ZEFSAII (Michael W. Deem and Ramdas Pophale) SiO2 
 PCOD9129303
Probable space group: C 2
;
_chemical_formula_sum "Si O2"
_cell_formula_units_Z 32
_cell_length_a 12.146674
_cell_length_b 18.563900
_cell_length_c 14.509842
_cell_angle_alpha 90.000000
_cell_angle_beta 151.128355
_cell_angle_gamma 90.000000
_cell_volume 1579.794786
_symmetry_space_group_name_H-M "C 2"
_symmetry_group_IT_number 5
_symmetry_cell_setting 'monoclinic'
loop_
_space_group_symop_operation_xyz
x,y,z
-x,y,-z
1/2+x,1/2+y,z
1/2-x,1/2+y,-z
loop_
_atom_site_type_symbol
_atom_site_label
_atom_site_fract_x
_atom_site_fract_y
_atom_site_fract_z
Si Si1 0.417363 0.096590 0.726403
Si Si2 0.371735 0.824860 0.644718
Si Si3 0.396716 0.541335 0.138309
Si Si4 0.868202 0.901040 0.001237
Si Si5 0.753166 0.681198 0.773009
Si Si6 0.404188 0.469075 0.533032
Si Si7 0.160882 0.168882 0.386260
Si Si8 0.719141 0.823708 0.628443
O O1 0.261652 0.125050 0.696010
O O2 0.377870 0.150275 0.610808
O O3 0.316973 0.020231 0.621351
O O4 0.664377 0.086275 0.952252
O O5 0.622654 0.862049 0.828853
O O6 0.187275 0.887001 0.529093
O O7 0.346075 0.745655 0.671878
O O8 0.327125 0.800731 0.507911
O O9 0.433319 0.497918 0.263480
O O10 0.603486 0.598450 0.282863
O O11 0.375043 0.482270 0.042131
O O12 0.000000 0.894579 0.000000
O O13 0.040503 0.860989 0.195207
O O14 0.556782 0.667447 0.702807
O O15 0.727150 0.757936 0.704613
O O16 0.000000 0.681041 0.000000
O O17 0.500000 0.478059 0.500000
O O18 0.500000 0.870661 0.500000
#
# Coordination Sequence:
#
# PCOD9129303 Si02
#       8
#     4   4   4   4   4   4   4   4
#     4  11  21  37  60  89 126 159 204 253 322 374
#     4  12  23  41  63  92 127 164 209 264 312 379
#     4  11  24  41  61  94 127 165 208 261 314 372
#     4  12  24  40  65  95 125 164 212 255 315 379
#     4  12  20  33  59  96 126 157 194 259 333 381
#     4  11  25  42  64  88 123 169 218 256 308 371
#     4  11  22  37  61  88 126 163 205 255 323 373
#     4  12  21  36  60  95 127 158 197 255 330 378
#
# _framework density 20.255793000000001
#
# number of rings (size 3 to 8) (size 9 to 14) (size 15 to 20)
#    0.000    0.500    7.500    3.000    0.000    0.000 
#    0.000    0.000    2.750    0.000    0.000    0.000 
#    0.000    0.000    0.000    0.000    0.000    0.000 
#
# Total GULP energy -89145.799028 kJ/mol
# GULP energy per Si atom -5571.612439 kJ/mol
# Density = 2.020969 g / cm^3
# Si number density = 20.255793 Si / 1000 Ang^3
#
#
#
# Elastic Constant Matrix: (Units=GPa)
#
#
# Indices 1 2 3 4 5 6 
#
# 1 12.1875 10.9298 11.9755 0.0001 -3.1222 0.0002
# 2 10.9298 137.2976 34.4364 0.0001 -1.5802 0.0001
# 3 11.9755 34.4364 139.3194 0.0003 -5.1936 0.0004
# 4 0.0001 0.0001 0.0003 30.0240 0.0002 -2.8811
# 5 -3.1222 -1.5802 -5.1936 0.0002 16.6241 0.0003
# 6 0.0002 0.0001 0.0004 -2.8811 0.0003 31.0244
#
#
#
# Elastic Compliance Matrix: (Units=1/GPa)
#
#
# Indices 1 2 3 4 5 6 
#
# 1 0.097703 -0.006010 -0.006324 0.000000 0.015803 -0.000001
# 2 -0.006010 0.008135 -0.001525 0.000000 -0.000832 0.000000
# 3 -0.006324 -0.001525 0.008143 0.000000 0.001211 0.000000
# 4 0.000000 0.000000 0.000000 0.033606 -0.000001 0.003121
# 5 0.015803 -0.000832 0.001211 -0.000001 0.063421 -0.000001
# 6 -0.000001 0.000000 0.000000 0.003121 -0.000001 0.032523
#
#
# Mechanical properties :
#
#
# Convention : Reuss Voigt Hill
#
# Bulk Modulus (GPa) = 11.59230 44.83198 28.21214
# Shear Modulus (GPa) = 16.66647 30.96534 23.81591
#
# Velocity S-wave (km/s) = 2.87156 3.91412 3.43265
# Velocity P-wave (km/s) = 4.09022 6.52749 5.44692
#
# Compressibility (1/GPa) = 0.08626415
#
# Stress axis : x y z
#
# Youngs Moduli (GPa) = 10.23508 122.92818 122.79791
#
# Poissons Ratio (x) = 0.73878 0.77654
# Poissons Ratio (y) = 0.06151 0.18729
# Poissons Ratio (z) = 0.06472 0.18749
#
# Static dielectric constant tensor:
#      x y z
#    x 1.744420 0.000000 -0.007100 
#    y 0.000000 1.859700 0.000000 
#    z -0.007100 0.000000 1.767250 
# 
# From -- ./inp_files/53462.got.cif
#   From: 2010.05.17/outbox.cif.g08.bks.cpg/sg5_27_cif.got.tgz:53462.got - 2010.06.03 18:56:24.
