data_PCOD9129814
_publ_section_title
;
Structure prediction by ZEFSAII (Michael W. Deem and Ramdas Pophale) SiO2 
 PCOD9129814
Probable space group: C 2
;
_chemical_formula_sum "Si O2"
_cell_formula_units_Z 24
_cell_length_a 18.620649
_cell_length_b 7.253946
_cell_length_c 11.119601
_cell_angle_alpha 90.000000
_cell_angle_beta 34.759118
_cell_angle_gamma 90.000000
_cell_volume 856.308656
_symmetry_space_group_name_H-M "C 2"
_symmetry_group_IT_number 5
_symmetry_cell_setting 'monoclinic'
loop_
_space_group_symop_operation_xyz
x,y,z
-x,y,-z
1/2+x,1/2+y,z
1/2-x,1/2+y,-z
loop_
_atom_site_type_symbol
_atom_site_label
_atom_site_fract_x
_atom_site_fract_y
_atom_site_fract_z
Si Si1 0.735555 0.336830 0.383762
Si Si2 0.370933 0.115551 0.824923
Si Si3 0.276705 0.939252 0.718713
Si Si4 0.508996 0.446441 0.130093
Si Si5 0.131013 0.004229 0.285780
Si Si6 0.945270 0.350411 0.284787
O O1 0.614231 0.363920 0.637021
O O2 0.706776 0.439547 0.299117
O O3 0.748750 0.123406 0.326492
O O4 0.860522 0.397361 0.284280
O O5 0.410484 0.319108 0.728695
O O6 0.361524 0.002732 0.712702
O O7 0.463088 0.007033 0.788776
O O8 0.227615 0.112653 0.070039
O O9 0.345585 0.810924 0.528645
O O10 0.148098 0.862234 0.951189
O O11 0.515618 0.660228 0.160791
O O12 0.500000 0.436986 0.000000
O O13 0.000000 0.098742 0.500000
#
# Coordination Sequence:
#
# PCOD9129814 Si02
#       6
#     4   4   4   4   4   4
#     4  11  23  44  73 105 144 188 238 300 354 420
#     4  11  25  43  74 104 146 192 235 290 361 427
#     4  11  24  47  68 101 149 186 235 296 355 423
#     4  12  24  44  73 103 141 188 237 296 356 417
#     4  11  25  47  71 104 145 188 238 293 353 426
#     4  12  23  41  73 109 141 189 235 296 359 417
#
# _framework density 28.027277999999999
#
# number of rings (size 3 to 8) (size 9 to 14) (size 15 to 20)
#    0.000    0.667    3.333    5.500    0.000    1.333 
#    0.000    5.000    0.000    0.000    0.000    0.000 
#    0.000    0.000    0.000    0.000    0.000    0.000 
#
# Total GULP energy -67424.145268 kJ/mol
# GULP energy per Si atom -5618.678772 kJ/mol
# Density = 2.796349 g / cm^3
# Si number density = 28.027278 Si / 1000 Ang^3
#
#
#
# Elastic Constant Matrix: (Units=GPa)
#
#
# Indices 1 2 3 4 5 6 
#
# 1 209.5446 36.2780 33.8189 -0.0005 -9.5548 0.0002
# 2 36.2780 92.6737 12.9755 -0.0009 -6.0052 0.0005
# 3 33.8189 12.9755 199.8476 0.0000 1.7970 0.0002
# 4 -0.0005 -0.0009 0.0000 42.3605 0.0001 0.5950
# 5 -9.5548 -6.0052 1.7970 0.0001 54.4030 0.0000
# 6 0.0002 0.0005 0.0002 0.5950 0.0000 54.6906
#
#
#
# Elastic Compliance Matrix: (Units=1/GPa)
#
#
# Indices 1 2 3 4 5 6 
#
# 1 0.005260 -0.001903 -0.000773 0.000000 0.000739 0.000000
# 2 -0.001903 0.011660 -0.000444 0.000000 0.000968 0.000000
# 3 -0.000773 -0.000444 0.005167 0.000000 -0.000355 0.000000
# 4 0.000000 0.000000 0.000000 0.023611 0.000000 -0.000257
# 5 0.000739 0.000968 -0.000355 0.000000 0.018630 0.000000
# 6 0.000000 0.000000 0.000000 -0.000257 0.000000 0.018287
#
#
# Mechanical properties :
#
#
# Convention : Reuss Voigt Hill
#
# Bulk Modulus (GPa) = 63.10239 74.24562 68.67400
# Shear Modulus (GPa) = 53.11391 58.22371 55.66881
#
# Velocity S-wave (km/s) = 4.35797 4.56279 4.46156
# Velocity P-wave (km/s) = 6.91998 7.36931 7.14817
#
# Compressibility (1/GPa) = 0.01584726
#
# Stress axis : x y z
#
# Youngs Moduli (GPa) = 190.10597 85.76099 193.54821
#
# Poissons Ratio (x) = 0.16320 0.14966
# Poissons Ratio (y) = 0.36177 0.08588
# Poissons Ratio (z) = 0.14700 0.03806
#
# Static dielectric constant tensor:
#      x y z
#    x 2.203990 0.000000 -0.019430 
#    y 0.000000 2.136630 0.000000 
#    z -0.019430 0.000000 2.120490 
# 
# From -- ./inp_files/46296.got.cif
#   From: 2010.05.17/outbox.cif.g08.bks.cpg/sg5_24_cif.got.tgz:46296.got - 2010.06.03 18:56:24.
