data_PCOD9129947
_publ_section_title
;
Structure prediction by ZEFSAII (Michael W. Deem and Ramdas Pophale) SiO2 
 PCOD9129947
Probable space group: C 2
;
_chemical_formula_sum "Si O2"
_cell_formula_units_Z 26
_cell_length_a 7.252255
_cell_length_b 9.979664
_cell_length_c 16.518750
_cell_angle_alpha 90.000000
_cell_angle_beta 117.485657
_cell_angle_gamma 90.000000
_cell_volume 1060.600110
_symmetry_space_group_name_H-M "C 2"
_symmetry_group_IT_number 5
_symmetry_cell_setting 'monoclinic'
loop_
_space_group_symop_operation_xyz
x,y,z
-x,y,-z
1/2+x,1/2+y,z
1/2-x,1/2+y,-z
loop_
_atom_site_type_symbol
_atom_site_label
_atom_site_fract_x
_atom_site_fract_y
_atom_site_fract_z
Si Si1 0.885602 0.818650 0.218196
Si Si2 0.510855 0.793543 0.267600
Si Si3 0.255974 0.960813 0.969055
Si Si4 0.444088 0.535806 0.627654
Si Si5 0.105805 0.579931 0.346394
Si Si6 0.229704 0.739350 0.078676
Si Si7 0.500000 0.056973 0.500000
O O1 0.668643 0.800405 0.223325
O O2 0.844313 0.860657 0.117619
O O3 0.021169 0.688333 0.265963
O O4 0.991093 0.944418 0.283948
O O5 0.591272 0.686759 0.348389
O O6 0.298934 0.738902 0.185129
O O7 0.495928 0.938420 0.304880
O O8 0.160764 0.109028 0.939922
O O9 0.500000 0.960321 0.000000
O O10 0.255646 0.892311 0.055890
O O11 0.648114 0.548426 0.612449
O O12 0.221755 0.481456 0.552286
O O13 0.041237 0.629671 0.422695
O O14 0.000000 0.715907 0.000000
#
# Coordination Sequence:
#
# PCOD9129947 Si02
#       7
#     4   4   4   4   4   4   2
#     4  11  24  46  71 101 141 192 236 290 361 417
#     4  11  24  48  68 104 145 187 237 290 362 418
#     4  11  24  42  66  99 144 188 233 290 338 411
#     4  11  26  48  72 103 143 183 233 299 355 429
#     4  11  28  45  76 103 141 188 234 302 355 433
#     4  11  26  40  67 104 143 188 238 287 339 419
#     4  12  26  52  72 108 138 184 242 290 372 428
#
# _framework density 24.514422
#
# number of rings (size 3 to 8) (size 9 to 14) (size 15 to 20)
#    0.000    0.923    4.615    0.462    6.462    3.077 
#    0.000    0.000    0.000    0.000    0.000    0.000 
#    0.000    0.000    0.000    0.000    0.000    0.000 
#
# Total GULP energy -72573.371299 kJ/mol
# GULP energy per Si atom -5582.567023 kJ/mol
# Density = 2.445863 g / cm^3
# Si number density = 24.514422 Si / 1000 Ang^3
#
#
#
# Elastic Constant Matrix: (Units=GPa)
#
#
# Indices 1 2 3 4 5 6 
#
# 1 96.0632 4.9012 44.4952 0.0000 9.1583 0.0000
# 2 4.9012 130.3256 23.4428 0.0000 -3.8464 0.0000
# 3 44.4952 23.4428 108.4989 0.0000 16.3491 0.0000
# 4 0.0000 0.0000 0.0000 4.7898 0.0000 0.3732
# 5 9.1583 -3.8464 16.3491 0.0000 40.6549 0.0000
# 6 0.0000 0.0000 0.0000 0.3732 0.0000 -12.4530
#
#
#
# Elastic Compliance Matrix: (Units=1/GPa)
#
#
# Indices 1 2 3 4 5 6 
#
# 1 0.012901 0.000442 -0.005274 0.000000 -0.000744 0.000000
# 2 0.000442 0.008090 -0.002160 0.000000 0.001535 0.000000
# 3 -0.005274 -0.002160 0.012453 0.000000 -0.004024 0.000000
# 4 0.000000 0.000000 0.000000 0.208291 0.000000 0.006243
# 5 -0.000744 0.001535 -0.004024 0.000000 0.026528 0.000000
# 6 0.000000 0.000000 0.000000 0.006243 0.000000 -0.080115
#
#
# Mechanical properties :
#
#
# Convention : Reuss Voigt Hill
#
# Bulk Modulus (GPa) = 51.39177 53.39622 52.39400
# Shear Modulus (GPa) = 23.96696 24.06825 24.01760
#
# Velocity S-wave (km/s) = 3.13016 3.13677 3.13347
# Velocity P-wave (km/s) = 5.83723 5.91168 5.87457
#
# Compressibility (1/GPa) = 0.01945837
#
# Stress axis : x y z
#
# Youngs Moduli (GPa) = 77.51302 123.60347 80.30372
#
# Poissons Ratio (x) = -0.05458 0.42353
# Poissons Ratio (y) = -0.03423 0.17349
# Poissons Ratio (z) = 0.40881 0.26703
#
# Static dielectric constant tensor:
#      x y z
#    x 2.073560 0.000000 0.129230 
#    y 0.000000 1.959640 0.000000 
#    z 0.129230 0.000000 2.035520 
# 
# From -- ./inp_files/64404.got.cif
#   From: 2010.05.17/outbox.cif.g08.bks.cpg/sg5_33_cif.got.tgz:64404.got - 2010.06.03 18:56:24.
