data_PCOD9129122
_publ_section_title
;
Structure prediction by ZEFSAII (Michael W. Deem and Ramdas Pophale) SiO2 
 PCOD9129122
Probable space group: C 2
;
_chemical_formula_sum "Si O2"
_cell_formula_units_Z 16
_cell_length_a 5.223372
_cell_length_b 23.377964
_cell_length_c 5.187258
_cell_angle_alpha 90.000000
_cell_angle_beta 91.213931
_cell_angle_gamma 90.000000
_cell_volume 633.283260
_symmetry_space_group_name_H-M "C 2"
_symmetry_group_IT_number 5
_symmetry_cell_setting 'monoclinic'
loop_
_space_group_symop_operation_xyz
x,y,z
-x,y,-z
1/2+x,1/2+y,z
1/2-x,1/2+y,-z
loop_
_atom_site_type_symbol
_atom_site_label
_atom_site_fract_x
_atom_site_fract_y
_atom_site_fract_z
Si Si1 0.326524 0.380200 0.749110
Si Si2 0.500000 0.664775 0.500000
Si Si3 0.500000 0.973129 0.500000
Si Si4 0.832333 0.581951 0.739001
Si Si5 0.741499 0.749882 0.830301
O O1 0.500000 0.379695 0.500000
O O2 0.209266 0.316848 0.767499
O O3 0.130479 0.431301 0.705708
O O4 0.500000 0.389196 0.000000
O O5 0.571652 0.617829 0.722495
O O6 0.719269 0.711470 0.574829
O O7 0.309335 0.015774 0.650208
O O8 0.000000 0.605216 0.500000
O O9 0.000000 0.586600 0.000000
O O10 0.500000 0.732338 0.000000
O O11 0.000000 0.742057 0.000000
#
# Coordination Sequence:
#
# PCOD9129122 Si02
#       5
#     4   2   2   4   4
#     4  11  28  46  77 111 153 199 255 314 389 456
#     4  12  27  44  80 100 163 196 264 308 396 438
#     4  10  27  44  80 102 159 190 262 304 394 442
#     4  10  27  45  70 107 148 195 259 306 379 447
#     4  11  29  48  79 113 159 201 260 317 389 459
#
# _framework density 25.265156999999999
#
# number of rings (size 3 to 8) (size 9 to 14) (size 15 to 20)
#    0.750    0.500    0.000    1.500   26.250    0.000 
#    0.000    0.000    0.000    0.000    0.000    0.000 
#    0.000    0.000    0.000    0.000    0.000    0.000 
#
# Total GULP energy -44677.552864 kJ/mol
# GULP energy per Si atom -5584.694108 kJ/mol
# Density = 2.520765 g / cm^3
# Si number density = 25.265157 Si / 1000 Ang^3
#
#
#
# Elastic Constant Matrix: (Units=GPa)
#
#
# Indices 1 2 3 4 5 6 
#
# 1 104.5527 63.7750 56.8395 0.0000 17.1523 0.0000
# 2 63.7750 245.3245 72.6970 0.0000 53.8490 0.0000
# 3 56.8395 72.6970 190.9233 0.0000 38.0598 0.0000
# 4 0.0000 0.0000 0.0000 14.2484 0.0000 16.3555
# 5 17.1523 53.8490 38.0598 0.0000 57.9972 0.0000
# 6 0.0000 0.0000 0.0000 16.3555 0.0000 35.9557
#
#
#
# Elastic Compliance Matrix: (Units=1/GPa)
#
#
# Indices 1 2 3 4 5 6 
#
# 1 0.012594 -0.002533 -0.002889 0.000000 0.000523 0.000000
# 2 -0.002533 0.005859 -0.000623 0.000000 -0.004282 0.000000
# 3 -0.002889 -0.000623 0.006960 0.000000 -0.003134 0.000000
# 4 0.000000 0.000000 0.000000 0.146873 0.000000 -0.066809
# 5 0.000523 -0.004282 -0.003134 0.000000 0.023120 0.000000
# 6 0.000000 0.000000 0.000000 -0.066809 0.000000 0.058202
#
#
# Mechanical properties :
#
#
# Convention : Reuss Voigt Hill
#
# Bulk Modulus (GPa) = 75.05856 103.04705 89.05281
# Shear Modulus (GPa) = 18.50890 44.80619 31.65754
#
# Velocity S-wave (km/s) = 2.70957 4.21579 3.54363
# Velocity P-wave (km/s) = 6.28982 8.03567 7.21574
#
# Compressibility (1/GPa) = 0.01332293
#
# Stress axis : x y z
#
# Youngs Moduli (GPa) = 79.40033 170.66952 143.67742
#
# Poissons Ratio (x) = 0.43224 0.41514
# Poissons Ratio (y) = 0.20109 0.08957
# Poissons Ratio (z) = 0.22942 0.10640
#
# Static dielectric constant tensor:
#      x y z
#    x 2.167890 0.000000 -0.110940 
#    y 0.000000 1.985350 0.000000 
#    z -0.110940 0.000000 2.005030 
# 
# From -- ./inp_files/916.got.cif
#   From: 2010.05.17/outbox.cif.g08.bks.cpg/sg5_1_cif.got.tgz:916.got - 2010.06.03 18:56:24.
