data_PCOD9129906
_publ_section_title
;
Structure prediction by ZEFSAII (Michael W. Deem and Ramdas Pophale) SiO2 
 PCOD9129906
Probable space group: C 2
;
_chemical_formula_sum "Si O2"
_cell_formula_units_Z 28
_cell_length_a 28.521518
_cell_length_b 6.660564
_cell_length_c 9.517826
_cell_angle_alpha 90.000000
_cell_angle_beta 52.941054
_cell_angle_gamma 90.000000
_cell_volume 1442.889153
_symmetry_space_group_name_H-M "C 2"
_symmetry_group_IT_number 5
_symmetry_cell_setting 'monoclinic'
loop_
_space_group_symop_operation_xyz
x,y,z
-x,y,-z
1/2+x,1/2+y,z
1/2-x,1/2+y,-z
loop_
_atom_site_type_symbol
_atom_site_label
_atom_site_fract_x
_atom_site_fract_y
_atom_site_fract_z
Si Si1 0.697432 0.602780 0.238916
Si Si2 0.500000 0.953077 0.000000
Si Si3 0.324567 0.275011 0.951769
Si Si4 0.126352 0.852513 0.573725
Si Si5 0.500000 0.810732 0.500000
Si Si6 0.118840 0.495155 0.386572
Si Si7 0.508327 0.605154 0.768646
Si Si8 0.912620 0.797247 0.052773
O O1 0.685793 0.483478 0.113816
O O2 0.681249 0.453202 0.395633
O O3 0.653509 0.788317 0.335859
O O4 0.763036 0.687758 0.118123
O O5 0.520742 0.802999 0.839017
O O6 0.550463 0.097508 0.972621
O O7 0.349643 0.125613 0.789337
O O8 0.371429 0.282886 0.992012
O O9 0.119454 0.629159 0.525047
O O10 0.126235 0.852120 0.741461
O O11 0.067429 0.976820 0.639937
O O12 0.483753 0.673438 0.662408
O O13 0.553588 0.945749 0.454142
O O14 0.460918 0.468168 0.933803
#
# Coordination Sequence:
#
# PCOD9129906 Si02
#       8
#     4   2   4   4   2   4   4   4
#     4  11  23  48  69  94 135 176 225 285 325 393
#     4  12  22  44  68  92 144 182 216 268 348 404
#     4  11  25  45  72  96 132 178 230 275 337 394
#     4  11  24  43  63  95 140 172 217 273 341 392
#     4  12  24  38  70 106 128 172 232 274 340 406
#     4  11  24  42  69  97 131 175 216 285 338 391
#     4  12  24  42  63 101 140 172 215 282 337 401
#     4  12  25  43  67 100 135 183 219 276 339 409
#
# _framework density 19.40551
#
# number of rings (size 3 to 8) (size 9 to 14) (size 15 to 20)
#    0.000    0.571    5.714    2.571    4.000    0.000 
#    2.571    0.000    0.000    0.000    0.000    0.000 
#    0.000    0.000    0.000    0.000    0.000    0.000 
#
# Total GULP energy -78275.825466 kJ/mol
# GULP energy per Si atom -5591.130390 kJ/mol
# Density = 1.936134 g / cm^3
# Si number density = 19.405510 Si / 1000 Ang^3
#
#
#
# Elastic Constant Matrix: (Units=GPa)
#
#
# Indices 1 2 3 4 5 6 
#
# 1 40.6241 34.0890 1.0306 0.0000 -16.8232 0.0000
# 2 34.0890 119.5091 41.2238 0.0000 -1.5189 0.0000
# 3 1.0306 41.2238 96.8122 0.0000 -6.0287 0.0000
# 4 0.0000 0.0000 0.0000 -11.8521 0.0000 -20.1795
# 5 -16.8232 -1.5189 -6.0287 0.0000 30.7517 0.0000
# 6 0.0000 0.0000 0.0000 -20.1795 0.0000 14.0619
#
#
#
# Elastic Compliance Matrix: (Units=1/GPa)
#
#
# Indices 1 2 3 4 5 6 
#
# 1 0.050323 -0.016900 0.008426 0.000000 0.028347 0.000000
# 2 -0.016900 0.015487 -0.007029 0.000000 -0.009859 0.000000
# 3 0.008426 -0.007029 0.013665 0.000000 0.006941 0.000000
# 4 0.000000 0.000000 0.000000 -0.024503 0.000000 -0.035164
# 5 0.028347 -0.009859 0.006941 0.000000 0.048900 0.000000
# 6 0.000000 0.000000 0.000000 -0.035164 0.000000 0.020653
#
#
# Mechanical properties :
#
#
# Convention : Reuss Voigt Hill
#
# Bulk Modulus (GPa) = 20.63190 45.51467 33.07329
# Shear Modulus (GPa) = 29.12274 18.63244 23.87759
#
# Velocity S-wave (km/s) = 3.87815 3.10201 3.51159
# Velocity P-wave (km/s) = 5.54152 6.02788 5.78981
#
# Compressibility (1/GPa) = 0.04846864
#
# Stress axis : x y z
#
# Youngs Moduli (GPa) = 19.87170 64.56821 73.18088
#
# Poissons Ratio (x) = 1.09123 -0.61662
# Poissons Ratio (y) = 0.33584 0.51437
# Poissons Ratio (z) = -0.16744 0.45384
#
# Static dielectric constant tensor:
#      x y z
#    x 1.635630 0.000000 -0.005860 
#    y 0.000000 1.692840 0.000000 
#    z -0.005860 0.000000 1.700800 
# 
# From -- ./inp_files/31449.got.cif
#   From: 2010.05.17/outbox.cif.g08.bks.cpg/sg5_16_cif.got.tgz:31449.got - 2010.06.03 18:56:24.
