data_PCOD9129179
_publ_section_title
;
Structure prediction by ZEFSAII (Michael W. Deem and Ramdas Pophale) SiO2 
 PCOD9129179
Probable space group: C 2
;
_chemical_formula_sum "Si O2"
_cell_formula_units_Z 24
_cell_length_a 23.376188
_cell_length_b 5.680199
_cell_length_c 26.777825
_cell_angle_alpha 90.000000
_cell_angle_beta 164.829837
_cell_angle_gamma 90.000000
_cell_volume 930.452137
_symmetry_space_group_name_H-M "C 2"
_symmetry_group_IT_number 5
_symmetry_cell_setting 'monoclinic'
loop_
_space_group_symop_operation_xyz
x,y,z
-x,y,-z
1/2+x,1/2+y,z
1/2-x,1/2+y,-z
loop_
_atom_site_type_symbol
_atom_site_label
_atom_site_fract_x
_atom_site_fract_y
_atom_site_fract_z
Si Si1 0.004119 0.340790 0.388223
Si Si2 0.375660 0.972407 0.613115
Si Si3 0.449391 0.466153 0.506531
Si Si4 0.480453 0.933968 0.151653
Si Si5 0.481578 0.440573 0.843235
Si Si6 0.817098 0.082512 0.812214
O O1 0.797506 0.396462 0.248272
O O2 0.971042 0.443628 0.306169
O O3 0.244104 0.424605 0.612583
O O4 0.014119 0.062846 0.406593
O O5 0.228346 0.734319 0.480141
O O6 0.462447 0.949532 0.742109
O O7 0.500000 0.627240 0.500000
O O8 0.194242 0.414691 0.295699
O O9 0.620005 0.263120 0.640516
O O10 0.386495 0.672735 0.063392
O O11 0.397009 0.192880 0.065644
O O12 0.413920 0.472299 0.843726
O O13 0.000000 0.204499 0.000000
#
# Coordination Sequence:
#
# PCOD9129179 Si02
#       6
#     4   4   4   4   4   4
#     4  11  22  37  64  91 125 157 211 252 316 366
#     4  12  20  35  60 100 128 153 197 266 315 365
#     4  11  19  37  62  89 123 162 206 259 311 370
#     4  11  20  37  62  94 120 156 200 255 310 364
#     4  11  21  39  63  89 123 157 205 255 312 361
#     4  12  25  39  58  89 129 169 208 257 312 373
#
# _framework density 25.793914000000001
#
# number of rings (size 3 to 8) (size 9 to 14) (size 15 to 20)
#    0.000    0.667    8.333    2.500    0.000    0.667 
#    0.000    0.000    0.000    2.000    0.000    0.000 
#    0.000    0.000    0.000    0.000    0.000    0.000 
#
# Total GULP energy -66941.336429 kJ/mol
# GULP energy per Si atom -5578.444702 kJ/mol
# Density = 2.573521 g / cm^3
# Si number density = 25.793914 Si / 1000 Ang^3
#
#
#
# Elastic Constant Matrix: (Units=GPa)
#
#
# Indices 1 2 3 4 5 6 
#
# 1 179.8115 41.1762 19.8878 0.2797 -11.1605 0.0560
# 2 41.1762 171.2374 17.3453 -0.3866 -9.3067 -0.1384
# 3 19.8878 17.3453 68.2488 -1.2143 -7.6979 -0.2166
# 4 0.2797 -0.3866 -1.2143 2.7359 -0.1554 -11.0236
# 5 -11.1605 -9.3067 -7.6979 -0.1554 33.8689 -0.0807
# 6 0.0560 -0.1384 -0.2166 -11.0236 -0.0807 38.9298
#
#
#
# Elastic Compliance Matrix: (Units=1/GPa)
#
#
# Indices 1 2 3 4 5 6 
#
# 1 0.006043 -0.001239 -0.001115 0.009021 0.001445 0.002538
# 2 -0.001239 0.006305 -0.001208 -0.004393 0.001027 -0.001224
# 3 -0.001115 -0.001208 0.014635 -0.049035 0.002369 -0.013801
# 4 0.009021 -0.004393 -0.049035 -2.409407 -0.022061 -0.682607
# 5 0.001445 0.001027 0.002369 -0.022061 0.030706 -0.006169
# 6 0.002538 -0.001224 -0.013801 -0.682607 -0.006169 -0.167701
#
#
# Mechanical properties :
#
#
# Convention : Reuss Voigt Hill
#
# Bulk Modulus (GPa) = 50.35104 64.01291 57.18198
# Shear Modulus (GPa) = -1.99547 37.83281 17.91867
#
# Velocity S-wave (km/s) = -0.88051 3.83395 2.63855
# Velocity P-wave (km/s) = 4.30455 6.66857 5.61244
#
# Compressibility (1/GPa) = 0.01986056
#
# Stress axis : x y z
#
# Youngs Moduli (GPa) = 165.47196 158.60254 68.32960
#
# Poissons Ratio (x) = 0.19656 0.07615
# Poissons Ratio (y) = 0.20508 0.08251
# Poissons Ratio (z) = 0.18442 0.19152
#
# Static dielectric constant tensor:
#      x y z
#    x 2.156880 -0.001430 -0.078060 
#    y -0.001430 2.294600 0.000360 
#    z -0.078060 0.000360 2.112440 
# 
# From -- ./inp_files/71188.got.cif
#   From: 2010.05.17/outbox.cif.g08.bks.cpg/sg5_36_cif.got.tgz:71188.got - 2010.06.03 18:56:24.
