data_PCOD9129282
_publ_section_title
;
Structure prediction by ZEFSAII (Michael W. Deem and Ramdas Pophale) SiO2 
 PCOD9129282
Probable space group: C 2
;
_chemical_formula_sum "Si O2"
_cell_formula_units_Z 30
_cell_length_a 24.369079
_cell_length_b 5.291001
_cell_length_c 13.140560
_cell_angle_alpha 90.000000
_cell_angle_beta 107.521522
_cell_angle_gamma 90.000000
_cell_volume 1615.693080
_symmetry_space_group_name_H-M "C 2"
_symmetry_group_IT_number 5
_symmetry_cell_setting 'monoclinic'
loop_
_space_group_symop_operation_xyz
x,y,z
-x,y,-z
1/2+x,1/2+y,z
1/2-x,1/2+y,-z
loop_
_atom_site_type_symbol
_atom_site_label
_atom_site_fract_x
_atom_site_fract_y
_atom_site_fract_z
Si Si1 0.930346 0.811190 0.238932
Si Si2 0.112991 0.857750 0.579461
Si Si3 0.713290 0.403241 0.474520
Si Si4 0.548702 0.805908 0.878409
Si Si5 0.960297 0.596819 0.613927
Si Si6 0.626338 0.229456 0.255029
Si Si7 0.000000 0.192064 0.500000
Si Si8 0.415548 0.751173 0.868714
O O1 0.880864 0.808368 0.297346
O O2 0.933878 0.567639 0.167077
O O3 0.989235 0.797153 0.338429
O O4 0.931163 0.065697 0.175218
O O5 0.168264 0.921973 0.543105
O O6 0.082151 0.624591 0.505566
O O7 0.062258 0.060506 0.536107
O O8 0.742773 0.675185 0.477602
O O9 0.680094 0.318213 0.353139
O O10 0.479293 0.796177 0.855499
O O11 0.575142 0.775694 0.005569
O O12 0.919955 0.639571 0.686679
O O13 0.995642 0.351711 0.602726
O O14 0.604607 0.473872 0.179891
O O15 0.628213 0.974888 0.188999
#
# Coordination Sequence:
#
# PCOD9129282 Si02
#       8
#     4   4   4   4   4   4   2   4
#     4  12  20  36  52  88 120 172 185 251 307 365
#     4  11  25  35  61  88 128 168 204 256 309 394
#     4  11  27  46  64  92 124 164 217 266 305 366
#     4  11  23  33  56  84 136 159 208 247 300 380
#     4  11  21  30  51  87 124 160 205 231 295 386
#     4  11  23  37  65  81 120 168 208 251 309 365
#     4  12  20  34  54  90 134 160 206 248 302 392
#     4  11  21  38  54  90 120 174 206 248 305 373
#
# _framework density 18.567883999999999
#
# number of rings (size 3 to 8) (size 9 to 14) (size 15 to 20)
#    0.000    0.800    5.333    2.400    7.467    2.133 
#    0.000    0.000    0.000    0.000    0.000   18.667 
#    0.000    0.000    0.000    0.000    0.000    0.000 
#
# Total GULP energy -83602.469123 kJ/mol
# GULP energy per Si atom -5573.497942 kJ/mol
# Density = 1.852562 g / cm^3
# Si number density = 18.567884 Si / 1000 Ang^3
#
#
#
# Elastic Constant Matrix: (Units=GPa)
#
#
# Indices 1 2 3 4 5 6 
#
# 1 65.4605 25.6278 28.2874 0.0000 -16.7014 0.0000
# 2 25.6278 120.2322 45.6821 0.0000 -20.4561 0.0000
# 3 28.2874 45.6821 104.3345 0.0000 -19.0068 0.0000
# 4 0.0000 0.0000 0.0000 5.9595 0.0000 16.8592
# 5 -16.7014 -20.4561 -19.0068 0.0000 20.7458 0.0000
# 6 0.0000 0.0000 0.0000 16.8592 0.0000 13.6438
#
#
#
# Elastic Compliance Matrix: (Units=1/GPa)
#
#
# Indices 1 2 3 4 5 6 
#
# 1 0.020085 -0.001125 -0.002652 0.000000 0.012631 0.000000
# 2 -0.001125 0.010967 -0.003231 0.000000 0.006948 0.000000
# 3 -0.002652 -0.003231 0.012902 0.000000 0.006500 0.000000
# 4 0.000000 0.000000 0.000000 -0.067237 0.000000 0.083082
# 5 0.012631 0.006948 0.006500 0.000000 0.071177 0.000000
# 6 0.000000 0.000000 0.000000 0.083082 0.000000 -0.029368
#
#
# Mechanical properties :
#
#
# Convention : Reuss Voigt Hill
#
# Bulk Modulus (GPa) = 33.40140 54.35798 43.87969
# Shear Modulus (GPa) = 117.58916 20.76516 69.17716
#
# Velocity S-wave (km/s) = 7.96661 3.34778 6.11042
# Velocity P-wave (km/s) = 10.13165 6.65450 8.57125
#
# Compressibility (1/GPa) = 0.02993887
#
# Stress axis : x y z
#
# Youngs Moduli (GPa) = 49.78745 91.18518 77.50497
#
# Poissons Ratio (x) = 0.10254 0.20556
# Poissons Ratio (y) = 0.05599 0.25042
# Poissons Ratio (z) = 0.13205 0.29463
#
# Static dielectric constant tensor:
#      x y z
#    x 1.637190 0.000000 -0.015910 
#    y 0.000000 1.750360 0.000000 
#    z -0.015910 0.000000 1.714910 
# 
# From -- ./inp_files/46958.got.cif
#   From: 2010.05.17/outbox.cif.g08.bks.cpg/sg5_24_cif.got.tgz:46958.got - 2010.06.03 18:56:24.
