data_PCOD9129820
_publ_section_title
;
Structure prediction by ZEFSAII (Michael W. Deem and Ramdas Pophale) SiO2 
 PCOD9129820
Probable space group: C 2
;
_chemical_formula_sum "Si O2"
_cell_formula_units_Z 22
_cell_length_a 14.119085
_cell_length_b 12.711862
_cell_length_c 9.818245
_cell_angle_alpha 90.000000
_cell_angle_beta 150.935216
_cell_angle_gamma 90.000000
_cell_volume 856.062597
_symmetry_space_group_name_H-M "C 2"
_symmetry_group_IT_number 5
_symmetry_cell_setting 'monoclinic'
loop_
_space_group_symop_operation_xyz
x,y,z
-x,y,-z
1/2+x,1/2+y,z
1/2-x,1/2+y,-z
loop_
_atom_site_type_symbol
_atom_site_label
_atom_site_fract_x
_atom_site_fract_y
_atom_site_fract_z
Si Si1 0.912962 0.015870 0.210468
Si Si2 0.787185 0.397792 0.295590
Si Si3 0.310517 0.305688 0.194778
Si Si4 0.000000 0.209993 0.000000
Si Si5 0.215746 0.560361 0.469562
Si Si6 0.673105 0.190035 0.057442
O O1 0.143235 0.027410 0.476347
O O2 0.832613 0.929524 0.212649
O O3 0.837748 0.121874 0.186177
O O4 0.828558 0.978638 0.954345
O O5 0.809537 0.459094 0.465715
O O6 0.000000 0.386301 0.500000
O O7 0.715863 0.276231 0.229417
O O8 0.500000 0.253617 0.500000
O O9 0.347670 0.276678 0.086322
O O10 0.121075 0.273660 0.039006
O O11 0.842874 0.141602 0.719517
O O12 0.015637 0.615668 0.173791
#
# Coordination Sequence:
#
# PCOD9129820 Si02
#       6
#     4   4   4   2   4   4
#     4  11  24  44  69 105 144 186 242 309 374 437
#     4  11  23  44  75 109 149 194 249 309 372 445
#     4  11  24  42  69 101 140 185 243 299 363 443
#     4  12  22  40  74  98 134 204 242 290 380 438
#     4  12  22  44  76 103 145 193 246 306 372 448
#     4  11  24  44  70 110 141 190 247 302 368 447
#
# _framework density 25.699054
#
# number of rings (size 3 to 8) (size 9 to 14) (size 15 to 20)
#    0.000    0.727    7.273    0.000    0.000    2.182 
#    9.818    0.000    8.000    0.000    0.000    0.000 
#    0.000    0.000    0.000    0.000    0.000    0.000 
#
# Total GULP energy -61473.345341 kJ/mol
# GULP energy per Si atom -5588.485940 kJ/mol
# Density = 2.564056 g / cm^3
# Si number density = 25.699054 Si / 1000 Ang^3
#
#
#
# Elastic Constant Matrix: (Units=GPa)
#
#
# Indices 1 2 3 4 5 6 
#
# 1 119.0442 59.4937 52.7081 0.0000 29.4797 0.0000
# 2 59.4937 150.2524 41.8186 0.0000 16.1986 0.0000
# 3 52.7081 41.8186 92.9992 0.0000 36.9661 0.0000
# 4 0.0000 0.0000 0.0000 64.1737 0.0000 17.9658
# 5 29.4797 16.1986 36.9661 0.0000 55.3000 0.0000
# 6 0.0000 0.0000 0.0000 17.9658 0.0000 61.2487
#
#
#
# Elastic Compliance Matrix: (Units=1/GPa)
#
#
# Indices 1 2 3 4 5 6 
#
# 1 0.012889 -0.003518 -0.004632 0.000000 -0.002744 0.000000
# 2 -0.003518 0.008568 -0.002188 0.000000 0.000828 0.000000
# 3 -0.004632 -0.002188 0.017875 0.000000 -0.008839 0.000000
# 4 0.000000 0.000000 0.000000 0.016977 0.000000 -0.004980
# 5 -0.002744 0.000828 -0.008839 0.000000 0.025212 0.000000
# 6 0.000000 0.000000 0.000000 -0.004980 0.000000 0.017788
#
#
# Mechanical properties :
#
#
# Convention : Reuss Voigt Hill
#
# Bulk Modulus (GPa) = 53.60421 74.48184 64.04303
# Shear Modulus (GPa) = 39.61823 50.02951 44.82387
#
# Velocity S-wave (km/s) = 3.93061 4.41698 4.18087
# Velocity P-wave (km/s) = 6.44231 7.42012 6.94844
#
# Compressibility (1/GPa) = 0.01865525
#
# Stress axis : x y z
#
# Youngs Moduli (GPa) = 77.58506 116.70923 55.94312
#
# Poissons Ratio (x) = 0.41064 0.25914
# Poissons Ratio (y) = 0.27298 0.12241
# Poissons Ratio (z) = 0.35939 0.25536
#
# Static dielectric constant tensor:
#      x y z
#    x 1.752700 0.000000 0.042250 
#    y 0.000000 2.046770 0.000000 
#    z 0.042250 0.000000 2.075180 
# 
# From -- ./inp_files/42649.got.cif
#   From: 2010.05.17/outbox.cif.g08.bks.cpg/sg5_22_cif.got.tgz:42649.got - 2010.06.03 18:56:24.
