data_PCOD9129946
_publ_section_title
;
Structure prediction by ZEFSAII (Michael W. Deem and Ramdas Pophale) SiO2 
 PCOD9129946
Probable space group: C 2
;
_chemical_formula_sum "Si O2"
_cell_formula_units_Z 28
_cell_length_a 17.342013
_cell_length_b 6.227424
_cell_length_c 14.305728
_cell_angle_alpha 90.000000
_cell_angle_beta 127.946172
_cell_angle_gamma 90.000000
_cell_volume 1218.340032
_symmetry_space_group_name_H-M "C 2"
_symmetry_group_IT_number 5
_symmetry_cell_setting 'monoclinic'
loop_
_space_group_symop_operation_xyz
x,y,z
-x,y,-z
1/2+x,1/2+y,z
1/2-x,1/2+y,-z
loop_
_atom_site_type_symbol
_atom_site_label
_atom_site_fract_x
_atom_site_fract_y
_atom_site_fract_z
Si Si1 0.030326 0.623640 0.374807
Si Si2 0.395264 0.499107 0.660584
Si Si3 0.513196 0.870471 0.171240
Si Si4 0.717967 0.950313 0.014151
Si Si5 0.344578 0.009692 0.354566
Si Si6 0.731010 0.662668 0.596728
Si Si7 0.198888 0.352949 0.206511
O O1 0.030092 0.872374 0.349472
O O2 0.044074 0.498150 0.288354
O O3 0.115660 0.592120 0.514780
O O4 0.929559 0.554010 0.345368
O O5 0.458569 0.626286 0.782071
O O6 0.328687 0.639604 0.542211
O O7 0.319868 0.327144 0.647272
O O8 0.584093 0.904516 0.135117
O O9 0.399460 0.921053 0.077927
O O10 0.739467 0.951980 0.141283
O O11 0.755632 0.700987 0.005066
O O12 0.243909 0.113732 0.243520
O O13 0.333083 0.761902 0.367997
O O14 0.763077 0.442123 0.665914
#
# Coordination Sequence:
#
# PCOD9129946 Si02
#       7
#     4   4   4   4   4   4   4
#     4  11  24  42  66 109 155 196 246 305 383 458
#     4  12  23  41  73 113 155 199 247 313 387 470
#     4  12  26  48  77 108 147 201 258 318 380 470
#     4  12  33  58  83 112 152 204 262 334 401 462
#     4  11  24  42  66 109 155 196 246 305 383 458
#     4  12  23  41  73 113 155 199 247 313 387 470
#     4  12  26  48  77 108 147 201 258 318 380 470
#
# _framework density 22.982088999999998
#
# number of rings (size 3 to 8) (size 9 to 14) (size 15 to 20)
#    0.000    0.286    5.714    3.000    8.000    0.000 
#    0.000    1.429    0.000    0.000    0.000    0.000 
#    0.000    0.000    0.000    0.000    0.000    0.000 
#
# Total GULP energy -77963.461650 kJ/mol
# GULP energy per Si atom -5568.818689 kJ/mol
# Density = 2.292978 g / cm^3
# Si number density = 22.982089 Si / 1000 Ang^3
#
#
#
# Elastic Constant Matrix: (Units=GPa)
#
#
# Indices 1 2 3 4 5 6 
#
# 1 135.6503 45.1325 28.2679 0.0000 -3.2528 0.0000
# 2 45.1325 67.5139 10.6056 0.0000 -5.1444 0.0000
# 3 28.2679 10.6056 62.7187 0.0000 -9.6818 0.0000
# 4 0.0000 0.0000 0.0000 11.0956 0.0000 -0.4840
# 5 -3.2528 -5.1444 -9.6818 0.0000 38.2558 0.0000
# 6 0.0000 0.0000 0.0000 -0.4840 0.0000 34.1896
#
#
#
# Elastic Compliance Matrix: (Units=1/GPa)
#
#
# Indices 1 2 3 4 5 6 
#
# 1 0.010221 -0.006324 -0.003678 0.000000 -0.000912 0.000000
# 2 -0.006324 0.019207 -0.000085 0.000000 0.002024 0.000000
# 3 -0.003678 -0.000085 0.018280 0.000000 0.004302 0.000000
# 4 0.000000 0.000000 0.000000 0.090182 0.000000 0.001277
# 5 -0.000912 0.002024 0.004302 0.000000 0.027423 0.000000
# 6 0.000000 0.000000 0.000000 0.001277 0.000000 0.029267
#
#
# Mechanical properties :
#
#
# Convention : Reuss Voigt Hill
#
# Bulk Modulus (GPa) = 36.31932 48.21055 42.26493
# Shear Modulus (GPa) = 22.32820 28.83332 25.58076
#
# Velocity S-wave (km/s) = 3.12035 3.54588 3.33990
# Velocity P-wave (km/s) = 5.36840 6.14714 5.77092
#
# Compressibility (1/GPa) = 0.02753356
#
# Stress axis : x y z
#
# Youngs Moduli (GPa) = 97.84187 52.06452 54.70329
#
# Poissons Ratio (x) = 0.32926 0.20120
# Poissons Ratio (y) = 0.61876 0.00466
# Poissons Ratio (z) = 0.35986 0.00443
#
# Static dielectric constant tensor:
#      x y z
#    x 1.958000 0.000000 0.057460 
#    y 0.000000 1.979130 0.000000 
#    z 0.057460 0.000000 1.929170 
# 
# From -- ./inp_files/55510.got.cif
#   From: 2010.05.17/outbox.cif.g08.bks.cpg/sg5_28_cif.got.tgz:55510.got - 2010.06.03 18:56:24.
