data_PCOD9129189
_publ_section_title
;
Structure prediction by ZEFSAII (Michael W. Deem and Ramdas Pophale) SiO2 
 PCOD9129189
Probable space group: C 2
;
_chemical_formula_sum "Si O2"
_cell_formula_units_Z 28
_cell_length_a 15.857216
_cell_length_b 9.229078
_cell_length_c 11.394304
_cell_angle_alpha 90.000000
_cell_angle_beta 47.639258
_cell_angle_gamma 90.000000
_cell_volume 1232.164888
_symmetry_space_group_name_H-M "C 2"
_symmetry_group_IT_number 5
_symmetry_cell_setting 'monoclinic'
loop_
_space_group_symop_operation_xyz
x,y,z
-x,y,-z
1/2+x,1/2+y,z
1/2-x,1/2+y,-z
loop_
_atom_site_type_symbol
_atom_site_label
_atom_site_fract_x
_atom_site_fract_y
_atom_site_fract_z
Si Si1 0.382294 0.908120 0.726052
Si Si2 0.447396 0.593040 0.739805
Si Si3 0.138093 0.201693 0.952444
Si Si4 0.529139 0.132116 0.745157
Si Si5 0.823157 0.841863 0.928595
Si Si6 0.500000 0.387528 0.500000
Si Si7 0.500000 0.971066 0.000000
Si Si8 0.175698 0.641835 0.391391
O O1 0.434600 0.748686 0.691991
O O2 0.451215 0.014203 0.748785
O O3 0.374705 0.990223 0.609854
O O4 0.250747 0.888342 0.890510
O O5 0.338087 0.485765 0.836568
O O6 0.528319 0.494038 0.582731
O O7 0.451989 0.618388 0.877702
O O8 0.244838 0.224979 0.938259
O O9 0.088170 0.359877 0.975350
O O10 0.195040 0.148636 0.777753
O O11 0.446703 0.271828 0.834565
O O12 0.640183 0.156415 0.560180
O O13 0.554952 0.068784 0.848007
O O14 0.604541 0.272951 0.396593
#
# Coordination Sequence:
#
# PCOD9129189 Si02
#       8
#     4   4   4   4   4   2   2   4
#     4  11  20  34  69 103 129 164 231 287 331 400
#     4  11  21  34  62 107 129 165 220 290 336 389
#     4  11  23  42  67  94 138 180 228 276 346 409
#     4  12  23  43  67 100 136 185 225 278 355 414
#     4  11  19  39  70 102 127 171 232 280 331 405
#     4  12  22  34  66 108 138 158 224 312 338 384
#     4  12  28  46  66  96 144 194 222 284 352 426
#     4  12  21  40  68 100 135 178 226 293 346 405
#
# _framework density 22.724233000000002
#
# number of rings (size 3 to 8) (size 9 to 14) (size 15 to 20)
#    0.000    0.571   10.000    0.857    2.000    0.000 
#    0.000    3.571    0.000    0.000    0.000    0.000 
#    0.000    0.000    0.000    0.000    0.000    0.000 
#
# Total GULP energy -77980.760733 kJ/mol
# GULP energy per Si atom -5570.054338 kJ/mol
# Density = 2.267251 g / cm^3
# Si number density = 22.724233 Si / 1000 Ang^3
#
#
#
# Elastic Constant Matrix: (Units=GPa)
#
#
# Indices 1 2 3 4 5 6 
#
# 1 16.2582 6.0947 18.9059 0.0000 2.7350 0.0000
# 2 6.0947 133.7701 41.0296 0.0000 0.5630 0.0000
# 3 18.9059 41.0296 174.0043 0.0000 15.7667 0.0000
# 4 0.0000 0.0000 0.0000 55.9995 0.0000 4.6633
# 5 2.7350 0.5630 15.7667 0.0000 16.1711 0.0000
# 6 0.0000 0.0000 0.0000 4.6633 0.0000 19.5327
#
#
#
# Elastic Compliance Matrix: (Units=1/GPa)
#
#
# Indices 1 2 3 4 5 6 
#
# 1 0.070895 -0.001066 -0.006986 0.000000 -0.005142 0.000000
# 2 -0.001066 0.008118 -0.001963 0.000000 0.001811 0.000000
# 3 -0.006986 -0.001963 0.007520 0.000000 -0.006082 0.000000
# 4 0.000000 0.000000 0.000000 0.018220 0.000000 -0.004350
# 5 -0.005142 0.001811 -0.006082 0.000000 0.068575 0.000000
# 6 0.000000 0.000000 0.000000 -0.004350 0.000000 0.052235
#
#
# Mechanical properties :
#
#
# Convention : Reuss Voigt Hill
#
# Bulk Modulus (GPa) = 15.03634 50.67702 32.85668
# Shear Modulus (GPa) = 18.67346 35.54082 27.10714
#
# Velocity S-wave (km/s) = 2.86971 3.95904 3.45755
# Velocity P-wave (km/s) = 4.19662 6.57632 5.51632
#
# Compressibility (1/GPa) = 0.06650554
#
# Stress axis : x y z
#
# Youngs Moduli (GPa) = 14.10529 123.17682 132.98121
#
# Poissons Ratio (x) = 0.13128 0.92896
# Poissons Ratio (y) = 0.01503 0.26099
# Poissons Ratio (z) = 0.09853 0.24175
#
# Static dielectric constant tensor:
#      x y z
#    x 1.811690 0.000000 -0.005600 
#    y 0.000000 1.859730 0.000000 
#    z -0.005600 0.000000 2.031080 
# 
# From -- ./inp_files/46012.got.cif
#   From: 2010.05.17/outbox.cif.g08.bks.cpg/sg5_24_cif.got.tgz:46012.got - 2010.06.03 18:56:24.
