data_PCOD9129992
_publ_section_title
;
Structure prediction by ZEFSAII (Michael W. Deem and Ramdas Pophale) SiO2 
 PCOD9129992
Probable space group: C 2
;
_chemical_formula_sum "Si O2"
_cell_formula_units_Z 20
_cell_length_a 13.544920
_cell_length_b 11.386010
_cell_length_c 5.232545
_cell_angle_alpha 90.000000
_cell_angle_beta 85.862489
_cell_angle_gamma 90.000000
_cell_volume 804.873492
_symmetry_space_group_name_H-M "C 2"
_symmetry_group_IT_number 5
_symmetry_cell_setting 'monoclinic'
loop_
_space_group_symop_operation_xyz
x,y,z
-x,y,-z
1/2+x,1/2+y,z
1/2-x,1/2+y,-z
loop_
_atom_site_type_symbol
_atom_site_label
_atom_site_fract_x
_atom_site_fract_y
_atom_site_fract_z
Si Si1 0.000000 0.095910 0.000000
Si Si2 0.389329 0.088663 0.170030
Si Si3 0.324138 0.497029 0.783527
Si Si4 0.840918 0.735141 0.691509
Si Si5 0.126240 0.216500 0.583920
Si Si6 0.000000 0.422350 0.500000
O O1 0.902945 0.016252 0.993204
O O2 0.030805 0.180760 0.764966
O O3 0.291566 0.008961 0.131575
O O4 0.369239 0.167309 0.428090
O O5 0.475261 0.002535 0.260105
O O6 0.393003 0.177555 0.928405
O O7 0.355415 0.373810 0.657000
O O8 0.346088 0.609286 0.603395
O O9 0.721927 0.726772 0.747455
O O10 0.097619 0.340140 0.459203
#
# Coordination Sequence:
#
# PCOD9129992 Si02
#       6
#     2   4   4   4   4   2
#     4  12  22  40  74 104 140 184 260 294 374 432
#     4  11  27  45  73 108 148 196 243 307 384 430
#     4  11  24  44  71 106 144 194 248 312 364 441
#     4  11  26  49  72 105 151 195 245 310 374 440
#     4  11  24  45  73 111 141 197 253 307 370 440
#     4  12  24  50  72 112 148 198 250 312 360 470
#
# _framework density 24.848627
#
# number of rings (size 3 to 8) (size 9 to 14) (size 15 to 20)
#    0.000    0.800    6.000    0.000    2.800    4.000 
#    0.000    0.000    0.000    0.000    0.000    0.000 
#    0.000    0.000    0.000    0.000    0.000    0.000 
#
# Total GULP energy -55878.807688 kJ/mol
# GULP energy per Si atom -5587.880769 kJ/mol
# Density = 2.479207 g / cm^3
# Si number density = 24.848627 Si / 1000 Ang^3
#
#
#
# Elastic Constant Matrix: (Units=GPa)
#
#
# Indices 1 2 3 4 5 6 
#
# 1 102.4492 35.2825 33.2709 0.0000 35.3611 0.0000
# 2 35.2825 147.6712 41.2703 0.0000 23.0090 0.0000
# 3 33.2709 41.2703 107.9996 0.0000 22.7677 0.0000
# 4 0.0000 0.0000 0.0000 24.6843 0.0000 9.9556
# 5 35.3611 23.0090 22.7677 0.0000 45.9715 0.0000
# 6 0.0000 0.0000 0.0000 9.9556 0.0000 40.9225
#
#
#
# Elastic Compliance Matrix: (Units=1/GPa)
#
#
# Indices 1 2 3 4 5 6 
#
# 1 0.014004 -0.001403 -0.001848 0.000000 -0.009154 0.000000
# 2 -0.001403 0.008019 -0.002248 0.000000 -0.001821 0.000000
# 3 -0.001848 -0.002248 0.011334 0.000000 -0.003067 0.000000
# 4 0.000000 0.000000 0.000000 0.044919 0.000000 -0.010928
# 5 -0.009154 -0.001821 -0.003067 0.000000 0.031224 0.000000
# 6 0.000000 0.000000 0.000000 -0.010928 0.000000 0.027095
#
#
# Mechanical properties :
#
#
# Convention : Reuss Voigt Hill
#
# Bulk Modulus (GPa) = 44.72593 64.19634 54.46114
# Shear Modulus (GPa) = 32.24831 38.86876 35.55853
#
# Velocity S-wave (km/s) = 3.60639 3.95932 3.78697
# Velocity P-wave (km/s) = 5.94810 6.84051 6.40986
#
# Compressibility (1/GPa) = 0.02235839
#
# Stress axis : x y z
#
# Youngs Moduli (GPa) = 71.40820 124.70259 88.22823
#
# Poissons Ratio (x) = 0.17497 0.16306
# Poissons Ratio (y) = 0.10019 0.19836
# Poissons Ratio (z) = 0.13197 0.28036
#
# Static dielectric constant tensor:
#      x y z
#    x 2.087770 0.000000 0.051670 
#    y 0.000000 2.026840 0.000000 
#    z 0.051670 0.000000 2.026030 
# 
# From -- ./inp_files/6657.got.cif
#   From: 2010.05.17/outbox.cif.g08.bks.cpg/sg5_4_cif.got.tgz:6657.got - 2010.06.03 18:56:24.
