data_PCOD9129047
_publ_section_title
;
Structure prediction by ZEFSAII (Michael W. Deem and Ramdas Pophale) SiO2 
 PCOD9129047
Probable space group: C 2
;
_chemical_formula_sum "Si O2"
_cell_formula_units_Z 22
_cell_length_a 35.243267
_cell_length_b 5.027242
_cell_length_c 5.024928
_cell_angle_alpha 90.000000
_cell_angle_beta 97.319649
_cell_angle_gamma 90.000000
_cell_volume 883.043599
_symmetry_space_group_name_H-M "C 2"
_symmetry_group_IT_number 5
_symmetry_cell_setting 'monoclinic'
loop_
_space_group_symop_operation_xyz
x,y,z
-x,y,-z
1/2+x,1/2+y,z
1/2-x,1/2+y,-z
loop_
_atom_site_type_symbol
_atom_site_label
_atom_site_fract_x
_atom_site_fract_y
_atom_site_fract_z
Si Si1 0.561365 0.170670 0.255448
Si Si2 0.374372 0.540198 0.554458
Si Si3 0.000000 0.954343 0.500000
Si Si4 0.725777 0.970905 0.917836
Si Si5 0.571438 0.798456 0.761290
Si Si6 0.176037 0.538385 0.370485
O O1 0.589211 0.423863 0.251266
O O2 0.519492 0.275706 0.290776
O O3 0.574014 0.023251 0.535312
O O4 0.565809 0.963450 0.023568
O O5 0.391648 0.618809 0.280940
O O6 0.343654 0.305223 0.539523
O O7 0.354423 0.800620 0.652522
O O8 0.966491 0.128338 0.338881
O O9 0.692923 0.065857 0.091682
O O10 0.759888 0.181849 0.979885
O O11 0.709783 0.965789 0.605861
#
# Coordination Sequence:
#
# PCOD9129047 Si02
#       6
#     4   4   2   4   4   4
#     4  11  26  47  75 106 154 195 263 319 390 457
#     4  11  26  48  74 118 148 203 252 319 378 460
#     4  10  26  46  76 110 148 212 260 336 392 466
#     4  12  26  48  74 112 152 197 248 305 370 454
#     4  11  26  47  75 106 154 195 263 319 390 457
#     4  12  26  45  80 108 154 197 250 307 382 446
#
# _framework density 24.913830999999998
#
# number of rings (size 3 to 8) (size 9 to 14) (size 15 to 20)
#    0.000    0.727    1.818    3.818    2.545   13.091 
#    0.000    0.000    4.000    0.000    0.000    0.000 
#    0.000    0.000    0.000    0.000    0.000    0.000 
#
# Total GULP energy -61704.805486 kJ/mol
# GULP energy per Si atom -5609.527771 kJ/mol
# Density = 2.485713 g / cm^3
# Si number density = 24.913831 Si / 1000 Ang^3
#
#
#
# Elastic Constant Matrix: (Units=GPa)
#
#
# Indices 1 2 3 4 5 6 
#
# 1 62.6746 21.2394 -0.5928 0.0000 -19.7523 0.0000
# 2 21.2394 130.4191 26.6626 0.0000 -17.7260 0.0000
# 3 -0.5928 26.6626 104.0151 0.0000 -18.2922 0.0000
# 4 0.0000 0.0000 0.0000 38.8429 0.0000 -12.6496
# 5 -19.7523 -17.7260 -18.2922 0.0000 31.3170 0.0000
# 6 0.0000 0.0000 0.0000 -12.6496 0.0000 65.2774
#
#
#
# Elastic Compliance Matrix: (Units=1/GPa)
#
#
# Indices 1 2 3 4 5 6 
#
# 1 0.021107 -0.002187 0.003125 0.000000 0.013900 0.000000
# 2 -0.002187 0.008735 -0.001811 0.000000 0.002507 0.000000
# 3 0.003125 -0.001811 0.011437 0.000000 0.007627 0.000000
# 4 0.000000 0.000000 0.000000 0.027479 0.000000 0.005325
# 5 0.013900 0.002507 0.007627 0.000000 0.046573 0.000000
# 6 0.000000 0.000000 0.000000 0.005325 0.000000 0.016351
#
#
# Mechanical properties :
#
#
# Convention : Reuss Voigt Hill
#
# Bulk Modulus (GPa) = 25.29451 43.52524 34.40987
# Shear Modulus (GPa) = 34.10555 43.74076 38.92315
#
# Velocity S-wave (km/s) = 3.70393 4.19463 3.95690
# Velocity P-wave (km/s) = 5.33545 6.40064 5.89216
#
# Compressibility (1/GPa) = 0.03953427
#
# Stress axis : x y z
#
# Youngs Moduli (GPa) = 47.37796 114.48651 87.43403
#
# Poissons Ratio (x) = 0.25039 -0.27327
# Poissons Ratio (y) = 0.10362 0.15831
# Poissons Ratio (z) = -0.14808 0.20729
#
# Static dielectric constant tensor:
#      x y z
#    x 1.989530 0.000000 0.038230 
#    y 0.000000 1.971190 0.000000 
#    z 0.038230 0.000000 1.955960 
# 
# From -- ./inp_files/11020.got.cif
#   From: 2010.05.17/outbox.cif.g08.bks.cpg/sg5_6_cif.got.tgz:11020.got - 2010.06.03 18:56:24.
