data_PCOD9129242
_publ_section_title
;
Structure prediction by ZEFSAII (Michael W. Deem and Ramdas Pophale) SiO2 
 PCOD9129242
Probable space group: C 2
;
_chemical_formula_sum "Si O2"
_cell_formula_units_Z 26
_cell_length_a 7.839862
_cell_length_b 20.369955
_cell_length_c 8.689366
_cell_angle_alpha 90.000000
_cell_angle_beta 53.291592
_cell_angle_gamma 90.000000
_cell_volume 1112.479268
_symmetry_space_group_name_H-M "C 2"
_symmetry_group_IT_number 5
_symmetry_cell_setting 'monoclinic'
loop_
_space_group_symop_operation_xyz
x,y,z
-x,y,-z
1/2+x,1/2+y,z
1/2-x,1/2+y,-z
loop_
_atom_site_type_symbol
_atom_site_label
_atom_site_fract_x
_atom_site_fract_y
_atom_site_fract_z
Si Si1 0.908915 0.091270 0.902323
Si Si2 0.319094 0.516199 0.466237
Si Si3 0.288753 0.753530 0.675652
Si Si4 0.841358 0.339402 0.946220
Si Si5 0.920111 0.870474 0.366378
Si Si6 0.500000 0.166785 0.000000
Si Si7 0.920192 0.485245 0.865897
O O1 0.710542 0.126571 0.929885
O O2 0.104239 0.072570 0.688208
O O3 0.801421 0.022869 0.016837
O O4 0.000000 0.128673 0.000000
O O5 0.500000 0.515257 0.500000
O O6 0.332247 0.443519 0.385699
O O7 0.090517 0.522026 0.667859
O O8 0.500000 0.718113 0.500000
O O9 0.323872 0.784614 0.825838
O O10 0.244809 0.813248 0.583024
O O11 0.081186 0.709195 0.811105
O O12 0.914472 0.408320 0.830618
O O13 0.616755 0.356743 0.146484
O O14 0.000000 0.322530 0.000000
O O15 0.000000 0.867117 0.500000
O O16 0.000000 0.486674 0.000000
#
# Coordination Sequence:
#
# PCOD9129242 Si02
#       7
#     4   4   4   4   4   2   4
#     4  12  27  46  72 102 138 189 245 289 349 419
#     4  11  20  39  71 104 146 181 217 286 365 427
#     4  12  26  47  72  99 137 189 233 296 356 421
#     4  11  21  39  69 107 146 180 225 287 361 431
#     4  11  21  40  67 110 141 176 226 284 360 435
#     4  12  28  54  70  96 142 190 254 298 344 398
#     4  11  20  40  68 104 147 181 219 289 357 426
#
# _framework density 23.371221999999999
#
# number of rings (size 3 to 8) (size 9 to 14) (size 15 to 20)
#    0.000    0.615    5.385    4.615    2.154    3.077 
#    2.769    0.000    0.000    0.000    0.000    0.000 
#    0.000    0.000    0.000    0.000    0.000    0.000 
#
# Total GULP energy -72782.423355 kJ/mol
# GULP energy per Si atom -5598.647950 kJ/mol
# Density = 2.331803 g / cm^3
# Si number density = 23.371222 Si / 1000 Ang^3
#
#
#
# Elastic Constant Matrix: (Units=GPa)
#
#
# Indices 1 2 3 4 5 6 
#
# 1 56.8071 6.1340 9.7634 0.0000 6.3942 0.0000
# 2 6.1340 49.2255 18.1344 0.0000 7.1849 0.0000
# 3 9.7634 18.1344 154.2177 0.0000 -26.5218 0.0000
# 4 0.0000 0.0000 0.0000 26.6874 0.0000 -24.3173
# 5 6.3942 7.1849 -26.5218 0.0000 39.1560 0.0000
# 6 0.0000 0.0000 0.0000 -24.3173 0.0000 46.0530
#
#
#
# Elastic Compliance Matrix: (Units=1/GPa)
#
#
# Indices 1 2 3 4 5 6 
#
# 1 0.018466 -0.001083 -0.001727 0.000000 -0.003987 0.000000
# 2 -0.001083 0.022778 -0.003733 0.000000 -0.006532 0.000000
# 3 -0.001727 -0.003733 0.008148 0.000000 0.006486 0.000000
# 4 0.000000 0.000000 0.000000 0.072217 0.000000 0.038133
# 5 -0.003987 -0.006532 0.006486 0.000000 0.031782 0.000000
# 6 0.000000 0.000000 0.000000 0.038133 0.000000 0.041849
#
#
# Mechanical properties :
#
#
# Convention : Reuss Voigt Hill
#
# Bulk Modulus (GPa) = 27.54394 36.47934 32.01164
# Shear Modulus (GPa) = 22.68299 37.46049 30.07174
#
# Velocity S-wave (km/s) = 3.11875 4.00790 3.59095
# Velocity P-wave (km/s) = 4.97793 6.08771 5.56058
#
# Compressibility (1/GPa) = 0.03630562
#
# Stress axis : x y z
#
# Youngs Moduli (GPa) = 54.15360 43.90154 122.72714
#
# Poissons Ratio (x) = 0.04754 0.21200
# Poissons Ratio (y) = 0.05864 0.45817
# Poissons Ratio (z) = 0.09354 0.16389
#
# Static dielectric constant tensor:
#      x y z
#    x 1.890720 0.000000 0.006420 
#    y 0.000000 1.923670 0.000000 
#    z 0.006420 0.000000 1.897200 
# 
# From -- ./inp_files/17012.got.cif
#   From: 2010.05.17/outbox.cif.g08.bks.cpg/sg5_9_cif.got.tgz:17012.got - 2010.06.03 18:56:24.
