data_PCOD9129584
_publ_section_title
;
Structure prediction by ZEFSAII (Michael W. Deem and Ramdas Pophale) SiO2 
 PCOD9129584
Probable space group: C 2
;
_chemical_formula_sum "Si O2"
_cell_formula_units_Z 32
_cell_length_a 25.945977
_cell_length_b 9.794399
_cell_length_c 10.599644
_cell_angle_alpha 90.000000
_cell_angle_beta 34.360923
_cell_angle_gamma 90.000000
_cell_volume 1520.299947
_symmetry_space_group_name_H-M "C 2"
_symmetry_group_IT_number 5
_symmetry_cell_setting 'monoclinic'
loop_
_space_group_symop_operation_xyz
x,y,z
-x,y,-z
1/2+x,1/2+y,z
1/2-x,1/2+y,-z
loop_
_atom_site_type_symbol
_atom_site_label
_atom_site_fract_x
_atom_site_fract_y
_atom_site_fract_z
Si Si1 0.548517 0.567430 0.037206
Si Si2 0.707814 0.088748 0.655810
Si Si3 0.634323 0.625501 0.458475
Si Si4 0.932515 0.697222 0.519638
Si Si5 0.954334 0.765386 0.953490
Si Si6 0.906887 0.386284 0.613407
Si Si7 0.793463 0.286254 0.295752
Si Si8 0.232855 0.884233 0.143770
O O1 0.466656 0.575891 0.302061
O O2 0.591167 0.416150 0.960970
O O3 0.500000 0.574647 0.000000
O O4 0.617978 0.692394 0.903728
O O5 0.799348 0.112385 0.554133
O O6 0.721184 0.186745 0.508830
O O7 0.694380 0.928800 0.653230
O O8 0.621187 0.147519 0.906385
O O9 0.621548 0.776837 0.433257
O O10 0.679769 0.527569 0.262475
O O11 0.921762 0.535448 0.525890
O O12 0.838957 0.769063 0.749630
O O13 0.000000 0.720358 0.500000
O O14 0.973059 0.754460 0.306607
O O15 0.000000 0.753409 0.000000
O O16 0.000000 0.347199 0.500000
O O17 0.822692 0.394690 0.879851
O O18 0.760878 0.340344 0.227561
#
# Coordination Sequence:
#
# PCOD9129584 Si02
#       8
#     4   4   4   4   4   4   4   4
#     4  11  22  44  66  97 139 177 222 280 341 410
#     4  11  25  40  70  98 137 175 224 280 345 404
#     4  11  24  43  68  97 132 177 226 276 347 403
#     4  11  26  45  70 101 139 179 232 286 348 404
#     4  11  25  44  71  97 139 181 228 280 343 408
#     4  11  26  44  70  96 136 177 229 286 343 405
#     4  11  24  42  69 100 139 176 228 279 345 407
#     4  11  24  47  67  96 137 182 225 284 343 410
#
# _framework density 21.048477999999999
#
# number of rings (size 3 to 8) (size 9 to 14) (size 15 to 20)
#    0.000    1.000    2.500    3.000   14.000    4.000 
#    2.250    0.000    0.000    0.000    0.000    0.000 
#    0.000    0.000    0.000    0.000    0.000    0.000 
#
# Total GULP energy -89445.084534 kJ/mol
# GULP energy per Si atom -5590.317783 kJ/mol
# Density = 2.100057 g / cm^3
# Si number density = 21.048478 Si / 1000 Ang^3
#
#
#
# Elastic Constant Matrix: (Units=GPa)
#
#
# Indices 1 2 3 4 5 6 
#
# 1 34.3965 41.9914 14.4939 0.0000 2.9144 0.0000
# 2 41.9914 124.0013 34.7350 0.0000 -3.3693 0.0000
# 3 14.4939 34.7350 124.8004 0.0000 -5.6197 0.0000
# 4 0.0000 0.0000 0.0000 45.2179 0.0000 0.7006
# 5 2.9144 -3.3693 -5.6197 0.0000 28.5744 0.0000
# 6 0.0000 0.0000 0.0000 0.7006 0.0000 30.5903
#
#
#
# Elastic Compliance Matrix: (Units=1/GPa)
#
#
# Indices 1 2 3 4 5 6 
#
# 1 0.051286 -0.017146 -0.001524 0.000000 -0.007552 0.000000
# 2 -0.017146 0.014487 -0.001902 0.000000 0.003083 0.000000
# 3 -0.001524 -0.001902 0.008794 0.000000 0.001661 0.000000
# 4 0.000000 0.000000 0.000000 0.022123 0.000000 -0.000507
# 5 -0.007552 0.003083 0.001661 0.000000 0.036457 0.000000
# 6 0.000000 0.000000 0.000000 -0.000507 0.000000 0.032702
#
#
# Mechanical properties :
#
#
# Convention : Reuss Voigt Hill
#
# Bulk Modulus (GPa) = 29.91902 51.73763 40.82832
# Shear Modulus (GPa) = 22.92166 33.67507 28.29836
#
# Velocity S-wave (km/s) = 3.30357 4.00419 3.67064
# Velocity P-wave (km/s) = 5.36625 6.78319 6.11589
#
# Compressibility (1/GPa) = 0.03342356
#
# Stress axis : x y z
#
# Youngs Moduli (GPa) = 19.49833 69.02659 113.71409
#
# Poissons Ratio (x) = 1.18351 0.17333
# Poissons Ratio (y) = 0.33431 0.21629
# Poissons Ratio (z) = 0.02972 0.13129
#
# Static dielectric constant tensor:
#      x y z
#    x 1.745950 0.000000 -0.007890 
#    y 0.000000 1.767630 0.000000 
#    z -0.007890 0.000000 1.737530 
# 
# From -- ./inp_files/48397.got.cif
#   From: 2010.05.17/outbox.cif.g08.bks.cpg/sg5_25_cif.got.tgz:48397.got - 2010.06.03 18:56:24.
