data_PCOD9129674
_publ_section_title
;
Structure prediction by ZEFSAII (Michael W. Deem and Ramdas Pophale) SiO2 
 PCOD9129674
Probable space group: C 2
;
_chemical_formula_sum "Si O2"
_cell_formula_units_Z 32
_cell_length_a 16.229870
_cell_length_b 9.325371
_cell_length_c 11.238276
_cell_angle_alpha 90.000000
_cell_angle_beta 66.750258
_cell_angle_gamma 90.000000
_cell_volume 1562.782450
_symmetry_space_group_name_H-M "C 2"
_symmetry_group_IT_number 5
_symmetry_cell_setting 'monoclinic'
loop_
_space_group_symop_operation_xyz
x,y,z
-x,y,-z
1/2+x,1/2+y,z
1/2-x,1/2+y,-z
loop_
_atom_site_type_symbol
_atom_site_label
_atom_site_fract_x
_atom_site_fract_y
_atom_site_fract_z
Si Si1 0.134886 0.821460 0.802218
Si Si2 0.411352 0.609904 0.779335
Si Si3 0.613965 0.580639 0.642079
Si Si4 0.117607 0.342290 0.007759
Si Si5 0.827946 0.830296 0.938085
Si Si6 0.770887 0.095571 0.650815
Si Si7 0.529083 0.114698 0.156268
Si Si8 0.387281 0.880520 0.249914
O O1 0.206111 0.733351 0.682127
O O2 0.040042 0.736605 0.849099
O O3 0.129306 0.978874 0.747803
O O4 0.164065 0.815855 0.923352
O O5 0.508500 0.566717 0.675376
O O6 0.419080 0.745348 0.863315
O O7 0.370060 0.481898 0.879941
O O8 0.343724 0.631848 0.709487
O O9 0.678579 0.545519 0.496253
O O10 0.628972 0.749190 0.654966
O O11 0.084132 0.506697 0.039442
O O12 0.224556 0.326269 0.960645
O O13 0.088601 0.307638 0.890470
O O14 0.888814 0.708469 0.838747
O O15 0.702797 0.969222 0.724880
O O16 0.460797 0.997435 0.252603
#
# Coordination Sequence:
#
# PCOD9129674 Si02
#       8
#     4   4   4   4   4   4   4   4
#     4  11  23  42  67  93 125 164 213 263 314 371
#     4  12  24  41  64  96 130 165 205 262 326 370
#     4  12  25  42  66  93 128 166 222 260 289 386
#     4  12  22  39  65  96 130 157 204 263 326 377
#     4  12  22  39  65  96 130 157 204 263 326 377
#     4  11  24  46  63  89 129 180 206 247 324 374
#     4  11  23  39  64  92 126 165 199 258 327 374
#     4  11  23  42  67  93 125 164 213 263 314 371
#
# _framework density 20.476298
#
# number of rings (size 3 to 8) (size 9 to 14) (size 15 to 20)
#    0.000    0.500    5.000    5.625    0.000    1.000 
#    0.000    0.000    0.000    1.500    0.000    0.000 
#    0.000    0.000    0.000    0.000    0.000    0.000 
#
# Total GULP energy -89262.277008 kJ/mol
# GULP energy per Si atom -5578.892313 kJ/mol
# Density = 2.042969 g / cm^3
# Si number density = 20.476298 Si / 1000 Ang^3
#
#
#
# Elastic Constant Matrix: (Units=GPa)
#
#
# Indices 1 2 3 4 5 6 
#
# 1 105.6456 20.0549 15.5881 0.0000 -18.6981 0.0000
# 2 20.0549 86.3408 13.8923 0.0000 3.2435 0.0000
# 3 15.5881 13.8923 66.5444 0.0000 -15.4982 0.0000
# 4 0.0000 0.0000 0.0000 21.6297 0.0000 -2.6729
# 5 -18.6981 3.2435 -15.4982 0.0000 25.6340 0.0000
# 6 0.0000 0.0000 0.0000 -2.6729 0.0000 25.1987
#
#
#
# Elastic Compliance Matrix: (Units=1/GPa)
#
#
# Indices 1 2 3 4 5 6 
#
# 1 0.011607 -0.003023 -0.000031 0.000000 0.008830 0.000000
# 2 -0.003023 0.013052 -0.003393 0.000000 -0.005907 0.000000
# 3 -0.000031 -0.003393 0.018433 0.000000 0.011551 0.000000
# 4 0.000000 0.000000 0.000000 0.046847 0.000000 0.004969
# 5 0.008830 -0.005907 0.011551 0.000000 0.053182 0.000000
# 6 0.000000 0.000000 0.000000 0.004969 0.000000 0.040212
#
#
# Mechanical properties :
#
#
# Convention : Reuss Voigt Hill
#
# Bulk Modulus (GPa) = 33.11385 39.73349 36.42367
# Shear Modulus (GPa) = 24.23742 28.42552 26.33147
#
# Velocity S-wave (km/s) = 3.44420 3.72992 3.58990
# Velocity P-wave (km/s) = 5.65894 6.16413 5.91693
#
# Compressibility (1/GPa) = 0.03019884
#
# Stress axis : x y z
#
# Youngs Moduli (GPa) = 86.15632 76.61734 54.24925
#
# Poissons Ratio (x) = 0.23159 0.00171
# Poissons Ratio (y) = 0.26042 0.18404
# Poissons Ratio (z) = 0.00271 0.25993
#
# Static dielectric constant tensor:
#      x y z
#    x 1.750620 0.000000 -0.025840 
#    y 0.000000 1.734190 0.000000 
#    z -0.025840 0.000000 1.723310 
# 
# From -- ./inp_files/41930.got.cif
#   From: 2010.05.17/outbox.cif.g08.bks.cpg/sg5_21_cif.got.tgz:41930.got - 2010.06.03 18:56:24.
