data_PCOD9129354
_publ_section_title
;
Structure prediction by ZEFSAII (Michael W. Deem and Ramdas Pophale) SiO2 
 PCOD9129354
Probable space group: C 2
;
_chemical_formula_sum "Si O2"
_cell_formula_units_Z 28
_cell_length_a 9.527968
_cell_length_b 10.765008
_cell_length_c 15.263965
_cell_angle_alpha 90.000000
_cell_angle_beta 122.984264
_cell_angle_gamma 90.000000
_cell_volume 1313.260393
_symmetry_space_group_name_H-M "C 2"
_symmetry_group_IT_number 5
_symmetry_cell_setting 'monoclinic'
loop_
_space_group_symop_operation_xyz
x,y,z
-x,y,-z
1/2+x,1/2+y,z
1/2-x,1/2+y,-z
loop_
_atom_site_type_symbol
_atom_site_label
_atom_site_fract_x
_atom_site_fract_y
_atom_site_fract_z
Si Si1 0.732574 0.223940 0.348958
Si Si2 0.513553 0.003622 0.222055
Si Si3 0.343510 0.582128 0.888956
Si Si4 0.466351 0.901917 0.582006
Si Si5 0.359558 0.532192 0.524759
Si Si6 0.844867 0.376567 0.885237
Si Si7 0.974716 0.974647 0.751256
O O1 0.643241 0.117864 0.260849
O O2 0.914007 0.281085 0.384202
O O3 0.761554 0.151736 0.451242
O O4 0.609073 0.340418 0.297074
O O5 0.326584 0.029384 0.128177
O O6 0.484888 0.970625 0.313426
O O7 0.595382 0.895733 0.194137
O O8 0.321387 0.730144 0.888755
O O9 0.385963 0.538688 0.804319
O O10 0.500000 0.542063 0.000000
O O11 0.500000 0.968118 0.500000
O O12 0.266114 0.914142 0.518124
O O13 0.500000 0.508170 0.500000
O O14 0.436448 0.546755 0.647424
O O15 0.670756 0.450328 0.837069
O O16 0.000000 0.417492 0.000000
#
# Coordination Sequence:
#
# PCOD9129354 Si02
#       7
#     4   4   4   4   4   4   4
#     4  11  23  41  71  96 142 178 230 277 334 416
#     4  11  23  44  67  97 136 183 222 283 349 397
#     4  11  24  45  73 101 134 180 236 289 346 409
#     4  11  21  41  67  95 134 178 222 271 331 408
#     4  11  25  42  66 104 138 181 228 273 337 416
#     4  11  26  46  69 102 138 176 236 291 338 409
#     4  12  23  48  70 100 143 186 222 290 349 395
#
# _framework density 21.320979999999999
#
# number of rings (size 3 to 8) (size 9 to 14) (size 15 to 20)
#    0.000    0.857    4.286    3.000    0.000    3.429 
#    2.571    1.429    0.000    0.000    0.000    0.000 
#    0.000    0.000    0.000    0.000    0.000    0.000 
#
# Total GULP energy -78041.822916 kJ/mol
# GULP energy per Si atom -5574.415923 kJ/mol
# Density = 2.127245 g / cm^3
# Si number density = 21.320980 Si / 1000 Ang^3
#
#
#
# Elastic Constant Matrix: (Units=GPa)
#
#
# Indices 1 2 3 4 5 6 
#
# 1 95.1256 3.8549 28.6191 0.0000 8.0386 0.0000
# 2 3.8549 38.1020 4.2604 0.0000 3.7561 0.0000
# 3 28.6191 4.2604 88.3497 0.0000 17.6655 0.0000
# 4 0.0000 0.0000 0.0000 25.9040 0.0000 9.5091
# 5 8.0386 3.7561 17.6655 0.0000 43.9352 0.0000
# 6 0.0000 0.0000 0.0000 9.5091 0.0000 34.1372
#
#
#
# Elastic Compliance Matrix: (Units=1/GPa)
#
#
# Indices 1 2 3 4 5 6 
#
# 1 0.011685 -0.000716 -0.003627 0.000000 -0.000618 0.000000
# 2 -0.000716 0.026578 -0.000676 0.000000 -0.001869 0.000000
# 3 -0.003627 -0.000676 0.013464 0.000000 -0.004692 0.000000
# 4 0.000000 0.000000 0.000000 0.043001 0.000000 -0.011978
# 5 -0.000618 -0.001869 -0.004692 0.000000 0.024920 0.000000
# 6 0.000000 0.000000 0.000000 -0.011978 0.000000 0.032630
#
#
# Mechanical properties :
#
#
# Convention : Reuss Voigt Hill
#
# Bulk Modulus (GPa) = 23.98680 32.78291 28.38486
# Shear Modulus (GPa) = 28.37487 33.11815 30.74651
#
# Velocity S-wave (km/s) = 3.65203 3.94548 3.80159
# Velocity P-wave (km/s) = 5.39053 6.01374 5.71064
#
# Compressibility (1/GPa) = 0.04168959
#
# Stress axis : x y z
#
# Youngs Moduli (GPa) = 85.58081 37.62567 74.27018
#
# Poissons Ratio (x) = 0.02693 0.26937
# Poissons Ratio (y) = 0.06125 0.05021
# Poissons Ratio (z) = 0.31039 0.02544
#
# Static dielectric constant tensor:
#      x y z
#    x 1.773320 0.000000 0.026340 
#    y 0.000000 1.782120 0.000000 
#    z 0.026340 0.000000 1.841330 
# 
# From -- ./inp_files/50545.got.cif
#   From: 2010.05.17/outbox.cif.g08.bks.cpg/sg5_26_cif.got.tgz:50545.got - 2010.06.03 18:56:24.
