data_PCOD9129027
_publ_section_title
;
Structure prediction by ZEFSAII (Michael W. Deem and Ramdas Pophale) SiO2 
 PCOD9129027
Probable space group: C 2
;
_chemical_formula_sum "Si O2"
_cell_formula_units_Z 28
_cell_length_a 7.538969
_cell_length_b 14.657593
_cell_length_c 18.588209
_cell_angle_alpha 90.000000
_cell_angle_beta 145.465318
_cell_angle_gamma 90.000000
_cell_volume 1164.454281
_symmetry_space_group_name_H-M "C 2"
_symmetry_group_IT_number 5
_symmetry_cell_setting 'monoclinic'
loop_
_space_group_symop_operation_xyz
x,y,z
-x,y,-z
1/2+x,1/2+y,z
1/2-x,1/2+y,-z
loop_
_atom_site_type_symbol
_atom_site_label
_atom_site_fract_x
_atom_site_fract_y
_atom_site_fract_z
Si Si1 0.630878 0.213990 0.219493
Si Si2 0.218417 0.013023 0.002753
Si Si3 0.268545 0.057847 0.536136
Si Si4 0.560227 0.557610 0.728247
Si Si5 0.271896 0.657552 0.784913
Si Si6 0.374957 0.894228 0.376902
Si Si7 0.235549 0.304277 0.972984
O O1 0.884359 0.167816 0.250930
O O2 0.477918 0.155099 0.233045
O O3 0.779292 0.302203 0.306448
O O4 0.339385 0.241595 0.073320
O O5 0.569943 0.037098 0.141594
O O6 0.249522 0.907002 0.992348
O O7 0.000000 0.016177 0.000000
O O8 0.051936 0.083564 0.891809
O O9 0.570263 0.122164 0.649673
O O10 0.000000 0.087067 0.500000
O O11 0.128496 0.057429 0.410222
O O12 0.373443 0.953415 0.584034
O O13 0.404580 0.468411 0.712127
O O14 0.419168 0.758784 0.836479
O O15 0.500000 0.876696 0.500000
O O16 0.500000 0.298979 0.000000
#
# Coordination Sequence:
#
# PCOD9129027 Si02
#       7
#     4   4   4   4   4   4   4
#     4  12  23  44  71 102 142 188 240 294 365 433
#     4  11  20  42  66  94 136 179 225 292 348 423
#     4  11  23  44  69 100 136 191 233 293 367 428
#     4  11  23  43  71 101 142 185 237 294 357 431
#     4  12  23  41  71  98 139 186 236 287 365 435
#     4  10  26  45  70 107 147 182 246 303 362 436
#     4  11  26  41  67 107 140 180 245 298 361 433
#
# _framework density 24.045598999999999
#
# number of rings (size 3 to 8) (size 9 to 14) (size 15 to 20)
#    0.000    0.857    4.286    2.143    4.000    1.143 
#    0.000    3.571    0.000    0.000    0.000    0.000 
#    0.000    0.000    0.000    0.000    0.000    0.000 
#
# Total GULP energy -78119.589089 kJ/mol
# GULP energy per Si atom -5579.970649 kJ/mol
# Density = 2.399087 g / cm^3
# Si number density = 24.045599 Si / 1000 Ang^3
#
#
#
# Elastic Constant Matrix: (Units=GPa)
#
#
# Indices 1 2 3 4 5 6 
#
# 1 34.5235 16.7004 14.7320 0.0010 13.4724 0.0003
# 2 16.7004 126.4759 44.7033 0.0024 11.9254 0.0022
# 3 14.7320 44.7033 138.3467 0.0095 14.1240 0.0047
# 4 0.0010 0.0024 0.0095 53.6800 0.0024 -6.8233
# 5 13.4724 11.9254 14.1240 0.0024 27.4531 0.0007
# 6 0.0003 0.0022 0.0047 -6.8233 0.0007 26.6626
#
#
#
# Elastic Compliance Matrix: (Units=1/GPa)
#
#
# Indices 1 2 3 4 5 6 
#
# 1 0.037338 -0.002905 -0.001367 0.000000 -0.016358 0.000001
# 2 -0.002905 0.009321 -0.002570 0.000000 -0.001302 0.000000
# 3 -0.001367 -0.002570 0.008466 -0.000001 -0.002568 -0.000002
# 4 0.000000 0.000000 -0.000001 0.019255 -0.000001 0.004928
# 5 -0.016358 -0.001302 -0.002568 -0.000001 0.046340 -0.000001
# 6 0.000001 0.000000 -0.000002 0.004928 -0.000001 0.038767
#
#
# Mechanical properties :
#
#
# Convention : Reuss Voigt Hill
#
# Bulk Modulus (GPa) = 24.13006 50.17971 37.15488
# Shear Modulus (GPa) = 26.74012 36.43985 31.58998
#
# Velocity S-wave (km/s) = 3.33837 3.89710 3.62851
# Velocity P-wave (km/s) = 4.99165 6.41589 5.74805
#
# Compressibility (1/GPa) = 0.04144209
#
# Stress axis : x y z
#
# Youngs Moduli (GPa) = 26.78245 107.28263 118.11411
#
# Poissons Ratio (x) = 0.31160 0.16151
# Poissons Ratio (y) = 0.07779 0.30352
# Poissons Ratio (z) = 0.03662 0.27569
#
# Static dielectric constant tensor:
#      x y z
#    x 2.246720 0.000000 0.021720 
#    y 0.000000 1.952920 0.000000 
#    z 0.021720 0.000000 1.922390 
# 
# From -- ./inp_files/50982.got.cif
#   From: 2010.05.17/outbox.cif.g08.bks.cpg/sg5_26_cif.got.tgz:50982.got - 2010.06.03 18:56:24.
