data_PCOD9129324
_publ_section_title
;
Structure prediction by ZEFSAII (Michael W. Deem and Ramdas Pophale) SiO2 
 PCOD9129324
Probable space group: C 2
;
_chemical_formula_sum "Si O2"
_cell_formula_units_Z 24
_cell_length_a 15.234947
_cell_length_b 12.819751
_cell_length_c 13.661824
_cell_angle_alpha 90.000000
_cell_angle_beta 27.571048
_cell_angle_gamma 90.000000
_cell_volume 1235.002325
_symmetry_space_group_name_H-M "C 2"
_symmetry_group_IT_number 5
_symmetry_cell_setting 'monoclinic'
loop_
_space_group_symop_operation_xyz
x,y,z
-x,y,-z
1/2+x,1/2+y,z
1/2-x,1/2+y,-z
loop_
_atom_site_type_symbol
_atom_site_label
_atom_site_fract_x
_atom_site_fract_y
_atom_site_fract_z
Si Si1 0.993502 0.652710 0.162165
Si Si2 0.290468 0.472047 0.556376
Si Si3 0.414250 0.652704 0.780330
Si Si4 0.000000 0.476279 0.500000
Si Si5 0.150801 0.652710 0.213909
Si Si6 0.290472 0.833368 0.556372
Si Si7 0.500000 0.329142 0.500000
O O1 0.884113 0.547626 0.242308
O O2 0.884130 0.757802 0.242296
O O3 0.996078 0.652706 0.279079
O O4 0.215854 0.652705 0.916671
O O5 0.462044 0.551633 0.363795
O O6 0.249985 0.402705 0.500019
O O7 0.358608 0.398627 0.576155
O O8 0.537968 0.753767 0.636180
O O9 0.345543 0.652712 0.961040
O O10 0.117650 0.551519 0.311754
O O11 0.141382 0.406793 0.423860
O O12 0.117640 0.753902 0.311760
#
# Coordination Sequence:
#
# PCOD9129324 Si02
#       7
#     4   4   4   2   4   4   2
#     4   9  20  40  63  83 125 165 194 244 313 355
#     4  11  21  39  65  89 124 165 199 249 315 354
#     4   9  22  41  64  87 124 166 200 250 302 374
#     4  11  22  37  66  96 120 157 212 255 292 366
#     4   9  20  41  63  85 126 159 201 256 293 349
#     4  11  21  39  65  89 124 165 199 249 315 354
#     4  11  22  37  66  96 120 157 212 255 292 366
#
# _framework density 19.433161999999999
#
# number of rings (size 3 to 8) (size 9 to 14) (size 15 to 20)
#    1.000    1.000    3.333    0.000    0.000    8.000 
#    0.000   10.000    0.000    0.000    0.000    0.000 
#    0.000    0.000    0.000    0.000    0.000    0.000 
#
# Total GULP energy -66958.826976 kJ/mol
# GULP energy per Si atom -5579.902248 kJ/mol
# Density = 1.938893 g / cm^3
# Si number density = 19.433162 Si / 1000 Ang^3
#
#
#
# Elastic Constant Matrix: (Units=GPa)
#
#
# Indices 1 2 3 4 5 6 
#
# 1 115.9597 67.0034 12.0049 -0.0003 -16.2943 0.0004
# 2 67.0034 147.7602 42.0383 -0.0003 -22.1437 0.0002
# 3 12.0049 42.0383 92.9780 -0.0004 -22.9896 0.0004
# 4 -0.0003 -0.0003 -0.0004 -1.4383 0.0004 6.1950
# 5 -16.2943 -22.1437 -22.9896 0.0004 31.1958 -0.0006
# 6 0.0004 0.0002 0.0004 6.1950 -0.0006 -30.8909
#
#
#
# Elastic Compliance Matrix: (Units=1/GPa)
#
#
# Indices 1 2 3 4 5 6 
#
# 1 0.012117 -0.005446 0.001843 -0.000002 0.003821 0.000000
# 2 -0.005446 0.010555 -0.003571 -0.000001 0.002017 0.000000
# 3 0.001843 -0.003571 0.014360 -0.000002 0.009010 0.000000
# 4 -0.000002 -0.000001 -0.000002 -5.104279 0.000046 -1.023642
# 5 0.003821 0.002017 0.009010 0.000046 0.042123 0.000009
# 6 0.000000 0.000000 0.000000 -1.023642 0.000009 -0.237659
#
#
# Mechanical properties :
#
#
# Convention : Reuss Voigt Hill
#
# Bulk Modulus (GPa) = 44.08491 66.53234 55.30863
# Shear Modulus (GPa) = -0.95404 15.48341 7.26468
#
# Velocity S-wave (km/s) = -0.70143 2.82574 1.93556
# Velocity P-wave (km/s) = 4.69879 6.70502 5.78947
#
# Compressibility (1/GPa) = 0.02268350
#
# Stress axis : x y z
#
# Youngs Moduli (GPa) = 82.53106 94.73872 69.64008
#
# Poissons Ratio (x) = 0.51595 -0.12832
# Poissons Ratio (y) = 0.44947 0.24866
# Poissons Ratio (z) = -0.15208 0.33828
#
# Static dielectric constant tensor:
#      x y z
#    x 1.694430 0.000000 -0.001600 
#    y 0.000000 1.645900 0.000000 
#    z -0.001600 0.000000 1.675100 
# 
# From -- ./inp_files/54543.got.cif
#   From: 2010.05.17/outbox.cif.g08.bks.cpg/sg5_28_cif.got.tgz:54543.got - 2010.06.03 18:56:24.
