data_PCOD9129726
_publ_section_title
;
Structure prediction by ZEFSAII (Michael W. Deem and Ramdas Pophale) SiO2 
 PCOD9129726
Probable space group: C 2
;
_chemical_formula_sum "Si O2"
_cell_formula_units_Z 30
_cell_length_a 24.401421
_cell_length_b 7.425270
_cell_length_c 14.155724
_cell_angle_alpha 90.000000
_cell_angle_beta 30.410621
_cell_angle_gamma 90.000000
_cell_volume 1298.303236
_symmetry_space_group_name_H-M "C 2"
_symmetry_group_IT_number 5
_symmetry_cell_setting 'monoclinic'
loop_
_space_group_symop_operation_xyz
x,y,z
-x,y,-z
1/2+x,1/2+y,z
1/2-x,1/2+y,-z
loop_
_atom_site_type_symbol
_atom_site_label
_atom_site_fract_x
_atom_site_fract_y
_atom_site_fract_z
Si Si1 0.764516 0.686200 0.369337
Si Si2 0.260026 0.824011 0.801337
Si Si3 0.438254 0.885346 0.787158
Si Si4 0.427756 0.480758 0.797075
Si Si5 0.500000 0.964585 0.500000
Si Si6 0.851511 0.820051 0.521994
Si Si7 0.879816 0.504017 0.353925
Si Si8 0.702541 0.420608 0.190121
O O1 0.775225 0.791260 0.254544
O O2 0.710632 0.494356 0.424307
O O3 0.867569 0.622600 0.277660
O O4 0.687019 0.816682 0.546753
O O5 0.384394 0.883071 0.634064
O O6 0.260629 0.624208 0.843760
O O7 0.174806 0.950258 0.982269
O O8 0.479257 0.680516 0.710884
O O9 0.457558 0.014849 0.668688
O O10 0.500310 0.958552 0.786488
O O11 0.312050 0.843038 0.984989
O O12 0.524056 0.355461 0.688106
O O13 0.390671 0.426552 0.747837
O O14 0.823631 0.631288 0.516634
O O15 0.833947 0.822767 0.660530
#
# Coordination Sequence:
#
# PCOD9129726 Si02
#       8
#     4   4   4   4   2   4   4   4
#     4  11  24  46  75 102 139 193 246 302 357 423
#     4  11  24  42  69 103 148 188 236 295 370 424
#     4  12  25  40  72 107 147 191 243 292 367 437
#     4  12  22  43  68 105 153 189 227 296 369 442
#     4  12  20  42  68 106 146 190 224 306 362 438
#     4  11  25  43  73 104 139 191 239 291 365 428
#     4  12  24  47  75 103 141 193 254 299 357 428
#     4  11  23  42  66 109 148 189 230 291 368 449
#
# _framework density 23.107084
#
# number of rings (size 3 to 8) (size 9 to 14) (size 15 to 20)
#    0.000    0.533    6.667    2.000    1.867    0.000 
#    4.800    6.000    0.000    4.800    0.000    0.000 
#    0.000    0.000    0.000    0.000    0.000    0.000 
#
# Total GULP energy -83726.208621 kJ/mol
# GULP energy per Si atom -5581.747241 kJ/mol
# Density = 2.305449 g / cm^3
# Si number density = 23.107084 Si / 1000 Ang^3
#
#
#
# Elastic Constant Matrix: (Units=GPa)
#
#
# Indices 1 2 3 4 5 6 
#
# 1 158.0965 21.5391 11.8687 -0.0001 -3.6010 0.0000
# 2 21.5391 98.1425 -1.7158 -0.0001 1.4593 -0.0002
# 3 11.8687 -1.7158 61.2891 0.0003 4.8861 -0.0001
# 4 -0.0001 -0.0001 0.0003 25.8674 -0.0001 0.5001
# 5 -3.6010 1.4593 4.8861 -0.0001 22.0798 0.0001
# 6 0.0000 -0.0002 -0.0001 0.5001 0.0001 28.5194
#
#
#
# Elastic Compliance Matrix: (Units=1/GPa)
#
#
# Indices 1 2 3 4 5 6 
#
# 1 0.006675 -0.001513 -0.001455 0.000000 0.001511 0.000000
# 2 -0.001513 0.010549 0.000675 0.000000 -0.001093 0.000000
# 3 -0.001455 0.000675 0.016938 0.000000 -0.004030 0.000000
# 4 0.000000 0.000000 0.000000 0.038672 0.000000 -0.000678
# 5 0.001511 -0.001093 -0.004030 0.000000 0.046501 0.000000
# 6 0.000000 0.000000 0.000000 -0.000678 0.000000 0.035076
#
#
# Mechanical properties :
#
#
# Convention : Reuss Voigt Hill
#
# Bulk Modulus (GPa) = 33.81012 42.32358 38.06685
# Shear Modulus (GPa) = 29.61114 34.34908 31.98011
#
# Velocity S-wave (km/s) = 3.58365 3.85972 3.72425
# Velocity P-wave (km/s) = 5.63801 6.18218 5.91635
#
# Compressibility (1/GPa) = 0.02957694
#
# Stress axis : x y z
#
# Youngs Moduli (GPa) = 149.81197 94.79252 59.03828
#
# Poissons Ratio (x) = 0.14341 0.08593
# Poissons Ratio (y) = 0.22664 -0.03988
# Poissons Ratio (z) = 0.21804 -0.06403
#
# Static dielectric constant tensor:
#      x y z
#    x 1.887140 0.000000 0.016460 
#    y 0.000000 1.867350 0.000000 
#    z 0.016460 0.000000 1.892700 
# 
# From -- ./inp_files/57591.got.cif
#   From: 2010.05.17/outbox.cif.g08.bks.cpg/sg5_29_cif.got.tgz:57591.got - 2010.06.03 18:56:24.
