data_PCOD9129499
_publ_section_title
;
Structure prediction by ZEFSAII (Michael W. Deem and Ramdas Pophale) SiO2 
 PCOD9129499
Probable space group: C 2
;
_chemical_formula_sum "Si O2"
_cell_formula_units_Z 26
_cell_length_a 18.738589
_cell_length_b 8.539279
_cell_length_c 8.989350
_cell_angle_alpha 90.000000
_cell_angle_beta 129.359375
_cell_angle_gamma 90.000000
_cell_volume 1112.164213
_symmetry_space_group_name_H-M "C 2"
_symmetry_group_IT_number 5
_symmetry_cell_setting 'monoclinic'
loop_
_space_group_symop_operation_xyz
x,y,z
-x,y,-z
1/2+x,1/2+y,z
1/2-x,1/2+y,-z
loop_
_atom_site_type_symbol
_atom_site_label
_atom_site_fract_x
_atom_site_fract_y
_atom_site_fract_z
Si Si1 0.301215 0.685540 0.472057
Si Si2 0.500000 0.310187 0.500000
Si Si3 0.354449 0.446765 0.762230
Si Si4 0.974438 0.686684 0.793354
Si Si5 0.089441 0.440109 0.513302
Si Si6 0.769862 0.089952 0.903097
Si Si7 0.206391 0.934021 0.760380
O O1 0.333748 0.616923 0.669627
O O2 0.225590 0.819730 0.373816
O O3 0.385272 0.763001 0.494562
O O4 0.262624 0.531706 0.340709
O O5 0.521756 0.225723 0.691604
O O6 0.597759 0.394175 0.600265
O O7 0.435609 0.358103 0.786305
O O8 0.350598 0.487139 0.931194
O O9 0.917328 0.540606 0.648968
O O10 0.000000 0.635148 0.000000
O O11 0.174789 0.517439 0.713778
O O12 0.000000 0.442517 0.500000
O O13 0.762157 0.274495 0.862583
O O14 0.777274 0.053576 0.084619
#
# Coordination Sequence:
#
# PCOD9129499 Si02
#       7
#     4   2   4   4   4   4   4
#     4  11  23  40  69  95 139 187 234 303 365 425
#     4  12  24  48  74 108 152 190 248 298 372 446
#     4  11  22  41  63 100 135 181 241 292 361 428
#     4  12  24  44  74 102 145 200 244 299 378 442
#     4  11  23  43  68 103 150 189 243 308 367 434
#     4  11  23  42  70 106 143 190 244 302 364 442
#     4  12  24  45  72 106 144 196 241 306 370 441
#
# _framework density 23.377842000000001
#
# number of rings (size 3 to 8) (size 9 to 14) (size 15 to 20)
#    0.000    0.615    3.846    5.538    1.077    1.231 
#    0.000    2.308    0.000    0.000    0.000    0.000 
#    0.000    0.000    0.000    0.000    0.000    0.000 
#
# Total GULP energy -72374.068840 kJ/mol
# GULP energy per Si atom -5567.236065 kJ/mol
# Density = 2.332463 g / cm^3
# Si number density = 23.377842 Si / 1000 Ang^3
#
#
#
# Elastic Constant Matrix: (Units=GPa)
#
#
# Indices 1 2 3 4 5 6 
#
# 1 89.1788 25.6705 18.8950 0.0000 -16.1130 0.0000
# 2 25.6705 105.0684 1.9667 0.0000 5.2618 0.0000
# 3 18.8950 1.9667 105.1650 0.0000 -21.4095 0.0000
# 4 0.0000 0.0000 0.0000 30.2629 0.0000 -8.4037
# 5 -16.1130 5.2618 -21.4095 0.0000 25.3186 0.0000
# 6 0.0000 0.0000 0.0000 -8.4037 0.0000 28.3974
#
#
#
# Elastic Compliance Matrix: (Units=1/GPa)
#
#
# Indices 1 2 3 4 5 6 
#
# 1 0.014147 -0.003913 -0.000568 0.000000 0.009336 0.000000
# 2 -0.003913 0.010744 -0.000555 0.000000 -0.005193 0.000000
# 3 -0.000568 -0.000555 0.011561 0.000000 0.009530 0.000000
# 4 0.000000 0.000000 0.000000 0.036002 0.000000 0.010654
# 5 0.009336 -0.005193 0.009530 0.000000 0.054576 0.000000
# 6 0.000000 0.000000 0.000000 0.010654 0.000000 0.038367
#
#
# Mechanical properties :
#
#
# Convention : Reuss Voigt Hill
#
# Bulk Modulus (GPa) = 37.90707 43.60853 40.75780
# Shear Modulus (GPa) = 27.13484 33.65445 30.39465
#
# Velocity S-wave (km/s) = 3.41061 3.79831 3.60967
# Velocity P-wave (km/s) = 5.63559 6.15877 5.90298
#
# Compressibility (1/GPa) = 0.02638030
#
# Stress axis : x y z
#
# Youngs Moduli (GPa) = 70.68545 93.07368 86.49420
#
# Poissons Ratio (x) = 0.36423 0.04912
# Poissons Ratio (y) = 0.27662 0.04800
# Poissons Ratio (z) = 0.04014 0.05165
#
# Static dielectric constant tensor:
#      x y z
#    x 1.975140 0.000000 0.037470 
#    y 0.000000 1.885170 0.000000 
#    z 0.037470 0.000000 1.952310 
# 
# From -- ./inp_files/29142.got.cif
#   From: 2010.05.17/outbox.cif.g08.bks.cpg/sg5_15_cif.got.tgz:29142.got - 2010.06.03 18:56:24.
