data_PCOD9129042
_publ_section_title
;
Structure prediction by ZEFSAII (Michael W. Deem and Ramdas Pophale) SiO2 
 PCOD9129042
Probable space group: C 2
;
_chemical_formula_sum "Si O2"
_cell_formula_units_Z 18
_cell_length_a 19.738007
_cell_length_b 9.313319
_cell_length_c 7.712864
_cell_angle_alpha 90.000000
_cell_angle_beta 30.257403
_cell_angle_gamma 90.000000
_cell_volume 714.422932
_symmetry_space_group_name_H-M "C 2"
_symmetry_group_IT_number 5
_symmetry_cell_setting 'monoclinic'
loop_
_space_group_symop_operation_xyz
x,y,z
-x,y,-z
1/2+x,1/2+y,z
1/2-x,1/2+y,-z
loop_
_atom_site_type_symbol
_atom_site_label
_atom_site_fract_x
_atom_site_fract_y
_atom_site_fract_z
Si Si1 0.203282 0.501030 0.208627
Si Si2 0.396518 0.742694 0.366265
Si Si3 0.659977 0.191455 0.628179
Si Si4 0.000000 0.723627 0.500000
Si Si5 0.583643 0.438058 0.558465
O O1 0.128696 0.353636 0.423596
O O2 0.223084 0.580909 0.348861
O O3 0.118592 0.618143 0.289408
O O4 0.321844 0.463647 0.815919
O O5 0.257684 0.699415 0.576973
O O6 0.461804 0.593371 0.283387
O O7 0.500000 0.809194 0.000000
O O8 0.657406 0.350561 0.547099
O O9 0.500000 0.154481 0.000000
O O10 0.977193 0.824688 0.717692
#
# Coordination Sequence:
#
# PCOD9129042 Si02
#       5
#     4   4   4   2   4
#     4  11  26  46  76 104 146 200 252 302 367 459
#     4  12  27  45  72 115 151 189 251 318 372 440
#     4  11  26  47  74 107 154 201 245 305 386 443
#     4  10  26  46  74 102 150 190 250 302 386 416
#     4  11  26  46  76 104 146 200 252 302 367 459
#
# _framework density 25.195160999999999
#
# number of rings (size 3 to 8) (size 9 to 14) (size 15 to 20)
#    0.000    0.889    0.000    5.333   18.667    0.889 
#    0.000    0.000    0.000    0.000    0.000    0.000 
#    0.000    0.000    0.000    0.000    0.000    0.000 
#
# Total GULP energy -50380.634161 kJ/mol
# GULP energy per Si atom -5597.848240 kJ/mol
# Density = 2.513782 g / cm^3
# Si number density = 25.195161 Si / 1000 Ang^3
#
#
#
# Elastic Constant Matrix: (Units=GPa)
#
#
# Indices 1 2 3 4 5 6 
#
# 1 109.6439 40.6629 25.5528 0.0000 -15.7044 0.0000
# 2 40.6629 158.8283 17.0578 0.0000 4.6322 0.0000
# 3 25.5528 17.0578 145.8973 0.0000 7.5594 0.0000
# 4 0.0000 0.0000 0.0000 27.0288 0.0000 27.8123
# 5 -15.7044 4.6322 7.5594 0.0000 33.7604 0.0000
# 6 0.0000 0.0000 0.0000 27.8123 0.0000 29.8940
#
#
#
# Elastic Compliance Matrix: (Units=1/GPa)
#
#
# Indices 1 2 3 4 5 6 
#
# 1 0.011566 -0.002927 -0.002006 0.000000 0.006231 0.000000
# 2 -0.002927 0.007134 -0.000202 0.000000 -0.002295 0.000000
# 3 -0.002006 -0.000202 0.007362 0.000000 -0.002554 0.000000
# 4 0.000000 0.000000 0.000000 0.867083 0.000000 -0.806703
# 5 0.006231 -0.002295 -0.002554 0.000000 0.033406 0.000000
# 6 0.000000 0.000000 0.000000 -0.806703 0.000000 0.783979
#
#
# Mechanical properties :
#
#
# Convention : Reuss Voigt Hill
#
# Bulk Modulus (GPa) = 63.33299 64.54627 63.93963
# Shear Modulus (GPa) = 2.89676 40.20972 21.55324
#
# Velocity S-wave (km/s) = 1.07342 3.99924 2.92798
# Velocity P-wave (km/s) = 5.16990 6.85561 6.07154
#
# Compressibility (1/GPa) = 0.01578956
#
# Stress axis : x y z
#
# Youngs Moduli (GPa) = 86.45902 140.16863 135.84145
#
# Poissons Ratio (x) = 0.41033 0.27254
# Poissons Ratio (y) = 0.25310 0.02750
# Poissons Ratio (z) = 0.17346 0.02838
#
# Static dielectric constant tensor:
#      x y z
#    x 2.227790 0.000000 -0.099490 
#    y 0.000000 1.977190 0.000000 
#    z -0.099490 0.000000 2.024090 
# 
# From -- ./inp_files/30397.got.cif
#   From: 2010.05.17/outbox.cif.g08.bks.cpg/sg5_16_cif.got.tgz:30397.got - 2010.06.03 18:56:24.
