data_PCOD9129489
_publ_section_title
;
Structure prediction by ZEFSAII (Michael W. Deem and Ramdas Pophale) SiO2 
 PCOD9129489
Probable space group: C 2
;
_chemical_formula_sum "Si O2"
_cell_formula_units_Z 30
_cell_length_a 13.664314
_cell_length_b 18.741163
_cell_length_c 11.332852
_cell_angle_alpha 90.000000
_cell_angle_beta 33.964382
_cell_angle_gamma 90.000000
_cell_volume 1621.379620
_symmetry_space_group_name_H-M "C 2"
_symmetry_group_IT_number 5
_symmetry_cell_setting 'monoclinic'
loop_
_space_group_symop_operation_xyz
x,y,z
-x,y,-z
1/2+x,1/2+y,z
1/2-x,1/2+y,-z
loop_
_atom_site_type_symbol
_atom_site_label
_atom_site_fract_x
_atom_site_fract_y
_atom_site_fract_z
Si Si1 0.500000 0.437160 0.000000
Si Si2 0.295370 0.817273 0.704637
Si Si3 0.499994 0.524274 0.242264
Si Si4 0.999982 0.178900 0.861710
Si Si5 0.203938 0.778104 0.537699
Si Si6 0.295737 0.934085 0.063387
Si Si7 0.795779 0.434088 0.345130
Si Si8 0.796101 0.778103 0.945512
O O1 0.330816 0.385898 0.169190
O O2 0.500019 0.484419 0.116462
O O3 0.500000 0.836593 0.500000
O O4 0.252049 0.775213 0.628100
O O5 0.252051 0.775228 0.867829
O O6 0.500007 0.607836 0.216687
O O7 0.670001 0.495874 0.141560
O O8 0.329944 0.495879 0.481580
O O9 0.168676 0.226634 0.661511
O O10 0.000000 0.160926 0.000000
O O11 0.831262 0.226622 0.998943
O O12 0.238914 0.859386 0.461012
O O13 0.000022 0.761776 0.724699
O O14 0.277032 0.927196 0.222986
O O15 0.238867 0.859380 0.061255
O O16 0.499975 0.946847 0.831658
#
# Coordination Sequence:
#
# PCOD9129489 Si02
#       8
#     2   4   4   4   4   4   4   4
#     4  12  22  40  66 102 128 162 226 272 320 400
#     4  12  20  38  70 102 126 166 221 278 318 384
#     4  12  25  44  67  92 139 174 211 274 332 396
#     4  12  28  46  64  97 137 175 218 272 340 394
#     4  12  23  41  68 100 131 172 222 273 325 388
#     4  11  22  40  69 100 127 166 222 273 320 389
#     4  11  22  40  69 100 127 166 222 273 320 389
#     4  12  23  41  68 100 131 172 222 273 325 388
#
# _framework density 18.502761
#
# number of rings (size 3 to 8) (size 9 to 14) (size 15 to 20)
#    0.000    0.267    8.667    1.200    0.000    2.667 
#    4.800    0.000    0.000    0.000    0.000    0.000 
#    0.000    0.000    0.000    0.000    0.000    0.000 
#
# Total GULP energy -83899.243173 kJ/mol
# GULP energy per Si atom -5593.282878 kJ/mol
# Density = 1.846065 g / cm^3
# Si number density = 18.502761 Si / 1000 Ang^3
#
#
#
# Elastic Constant Matrix: (Units=GPa)
#
#
# Indices 1 2 3 4 5 6 
#
# 1 101.1213 29.9020 63.6900 -0.1240 -14.2392 0.0813
# 2 29.9020 97.8529 41.7796 -0.2060 -14.2456 0.1402
# 3 63.6900 41.7796 138.3824 -0.1818 -30.4802 0.1252
# 4 -0.1240 -0.2060 -0.1818 55.1436 0.1625 -17.7087
# 5 -14.2392 -14.2456 -30.4802 0.1625 44.0402 -0.1088
# 6 0.0813 0.1402 0.1252 -17.7087 -0.1088 40.5993
#
#
#
# Elastic Compliance Matrix: (Units=1/GPa)
#
#
# Indices 1 2 3 4 5 6 
#
# 1 0.014191 -0.001786 -0.006028 0.000005 -0.000161 -0.000002
# 2 -0.001786 0.012051 -0.002460 0.000023 0.001618 -0.000016
# 3 -0.006028 -0.002460 0.011962 0.000000 0.005535 -0.000002
# 4 0.000005 0.000023 0.000000 0.021089 -0.000046 0.009198
# 5 -0.000161 0.001618 0.005535 -0.000046 0.027008 0.000030
# 6 -0.000002 -0.000016 -0.000002 0.009198 0.000030 0.028643
#
#
# Mechanical properties :
#
#
# Convention : Reuss Voigt Hill
#
# Bulk Modulus (GPa) = 56.63511 67.56666 62.10088
# Shear Modulus (GPa) = 35.36621 41.42228 38.39424
#
# Velocity S-wave (km/s) = 4.37670 4.73663 4.56022
# Velocity P-wave (km/s) = 7.49774 8.15540 7.83348
#
# Compressibility (1/GPa) = 0.01765689
#
# Stress axis : x y z
#
# Youngs Moduli (GPa) = 70.46700 82.97939 83.59675
#
# Poissons Ratio (x) = 0.14824 0.50388
# Poissons Ratio (y) = 0.12589 0.20563
# Poissons Ratio (z) = 0.42474 0.20411
#
# Static dielectric constant tensor:
#      x y z
#    x 1.613340 -0.000070 0.036360 
#    y -0.000070 1.594650 0.000110 
#    z 0.036360 0.000110 1.582720 
# 
# From -- ./inp_files/43292.got.cif
#   From: 2010.05.17/outbox.cif.g08.bks.cpg/sg5_22_cif.got.tgz:43292.got - 2010.06.03 18:56:24.
