data_PCOD9129063
_publ_section_title
;
Structure prediction by ZEFSAII (Michael W. Deem and Ramdas Pophale) SiO2 
 PCOD9129063
Probable space group: C 2
;
_chemical_formula_sum "Si O2"
_cell_formula_units_Z 18
_cell_length_a 13.398409
_cell_length_b 4.900912
_cell_length_c 9.916927
_cell_angle_alpha 90.000000
_cell_angle_beta 110.746068
_cell_angle_gamma 90.000000
_cell_volume 608.965868
_symmetry_space_group_name_H-M "C 2"
_symmetry_group_IT_number 5
_symmetry_cell_setting 'monoclinic'
loop_
_space_group_symop_operation_xyz
x,y,z
-x,y,-z
1/2+x,1/2+y,z
1/2-x,1/2+y,-z
loop_
_atom_site_type_symbol
_atom_site_label
_atom_site_fract_x
_atom_site_fract_y
_atom_site_fract_z
Si Si1 0.508151 0.096590 0.707492
Si Si2 0.500000 0.275163 0.000000
Si Si3 0.177594 0.083266 0.744550
Si Si4 0.791776 0.102543 0.840320
Si Si5 0.378145 0.585533 0.581382
O O1 0.494546 0.102591 0.861601
O O2 0.594949 0.332630 0.717669
O O3 0.409738 0.268167 0.595925
O O4 0.482278 0.790887 0.642837
O O5 0.396129 0.470708 0.956038
O O6 0.272851 0.917101 0.865064
O O7 0.193148 0.386548 0.812052
O O8 0.181212 0.139028 0.586145
O O9 0.816808 0.124649 0.691855
#
# Coordination Sequence:
#
# PCOD9129063 Si02
#       5
#     4   2   4   4   4
#     4  11  25  43  71 101 145 190 234 301 362 446
#     4  10  26  48  68 100 144 200 248 290 384 440
#     4  12  24  41  69 107 137 181 245 305 362 422
#     4  11  24  42  69  99 141 187 239 305 355 437
#     4  11  23  44  68 101 144 188 233 295 378 438
#
# _framework density 29.558306000000002
#
# number of rings (size 3 to 8) (size 9 to 14) (size 15 to 20)
#    0.000    0.889    0.000    7.333    0.000   11.556 
#    0.000    0.000    0.000    0.000    0.000    0.000 
#    0.000    0.000    0.000    0.000    0.000    0.000 
#
# Total GULP energy -50337.317405 kJ/mol
# GULP energy per Si atom -5593.035267 kJ/mol
# Density = 2.949103 g / cm^3
# Si number density = 29.558306 Si / 1000 Ang^3
#
#
#
# Elastic Constant Matrix: (Units=GPa)
#
#
# Indices 1 2 3 4 5 6 
#
# 1 71.0576 19.0196 -0.0469 0.0000 -8.8818 0.0000
# 2 19.0196 281.5594 35.5369 0.0000 7.8728 0.0000
# 3 -0.0469 35.5369 179.4169 0.0000 -25.2311 0.0000
# 4 0.0000 0.0000 0.0000 39.3190 0.0000 15.0923
# 5 -8.8818 7.8728 -25.2311 0.0000 41.4725 0.0000
# 6 0.0000 0.0000 0.0000 15.0923 0.0000 42.2938
#
#
#
# Elastic Compliance Matrix: (Units=1/GPa)
#
#
# Indices 1 2 3 4 5 6 
#
# 1 0.014886 -0.001215 0.000793 0.000000 0.003901 0.000000
# 2 -0.001215 0.003801 -0.000975 0.000000 -0.001575 0.000000
# 3 0.000793 -0.000975 0.006361 0.000000 0.004225 0.000000
# 4 0.000000 0.000000 0.000000 0.029469 0.000000 -0.010516
# 5 0.003901 -0.001575 0.004225 0.000000 0.027817 0.000000
# 6 0.000000 0.000000 0.000000 -0.010516 0.000000 0.027397
#
#
# Mechanical properties :
#
#
# Convention : Reuss Voigt Hill
#
# Bulk Modulus (GPa) = 44.93234 71.22812 58.08023
# Shear Modulus (GPa) = 41.68672 56.45203 49.06938
#
# Velocity S-wave (km/s) = 3.75950 4.37493 4.07884
# Velocity P-wave (km/s) = 5.83775 7.04768 6.47106
#
# Compressibility (1/GPa) = 0.02225568
#
# Stress axis : x y z
#
# Youngs Moduli (GPa) = 67.17542 263.10682 157.20884
#
# Poissons Ratio (x) = 0.31962 -0.12469
# Poissons Ratio (y) = 0.08160 0.15321
# Poissons Ratio (z) = -0.05328 0.25641
#
# Static dielectric constant tensor:
#      x y z
#    x 2.723030 0.000000 0.275600 
#    y 0.000000 2.136170 0.000000 
#    z 0.275600 0.000000 2.262350 
# 
# From -- ./inp_files/43830.got.cif
#   From: 2010.05.17/outbox.cif.g08.bks.cpg/sg5_22_cif.got.tgz:43830.got - 2010.06.03 18:56:24.
