data_PCOD9129622
_publ_section_title
;
Structure prediction by ZEFSAII (Michael W. Deem and Ramdas Pophale) SiO2 
 PCOD9129622
Probable space group: C 2
;
_chemical_formula_sum "Si O2"
_cell_formula_units_Z 28
_cell_length_a 11.141073
_cell_length_b 8.664183
_cell_length_c 14.365405
_cell_angle_alpha 90.000000
_cell_angle_beta 71.687276
_cell_angle_gamma 90.000000
_cell_volume 1316.441256
_symmetry_space_group_name_H-M "C 2"
_symmetry_group_IT_number 5
_symmetry_cell_setting 'monoclinic'
loop_
_space_group_symop_operation_xyz
x,y,z
-x,y,-z
1/2+x,1/2+y,z
1/2-x,1/2+y,-z
loop_
_atom_site_type_symbol
_atom_site_label
_atom_site_fract_x
_atom_site_fract_y
_atom_site_fract_z
Si Si1 0.433507 0.987080 0.256824
Si Si2 0.693737 0.288974 0.717224
Si Si3 0.109178 0.478379 0.035332
Si Si4 0.193445 0.236952 0.603012
Si Si5 0.592185 0.996748 0.392630
Si Si6 0.893149 0.933011 0.450118
Si Si7 0.641801 0.321705 0.944901
O O1 0.532508 0.001363 0.149696
O O2 0.382926 0.818388 0.295659
O O3 0.505663 0.046294 0.329441
O O4 0.318831 0.105337 0.272989
O O5 0.832405 0.345925 0.657408
O O6 0.606617 0.359525 0.654584
O O7 0.662538 0.344222 0.829288
O O8 0.241456 0.396609 0.027089
O O9 0.138059 0.640820 0.976670
O O10 0.000000 0.394914 0.000000
O O11 0.261707 0.369097 0.525773
O O12 0.304815 0.127152 0.612566
O O13 0.111686 0.117071 0.562933
O O14 0.500000 0.970300 0.500000
O O15 0.000000 0.891078 0.500000
O O16 0.500000 0.382000 0.000000
#
# Coordination Sequence:
#
# PCOD9129622 Si02
#       7
#     4   4   4   4   4   4   4
#     4  12  23  44  71 100 143 189 240 304 366 438
#     4  11  22  45  75 102 144 194 248 296 374 435
#     4  11  25  49  75 107 148 193 249 315 384 437
#     4  11  25  41  66 100 140 186 239 287 357 430
#     4  11  24  43  69 103 145 192 238 302 359 442
#     4  11  24  45  65 100 145 189 233 292 351 433
#     4  11  24  51  75 108 146 196 249 320 376 447
#
# _framework density 21.269462999999998
#
# number of rings (size 3 to 8) (size 9 to 14) (size 15 to 20)
#    0.000    0.857    4.286    4.714    0.000    5.714 
#    7.714    0.714    0.000    0.000    0.000    0.000 
#    0.000    0.000    0.000    0.000    0.000    0.000 
#
# Total GULP energy -78156.303697 kJ/mol
# GULP energy per Si atom -5582.593121 kJ/mol
# Density = 2.122105 g / cm^3
# Si number density = 21.269463 Si / 1000 Ang^3
#
#
#
# Elastic Constant Matrix: (Units=GPa)
#
#
# Indices 1 2 3 4 5 6 
#
# 1 133.9806 41.0990 51.2238 0.0000 6.2938 0.0000
# 2 41.0990 72.8274 12.4647 0.0000 -9.9431 0.0000
# 3 51.2238 12.4647 141.6542 0.0000 11.2772 0.0000
# 4 0.0000 0.0000 0.0000 27.9016 0.0000 1.4417
# 5 6.2938 -9.9431 11.2772 0.0000 26.2816 0.0000
# 6 0.0000 0.0000 0.0000 1.4417 0.0000 38.7921
#
#
#
# Elastic Compliance Matrix: (Units=1/GPa)
#
#
# Indices 1 2 3 4 5 6 
#
# 1 0.010612 -0.005945 -0.003037 0.000000 -0.003488 0.000000
# 2 -0.005945 0.018252 -0.000123 0.000000 0.008382 0.000000
# 3 -0.003037 -0.000123 0.008401 0.000000 -0.002924 0.000000
# 4 0.000000 0.000000 0.000000 0.035909 0.000000 -0.001335
# 5 -0.003488 0.008382 -0.002924 0.000000 0.043311 0.000000
# 6 0.000000 0.000000 0.000000 -0.001335 0.000000 0.025828
#
#
# Mechanical properties :
#
#
# Convention : Reuss Voigt Hill
#
# Bulk Modulus (GPa) = 52.48147 62.00412 57.24280
# Shear Modulus (GPa) = 29.96241 34.84004 32.40122
#
# Velocity S-wave (km/s) = 3.75734 4.05165 3.90727
# Velocity P-wave (km/s) = 6.59937 7.14862 6.87948
#
# Compressibility (1/GPa) = 0.01905434
#
# Stress axis : x y z
#
# Youngs Moduli (GPa) = 94.22952 54.78915 119.03008
#
# Poissons Ratio (x) = 0.32574 0.36146
# Poissons Ratio (y) = 0.56023 0.01469
# Poissons Ratio (z) = 0.28615 0.00676
#
# Static dielectric constant tensor:
#      x y z
#    x 1.801390 0.000000 0.022750 
#    y 0.000000 1.804350 0.000000 
#    z 0.022750 0.000000 1.719420 
# 
# From -- ./inp_files/52228.got.cif
#   From: 2010.05.17/outbox.cif.g08.bks.cpg/sg5_27_cif.got.tgz:52228.got - 2010.06.03 18:56:24.
