data_PCOD9129582
_publ_section_title
;
Structure prediction by ZEFSAII (Michael W. Deem and Ramdas Pophale) SiO2 
 PCOD9129582
Probable space group: C 2
;
_chemical_formula_sum "Si O2"
_cell_formula_units_Z 26
_cell_length_a 10.962235
_cell_length_b 9.772573
_cell_length_c 19.166368
_cell_angle_alpha 90.000000
_cell_angle_beta 149.317294
_cell_angle_gamma 90.000000
_cell_volume 1047.753836
_symmetry_space_group_name_H-M "C 2"
_symmetry_group_IT_number 5
_symmetry_cell_setting 'monoclinic'
loop_
_space_group_symop_operation_xyz
x,y,z
-x,y,-z
1/2+x,1/2+y,z
1/2-x,1/2+y,-z
loop_
_atom_site_type_symbol
_atom_site_label
_atom_site_fract_x
_atom_site_fract_y
_atom_site_fract_z
Si Si1 0.697199 0.234040 0.534776
Si Si2 0.775937 0.818148 0.100557
Si Si3 0.941888 0.567591 0.093271
Si Si4 0.784178 0.672477 0.238746
Si Si5 0.942525 0.427258 0.223847
Si Si6 0.500000 0.244405 0.000000
Si Si7 0.223665 0.990227 0.346488
O O1 0.500000 0.249165 0.500000
O O2 0.541287 0.229801 0.389270
O O3 0.884649 0.352104 0.638316
O O4 0.830098 0.090054 0.614693
O O5 0.779044 0.681150 0.053848
O O6 0.679839 0.785100 0.132731
O O7 0.055224 0.861837 0.250983
O O8 0.692584 0.954177 0.018947
O O9 0.072833 0.487221 0.219838
O O10 0.082812 0.654616 0.106015
O O11 0.816178 0.545938 0.203558
O O12 0.693442 0.597085 0.265215
O O13 0.728615 0.332301 0.091304
O O14 0.500000 0.951431 0.500000
#
# Coordination Sequence:
#
# PCOD9129582 Si02
#       7
#     4   4   4   4   4   2   4
#     4   9  21  42  65  93 133 175 218 288 340 391
#     4  11  22  44  65  95 137 171 227 276 326 409
#     4  11  25  43  65 100 137 183 224 277 341 395
#     4   9  22  38  65  99 122 182 219 265 352 388
#     4  11  23  44  65 101 142 167 235 281 331 419
#     4  12  24  44  72 100 136 190 214 288 346 392
#     4   9  20  39  65  95 128 172 216 276 342 395
#
# _framework density 24.814986999999999
#
# number of rings (size 3 to 8) (size 9 to 14) (size 15 to 20)
#    0.000    2.154    1.538    1.846    4.308    2.462 
#    2.769    1.538    0.000    0.000    0.000    0.000 
#    0.000    0.000    0.000    0.000    0.000    0.000 
#
# Total GULP energy -72532.328091 kJ/mol
# GULP energy per Si atom -5579.409853 kJ/mol
# Density = 2.475851 g / cm^3
# Si number density = 24.814987 Si / 1000 Ang^3
#
#
#
# Elastic Constant Matrix: (Units=GPa)
#
#
# Indices 1 2 3 4 5 6 
#
# 1 56.0425 26.0714 13.4827 0.0002 -19.9119 0.0003
# 2 26.0714 102.1721 41.2003 0.0002 -7.9081 0.0002
# 3 13.4827 41.2003 90.0394 0.0003 -34.9559 0.0005
# 4 0.0002 0.0002 0.0003 6.8201 0.0002 14.5152
# 5 -19.9119 -7.9081 -34.9559 0.0002 38.6208 0.0003
# 6 0.0003 0.0002 0.0005 14.5152 0.0003 15.2209
#
#
#
# Elastic Compliance Matrix: (Units=1/GPa)
#
#
# Indices 1 2 3 4 5 6 
#
# 1 0.026385 -0.008055 0.006746 -0.000001 0.018060 0.000000
# 2 -0.008055 0.014849 -0.009282 0.000000 -0.009514 0.000000
# 3 0.006746 -0.009282 0.023058 -0.000001 0.022448 0.000000
# 4 -0.000001 0.000000 -0.000001 -0.142407 -0.000001 0.135804
# 5 0.018060 -0.009514 0.022448 -0.000001 0.053573 -0.000001
# 6 0.000000 0.000000 0.000000 0.135804 -0.000001 -0.063809
#
#
# Mechanical properties :
#
#
# Convention : Reuss Voigt Hill
#
# Bulk Modulus (GPa) = 23.19622 45.52920 34.36271
# Shear Modulus (GPa) = -94.70044 23.29902 -35.70071
#
# Velocity S-wave (km/s) = -6.18429 3.06749 -3.79710
# Velocity P-wave (km/s) = 6.45182 5.56177 2.31222
#
# Compressibility (1/GPa) = 0.04311048
#
# Stress axis : x y z
#
# Youngs Moduli (GPa) = 37.90088 67.34250 43.36856
#
# Poissons Ratio (x) = 0.54246 -0.29258
# Poissons Ratio (y) = 0.30530 0.40255
# Poissons Ratio (z) = -0.25570 0.62508
#
# Static dielectric constant tensor:
#      x y z
#    x 2.017360 0.000000 0.022300 
#    y 0.000000 1.998470 0.000000 
#    z 0.022300 0.000000 2.004830 
# 
# From -- ./inp_files/65919.got.cif
#   From: 2010.05.17/outbox.cif.g08.bks.cpg/sg5_33_cif.got.tgz:65919.got - 2010.06.03 18:56:24.
