data_PCOD9129240
_publ_section_title
;
Structure prediction by ZEFSAII (Michael W. Deem and Ramdas Pophale) SiO2 
 PCOD9129240
Probable space group: C 2
;
_chemical_formula_sum "Si O2"
_cell_formula_units_Z 30
_cell_length_a 21.227834
_cell_length_b 9.579123
_cell_length_c 18.810759
_cell_angle_alpha 90.000000
_cell_angle_beta 160.967662
_cell_angle_gamma 90.000000
_cell_volume 1247.357353
_symmetry_space_group_name_H-M "C 2"
_symmetry_group_IT_number 5
_symmetry_cell_setting 'monoclinic'
loop_
_space_group_symop_operation_xyz
x,y,z
-x,y,-z
1/2+x,1/2+y,z
1/2-x,1/2+y,-z
loop_
_atom_site_type_symbol
_atom_site_label
_atom_site_fract_x
_atom_site_fract_y
_atom_site_fract_z
Si Si1 0.833149 0.137880 0.610199
Si Si2 0.855479 0.274448 0.134877
Si Si3 0.208584 0.278744 0.299360
Si Si4 0.787617 0.979192 0.135515
Si Si5 0.381679 0.078568 0.763549
Si Si6 0.734050 0.245215 0.793131
Si Si7 0.000000 0.808067 0.000000
Si Si8 0.670600 0.470051 0.048779
O O1 0.715361 0.199812 0.550493
O O2 0.709171 0.094198 0.411149
O O3 0.946017 0.271384 0.697245
O O4 0.979953 0.021685 0.800490
O O5 0.729859 0.355715 0.941830
O O6 0.801200 0.360541 0.146321
O O7 0.852544 0.113596 0.159140
O O8 0.223985 0.445130 0.316223
O O9 0.295687 0.218042 0.321031
O O10 0.972561 0.259687 0.051026
O O11 0.601119 0.042942 0.977226
O O12 0.865315 0.883743 0.282971
O O13 0.379892 0.204977 0.818437
O O14 0.704127 0.108350 0.807041
O O15 0.109711 0.905900 0.059985
#
# Coordination Sequence:
#
# PCOD9129240 Si02
#       8
#     4   4   4   4   4   4   2   4
#     4  11  23  39  62  99 128 167 219 279 321 382
#     4  12  21  38  61  97 128 168 216 269 329 395
#     4   9  18  35  60  84 123 160 209 268 324 372
#     4  11  20  39  62  90 128 165 217 261 330 394
#     4  11  23  38  64  95 131 170 220 278 323 384
#     4   9  17  37  61  88 117 163 214 262 317 390
#     4  12  24  38  64 100 126 176 226 268 322 400
#     4  11  22  37  65  93 130 168 220 269 330 387
#
# _framework density 24.050847999999998
#
# number of rings (size 3 to 8) (size 9 to 14) (size 15 to 20)
#    0.000    1.333    6.667    3.200    1.867    0.000 
#    0.000    0.667    0.000    0.000    0.000    0.000 
#    0.000    0.000    0.000    0.000    0.000    0.000 
#
# Total GULP energy -83583.373811 kJ/mol
# GULP energy per Si atom -5572.224921 kJ/mol
# Density = 2.399611 g / cm^3
# Si number density = 24.050848 Si / 1000 Ang^3
#
#
#
# Elastic Constant Matrix: (Units=GPa)
#
#
# Indices 1 2 3 4 5 6 
#
# 1 142.9492 48.1774 12.8828 0.0007 -15.2246 0.0002
# 2 48.1774 143.1819 32.3031 0.0019 -14.4735 0.0014
# 3 12.8828 32.3031 58.2391 0.0008 -15.1263 0.0008
# 4 0.0007 0.0019 0.0008 -15.2232 0.0011 -3.2013
# 5 -15.2246 -14.4735 -15.1263 0.0011 29.0223 0.0007
# 6 0.0002 0.0014 0.0008 -3.2013 0.0007 50.7815
#
#
#
# Elastic Compliance Matrix: (Units=1/GPa)
#
#
# Indices 1 2 3 4 5 6 
#
# 1 0.008149 -0.002511 0.000434 0.000000 0.003249 0.000000
# 2 -0.002511 0.008852 -0.004106 0.000001 0.000957 0.000000
# 3 0.000434 -0.004106 0.021835 0.000001 0.009560 0.000000
# 4 0.000000 0.000001 0.000001 -0.064830 0.000004 -0.004087
# 5 0.003249 0.000957 0.009560 0.000004 0.041621 -0.000001
# 6 0.000000 0.000000 0.000000 -0.004087 -0.000001 0.019435
#
#
# Mechanical properties :
#
#
# Convention : Reuss Voigt Hill
#
# Bulk Modulus (GPa) = 37.77886 59.01076 48.39481
# Shear Modulus (GPa) = 88.88753 29.64992 59.26872
#
# Velocity S-wave (km/s) = 6.08592 3.51494 4.96957
# Velocity P-wave (km/s) = 8.07010 6.40797 7.28659
#
# Compressibility (1/GPa) = 0.02646983
#
# Stress axis : x y z
#
# Youngs Moduli (GPa) = 122.71804 112.96562 45.79792
#
# Poissons Ratio (x) = 0.28371 -0.01989
# Poissons Ratio (y) = 0.30820 0.18804
# Poissons Ratio (z) = -0.05328 0.46382
#
# Static dielectric constant tensor:
#      x y z
#    x 1.929640 0.000000 0.020580 
#    y 0.000000 1.963360 0.000000 
#    z 0.020580 0.000000 2.077090 
# 
# From -- ./inp_files/62785.got.cif
#   From: 2010.05.17/outbox.cif.g08.bks.cpg/sg5_32_cif.got.tgz:62785.got - 2010.06.03 18:56:24.
