data_PCOD9129286
_publ_section_title
;
Structure prediction by ZEFSAII (Michael W. Deem and Ramdas Pophale) SiO2 
 PCOD9129286
Probable space group: C 2
;
_chemical_formula_sum "Si O2"
_cell_formula_units_Z 22
_cell_length_a 25.115143
_cell_length_b 5.350143
_cell_length_c 13.503673
_cell_angle_alpha 90.000000
_cell_angle_beta 36.577166
_cell_angle_gamma 90.000000
_cell_volume 1081.259414
_symmetry_space_group_name_H-M "C 2"
_symmetry_group_IT_number 5
_symmetry_cell_setting 'monoclinic'
loop_
_space_group_symop_operation_xyz
x,y,z
-x,y,-z
1/2+x,1/2+y,z
1/2-x,1/2+y,-z
loop_
_atom_site_type_symbol
_atom_site_label
_atom_site_fract_x
_atom_site_fract_y
_atom_site_fract_z
Si Si1 0.506363 0.607810 0.799556
Si Si2 0.000000 0.457275 0.000000
Si Si3 0.736148 0.235052 0.895439
Si Si4 0.140694 0.236015 0.121266
Si Si5 0.693679 0.576899 0.596030
Si Si6 0.135101 0.826167 0.867080
O O1 0.497752 0.808377 0.900921
O O2 0.610362 0.544048 0.645556
O O3 0.459672 0.702589 0.769032
O O4 0.443019 0.388385 0.937141
O O5 0.088737 0.625509 0.866585
O O6 0.694706 0.499194 0.994753
O O7 0.720744 0.239067 0.800918
O O8 0.680603 0.995193 0.018420
O O9 0.833447 0.224964 0.801341
O O10 0.758019 0.338471 0.491769
O O11 0.656713 0.557348 0.763976
#
# Coordination Sequence:
#
# PCOD9129286 Si02
#       6
#     4   2   4   4   4   4
#     4  11  21  35  59  83 112 152 191 232 280 341
#     4  12  16  32  60  84 112 142 198 224 278 334
#     4   9  18  31  52  84 112 137 179 238 284 319
#     4   9  18  31  52  84 112 137 179 238 284 319
#     4  12  26  38  53  85 124 152 186 232 288 340
#     4  11  21  35  59  83 112 152 191 232 280 341
#
# _framework density 20.346643
#
# number of rings (size 3 to 8) (size 9 to 14) (size 15 to 20)
#    0.000    1.455    5.455    1.091    0.000    0.000 
#    0.000    0.000    0.000    1.091    0.000    7.636 
#    0.000    0.000    0.000    0.000    0.000    0.000 
#
# Total GULP energy -61300.537363 kJ/mol
# GULP energy per Si atom -5572.776124 kJ/mol
# Density = 2.030033 g / cm^3
# Si number density = 20.346643 Si / 1000 Ang^3
#
#
#
# Elastic Constant Matrix: (Units=GPa)
#
#
# Indices 1 2 3 4 5 6 
#
# 1 209.7827 13.7642 23.9384 0.0003 -39.8313 0.0001
# 2 13.7642 96.8294 13.9043 0.0010 -5.2795 0.0086
# 3 23.9384 13.9043 39.6032 0.0002 -17.8885 0.0004
# 4 0.0003 0.0010 0.0002 27.7255 0.0003 -2.1956
# 5 -39.8313 -5.2795 -17.8885 0.0003 20.8255 0.0002
# 6 0.0001 0.0086 0.0004 -2.1956 0.0002 32.3248
#
#
#
# Elastic Compliance Matrix: (Units=1/GPa)
#
#
# Indices 1 2 3 4 5 6 
#
# 1 0.007776 -0.000647 0.003546 0.000000 0.017754 0.000000
# 2 -0.000647 0.010939 -0.004503 -0.000001 -0.002331 -0.000003
# 3 0.003546 -0.004503 0.044503 -0.000001 0.043868 0.000000
# 4 0.000000 -0.000001 -0.000001 0.036263 -0.000002 0.002463
# 5 0.017754 -0.002331 0.043868 -0.000002 0.119065 -0.000001
# 6 0.000000 -0.000003 0.000000 0.002463 -0.000001 0.031103
#
#
# Mechanical properties :
#
#
# Convention : Reuss Voigt Hill
#
# Bulk Modulus (GPa) = 16.66350 49.93658 33.30004
# Shear Modulus (GPa) = 18.32457 35.81571 27.07014
#
# Velocity S-wave (km/s) = 3.00429 4.20012 3.65149
# Velocity P-wave (km/s) = 4.49910 6.93668 5.84634
#
# Compressibility (1/GPa) = 0.06001140
#
# Stress axis : x y z
#
# Youngs Moduli (GPa) = 128.60883 91.41771 22.47062
#
# Poissons Ratio (x) = 0.05910 -0.07969
# Poissons Ratio (y) = 0.08315 0.10118
# Poissons Ratio (z) = -0.45610 0.41162
#
# Static dielectric constant tensor:
#      x y z
#    x 1.792440 0.000000 -0.023500 
#    y 0.000000 1.753830 0.000000 
#    z -0.023500 0.000000 1.768810 
# 
# From -- ./inp_files/57376.got.cif
#   From: 2010.05.17/outbox.cif.g08.bks.cpg/sg5_29_cif.got.tgz:57376.got - 2010.06.03 18:56:24.
