data_PCOD9129425
_publ_section_title
;
Structure prediction by ZEFSAII (Michael W. Deem and Ramdas Pophale) SiO2 
 PCOD9129425
Probable space group: C 2
;
_chemical_formula_sum "Si O2"
_cell_formula_units_Z 22
_cell_length_a 19.507595
_cell_length_b 9.182415
_cell_length_c 5.768736
_cell_angle_alpha 90.000000
_cell_angle_beta 116.730982
_cell_angle_gamma 90.000000
_cell_volume 922.901092
_symmetry_space_group_name_H-M "C 2"
_symmetry_group_IT_number 5
_symmetry_cell_setting 'monoclinic'
loop_
_space_group_symop_operation_xyz
x,y,z
-x,y,-z
1/2+x,1/2+y,z
1/2-x,1/2+y,-z
loop_
_atom_site_type_symbol
_atom_site_label
_atom_site_fract_x
_atom_site_fract_y
_atom_site_fract_z
Si Si1 0.000000 0.744480 0.500000
Si Si2 0.713054 0.192848 0.430595
Si Si3 0.632363 0.007714 0.662510
Si Si4 0.897218 0.897649 0.020243
Si Si5 0.000000 0.116932 0.000000
Si Si6 0.725712 0.470681 0.779308
Si Si7 0.500000 0.773983 0.500000
O O1 0.074663 0.644800 0.591876
O O2 0.022365 0.841609 0.751908
O O3 0.678661 0.049336 0.502403
O O4 0.731655 0.319357 0.643908
O O5 0.778939 0.120235 0.375261
O O6 0.649701 0.270101 0.173975
O O7 0.575750 0.872731 0.584993
O O8 0.696160 0.990394 0.955713
O O9 0.844688 0.954919 0.150171
O O10 0.921544 0.023149 0.882968
O O11 0.005474 0.195176 0.757973
#
# Coordination Sequence:
#
# PCOD9129425 Si02
#       7
#     2   4   4   4   2   4   2
#     4  11  21  52  82 116 155 215 278 346 419 499
#     4  12  26  49  84 117 161 223 271 353 418 509
#     4  11  26  51  79 113 164 208 282 345 424 495
#     4  12  27  51  81 116 165 215 284 345 422 505
#     4  12  30  52  78 120 164 220 278 352 430 504
#     4  12  27  51  76 126 159 222 277 348 417 506
#     4  11  31  52  80 122 165 223 278 362 423 515
#
# _framework density 23.837872000000001
#
# number of rings (size 3 to 8) (size 9 to 14) (size 15 to 20)
#    0.000    0.364    3.636    2.727    5.091    5.818 
#    3.273    0.000    0.000    0.000    0.000    0.000 
#    0.000    0.000    0.000    0.000    0.000    0.000 
#
# Total GULP energy -61531.188558 kJ/mol
# GULP energy per Si atom -5593.744414 kJ/mol
# Density = 2.378362 g / cm^3
# Si number density = 23.837872 Si / 1000 Ang^3
#
#
#
# Elastic Constant Matrix: (Units=GPa)
#
#
# Indices 1 2 3 4 5 6 
#
# 1 113.1093 84.2009 76.3762 0.0000 -10.8627 0.0000
# 2 84.2009 120.1289 69.8706 0.0000 -19.5994 0.0000
# 3 76.3762 69.8706 151.1030 0.0000 -4.9945 0.0000
# 4 0.0000 0.0000 0.0000 20.7418 0.0000 4.2115
# 5 -10.8627 -19.5994 -4.9945 0.0000 41.5994 0.0000
# 6 0.0000 0.0000 0.0000 4.2115 0.0000 48.3930
#
#
#
# Elastic Compliance Matrix: (Units=1/GPa)
#
#
# Indices 1 2 3 4 5 6 
#
# 1 0.021164 -0.011922 -0.005209 0.000000 -0.000716 0.000000
# 2 -0.011922 0.019121 -0.002632 0.000000 0.005580 0.000000
# 3 -0.005209 -0.002632 0.010423 0.000000 -0.001349 0.000000
# 4 0.000000 0.000000 0.000000 0.049079 0.000000 -0.004271
# 5 -0.000716 0.005580 -0.001349 0.000000 0.026319 0.000000
# 6 0.000000 0.000000 0.000000 -0.004271 0.000000 0.021036
#
#
# Mechanical properties :
#
#
# Convention : Reuss Voigt Hill
#
# Bulk Modulus (GPa) = 89.40519 93.91517 91.66018
# Shear Modulus (GPa) = 26.26130 32.40641 29.33386
#
# Velocity S-wave (km/s) = 3.32273 3.69107 3.51174
# Velocity P-wave (km/s) = 7.23240 7.59265 7.41472
#
# Compressibility (1/GPa) = 0.01118503
#
# Stress axis : x y z
#
# Youngs Moduli (GPa) = 47.25003 52.29720 95.94196
#
# Poissons Ratio (x) = 0.62347 0.49972
# Poissons Ratio (y) = 0.56330 0.25247
# Poissons Ratio (z) = 0.24611 0.13762
#
# Static dielectric constant tensor:
#      x y z
#    x 1.971190 0.000000 -0.074720 
#    y 0.000000 1.940270 0.000000 
#    z -0.074720 0.000000 1.969120 
# 
# From -- ./inp_files/9275.got.cif
#   From: 2010.05.17/outbox.cif.g08.bks.cpg/sg5_5_cif.got.tgz:9275.got - 2010.06.03 18:56:24.
