data_PCOD9129920
_publ_section_title
;
Structure prediction by ZEFSAII (Michael W. Deem and Ramdas Pophale) SiO2 
 PCOD9129920
Probable space group: C 2
;
_chemical_formula_sum "Si O2"
_cell_formula_units_Z 16
_cell_length_a 14.385146
_cell_length_b 7.631039
_cell_length_c 11.249106
_cell_angle_alpha 90.000000
_cell_angle_beta 28.552890
_cell_angle_gamma 90.000000
_cell_volume 590.223382
_symmetry_space_group_name_H-M "C 2"
_symmetry_group_IT_number 5
_symmetry_cell_setting 'monoclinic'
loop_
_space_group_symop_operation_xyz
x,y,z
-x,y,-z
1/2+x,1/2+y,z
1/2-x,1/2+y,-z
loop_
_atom_site_type_symbol
_atom_site_label
_atom_site_fract_x
_atom_site_fract_y
_atom_site_fract_z
Si Si1 0.269466 0.082230 0.247106
Si Si2 0.379453 0.958913 0.536268
Si Si3 0.462285 0.498680 0.253799
Si Si4 0.720024 0.831125 0.984814
O O1 0.188215 0.278310 0.324198
O O2 0.173881 0.023510 0.478451
O O3 0.500000 0.086365 0.000000
O O4 0.223971 0.951998 0.190019
O O5 0.500000 0.065782 0.500000
O O6 0.181383 0.017712 0.695877
O O7 0.534556 0.915665 0.259958
O O8 0.589900 0.327137 0.143335
O O9 0.629381 0.644569 0.054033
#
# Coordination Sequence:
#
# PCOD9129920 Si02
#       4
#     4   4   4   4
#     4  11  23  49  83 108 157 204 252 328 386 453
#     4  11  26  47  78 116 154 209 255 315 393 457
#     4  11  26  48  84 117 155 204 263 314 394 462
#     4  11  25  50  80 118 151 208 257 326 384 457
#
# _framework density 27.10838
#
# number of rings (size 3 to 8) (size 9 to 14) (size 15 to 20)
#    0.000    1.000    2.500    3.750    7.000    0.000 
#    4.500    0.000    0.000    0.000    0.000    0.000 
#    0.000    0.000    0.000    0.000    0.000    0.000 
#
# Total GULP energy -44861.227722 kJ/mol
# GULP energy per Si atom -5607.653465 kJ/mol
# Density = 2.704668 g / cm^3
# Si number density = 27.108380 Si / 1000 Ang^3
#
#
#
# Elastic Constant Matrix: (Units=GPa)
#
#
# Indices 1 2 3 4 5 6 
#
# 1 223.8121 50.7370 75.4372 0.0000 -42.9742 0.0000
# 2 50.7370 87.9567 41.8916 0.0000 -4.9804 0.0000
# 3 75.4372 41.8916 191.7114 0.0000 -12.4617 0.0000
# 4 0.0000 0.0000 0.0000 45.3382 0.0000 0.3080
# 5 -42.9742 -4.9804 -12.4617 0.0000 83.0374 0.0000
# 6 0.0000 0.0000 0.0000 0.3080 0.0000 32.6793
#
#
#
# Elastic Compliance Matrix: (Units=1/GPa)
#
#
# Indices 1 2 3 4 5 6 
#
# 1 0.006154 -0.002595 -0.001674 0.000000 0.002778 0.000000
# 2 -0.002595 0.013794 -0.002047 0.000000 -0.000823 0.000000
# 3 -0.001674 -0.002047 0.006319 0.000000 -0.000041 0.000000
# 4 0.000000 0.000000 0.000000 0.022058 0.000000 -0.000208
# 5 0.002778 -0.000823 -0.000041 0.000000 0.013425 0.000000
# 6 0.000000 0.000000 0.000000 -0.000208 0.000000 0.030602
#
#
# Mechanical properties :
#
#
# Convention : Reuss Voigt Hill
#
# Bulk Modulus (GPa) = 73.33340 93.29018 83.31179
# Shear Modulus (GPa) = 45.64964 54.57193 50.11079
#
# Velocity S-wave (km/s) = 4.10807 4.49163 4.30412
# Velocity P-wave (km/s) = 7.04360 7.83506 7.44985
#
# Compressibility (1/GPa) = 0.01363635
#
# Stress axis : x y z
#
# Youngs Moduli (GPa) = 162.49675 72.49304 158.24349
#
# Poissons Ratio (x) = 0.18814 0.26488
# Poissons Ratio (y) = 0.42173 0.32385
# Poissons Ratio (z) = 0.27200 0.14836
#
# Static dielectric constant tensor:
#      x y z
#    x 2.207170 0.000000 0.017690 
#    y 0.000000 2.238280 0.000000 
#    z 0.017690 0.000000 2.037420 
# 
# From -- ./inp_files/41215.got.cif
#   From: 2010.05.17/outbox.cif.g08.bks.cpg/sg5_21_cif.got.tgz:41215.got - 2010.06.03 18:56:24.
