data_PCOD9129402
_publ_section_title
;
Structure prediction by ZEFSAII (Michael W. Deem and Ramdas Pophale) SiO2 
 PCOD9129402
Probable space group: C 2
;
_chemical_formula_sum "Si O2"
_cell_formula_units_Z 26
_cell_length_a 15.432810
_cell_length_b 6.553547
_cell_length_c 20.862265
_cell_angle_alpha 90.000000
_cell_angle_beta 31.374766
_cell_angle_gamma 90.000000
_cell_volume 1098.538118
_symmetry_space_group_name_H-M "C 2"
_symmetry_group_IT_number 5
_symmetry_cell_setting 'monoclinic'
loop_
_space_group_symop_operation_xyz
x,y,z
-x,y,-z
1/2+x,1/2+y,z
1/2-x,1/2+y,-z
loop_
_atom_site_type_symbol
_atom_site_label
_atom_site_fract_x
_atom_site_fract_y
_atom_site_fract_z
Si Si1 0.885043 0.056130 0.234689
Si Si2 0.500000 0.560851 0.500000
Si Si3 0.344154 0.214114 0.520547
Si Si4 0.562490 0.943424 0.067741
Si Si5 0.239667 0.716702 0.764227
Si Si6 0.985381 0.399660 0.332134
Si Si7 0.381698 0.228965 0.851603
O O1 0.714611 0.119815 0.375418
O O2 0.983874 0.261839 0.159375
O O3 0.851419 0.931796 0.191251
O O4 0.984249 0.904757 0.218981
O O5 0.438452 0.419364 0.480316
O O6 0.343418 0.673311 0.632369
O O7 0.178577 0.280721 0.586739
O O8 0.441329 0.043982 0.420075
O O9 0.404791 0.051518 0.134566
O O10 0.641541 0.112734 0.065510
O O11 0.712021 0.834942 0.936000
O O12 0.370266 0.745026 0.738262
O O13 0.048525 0.557791 0.239199
#
# Coordination Sequence:
#
# PCOD9129402 Si02
#       7
#     4   2   4   4   4   4   4
#     4  11  21  44  72  98 131 186 231 281 339 433
#     4  12  22  44  72  98 140 192 228 282 340 446
#     4  12  23  42  72 103 142 180 229 282 365 414
#     4  11  22  44  76  97 130 193 241 286 330 436
#     4  11  25  42  69 105 141 178 235 285 357 417
#     4  12  25  42  68 112 145 177 225 305 357 414
#     4  11  23  43  76 101 133 181 245 289 347 403
#
# _framework density 23.667816999999999
#
# number of rings (size 3 to 8) (size 9 to 14) (size 15 to 20)
#    0.000    0.615    4.615    4.615    0.000    0.000 
#    0.000    0.769    6.769    0.000    0.000    0.000 
#    0.000    0.000    0.000    0.000    0.000    0.000 
#
# Total GULP energy -72777.786632 kJ/mol
# GULP energy per Si atom -5598.291279 kJ/mol
# Density = 2.361395 g / cm^3
# Si number density = 23.667817 Si / 1000 Ang^3
#
#
#
# Elastic Constant Matrix: (Units=GPa)
#
#
# Indices 1 2 3 4 5 6 
#
# 1 91.5150 30.3002 6.1578 0.0000 -36.9714 0.0000
# 2 30.3002 101.7779 17.0646 0.0001 -23.2391 0.0000
# 3 6.1578 17.0646 54.3855 0.0001 -26.3481 0.0000
# 4 0.0000 0.0001 0.0001 39.0635 0.0000 -11.3458
# 5 -36.9714 -23.2391 -26.3481 0.0000 32.8631 0.0000
# 6 0.0000 0.0000 0.0000 -11.3458 0.0000 41.8498
#
#
#
# Elastic Compliance Matrix: (Units=1/GPa)
#
#
# Indices 1 2 3 4 5 6 
#
# 1 0.030092 -0.001076 0.021196 0.000000 0.050087 0.000000
# 2 -0.001076 0.011766 -0.000205 0.000000 0.006945 0.000000
# 3 0.021196 -0.000205 0.045021 0.000000 0.059797 0.000000
# 4 0.000000 0.000000 0.000000 0.027787 0.000000 0.007533
# 5 0.050087 0.006945 0.059797 0.000000 0.139631 0.000000
# 6 0.000000 0.000000 0.000000 0.007533 0.000000 0.025937
#
#
# Mechanical properties :
#
#
# Convention : Reuss Voigt Hill
#
# Bulk Modulus (GPa) = 7.89211 39.41373 23.65292
# Shear Modulus (GPa) = 17.69022 35.69901 26.69461
#
# Velocity S-wave (km/s) = 2.73690 3.88794 3.36205
# Velocity P-wave (km/s) = 3.65092 6.06991 5.00865
#
# Compressibility (1/GPa) = 0.12670883
#
# Stress axis : x y z
#
# Youngs Moduli (GPa) = 33.23143 84.99171 22.21162
#
# Poissons Ratio (x) = 0.09146 -0.47080
# Poissons Ratio (y) = 0.03576 0.00456
# Poissons Ratio (z) = -0.70438 0.01745
#
# Static dielectric constant tensor:
#      x y z
#    x 1.902020 0.000000 0.000350 
#    y 0.000000 1.879920 0.000000 
#    z 0.000350 0.000000 1.898340 
# 
# From -- ./inp_files/68983.got.cif
#   From: 2010.05.17/outbox.cif.g08.bks.cpg/sg5_35_cif.got.tgz:68983.got - 2010.06.03 18:56:24.
