data_PCOD9129579
_publ_section_title
;
Structure prediction by ZEFSAII (Michael W. Deem and Ramdas Pophale) SiO2 
 PCOD9129579
Probable space group: C 2
;
_chemical_formula_sum "Si O2"
_cell_formula_units_Z 26
_cell_length_a 25.773549
_cell_length_b 9.213547
_cell_length_c 11.200337
_cell_angle_alpha 90.000000
_cell_angle_beta 27.962975
_cell_angle_gamma 90.000000
_cell_volume 1247.134329
_symmetry_space_group_name_H-M "C 2"
_symmetry_group_IT_number 5
_symmetry_cell_setting 'monoclinic'
loop_
_space_group_symop_operation_xyz
x,y,z
-x,y,-z
1/2+x,1/2+y,z
1/2-x,1/2+y,-z
loop_
_atom_site_type_symbol
_atom_site_label
_atom_site_fract_x
_atom_site_fract_y
_atom_site_fract_z
Si Si1 0.000000 0.388891 0.000000
Si Si2 0.525676 0.035746 0.695098
Si Si3 0.710631 0.699411 0.574182
Si Si4 0.268350 0.209790 0.723270
Si Si5 0.022440 0.231072 0.316319
Si Si6 0.392144 0.508211 0.420154
Si Si7 0.430413 0.290388 0.021948
O O1 0.963998 0.470764 0.192213
O O2 0.896579 0.291281 0.175443
O O3 0.637357 0.105410 0.416810
O O4 0.488244 0.901630 0.692185
O O5 0.445127 0.171277 0.887539
O O6 0.760629 0.661569 0.600319
O O7 0.672079 0.573151 0.563410
O O8 0.803537 0.792333 0.316661
O O9 0.317142 0.375492 0.623599
O O10 0.148680 0.193565 0.024437
O O11 0.000000 0.203248 0.500000
O O12 0.931942 0.138621 0.424586
O O13 0.507706 0.434915 0.144337
O O14 0.500000 0.247853 0.000000
#
# Coordination Sequence:
#
# PCOD9129579 Si02
#       7
#     2   4   4   4   4   4   4
#     4  12  22  34  62 108 134 172 210 256 346 410
#     4  11  22  44  62 100 133 167 220 265 336 403
#     4  12  22  37  67 101 146 166 205 266 341 418
#     4  11  25  41  69  95 136 171 211 283 337 397
#     4  12  28  47  67  90 127 183 241 279 318 376
#     4  11  26  42  64 105 133 172 224 263 340 406
#     4  11  23  38  66 105 140 169 207 260 345 418
#
# _framework density 20.847794
#
# number of rings (size 3 to 8) (size 9 to 14) (size 15 to 20)
#    0.000    0.615    6.923    0.923    7.538    1.231 
#    0.000    3.077    0.000    0.000    0.000    0.000 
#    0.000    0.000    0.000    0.000    0.000    0.000 
#
# Total GULP energy -72625.864997 kJ/mol
# GULP energy per Si atom -5586.605000 kJ/mol
# Density = 2.080034 g / cm^3
# Si number density = 20.847794 Si / 1000 Ang^3
#
#
#
# Elastic Constant Matrix: (Units=GPa)
#
#
# Indices 1 2 3 4 5 6 
#
# 1 44.5714 27.7661 33.1646 0.0000 6.6615 0.0000
# 2 27.7661 67.2636 21.4829 0.0000 -7.7728 0.0000
# 3 33.1646 21.4829 118.9485 0.0000 -16.4372 0.0000
# 4 0.0000 0.0000 0.0000 15.1060 0.0000 -19.7536
# 5 6.6615 -7.7728 -16.4372 0.0000 27.5937 0.0000
# 6 0.0000 0.0000 0.0000 -19.7536 0.0000 -18.2595
#
#
#
# Elastic Compliance Matrix: (Units=1/GPa)
#
#
# Indices 1 2 3 4 5 6 
#
# 1 0.047213 -0.018069 -0.013271 0.000000 -0.024393 0.000000
# 2 -0.018069 0.022923 0.002608 0.000000 0.012373 0.000000
# 3 -0.013271 0.002608 0.013273 0.000000 0.011845 0.000000
# 4 0.000000 0.000000 0.000000 0.027415 0.000000 -0.029659
# 5 -0.024393 0.012373 0.011845 0.000000 0.052670 0.000000
# 6 0.000000 0.000000 0.000000 -0.029659 0.000000 -0.022680
#
#
# Mechanical properties :
#
#
# Convention : Reuss Voigt Hill
#
# Bulk Modulus (GPa) = 38.54578 43.95673 41.25126
# Shear Modulus (GPa) = 24.16324 14.77937 19.47130
#
# Velocity S-wave (km/s) = 3.40815 2.66544 3.05941
# Velocity P-wave (km/s) = 5.83237 5.53201 5.68418
#
# Compressibility (1/GPa) = 0.02594318
#
# Stress axis : x y z
#
# Youngs Moduli (GPa) = 21.18078 43.62495 75.34106
#
# Poissons Ratio (x) = 0.78827 0.99985
# Poissons Ratio (y) = 0.38272 -0.19647
# Poissons Ratio (z) = 0.28109 -0.11376
#
# Static dielectric constant tensor:
#      x y z
#    x 1.751560 0.000000 -0.030850 
#    y 0.000000 1.823450 0.000000 
#    z -0.030850 0.000000 1.741300 
# 
# From -- ./inp_files/47914.got.cif
#   From: 2010.05.17/outbox.cif.g08.bks.cpg/sg5_24_cif.got.tgz:47914.got - 2010.06.03 18:56:24.
