data_PCOD9129440
_publ_section_title
;
Structure prediction by ZEFSAII (Michael W. Deem and Ramdas Pophale) SiO2 
 PCOD9129440
Probable space group: C 2
;
_chemical_formula_sum "Si O2"
_cell_formula_units_Z 32
_cell_length_a 29.414992
_cell_length_b 9.634051
_cell_length_c 5.218799
_cell_angle_alpha 90.000000
_cell_angle_beta 93.648693
_cell_angle_gamma 90.000000
_cell_volume 1475.934349
_symmetry_space_group_name_H-M "C 2"
_symmetry_group_IT_number 5
_symmetry_cell_setting 'monoclinic'
loop_
_space_group_symop_operation_xyz
x,y,z
-x,y,-z
1/2+x,1/2+y,z
1/2-x,1/2+y,-z
loop_
_atom_site_type_symbol
_atom_site_label
_atom_site_fract_x
_atom_site_fract_y
_atom_site_fract_z
Si Si1 0.240095 0.273150 0.295252
Si Si2 0.134096 0.457667 0.839490
Si Si3 0.810373 0.838488 0.685974
Si Si4 0.471035 0.313693 0.730209
Si Si5 0.602598 0.482562 0.543470
Si Si6 0.759689 0.520481 0.026574
Si Si7 0.634524 0.779708 0.353244
Si Si8 0.391120 0.251502 0.032094
O O1 0.280427 0.235798 0.503011
O O2 0.247033 0.181218 0.043244
O O3 0.189016 0.252816 0.369043
O O4 0.247813 0.435044 0.235228
O O5 0.123261 0.348048 0.069279
O O6 0.188381 0.486397 0.883695
O O7 0.125036 0.393117 0.562646
O O8 0.108240 0.604662 0.829033
O O9 0.851233 0.909630 0.543066
O O10 0.776054 0.949601 0.792277
O O11 0.839726 0.765247 0.914798
O O12 0.500000 0.256594 0.500000
O O13 0.445387 0.448100 0.609532
O O14 0.500000 0.332510 0.000000
O O15 0.426579 0.231930 0.812251
O O16 0.611748 0.641274 0.464426
O O17 0.598207 0.396458 0.813194
#
# Coordination Sequence:
#
# PCOD9129440 Si02
#       8
#     4   4   4   4   4   4   4   4
#     4  11  24  41  57  90 134 196 246 300 337 407
#     4  11  26  43  64  99 144 195 233 286 350 420
#     4  11  22  37  64  93 134 186 245 294 336 390
#     4  11  24  46  79 116 134 167 226 303 369 432
#     4  11  24  44  74 105 139 181 239 295 354 425
#     4  11  22  38  59  85 136 190 246 291 333 396
#     4  11  26  43  65  98 146 192 238 284 354 416
#     4  11  26  44  74 104 141 179 243 295 358 426
#
# _framework density 21.681183000000001
#
# number of rings (size 3 to 8) (size 9 to 14) (size 15 to 20)
#    0.000    1.000    3.750    2.250    8.750    3.000 
#    2.250    0.000    0.000    3.000    0.000    0.000 
#    0.000    0.000    0.000    0.000    0.000    0.000 
#
# Total GULP energy -89183.709934 kJ/mol
# GULP energy per Si atom -5573.981871 kJ/mol
# Density = 2.163184 g / cm^3
# Si number density = 21.681183 Si / 1000 Ang^3
#
#
#
# Elastic Constant Matrix: (Units=GPa)
#
#
# Indices 1 2 3 4 5 6 
#
# 1 68.8631 14.9345 30.3983 0.0000 -15.0017 0.0000
# 2 14.9345 82.3504 16.5446 0.0000 -13.5818 0.0000
# 3 30.3983 16.5446 94.9041 0.0000 -8.6972 0.0000
# 4 0.0000 0.0000 0.0000 20.8804 0.0000 1.1131
# 5 -15.0017 -13.5818 -8.6972 0.0000 44.4957 0.0000
# 6 0.0000 0.0000 0.0000 1.1131 0.0000 7.6827
#
#
#
# Elastic Compliance Matrix: (Units=1/GPa)
#
#
# Indices 1 2 3 4 5 6 
#
# 1 0.018117 -0.001490 -0.005117 0.000000 0.004653 0.000000
# 2 -0.001490 0.013257 -0.001537 0.000000 0.003244 0.000000
# 3 -0.005117 -0.001537 0.012466 0.000000 0.000242 0.000000
# 4 0.000000 0.000000 0.000000 0.048265 0.000000 -0.006993
# 5 0.004653 0.003244 0.000242 0.000000 0.025080 0.000000
# 6 0.000000 0.000000 0.000000 -0.006993 0.000000 0.131176
#
#
# Mechanical properties :
#
#
# Convention : Reuss Voigt Hill
#
# Bulk Modulus (GPa) = 36.29336 41.09695 38.69515
# Shear Modulus (GPa) = 18.25928 26.89443 22.57685
#
# Velocity S-wave (km/s) = 2.90517 3.52582 3.23044
# Velocity P-wave (km/s) = 5.29426 5.96419 5.63918
#
# Compressibility (1/GPa) = 0.02755325
#
# Stress axis : x y z
#
# Youngs Moduli (GPa) = 55.19633 75.43088 80.21826
#
# Poissons Ratio (x) = 0.11241 0.41046
# Poissons Ratio (y) = 0.08225 0.12326
# Poissons Ratio (z) = 0.28243 0.11590
#
# Static dielectric constant tensor:
#      x y z
#    x 1.769530 0.000000 -0.013160 
#    y 0.000000 1.874170 0.000000 
#    z -0.013160 0.000000 1.890460 
# 
# From -- ./inp_files/11241.got.cif
#   From: 2010.05.17/outbox.cif.g08.bks.cpg/sg5_6_cif.got.tgz:11241.got - 2010.06.03 18:56:24.
