data_PCOD9129250
_publ_section_title
;
Structure prediction by ZEFSAII (Michael W. Deem and Ramdas Pophale) SiO2 
 PCOD9129250
Probable space group: C 2
;
_chemical_formula_sum "Si O2"
_cell_formula_units_Z 20
_cell_length_a 21.551335
_cell_length_b 9.172029
_cell_length_c 5.119110
_cell_angle_alpha 90.000000
_cell_angle_beta 74.508699
_cell_angle_gamma 90.000000
_cell_volume 975.130759
_symmetry_space_group_name_H-M "C 2"
_symmetry_group_IT_number 5
_symmetry_cell_setting 'monoclinic'
loop_
_space_group_symop_operation_xyz
x,y,z
-x,y,-z
1/2+x,1/2+y,z
1/2-x,1/2+y,-z
loop_
_atom_site_type_symbol
_atom_site_label
_atom_site_fract_x
_atom_site_fract_y
_atom_site_fract_z
Si Si1 0.543249 0.540980 0.205737
Si Si2 0.326483 0.689238 0.816293
Si Si3 0.200910 0.524566 0.194678
Si Si4 0.701070 0.465133 0.537793
Si Si5 0.857572 0.804407 0.885924
O O1 0.500000 0.581311 0.500000
O O2 0.607325 0.639277 0.126408
O O3 0.572898 0.379035 0.211332
O O4 0.500000 0.548443 0.000000
O O5 0.315508 0.859528 0.858288
O O6 0.329410 0.620436 0.518358
O O7 0.264093 0.605996 0.003754
O O8 0.225635 0.503782 0.466803
O O9 0.145236 0.632917 0.162573
O O10 0.685192 0.366214 0.306255
O O11 0.672122 0.369816 0.811147
#
# Coordination Sequence:
#
# PCOD9129250 Si02
#       5
#     4   4   4   4   4
#     4  11  23  44  64  85 125 174 224 257 311 385
#     4  11  23  40  69  98 133 169 214 268 329 386
#     4  12  22  42  66 103 134 162 211 274 336 386
#     4  11  20  41  60  97 133 163 204 257 336 387
#     4  11  24  41  65  96 127 173 213 265 324 385
#
# _framework density 20.510071
#
# number of rings (size 3 to 8) (size 9 to 14) (size 15 to 20)
#    0.000    0.800    6.000    3.600    0.000    0.000 
#    0.000    2.000    0.000    0.000    0.000    0.000 
#    0.000    0.000    0.000    0.000    0.000    0.000 
#
# Total GULP energy -55710.128308 kJ/mol
# GULP energy per Si atom -5571.012831 kJ/mol
# Density = 2.046339 g / cm^3
# Si number density = 20.510071 Si / 1000 Ang^3
#
#
#
# Elastic Constant Matrix: (Units=GPa)
#
#
# Indices 1 2 3 4 5 6 
#
# 1 136.6976 60.6148 35.4851 0.0000 19.1452 0.0000
# 2 60.6148 205.1751 36.0832 0.0000 11.0944 0.0000
# 3 35.4851 36.0832 109.6870 0.0000 23.5583 0.0000
# 4 0.0000 0.0000 0.0000 19.8023 0.0000 -10.3582
# 5 19.1452 11.0944 23.5583 0.0000 33.2952 0.0000
# 6 0.0000 0.0000 0.0000 -10.3582 0.0000 55.3015
#
#
#
# Elastic Compliance Matrix: (Units=1/GPa)
#
#
# Indices 1 2 3 4 5 6 
#
# 1 0.009193 -0.002267 -0.001480 0.000000 -0.003483 0.000000
# 2 -0.002267 0.005743 -0.001208 0.000000 0.000245 0.000000
# 3 -0.001480 -0.001208 0.011466 0.000000 -0.006859 0.000000
# 4 0.000000 0.000000 0.000000 0.055984 0.000000 0.010486
# 5 -0.003483 0.000245 -0.006859 0.000000 0.036809 0.000000
# 6 0.000000 0.000000 0.000000 0.010486 0.000000 0.020047
#
#
# Mechanical properties :
#
#
# Convention : Reuss Voigt Hill
#
# Bulk Modulus (GPa) = 60.63922 79.54730 70.09326
# Shear Modulus (GPa) = 32.33094 42.97156 37.65125
#
# Velocity S-wave (km/s) = 3.97463 4.58224 4.28921
# Velocity P-wave (km/s) = 7.11992 8.17708 7.66674
#
# Compressibility (1/GPa) = 0.01649098
#
# Stress axis : x y z
#
# Youngs Moduli (GPa) = 108.78088 174.12666 87.21107
#
# Poissons Ratio (x) = 0.39478 0.12907
# Poissons Ratio (y) = 0.24663 0.10539
# Poissons Ratio (z) = 0.16100 0.21041
#
# Static dielectric constant tensor:
#      x y z
#    x 1.718120 0.000000 0.034290 
#    y 0.000000 1.796430 0.000000 
#    z 0.034290 0.000000 1.834700 
# 
# From -- ./inp_files/10032.got.cif
#   From: 2010.05.17/outbox.cif.g08.bks.cpg/sg5_6_cif.got.tgz:10032.got - 2010.06.03 18:56:24.
