data_PCOD9129914
_publ_section_title
;
Structure prediction by ZEFSAII (Michael W. Deem and Ramdas Pophale) SiO2 
 PCOD9129914
Probable space group: C 2
;
_chemical_formula_sum "Si O2"
_cell_formula_units_Z 24
_cell_length_a 20.590220
_cell_length_b 8.305709
_cell_length_c 20.792951
_cell_angle_alpha 90.000000
_cell_angle_beta 161.374285
_cell_angle_gamma 90.000000
_cell_volume 1135.711080
_symmetry_space_group_name_H-M "C 2"
_symmetry_group_IT_number 5
_symmetry_cell_setting 'monoclinic'
loop_
_space_group_symop_operation_xyz
x,y,z
-x,y,-z
1/2+x,1/2+y,z
1/2-x,1/2+y,-z
loop_
_atom_site_type_symbol
_atom_site_label
_atom_site_fract_x
_atom_site_fract_y
_atom_site_fract_z
Si Si1 0.185100 0.975630 0.251190
Si Si2 0.500000 0.704134 0.500000
Si Si3 0.815118 0.812233 0.965269
Si Si4 0.011894 0.819734 0.286795
Si Si5 0.895505 0.470324 0.582919
Si Si6 0.280542 0.493347 0.183838
Si Si7 0.000000 0.252357 0.000000
O O1 0.317975 0.826949 0.348974
O O2 0.281888 0.017629 0.410751
O O3 0.161521 0.133392 0.185956
O O4 0.956596 0.915672 0.051140
O O5 0.411289 0.588581 0.360694
O O6 0.844547 0.628068 0.972867
O O7 0.579914 0.854351 0.737842
O O8 0.879109 0.848427 0.098284
O O9 0.018155 0.630167 0.304455
O O10 0.235793 0.883172 0.479341
O O11 0.923711 0.906552 0.266401
O O12 0.126818 0.366335 0.071299
#
# Coordination Sequence:
#
# PCOD9129914 Si02
#       7
#     4   2   4   4   4   4   2
#     4  11  26  46  73 100 142 195 238 288 367 435
#     4  12  26  46  76 100 152 198 236 290 362 446
#     4  11  23  49  71 102 141 188 240 303 366 424
#     4  11  26  41  74 102 140 184 243 306 358 427
#     4  11  24  45  70 102 139 188 242 301 365 425
#     4  12  26  45  71 109 144 186 242 299 360 427
#     4  12  28  44  72 110 148 188 244 302 352 438
#
# _framework density 21.132135999999999
#
# number of rings (size 3 to 8) (size 9 to 14) (size 15 to 20)
#    0.000    0.667    1.667    5.000    7.000    5.333 
#    0.000    0.000    0.000    0.000    0.000    0.000 
#    0.000    0.000    0.000    0.000    0.000    0.000 
#
# Total GULP energy -67152.594677 kJ/mol
# GULP energy per Si atom -5596.049556 kJ/mol
# Density = 2.108404 g / cm^3
# Si number density = 21.132136 Si / 1000 Ang^3
#
#
#
# Elastic Constant Matrix: (Units=GPa)
#
#
# Indices 1 2 3 4 5 6 
#
# 1 124.2025 52.5967 43.0299 0.0002 11.5669 -0.0002
# 2 52.5967 108.2711 20.6135 0.0011 2.0936 0.0006
# 3 43.0299 20.6135 68.8099 0.0017 14.6930 0.0012
# 4 0.0002 0.0011 0.0017 34.8362 0.0008 1.3467
# 5 11.5669 2.0936 14.6930 0.0008 22.8376 0.0002
# 6 -0.0002 0.0006 0.0012 1.3467 0.0002 52.6753
#
#
#
# Elastic Compliance Matrix: (Units=1/GPa)
#
#
# Indices 1 2 3 4 5 6 
#
# 1 0.012299 -0.004830 -0.005807 0.000000 -0.002051 0.000000
# 2 -0.004830 0.011717 -0.000908 0.000000 0.001956 0.000000
# 3 -0.005807 -0.000908 0.020623 -0.000001 -0.010244 0.000000
# 4 0.000000 0.000000 -0.000001 0.028734 -0.000001 -0.000735
# 5 -0.002051 0.001956 -0.010244 -0.000001 0.051238 0.000000
# 6 0.000000 0.000000 0.000000 -0.000735 0.000000 0.019003
#
#
# Mechanical properties :
#
#
# Convention : Reuss Voigt Hill
#
# Bulk Modulus (GPa) = 46.39908 59.30710 52.85309
# Shear Modulus (GPa) = 28.75444 34.40605 31.58024
#
# Velocity S-wave (km/s) = 3.69276 4.03940 3.86996
# Velocity P-wave (km/s) = 6.33927 7.06268 6.71073
#
# Compressibility (1/GPa) = 0.02155215
#
# Stress axis : x y z
#
# Youngs Moduli (GPa) = 81.30549 85.34427 48.48909
#
# Poissons Ratio (x) = 0.41219 0.28155
# Poissons Ratio (y) = 0.39268 0.04401
# Poissons Ratio (z) = 0.47210 0.07746
#
# Static dielectric constant tensor:
#      x y z
#    x 1.781100 0.000000 0.014980 
#    y 0.000000 1.741370 0.000000 
#    z 0.014980 0.000000 1.766280 
# 
# From -- ./inp_files/67076.got.cif
#   From: 2010.05.17/outbox.cif.g08.bks.cpg/sg5_34_cif.got.tgz:67076.got - 2010.06.03 18:56:24.
