data_PCOD9129067
_publ_section_title
;
Structure prediction by ZEFSAII (Michael W. Deem and Ramdas Pophale) SiO2 
 PCOD9129067
Probable space group: C 2
;
_chemical_formula_sum "Si O2"
_cell_formula_units_Z 20
_cell_length_a 22.910626
_cell_length_b 7.216807
_cell_length_c 7.272899
_cell_angle_alpha 90.000000
_cell_angle_beta 42.610724
_cell_angle_gamma 90.000000
_cell_volume 814.117483
_symmetry_space_group_name_H-M "C 2"
_symmetry_group_IT_number 5
_symmetry_cell_setting 'monoclinic'
loop_
_space_group_symop_operation_xyz
x,y,z
-x,y,-z
1/2+x,1/2+y,z
1/2-x,1/2+y,-z
loop_
_atom_site_type_symbol
_atom_site_label
_atom_site_fract_x
_atom_site_fract_y
_atom_site_fract_z
Si Si1 0.069299 0.402200 0.043478
Si Si2 0.500000 0.253984 0.000000
Si Si3 0.636559 0.558988 0.668783
Si Si4 0.332307 0.454175 0.991384
Si Si5 0.708192 0.055565 0.972680
Si Si6 0.000000 0.185646 0.500000
O O1 0.991546 0.316590 0.342041
O O2 0.047700 0.606748 0.021696
O O3 0.095005 0.254688 0.827306
O O4 0.148425 0.410255 0.005142
O O5 0.569154 0.400833 0.759505
O O6 0.709377 0.584591 0.349686
O O7 0.674837 0.480155 0.773042
O O8 0.245939 0.513023 0.084483
O O9 0.416917 0.562015 0.730016
O O10 0.344647 0.243472 0.903272
#
# Coordination Sequence:
#
# PCOD9129067 Si02
#       6
#     4   2   4   4   4   2
#     4  11  26  49  73 114 144 202 246 305 375 441
#     4  12  26  48  78 110 148 196 250 294 390 430
#     4  11  26  50  74 113 148 190 253 315 353 457
#     4  11  25  48  74 112 147 201 242 310 371 440
#     4  12  26  48  76 106 153 194 251 305 376 432
#     4  10  26  48  72 108 156 182 260 302 360 452
#
# _framework density 24.566476999999999
#
# number of rings (size 3 to 8) (size 9 to 14) (size 15 to 20)
#    0.000    0.800    2.000    4.200    8.400    2.400 
#    7.200    0.000    0.000    0.000    0.000    0.000 
#    0.000    0.000    0.000    0.000    0.000    0.000 
#
# Total GULP energy -56001.869755 kJ/mol
# GULP energy per Si atom -5600.186975 kJ/mol
# Density = 2.451056 g / cm^3
# Si number density = 24.566477 Si / 1000 Ang^3
#
#
#
# Elastic Constant Matrix: (Units=GPa)
#
#
# Indices 1 2 3 4 5 6 
#
# 1 121.2850 12.5783 -11.1779 0.0000 -9.5901 0.0000
# 2 12.5783 160.8730 27.1822 0.0000 -15.4356 0.0000
# 3 -11.1779 27.1822 63.0621 0.0000 0.5903 0.0000
# 4 0.0000 0.0000 0.0000 19.3999 0.0000 -3.0307
# 5 -9.5901 -15.4356 0.5903 0.0000 25.2807 0.0000
# 6 0.0000 0.0000 0.0000 -3.0307 0.0000 45.6068
#
#
#
# Elastic Compliance Matrix: (Units=1/GPa)
#
#
# Indices 1 2 3 4 5 6 
#
# 1 0.008711 -0.000719 0.001828 0.000000 0.002823 0.000000
# 2 -0.000719 0.007232 -0.003284 0.000000 0.004220 0.000000
# 3 0.001828 -0.003284 0.017613 0.000000 -0.001723 0.000000
# 4 0.000000 0.000000 0.000000 0.052088 0.000000 0.003461
# 5 0.002823 0.004220 -0.001723 0.000000 0.043243 0.000000
# 6 0.000000 0.000000 0.000000 0.003461 0.000000 0.022157
#
#
# Mechanical properties :
#
#
# Convention : Reuss Voigt Hill
#
# Bulk Modulus (GPa) = 34.24068 44.70949 39.47509
# Shear Modulus (GPa) = 30.27911 39.16663 34.72287
#
# Velocity S-wave (km/s) = 3.51456 3.99722 3.76363
# Velocity P-wave (km/s) = 5.51704 6.28829 5.91525
#
# Compressibility (1/GPa) = 0.02920503
#
# Stress axis : x y z
#
# Youngs Moduli (GPa) = 114.79390 138.27236 56.77589
#
# Poissons Ratio (x) = 0.09943 -0.10376
# Poissons Ratio (y) = 0.08255 0.18647
# Poissons Ratio (z) = -0.20980 0.45412
#
# Static dielectric constant tensor:
#      x y z
#    x 2.068900 0.000000 -0.020850 
#    y 0.000000 1.956510 0.000000 
#    z -0.020850 0.000000 1.893660 
# 
# From -- ./inp_files/30409.got.cif
#   From: 2010.05.17/outbox.cif.g08.bks.cpg/sg5_16_cif.got.tgz:30409.got - 2010.06.03 18:56:24.
