data_PCOD9129766
_publ_section_title
;
Structure prediction by ZEFSAII (Michael W. Deem and Ramdas Pophale) SiO2 
 PCOD9129766
Probable space group: C 2
;
_chemical_formula_sum "Si O2"
_cell_formula_units_Z 30
_cell_length_a 32.174775
_cell_length_b 8.301308
_cell_length_c 9.385614
_cell_angle_alpha 90.000000
_cell_angle_beta 144.297815
_cell_angle_gamma 90.000000
_cell_volume 1462.915749
_symmetry_space_group_name_H-M "C 2"
_symmetry_group_IT_number 5
_symmetry_cell_setting 'monoclinic'
loop_
_space_group_symop_operation_xyz
x,y,z
-x,y,-z
1/2+x,1/2+y,z
1/2-x,1/2+y,-z
loop_
_atom_site_type_symbol
_atom_site_label
_atom_site_fract_x
_atom_site_fract_y
_atom_site_fract_z
Si Si1 0.891138 0.920700 0.002037
Si Si2 0.500000 0.129473 0.000000
Si Si3 0.042319 0.089461 0.375348
Si Si4 0.606218 0.092270 0.806716
Si Si5 0.617245 0.396431 0.353633
Si Si6 0.262010 0.911704 0.934883
Si Si7 0.177212 0.062664 0.936108
Si Si8 0.499775 0.956900 0.708659
O O1 0.896704 0.754604 0.107905
O O2 0.835028 0.027254 0.933515
O O3 0.868985 0.905256 0.776208
O O4 0.968492 0.002940 0.206365
O O5 0.566155 0.242053 0.227893
O O6 0.481817 0.023887 0.085850
O O7 0.101977 0.027279 0.650734
O O8 0.032677 0.279900 0.367888
O O9 0.071831 0.040241 0.301430
O O10 0.570388 0.956802 0.808275
O O11 0.555376 0.077631 0.526031
O O12 0.685521 0.048337 0.979936
O O13 0.691231 0.391651 0.643487
O O14 0.236512 0.956119 0.022488
O O15 0.303946 0.745577 0.045401
#
# Coordination Sequence:
#
# PCOD9129766 Si02
#       8
#     4   2   4   4   4   4   4   4
#     4  12  24  42  69 100 133 183 221 282 339 404
#     4  12  24  44  66 108 134 182 220 280 354 400
#     4  11  23  43  69 102 133 177 226 282 338 402
#     4  11  24  45  68 103 137 174 235 278 338 407
#     4  11  25  44  68  95 145 177 224 271 351 415
#     4  11  25  46  65  98 136 180 225 281 339 412
#     4  11  25  41  69  95 131 176 231 278 338 402
#     4  11  25  41  72 102 138 174 226 291 332 404
#
# _framework density 20.506992
#
# number of rings (size 3 to 8) (size 9 to 14) (size 15 to 20)
#    0.000    0.800    4.000    2.000   13.067    1.067 
#    0.000    0.000    0.000    0.000    0.000    0.000 
#    0.000    0.000    0.000    0.000    0.000    0.000 
#
# Total GULP energy -83847.078342 kJ/mol
# GULP energy per Si atom -5589.805223 kJ/mol
# Density = 2.046032 g / cm^3
# Si number density = 20.506992 Si / 1000 Ang^3
#
#
#
# Elastic Constant Matrix: (Units=GPa)
#
#
# Indices 1 2 3 4 5 6 
#
# 1 118.4584 15.1874 36.0114 0.0000 -8.0533 0.0000
# 2 15.1874 45.8796 -3.0562 0.0000 -7.3707 0.0000
# 3 36.0114 -3.0562 58.0847 0.0000 9.2792 0.0000
# 4 0.0000 0.0000 0.0000 24.7490 0.0000 -2.8604
# 5 -8.0533 -7.3707 9.2792 0.0000 36.8791 0.0000
# 6 0.0000 0.0000 0.0000 -2.8604 0.0000 30.8217
#
#
#
# Elastic Compliance Matrix: (Units=1/GPa)
#
#
# Indices 1 2 3 4 5 6 
#
# 1 0.011618 -0.003769 -0.008008 0.000000 0.003799 0.000000
# 2 -0.003769 0.023755 0.003084 0.000000 0.003149 0.000000
# 3 -0.008008 0.003084 0.023467 0.000000 -0.007037 0.000000
# 4 0.000000 0.000000 0.000000 0.040844 0.000000 0.003790
# 5 0.003799 0.003149 -0.007037 0.000000 0.030345 0.000000
# 6 0.000000 0.000000 0.000000 0.003790 0.000000 0.032796
#
#
# Mechanical properties :
#
#
# Convention : Reuss Voigt Hill
#
# Bulk Modulus (GPa) = 24.12338 35.41200 29.76769
# Shear Modulus (GPa) = 25.76926 30.10863 27.93895
#
# Velocity S-wave (km/s) = 3.54871 3.83588 3.69509
# Velocity P-wave (km/s) = 5.34604 6.07655 5.72296
#
# Compressibility (1/GPa) = 0.04145357
#
# Stress axis : x y z
#
# Youngs Moduli (GPa) = 86.07620 42.09631 42.61237
#
# Poissons Ratio (x) = 0.15866 0.34123
# Poissons Ratio (y) = 0.32441 -0.13140
# Poissons Ratio (z) = 0.68928 -0.12980
#
# Static dielectric constant tensor:
#      x y z
#    x 1.734520 0.000000 -0.003330 
#    y 0.000000 1.742410 0.000000 
#    z -0.003330 0.000000 1.721810 
# 
# From -- ./inp_files/32535.got.cif
#   From: 2010.05.17/outbox.cif.g08.bks.cpg/sg5_17_cif.got.tgz:32535.got - 2010.06.03 18:56:24.
