data_PCOD9129877
_publ_section_title
;
Structure prediction by ZEFSAII (Michael W. Deem and Ramdas Pophale) SiO2 
 PCOD9129877
Probable space group: C 2
;
_chemical_formula_sum "Si O2"
_cell_formula_units_Z 16
_cell_length_a 8.147243
_cell_length_b 18.217884
_cell_length_c 7.585800
_cell_angle_alpha 90.000000
_cell_angle_beta 34.518134
_cell_angle_gamma 90.000000
_cell_volume 638.025366
_symmetry_space_group_name_H-M "C 2"
_symmetry_group_IT_number 5
_symmetry_cell_setting 'monoclinic'
loop_
_space_group_symop_operation_xyz
x,y,z
-x,y,-z
1/2+x,1/2+y,z
1/2-x,1/2+y,-z
loop_
_atom_site_type_symbol
_atom_site_label
_atom_site_fract_x
_atom_site_fract_y
_atom_site_fract_z
Si Si1 0.376734 0.187380 0.806420
Si Si2 0.389707 0.782077 0.405456
Si Si3 0.203670 0.925775 0.663385
Si Si4 0.796969 0.045006 0.832696
O O1 0.500000 0.183942 0.500000
O O2 0.648424 0.222223 0.662855
O O3 0.119800 0.244759 0.073824
O O4 0.288393 0.108697 0.956272
O O5 0.500000 0.801954 0.500000
O O6 0.268474 0.862133 0.461710
O O7 0.500000 0.953583 0.500000
O O8 0.002730 0.986809 0.749038
O O9 0.000000 0.895071 0.000000
O O10 0.000000 0.077413 0.500000
O O11 0.500000 0.017821 0.000000
#
# Coordination Sequence:
#
# PCOD9129877 Si02
#       4
#     4   4   4   4
#     4  12  26  46  75 109 146 190 248 311 369 436
#     4  11  23  46  76 106 143 192 247 304 370 439
#     4  11  25  47  76 109 151 198 246 304 372 448
#     4  12  27  47  75 110 152 198 247 307 372 445
#
# _framework density 25.077375
#
# number of rings (size 3 to 8) (size 9 to 14) (size 15 to 20)
#    0.000    0.500    0.000    9.750    0.000    6.000 
#    0.000    7.500    0.000    6.000    0.000    0.000 
#    0.000    0.000    0.000    0.000    0.000    0.000 
#
# Total GULP energy -44758.106383 kJ/mol
# GULP energy per Si atom -5594.763298 kJ/mol
# Density = 2.502030 g / cm^3
# Si number density = 25.077375 Si / 1000 Ang^3
#
#
#
# Elastic Constant Matrix: (Units=GPa)
#
#
# Indices 1 2 3 4 5 6 
#
# 1 81.0402 59.9116 52.1356 -0.0001 -16.6951 0.0001
# 2 59.9116 186.5624 89.1722 0.0000 -4.6840 0.0000
# 3 52.1356 89.1722 214.9225 0.0000 0.1392 0.0001
# 4 -0.0001 0.0000 0.0000 51.1526 0.0001 -12.0219
# 5 -16.6951 -4.6840 0.1392 0.0001 55.8201 -0.0001
# 6 0.0001 0.0000 0.0001 -12.0219 -0.0001 27.0663
#
#
#
# Elastic Compliance Matrix: (Units=1/GPa)
#
#
# Indices 1 2 3 4 5 6 
#
# 1 0.018426 -0.004553 -0.002584 0.000000 0.005135 0.000000
# 2 -0.004553 0.007829 -0.002143 0.000000 -0.000699 0.000000
# 3 -0.002584 -0.002143 0.006170 0.000000 -0.000968 0.000000
# 4 0.000000 0.000000 0.000000 0.021828 0.000000 0.009695
# 5 0.005135 -0.000699 -0.000968 0.000000 0.019394 0.000000
# 6 0.000000 0.000000 0.000000 0.009695 0.000000 0.041253
#
#
# Mechanical properties :
#
#
# Convention : Reuss Voigt Hill
#
# Bulk Modulus (GPa) = 72.13109 98.32932 85.23021
# Shear Modulus (GPa) = 36.21040 45.56152 40.88596
#
# Velocity S-wave (km/s) = 3.80405 4.26706 4.04219
# Velocity P-wave (km/s) = 6.93688 7.97324 7.47305
#
# Compressibility (1/GPa) = 0.01386365
#
# Stress axis : x y z
#
# Youngs Moduli (GPa) = 54.27145 127.72568 162.08552
#
# Poissons Ratio (x) = 0.58156 0.41881
# Poissons Ratio (y) = 0.24711 0.34742
# Poissons Ratio (z) = 0.14023 0.27377
#
# Static dielectric constant tensor:
#      x y z
#    x 2.145400 0.000000 0.014560 
#    y 0.000000 1.994420 0.000000 
#    z 0.014560 0.000000 2.028840 
# 
# From -- ./inp_files/15972.got.cif
#   From: 2010.05.17/outbox.cif.g08.bks.cpg/sg5_8_cif.got.tgz:15972.got - 2010.06.03 18:56:24.
