data_PCOD9129415
_publ_section_title
;
Structure prediction by ZEFSAII (Michael W. Deem and Ramdas Pophale) SiO2 
 PCOD9129415
Probable space group: C 2
;
_chemical_formula_sum "Si O2"
_cell_formula_units_Z 30
_cell_length_a 11.352209
_cell_length_b 14.474413
_cell_length_c 11.176439
_cell_angle_alpha 90.000000
_cell_angle_beta 127.619855
_cell_angle_gamma 90.000000
_cell_volume 1454.630966
_symmetry_space_group_name_H-M "C 2"
_symmetry_group_IT_number 5
_symmetry_cell_setting 'monoclinic'
loop_
_space_group_symop_operation_xyz
x,y,z
-x,y,-z
1/2+x,1/2+y,z
1/2-x,1/2+y,-z
loop_
_atom_site_type_symbol
_atom_site_label
_atom_site_fract_x
_atom_site_fract_y
_atom_site_fract_z
Si Si1 0.294882 0.665950 0.625070
Si Si2 0.270359 0.156679 0.142037
Si Si3 0.334052 0.059216 0.851522
Si Si4 0.429937 0.039308 0.646153
Si Si5 0.241215 0.760670 0.092250
Si Si6 0.956037 0.322649 0.609637
Si Si7 0.000000 0.905173 0.000000
Si Si8 0.435820 0.541167 0.160480
O O1 0.278845 0.684130 0.756502
O O2 0.155355 0.604851 0.499072
O O3 0.317041 0.759857 0.564377
O O4 0.440237 0.601358 0.696233
O O5 0.408776 0.085831 0.232886
O O6 0.301231 0.241666 0.072115
O O7 0.141500 0.104392 0.989162
O O8 0.339128 0.044284 0.713967
O O9 0.302750 0.166528 0.865602
O O10 0.198550 0.009685 0.836626
O O11 0.500000 0.034590 0.000000
O O12 0.438098 0.932728 0.612188
O O13 0.410840 0.788130 0.221137
O O14 0.144288 0.842950 0.081488
O O15 0.000000 0.302124 0.500000
O O16 0.988990 0.962771 0.871393
#
# Coordination Sequence:
#
# PCOD9129415 Si02
#       8
#     4   4   4   4   4   4   2   4
#     4  12  25  44  72 100 147 183 230 302 347 424
#     4  11  21  47  68 104 138 185 231 284 363 407
#     4  11  21  45  67 101 139 184 231 286 352 410
#     4  12  26  45  75 101 144 189 233 293 362 423
#     4  11  23  40  72 102 138 182 235 292 340 422
#     4  12  27  45  69 104 140 189 240 284 360 426
#     4  12  22  38  68 108 132 178 238 292 340 416
#     4  11  23  39  70  99 137 182 231 285 350 409
#
# _framework density 20.623787
#
# number of rings (size 3 to 8) (size 9 to 14) (size 15 to 20)
#    0.000    0.533    7.333    2.800    1.867    1.067 
#    0.000    0.000    2.933    0.000    0.000    0.000 
#    0.000    0.000    0.000    0.000    0.000    0.000 
#
# Total GULP energy -83830.871446 kJ/mol
# GULP energy per Si atom -5588.724763 kJ/mol
# Density = 2.057685 g / cm^3
# Si number density = 20.623787 Si / 1000 Ang^3
#
#
#
# Elastic Constant Matrix: (Units=GPa)
#
#
# Indices 1 2 3 4 5 6 
#
# 1 101.0660 28.6318 1.8179 0.0000 -27.2637 0.0000
# 2 28.6318 86.4363 14.4514 0.0000 -0.2997 0.0000
# 3 1.8179 14.4514 56.6467 0.0000 -3.0485 0.0000
# 4 0.0000 0.0000 0.0000 40.8216 0.0000 30.1942
# 5 -27.2637 -0.2997 -3.0485 0.0000 51.0195 0.0000
# 6 0.0000 0.0000 0.0000 30.1942 0.0000 97.7649
#
#
#
# Elastic Compliance Matrix: (Units=1/GPa)
#
#
# Indices 1 2 3 4 5 6 
#
# 1 0.013032 -0.004477 0.001101 0.000000 0.007004 0.000000
# 2 -0.004477 0.013623 -0.003467 0.000000 -0.002519 0.000000
# 3 0.001101 -0.003467 0.018593 0.000000 0.001679 0.000000
# 4 0.000000 0.000000 0.000000 0.031750 0.000000 -0.009806
# 5 0.007004 -0.002519 0.001679 0.000000 0.023428 0.000000
# 6 0.000000 0.000000 0.000000 -0.009806 0.000000 0.013257
#
#
# Mechanical properties :
#
#
# Convention : Reuss Voigt Hill
#
# Bulk Modulus (GPa) = 31.68402 37.10567 34.39485
# Shear Modulus (GPa) = 36.26066 51.20443 43.73255
#
# Velocity S-wave (km/s) = 4.19763 4.98816 4.60987
# Velocity P-wave (km/s) = 6.23616 7.15587 6.71179
#
# Compressibility (1/GPa) = 0.03156165
#
# Stress axis : x y z
#
# Youngs Moduli (GPa) = 76.73273 73.40495 53.78408
#
# Poissons Ratio (x) = 0.32861 -0.05920
# Poissons Ratio (y) = 0.34350 0.18649
# Poissons Ratio (z) = -0.08446 0.25452
#
# Static dielectric constant tensor:
#      x y z
#    x 1.776760 0.000000 0.007120 
#    y 0.000000 1.752410 0.000000 
#    z 0.007120 0.000000 1.682900 
# 
# From -- ./inp_files/40072.got.cif
#   From: 2010.05.17/outbox.cif.g08.bks.cpg/sg5_21_cif.got.tgz:40072.got - 2010.06.03 18:56:24.
