data_PCOD9129154
_publ_section_title
;
Structure prediction by ZEFSAII (Michael W. Deem and Ramdas Pophale) SiO2 
 PCOD9129154
Probable space group: C 2
;
_chemical_formula_sum "Si O2"
_cell_formula_units_Z 24
_cell_length_a 15.992072
_cell_length_b 5.535476
_cell_length_c 13.322502
_cell_angle_alpha 90.000000
_cell_angle_beta 56.429573
_cell_angle_gamma 90.000000
_cell_volume 982.648709
_symmetry_space_group_name_H-M "C 2"
_symmetry_group_IT_number 5
_symmetry_cell_setting 'monoclinic'
loop_
_space_group_symop_operation_xyz
x,y,z
-x,y,-z
1/2+x,1/2+y,z
1/2-x,1/2+y,-z
loop_
_atom_site_type_symbol
_atom_site_label
_atom_site_fract_x
_atom_site_fract_y
_atom_site_fract_z
Si Si1 0.500000 0.398250 0.500000
Si Si2 0.795776 0.730439 0.215486
Si Si3 0.130759 0.989637 0.217622
Si Si4 0.923629 0.474667 0.841876
Si Si5 0.500000 0.163427 0.000000
Si Si6 0.802403 0.579673 0.603869
Si Si7 0.142536 0.426388 0.643068
O O1 0.545403 0.510729 0.364547
O O2 0.399769 0.249421 0.537862
O O3 0.739927 0.510365 0.197521
O O4 0.826893 0.648291 0.306198
O O5 0.707706 0.924250 0.289292
O O6 0.899383 0.807232 0.096176
O O7 0.131852 0.221114 0.141722
O O8 0.118362 0.734539 0.167882
O O9 0.963204 0.506902 0.929514
O O10 0.025055 0.432901 0.712682
O O11 0.815143 0.425470 0.495680
O O12 0.695343 0.707072 0.664004
#
# Coordination Sequence:
#
# PCOD9129154 Si02
#       7
#     2   4   4   4   2   4   4
#     4  12  26  44  72 120 172 198 254 324 416 502
#     4  11  26  47  75 106 158 208 267 326 395 469
#     4  12  27  47  76 116 155 205 254 318 408 476
#     4  11  28  49  78 108 152 207 266 322 392 463
#     4  10  28  58  74 114 148 216 280 342 376 464
#     4  12  24  44  71 114 160 210 256 327 401 485
#     4  11  24  40  69 108 153 199 255 318 389 468
#
# _framework density 24.423784999999999
#
# number of rings (size 3 to 8) (size 9 to 14) (size 15 to 20)
#    0.000    0.667    5.000    1.000    9.333    2.667 
#    3.000    0.000    0.000    0.000    0.000    0.000 
#    0.000    0.000    0.000    0.000    0.000    0.000 
#
# Total GULP energy -66945.218038 kJ/mol
# GULP energy per Si atom -5578.768170 kJ/mol
# Density = 2.436820 g / cm^3
# Si number density = 24.423785 Si / 1000 Ang^3
#
#
#
# Elastic Constant Matrix: (Units=GPa)
#
#
# Indices 1 2 3 4 5 6 
#
# 1 101.7596 51.6640 22.6836 -0.0002 1.3796 -0.0002
# 2 51.6640 94.6749 31.1689 -0.0010 13.4779 0.0020
# 3 22.6836 31.1689 107.8019 -0.0005 -5.0275 0.0004
# 4 -0.0002 -0.0010 -0.0005 12.0118 0.0003 10.9363
# 5 1.3796 13.4779 -5.0275 0.0003 52.1420 0.0000
# 6 -0.0002 0.0020 0.0004 10.9363 0.0000 17.3487
#
#
#
# Elastic Compliance Matrix: (Units=1/GPa)
#
#
# Indices 1 2 3 4 5 6 
#
# 1 0.013767 -0.007513 -0.000654 -0.000003 0.001515 0.000003
# 2 -0.007513 0.016390 -0.003361 0.000007 -0.004362 -0.000006
# 3 -0.000654 -0.003361 0.010474 0.000000 0.001896 0.000000
# 4 -0.000003 0.000007 0.000000 0.195396 -0.000003 -0.123174
# 5 0.001515 -0.004362 0.001896 -0.000003 0.020449 0.000002
# 6 0.000003 -0.000006 0.000000 -0.123174 0.000002 0.135287
#
#
# Mechanical properties :
#
#
# Convention : Reuss Voigt Hill
#
# Bulk Modulus (GPa) = 56.90103 57.25214 57.07659
# Shear Modulus (GPa) = 11.88560 29.54850 20.71705
#
# Velocity S-wave (km/s) = 2.20839 3.48203 2.91560
# Velocity P-wave (km/s) = 5.46357 6.29746 5.89528
#
# Compressibility (1/GPa) = 0.01757437
#
# Stress axis : x y z
#
# Youngs Moduli (GPa) = 72.63968 61.01376 95.47281
#
# Poissons Ratio (x) = 0.45838 0.06243
# Poissons Ratio (y) = 0.54572 0.32092
# Poissons Ratio (z) = 0.04750 0.20509
#
# Static dielectric constant tensor:
#      x y z
#    x 1.979480 0.000000 -0.003240 
#    y 0.000000 2.106160 0.000000 
#    z -0.003240 0.000000 1.941150 
# 
# From -- ./inp_files/53765.got.cif
#   From: 2010.05.17/outbox.cif.g08.bks.cpg/sg5_27_cif.got.tgz:53765.got - 2010.06.03 18:56:24.
