data_PCOD9129153
_publ_section_title
;
Structure prediction by ZEFSAII (Michael W. Deem and Ramdas Pophale) SiO2 
 PCOD9129153
Probable space group: C 2
;
_chemical_formula_sum "Si O2"
_cell_formula_units_Z 20
_cell_length_a 13.939320
_cell_length_b 10.747312
_cell_length_c 7.487383
_cell_angle_alpha 90.000000
_cell_angle_beta 143.476599
_cell_angle_gamma 90.000000
_cell_volume 667.572902
_symmetry_space_group_name_H-M "C 2"
_symmetry_group_IT_number 5
_symmetry_cell_setting 'monoclinic'
loop_
_space_group_symop_operation_xyz
x,y,z
-x,y,-z
1/2+x,1/2+y,z
1/2-x,1/2+y,-z
loop_
_atom_site_type_symbol
_atom_site_label
_atom_site_fract_x
_atom_site_fract_y
_atom_site_fract_z
Si Si1 0.598995 0.450180 0.916589
Si Si2 0.372714 0.214130 0.562932
Si Si3 0.123041 0.454713 0.385676
Si Si4 0.791789 0.103739 0.353834
Si Si5 0.665049 0.788971 0.922233
O O1 0.493154 0.326002 0.757227
O O2 0.471222 0.555602 0.673724
O O3 0.705260 0.463869 0.252602
O O4 0.731909 0.414455 0.968311
O O5 0.462980 0.083132 0.680237
O O6 0.275502 0.200365 0.599699
O O7 0.250955 0.229269 0.219877
O O8 0.010247 0.343762 0.287019
O O9 0.177608 0.484822 0.261120
O O10 0.808617 0.188446 0.199613
#
# Coordination Sequence:
#
# PCOD9129153 Si02
#       5
#     4   4   4   4   4
#     4  12  27  56  88 132 186 237 314 396 468 576
#     4  10  29  56  87 131 180 240 318 379 472 574
#     4  10  28  55  89 132 181 235 317 381 470 573
#     4  10  29  56  90 129 183 247 303 390 474 557
#     4  12  28  57  93 130 181 246 311 388 477 564
#
# _framework density 29.959274000000001
#
# number of rings (size 3 to 8) (size 9 to 14) (size 15 to 20)
#    1.200    0.000    0.000    1.800    5.600   12.800 
#   10.800    0.000    0.000    0.000    0.000    0.000 
#    0.000    0.000    0.000    0.000    0.000    0.000 
#
# Total GULP energy -56032.869229 kJ/mol
# GULP energy per Si atom -5603.286923 kJ/mol
# Density = 2.989109 g / cm^3
# Si number density = 29.959274 Si / 1000 Ang^3
#
#
#
# Elastic Constant Matrix: (Units=GPa)
#
#
# Indices 1 2 3 4 5 6 
#
# 1 229.1005 100.2120 79.8494 0.0000 11.4232 0.0000
# 2 100.2120 194.6976 109.8685 0.0000 7.7438 0.0000
# 3 79.8494 109.8685 162.8576 0.0000 -0.7253 0.0000
# 4 0.0000 0.0000 0.0000 68.0323 0.0000 14.9525
# 5 11.4232 7.7438 -0.7253 0.0000 64.2820 0.0000
# 6 0.0000 0.0000 0.0000 14.9525 0.0000 72.3647
#
#
#
# Elastic Compliance Matrix: (Units=1/GPa)
#
#
# Indices 1 2 3 4 5 6 
#
# 1 0.005849 -0.002194 -0.001391 0.000000 -0.000791 0.000000
# 2 -0.002194 0.009190 -0.005127 0.000000 -0.000775 0.000000
# 3 -0.001391 -0.005127 0.010286 0.000000 0.000981 0.000000
# 4 0.000000 0.000000 0.000000 0.015398 0.000000 -0.003182
# 5 -0.000791 -0.000775 0.000981 0.000000 0.015801 0.000000
# 6 0.000000 0.000000 0.000000 -0.003182 0.000000 0.014476
#
#
# Mechanical properties :
#
#
# Convention : Reuss Voigt Hill
#
# Bulk Modulus (GPa) = 126.59090 129.61283 128.10187
# Shear Modulus (GPa) = 54.91000 60.71753 57.81376
#
# Velocity S-wave (km/s) = 4.28579 4.50674 4.39765
# Velocity P-wave (km/s) = 8.17537 8.39273 8.28476
#
# Compressibility (1/GPa) = 0.00789946
#
# Stress axis : x y z
#
# Youngs Moduli (GPa) = 170.97369 108.81855 97.22146
#
# Poissons Ratio (x) = 0.23875 0.13524
# Poissons Ratio (y) = 0.37511 0.49848
# Poissons Ratio (z) = 0.23784 0.55795
#
# Static dielectric constant tensor:
#      x y z
#    x 2.302380 0.000000 0.005660 
#    y 0.000000 2.460740 0.000000 
#    z 0.005660 0.000000 2.393640 
# 
# From -- ./inp_files/27337.got.cif
#   From: 2010.05.17/outbox.cif.g08.bks.cpg/sg5_14_cif.got.tgz:27337.got - 2010.06.03 18:56:24.
