data_PCOD9129699
_publ_section_title
;
Structure prediction by ZEFSAII (Michael W. Deem and Ramdas Pophale) SiO2 
 PCOD9129699
Probable space group: C 2
;
_chemical_formula_sum "Si O2"
_cell_formula_units_Z 20
_cell_length_a 10.682199
_cell_length_b 11.314849
_cell_length_c 9.503058
_cell_angle_alpha 90.000000
_cell_angle_beta 128.416937
_cell_angle_gamma 90.000000
_cell_volume 899.947643
_symmetry_space_group_name_H-M "C 2"
_symmetry_group_IT_number 5
_symmetry_cell_setting 'monoclinic'
loop_
_space_group_symop_operation_xyz
x,y,z
-x,y,-z
1/2+x,1/2+y,z
1/2-x,1/2+y,-z
loop_
_atom_site_type_symbol
_atom_site_label
_atom_site_fract_x
_atom_site_fract_y
_atom_site_fract_z
Si Si1 0.647888 0.864290 0.899741
Si Si2 0.323463 0.052893 0.314698
Si Si3 0.144545 0.001855 0.458297
Si Si4 0.638869 0.669063 0.682257
Si Si5 0.714924 0.818486 0.256149
O O1 0.710852 0.754260 0.848383
O O2 0.460195 0.838679 0.798697
O O3 0.671931 0.981523 0.826220
O O4 0.721482 0.873186 0.105296
O O5 0.500000 0.064244 0.500000
O O6 0.220539 0.986049 0.360745
O O7 0.245768 0.181312 0.253877
O O8 0.233461 0.099293 0.624872
O O9 0.972549 0.065387 0.328831
O O10 0.161869 0.879996 0.552456
O O11 0.500000 0.742505 0.500000
#
# Coordination Sequence:
#
# PCOD9129699 Si02
#       5
#     4   4   4   4   4
#     4  11  23  41  65  90 130 170 213 263 327 371
#     4  12  24  39  68  97 126 171 218 262 320 382
#     4   9  21  38  63  89 128 168 219 254 314 382
#     4   8  19  38  64  83 119 176 210 255 313 371
#     4  11  24  42  59  98 134 165 214 268 316 387
#
# _framework density 22.223514000000002
#
# number of rings (size 3 to 8) (size 9 to 14) (size 15 to 20)
#    1.200    0.400    4.000    0.600    8.400    0.000 
#    0.000    0.000    0.000    4.800    0.000    0.000 
#    0.000    0.000    0.000    0.000    0.000    0.000 
#
# Total GULP energy -55770.371001 kJ/mol
# GULP energy per Si atom -5577.037100 kJ/mol
# Density = 2.217293 g / cm^3
# Si number density = 22.223514 Si / 1000 Ang^3
#
#
#
# Elastic Constant Matrix: (Units=GPa)
#
#
# Indices 1 2 3 4 5 6 
#
# 1 55.6476 42.7927 37.6171 0.0000 -28.8038 0.0000
# 2 42.7927 135.5928 49.8049 0.0000 -22.4257 0.0000
# 3 37.6171 49.8049 76.0504 0.0000 -34.6556 0.0000
# 4 0.0000 0.0000 0.0000 19.6304 0.0000 -21.6624
# 5 -28.8038 -22.4257 -34.6556 0.0000 36.5962 0.0000
# 6 0.0000 0.0000 0.0000 -21.6624 0.0000 33.7248
#
#
#
# Elastic Compliance Matrix: (Units=1/GPa)
#
#
# Indices 1 2 3 4 5 6 
#
# 1 0.036700 -0.006525 -0.004466 0.000000 0.020657 0.000000
# 2 -0.006525 0.010872 -0.005623 0.000000 -0.003799 0.000000
# 3 -0.004466 -0.005623 0.027915 0.000000 0.019474 0.000000
# 4 0.000000 0.000000 0.000000 0.174948 0.000000 0.112374
# 5 0.020657 -0.003799 0.019474 0.000000 0.059697 0.000000
# 6 0.000000 0.000000 0.000000 0.112374 0.000000 0.101833
#
#
# Mechanical properties :
#
#
# Convention : Reuss Voigt Hill
#
# Bulk Modulus (GPa) = 23.66495 58.63559 41.15027
# Shear Modulus (GPa) = 10.88665 27.12868 19.00766
#
# Velocity S-wave (km/s) = 2.21570 3.49767 2.92772
# Velocity P-wave (km/s) = 4.14940 6.53861 5.47590
#
# Compressibility (1/GPa) = 0.04225659
#
# Stress axis : x y z
#
# Youngs Moduli (GPa) = 27.24820 91.98301 35.82328
#
# Poissons Ratio (x) = 0.60022 0.15999
# Poissons Ratio (y) = 0.17780 0.20144
# Poissons Ratio (z) = 0.12169 0.51724
#
# Static dielectric constant tensor:
#      x y z
#    x 1.862800 0.000000 0.025890 
#    y 0.000000 1.847620 0.000000 
#    z 0.025890 0.000000 1.857750 
# 
# From -- ./inp_files/19120.got.cif
#   From: 2010.05.17/outbox.cif.g08.bks.cpg/sg5_10_cif.got.tgz:19120.got - 2010.06.03 18:56:24.
