data_PCOD9129092
_publ_section_title
;
Structure prediction by ZEFSAII (Michael W. Deem and Ramdas Pophale) SiO2 
 PCOD9129092
Probable space group: C 2
;
_chemical_formula_sum "Si O2"
_cell_formula_units_Z 28
_cell_length_a 19.443058
_cell_length_b 5.989572
_cell_length_c 13.966158
_cell_angle_alpha 90.000000
_cell_angle_beta 128.068196
_cell_angle_gamma 90.000000
_cell_volume 1280.457303
_symmetry_space_group_name_H-M "C 2"
_symmetry_group_IT_number 5
_symmetry_cell_setting 'monoclinic'
loop_
_space_group_symop_operation_xyz
x,y,z
-x,y,-z
1/2+x,1/2+y,z
1/2-x,1/2+y,-z
loop_
_atom_site_type_symbol
_atom_site_label
_atom_site_fract_x
_atom_site_fract_y
_atom_site_fract_z
Si Si1 0.902988 0.293500 0.768975
Si Si2 0.568474 0.725349 0.428815
Si Si3 0.500000 0.078953 0.500000
Si Si4 0.654388 0.409782 0.147571
Si Si5 0.402941 0.425882 0.285382
Si Si6 0.227502 0.050680 0.670338
Si Si7 0.292399 0.490543 0.015143
Si Si8 0.000000 0.577863 0.000000
O O1 0.921917 0.276413 0.673946
O O2 0.808318 0.407424 0.702521
O O3 0.976461 0.433127 0.887245
O O4 0.895869 0.063721 0.820476
O O5 0.473445 0.619159 0.364017
O O6 0.646801 0.563865 0.528281
O O7 0.569620 0.935579 0.500019
O O8 0.449400 0.216364 0.374734
O O9 0.732775 0.291814 0.271262
O O10 0.688190 0.524360 0.080370
O O11 0.585719 0.223135 0.055161
O O12 0.313592 0.461905 0.266561
O O13 0.377229 0.434481 0.152617
O O14 0.258381 0.743039 0.019931
#
# Coordination Sequence:
#
# PCOD9129092 Si02
#       8
#     4   4   2   4   4   4   4   2
#     4  11  28  45  77 100 151 196 255 312 397 459
#     4  12  28  46  72 112 143 199 256 320 389 472
#     4  12  26  46  76 100 154 194 256 330 382 482
#     4  11  26  47  73 101 150 194 253 321 380 465
#     4  12  26  47  74 108 150 194 254 315 398 461
#     4  11  24  49  66 106 142 190 249 312 377 463
#     4  12  29  47  80 116 153 202 261 320 395 469
#     4  10  26  50  66 106 142 198 246 320 380 470
#
# _framework density 21.867189
#
# number of rings (size 3 to 8) (size 9 to 14) (size 15 to 20)
#    0.000    0.571    4.286    1.286   16.000    1.143 
#    0.000    0.000    0.000    0.000    0.000    0.000 
#    0.000    0.000    0.000    0.000    0.000    0.000 
#
# Total GULP energy -78195.137119 kJ/mol
# GULP energy per Si atom -5585.366937 kJ/mol
# Density = 2.181742 g / cm^3
# Si number density = 21.867189 Si / 1000 Ang^3
#
#
#
# Elastic Constant Matrix: (Units=GPa)
#
#
# Indices 1 2 3 4 5 6 
#
# 1 84.8240 20.1662 12.2149 0.0000 -17.2849 0.0000
# 2 20.1662 58.6920 18.8673 0.0000 11.6616 0.0000
# 3 12.2149 18.8673 92.3769 0.0000 2.2255 0.0000
# 4 0.0000 0.0000 0.0000 29.1591 0.0000 -3.3204
# 5 -17.2849 11.6616 2.2255 0.0000 32.1508 0.0000
# 6 0.0000 0.0000 0.0000 -3.3204 0.0000 16.7239
#
#
#
# Elastic Compliance Matrix: (Units=1/GPa)
#
#
# Indices 1 2 3 4 5 6 
#
# 1 0.016013 -0.007487 -0.000863 0.000000 0.011384 0.000000
# 2 -0.007487 0.023137 -0.003442 0.000000 -0.012179 0.000000
# 3 -0.000863 -0.003442 0.011643 0.000000 -0.000021 0.000000
# 4 0.000000 0.000000 0.000000 0.035088 0.000000 0.006966
# 5 0.011384 -0.012179 -0.000021 0.000000 0.041643 0.000000
# 6 0.000000 0.000000 0.000000 0.006966 0.000000 0.061178
#
#
# Mechanical properties :
#
#
# Convention : Reuss Voigt Hill
#
# Bulk Modulus (GPa) = 36.75128 37.59886 37.17507
# Shear Modulus (GPa) = 22.58832 27.91640 25.25236
#
# Velocity S-wave (km/s) = 3.21748 3.57688 3.40193
# Velocity P-wave (km/s) = 5.53588 5.85579 5.69808
#
# Compressibility (1/GPa) = 0.02720994
#
# Stress axis : x y z
#
# Youngs Moduli (GPa) = 62.44940 43.22125 85.88989
#
# Poissons Ratio (x) = 0.32358 0.07409
# Poissons Ratio (y) = 0.46753 0.29565
# Poissons Ratio (z) = 0.05387 0.14877
#
# Static dielectric constant tensor:
#      x y z
#    x 1.821440 0.000000 -0.016210 
#    y 0.000000 1.876390 0.000000 
#    z -0.016210 0.000000 1.849640 
# 
# From -- ./inp_files/56581.got.cif
#   From: 2010.05.17/outbox.cif.g08.bks.cpg/sg5_29_cif.got.tgz:56581.got - 2010.06.03 18:56:24.
