data_PCOD9129077
_publ_section_title
;
Structure prediction by ZEFSAII (Michael W. Deem and Ramdas Pophale) SiO2 
 PCOD9129077
Probable space group: C 2
;
_chemical_formula_sum "Si O2"
_cell_formula_units_Z 30
_cell_length_a 19.422206
_cell_length_b 5.589614
_cell_length_c 11.407455
_cell_angle_alpha 90.000000
_cell_angle_beta 85.897848
_cell_angle_gamma 90.000000
_cell_volume 1235.250648
_symmetry_space_group_name_H-M "C 2"
_symmetry_group_IT_number 5
_symmetry_cell_setting 'monoclinic'
loop_
_space_group_symop_operation_xyz
x,y,z
-x,y,-z
1/2+x,1/2+y,z
1/2-x,1/2+y,-z
loop_
_atom_site_type_symbol
_atom_site_label
_atom_site_fract_x
_atom_site_fract_y
_atom_site_fract_z
Si Si1 0.636901 0.580820 0.318221
Si Si2 0.260552 0.178597 0.677128
Si Si3 0.168922 0.419212 0.520044
Si Si4 0.500000 0.477897 0.000000
Si Si5 0.281322 0.870135 0.888721
Si Si6 0.085216 0.675485 0.699368
Si Si7 0.863696 0.670962 0.040830
Si Si8 0.485391 0.675148 0.248864
O O1 0.667499 0.320219 0.335148
O O2 0.634025 0.727298 0.440223
O O3 0.689644 0.689053 0.214033
O O4 0.562267 0.606173 0.274570
O O5 0.196867 0.329966 0.641276
O O6 0.267080 0.989858 0.570383
O O7 0.255355 0.081508 0.806652
O O8 0.123473 0.635358 0.571842
O O9 0.432117 0.309561 0.986595
O O10 0.481087 0.646700 0.109980
O O11 0.211420 0.797460 0.963081
O O12 0.344989 0.936908 0.966249
O O13 0.124222 0.651147 0.820754
O O14 0.058907 0.948552 0.700600
O O15 0.033781 0.444058 0.710409
#
# Coordination Sequence:
#
# PCOD9129077 Si02
#       8
#     4   4   4   2   4   4   4   4
#     4  11  26  47  74 107 147 198 251 325 374 459
#     4  11  24  46  73 105 147 191 252 313 392 450
#     4  11  25  44  75 103 147 196 245 317 385 456
#     4  10  26  48  78 104 158 204 248 308 398 454
#     4  11  28  44  76 115 149 193 263 314 385 449
#     4  11  29  49  76 111 151 200 254 309 386 465
#     4  11  27  47  78 114 152 204 248 326 376 470
#     4  11  28  48  76 108 149 204 253 310 381 465
#
# _framework density 24.286570999999999
#
# number of rings (size 3 to 8) (size 9 to 14) (size 15 to 20)
#    0.000    1.067    1.333    1.600   22.400    1.067 
#    0.000    0.000    0.000    0.000    0.000    0.000 
#    0.000    0.000    0.000    0.000    0.000    0.000 
#
# Total GULP energy -83774.988714 kJ/mol
# GULP energy per Si atom -5584.999248 kJ/mol
# Density = 2.423129 g / cm^3
# Si number density = 24.286571 Si / 1000 Ang^3
#
#
#
# Elastic Constant Matrix: (Units=GPa)
#
#
# Indices 1 2 3 4 5 6 
#
# 1 74.2670 5.4719 21.9625 0.0000 8.3341 0.0000
# 2 5.4719 43.4752 21.1931 0.0000 -1.2998 0.0000
# 3 21.9625 21.1931 66.2757 0.0000 -19.0278 0.0000
# 4 0.0000 0.0000 0.0000 43.1158 0.0000 0.6457
# 5 8.3341 -1.2998 -19.0278 0.0000 33.4241 0.0000
# 6 0.0000 0.0000 0.0000 0.6457 0.0000 35.0085
#
#
#
# Elastic Compliance Matrix: (Units=1/GPa)
#
#
# Indices 1 2 3 4 5 6 
#
# 1 0.016988 0.001921 -0.008891 0.000000 -0.009223 0.000000
# 2 0.001921 0.028088 -0.011287 0.000000 -0.005812 0.000000
# 3 -0.008891 -0.011287 0.026483 0.000000 0.016854 0.000000
# 4 0.000000 0.000000 0.000000 0.023200 0.000000 -0.000428
# 5 -0.009223 -0.005812 0.016854 0.000000 0.041587 0.000000
# 6 0.000000 0.000000 0.000000 -0.000428 0.000000 0.028572
#
#
# Mechanical properties :
#
#
# Convention : Reuss Voigt Hill
#
# Bulk Modulus (GPa) = 28.53596 31.25255 29.89425
# Shear Modulus (GPa) = 23.46149 31.33572 27.39860
#
# Velocity S-wave (km/s) = 3.11147 3.59590 3.36242
# Velocity P-wave (km/s) = 4.96825 5.48970 5.23547
#
# Compressibility (1/GPa) = 0.03504351
#
# Stress axis : x y z
#
# Youngs Moduli (GPa) = 58.86574 35.60206 37.75994
#
# Poissons Ratio (x) = -0.06837 0.33574
# Poissons Ratio (y) = -0.11305 0.42619
# Poissons Ratio (z) = 0.52340 0.40184
#
# Static dielectric constant tensor:
#      x y z
#    x 1.945410 0.000000 0.009900 
#    y 0.000000 2.062190 0.000000 
#    z 0.009900 0.000000 1.882820 
# 
# From -- ./inp_files/45672.got.cif
#   From: 2010.05.17/outbox.cif.g08.bks.cpg/sg5_23_cif.got.tgz:45672.got - 2010.06.03 18:56:24.
