data_PCOD9129270
_publ_section_title
;
Structure prediction by ZEFSAII (Michael W. Deem and Ramdas Pophale) SiO2 
 PCOD9129270
Probable space group: C 2
;
_chemical_formula_sum "Si O2"
_cell_formula_units_Z 24
_cell_length_a 15.052644
_cell_length_b 16.106640
_cell_length_c 9.029689
_cell_angle_alpha 90.000000
_cell_angle_beta 32.663161
_cell_angle_gamma 90.000000
_cell_volume 1181.523241
_symmetry_space_group_name_H-M "C 2"
_symmetry_group_IT_number 5
_symmetry_cell_setting 'monoclinic'
loop_
_space_group_symop_operation_xyz
x,y,z
-x,y,-z
1/2+x,1/2+y,z
1/2-x,1/2+y,-z
loop_
_atom_site_type_symbol
_atom_site_label
_atom_site_fract_x
_atom_site_fract_y
_atom_site_fract_z
Si Si1 0.119135 0.570770 0.951048
Si Si2 0.817798 0.218122 0.826127
Si Si3 0.120261 0.143808 0.965178
Si Si4 0.879068 0.868379 0.040632
Si Si5 0.946262 0.000115 0.404179
Si Si6 0.382504 0.008734 0.522915
O O1 0.005584 0.514690 0.213841
O O2 0.217904 0.637197 0.910532
O O3 0.252441 0.515434 0.678646
O O4 0.000000 0.613965 0.000000
O O5 0.830932 0.214165 0.985737
O O6 0.000000 0.216268 0.500000
O O7 0.721980 0.296992 0.898255
O O8 0.025293 0.076163 0.201043
O O9 0.000000 0.168494 0.000000
O O10 0.278203 0.094296 0.681423
O O11 0.988209 0.918801 0.768893
O O12 0.750012 0.934901 0.290492
O O13 0.000000 0.837856 0.000000
O O14 0.000000 0.000815 0.500000
O O15 0.500000 0.999857 0.500000
#
# Coordination Sequence:
#
# PCOD9129270 Si02
#       6
#     4   4   4   4   4   4
#     4  12  21  37  69 104 128 164 218 274 320 392
#     4  12  24  44  64  97 134 177 217 273 335 382
#     4  11  21  41  68  96 128 176 224 270 321 388
#     4  11  25  45  66  96 135 181 215 266 333 397
#     4  11  20  43  69  96 132 169 218 268 323 388
#     4  11  21  39  69 100 130 166 222 266 323 394
#
# _framework density 20.312761999999999
#
# number of rings (size 3 to 8) (size 9 to 14) (size 15 to 20)
#    0.000    0.667    5.000    6.000    0.000    0.000 
#    3.000    0.000    0.000    2.000    0.000    0.000 
#    0.000    0.000    0.000    0.000    0.000    0.000 
#
# Total GULP energy -67101.659224 kJ/mol
# GULP energy per Si atom -5591.804935 kJ/mol
# Density = 2.026653 g / cm^3
# Si number density = 20.312762 Si / 1000 Ang^3
#
#
#
# Elastic Constant Matrix: (Units=GPa)
#
#
# Indices 1 2 3 4 5 6 
#
# 1 160.5408 39.0983 14.3701 -0.0001 -19.3455 0.0000
# 2 39.0983 78.2532 32.7552 0.0000 -5.2082 0.0000
# 3 14.3701 32.7552 125.2396 -0.0001 -13.8371 0.0001
# 4 -0.0001 0.0000 -0.0001 13.4385 0.0000 -3.8590
# 5 -19.3455 -5.2082 -13.8371 0.0000 30.0964 -0.0001
# 6 0.0000 0.0000 0.0001 -3.8590 -0.0001 19.5514
#
#
#
# Elastic Compliance Matrix: (Units=1/GPa)
#
#
# Indices 1 2 3 4 5 6 
#
# 1 0.007640 -0.003771 0.000611 0.000000 0.004539 0.000000
# 2 -0.003771 0.016229 -0.003971 0.000000 -0.001441 0.000000
# 3 0.000611 -0.003971 0.009398 0.000000 0.004026 0.000000
# 4 0.000000 0.000000 0.000000 0.078884 0.000000 0.015570
# 5 0.004539 -0.001441 0.004026 0.000000 0.037746 0.000000
# 6 0.000000 0.000000 0.000000 0.015570 0.000000 0.054220
#
#
# Mechanical properties :
#
#
# Convention : Reuss Voigt Hill
#
# Bulk Modulus (GPa) = 52.61665 59.60898 56.11282
# Shear Modulus (GPa) = 22.25048 31.13793 26.69420
#
# Velocity S-wave (km/s) = 3.31326 3.91951 3.62907
# Velocity P-wave (km/s) = 6.37153 7.06347 6.72641
#
# Compressibility (1/GPa) = 0.01900539
#
# Stress axis : x y z
#
# Youngs Moduli (GPa) = 130.89821 61.61672 106.40484
#
# Poissons Ratio (x) = 0.23234 -0.06503
# Poissons Ratio (y) = 0.49358 0.42255
# Poissons Ratio (z) = -0.07999 0.24469
#
# Static dielectric constant tensor:
#      x y z
#    x 1.792170 0.000000 -0.003680 
#    y 0.000000 1.704310 0.000000 
#    z -0.003680 0.000000 1.705460 
# 
# From -- ./inp_files/25136.got.cif
#   From: 2010.05.17/outbox.cif.g08.bks.cpg/sg5_13_cif.got.tgz:25136.got - 2010.06.03 18:56:24.
