data_PCOD9129804
_publ_section_title
;
Structure prediction by ZEFSAII (Michael W. Deem and Ramdas Pophale) SiO2 
 PCOD9129804
Probable space group: C 2
;
_chemical_formula_sum "Si O2"
_cell_formula_units_Z 32
_cell_length_a 30.224938
_cell_length_b 5.158785
_cell_length_c 17.040445
_cell_angle_alpha 90.000000
_cell_angle_beta 152.502041
_cell_angle_gamma 90.000000
_cell_volume 1226.788395
_symmetry_space_group_name_H-M "C 2"
_symmetry_group_IT_number 5
_symmetry_cell_setting 'monoclinic'
loop_
_space_group_symop_operation_xyz
x,y,z
-x,y,-z
1/2+x,1/2+y,z
1/2-x,1/2+y,-z
loop_
_atom_site_type_symbol
_atom_site_label
_atom_site_fract_x
_atom_site_fract_y
_atom_site_fract_z
Si Si1 0.593602 0.405030 0.287968
Si Si2 0.311813 0.321019 0.827273
Si Si3 0.076491 0.138566 0.092057
Si Si4 0.057010 0.701713 0.829776
Si Si5 0.800061 0.534237 0.649627
Si Si6 0.192659 0.845001 0.902045
Si Si7 0.914592 0.935488 0.416831
Si Si8 0.409996 0.928075 0.505973
O O1 0.534400 0.498645 0.116350
O O2 0.522573 0.365227 0.248004
O O3 0.686286 0.565662 0.460915
O O4 0.642971 0.140849 0.335296
O O5 0.371240 0.587701 0.910319
O O6 0.336305 0.200123 0.781199
O O7 0.198350 0.339093 0.648418
O O8 0.357835 0.171417 0.972681
O O9 0.174684 0.242789 0.288422
O O10 0.000000 0.369704 0.000000
O O11 0.994017 0.456628 0.702185
O O12 0.107198 0.822044 0.831328
O O13 0.166780 0.959826 0.776281
O O14 0.269085 0.054819 0.052721
O O15 0.943041 0.212593 0.495808
O O16 0.000000 0.818219 0.500000
O O17 0.894660 0.721242 0.450651
#
# Coordination Sequence:
#
# PCOD9129804 Si02
#       8
#     4   4   4   4   4   4   4   4
#     4  11  24  46  69 109 151 203 266 322 397 478
#     4  11  27  49  72 115 161 205 272 335 402 482
#     4  11  23  44  71 100 153 209 257 320 397 474
#     4  12  27  50  80 117 157 208 275 337 409 503
#     4  11  25  44  72 106 155 213 256 332 399 477
#     4  12  28  54  83 119 160 209 269 345 425 498
#     4  12  26  53  80 113 157 207 261 329 419 500
#     4  12  29  50  84 118 161 208 272 342 408 498
#
# _framework density 26.084368000000001
#
# number of rings (size 3 to 8) (size 9 to 14) (size 15 to 20)
#    0.000    0.500    3.750    3.375    8.750    0.000 
#    6.750    0.000    0.000    0.000    0.000    0.000 
#    0.000    0.000    0.000    0.000    0.000    0.000 
#
# Total GULP energy -89219.182563 kJ/mol
# GULP energy per Si atom -5576.198910 kJ/mol
# Density = 2.602500 g / cm^3
# Si number density = 26.084368 Si / 1000 Ang^3
#
#
#
# Elastic Constant Matrix: (Units=GPa)
#
#
# Indices 1 2 3 4 5 6 
#
# 1 123.6503 36.5427 55.7932 0.0000 11.0527 0.0000
# 2 36.5427 83.9277 33.9640 0.0000 -11.8272 -0.0001
# 3 55.7932 33.9640 133.8081 -0.0001 -3.0960 0.0000
# 4 0.0000 0.0000 -0.0001 38.9704 0.0000 -0.2107
# 5 11.0527 -11.8272 -3.0960 0.0000 56.1229 0.0000
# 6 0.0000 -0.0001 0.0000 -0.2107 0.0000 27.2142
#
#
#
# Elastic Compliance Matrix: (Units=1/GPa)
#
#
# Indices 1 2 3 4 5 6 
#
# 1 0.011205 -0.003802 -0.003781 0.000000 -0.003216 0.000000
# 2 -0.003802 0.014964 -0.002126 0.000000 0.003785 0.000000
# 3 -0.003781 -0.002126 0.009609 0.000000 0.000827 0.000000
# 4 0.000000 0.000000 0.000000 0.025662 0.000000 0.000199
# 5 -0.003216 0.003785 0.000827 0.000000 0.019295 0.000000
# 6 0.000000 0.000000 0.000000 0.000199 0.000000 0.036747
#
#
# Mechanical properties :
#
#
# Convention : Reuss Voigt Hill
#
# Bulk Modulus (GPa) = 61.12407 65.99842 63.56125
# Shear Modulus (GPa) = 35.12457 38.80059 36.96258
#
# Velocity S-wave (km/s) = 3.67355 3.86100 3.76844
# Velocity P-wave (km/s) = 6.44030 6.72557 6.58448
#
# Compressibility (1/GPa) = 0.01636017
#
# Stress axis : x y z
#
# Youngs Moduli (GPa) = 89.24974 66.82817 104.07197
#
# Poissons Ratio (x) = 0.25405 0.39354
# Poissons Ratio (y) = 0.33928 0.22121
# Poissons Ratio (z) = 0.33749 0.14205
#
# Static dielectric constant tensor:
#      x y z
#    x 2.078850 0.000000 -0.068790 
#    y 0.000000 2.216420 0.000000 
#    z -0.068790 0.000000 2.224700 
# 
# From -- ./inp_files/63712.got.cif
#   From: 2010.05.17/outbox.cif.g08.bks.cpg/sg5_32_cif.got.tgz:63712.got - 2010.06.03 18:56:24.
