data_PCOD9129901
_publ_section_title
;
Structure prediction by ZEFSAII (Michael W. Deem and Ramdas Pophale) SiO2 
 PCOD9129901
Probable space group: C 2
;
_chemical_formula_sum "Si O2"
_cell_formula_units_Z 18
_cell_length_a 9.039621
_cell_length_b 15.198536
_cell_length_c 5.672220
_cell_angle_alpha 90.000000
_cell_angle_beta 108.247903
_cell_angle_gamma 90.000000
_cell_volume 740.110090
_symmetry_space_group_name_H-M "C 2"
_symmetry_group_IT_number 5
_symmetry_cell_setting 'monoclinic'
loop_
_space_group_symop_operation_xyz
x,y,z
-x,y,-z
1/2+x,1/2+y,z
1/2-x,1/2+y,-z
loop_
_atom_site_type_symbol
_atom_site_label
_atom_site_fract_x
_atom_site_fract_y
_atom_site_fract_z
Si Si1 0.625276 0.933160 0.748067
Si Si2 0.500000 0.785932 0.000000
Si Si3 0.828962 0.198946 0.523074
Si Si4 0.544566 0.117463 0.269370
Si Si5 0.091871 0.859089 0.294933
O O1 0.500000 0.897715 0.500000
O O2 0.616351 0.857975 0.939271
O O3 0.790721 0.939479 0.705689
O O4 0.553145 0.026769 0.783429
O O5 0.376252 0.721293 0.812963
O O6 0.730520 0.114564 0.390884
O O7 0.713642 0.277841 0.385761
O O8 0.000000 0.199159 0.500000
O O9 0.500000 0.159977 0.500000
O O10 0.500000 0.160620 0.000000
O O11 0.000000 0.868722 0.500000
O O12 0.000000 0.850474 0.000000
#
# Coordination Sequence:
#
# PCOD9129901 Si02
#       5
#     4   2   4   4   4
#     4  11  23  47  76 109 154 205 247 321 386 452
#     4  12  20  44  82 112 148 196 268 314 376 452
#     4  12  26  44  77 113 153 202 257 319 383 460
#     4  11  27  48  75 106 158 204 246 310 401 452
#     4  12  25  42  74 117 148 195 264 317 374 456
#
# _framework density 24.320703999999999
#
# number of rings (size 3 to 8) (size 9 to 14) (size 15 to 20)
#    0.000    0.444    5.556    2.667    3.111    0.000 
#    0.000    8.889    0.000    0.000    0.000    0.000 
#    0.000    0.000    0.000    0.000    0.000    0.000 
#
# Total GULP energy -50111.557866 kJ/mol
# GULP energy per Si atom -5567.950874 kJ/mol
# Density = 2.426535 g / cm^3
# Si number density = 24.320704 Si / 1000 Ang^3
#
#
#
# Elastic Constant Matrix: (Units=GPa)
#
#
# Indices 1 2 3 4 5 6 
#
# 1 201.5566 46.2500 73.1727 0.0000 0.2390 0.0000
# 2 46.2500 87.3705 37.1925 0.0000 11.2649 0.0000
# 3 73.1727 37.1925 191.8129 0.0000 18.1140 0.0000
# 4 0.0000 0.0000 0.0000 3.9410 0.0000 10.8977
# 5 0.2390 11.2649 18.1140 0.0000 53.1922 0.0000
# 6 0.0000 0.0000 0.0000 10.8977 0.0000 28.5246
#
#
#
# Elastic Compliance Matrix: (Units=1/GPa)
#
#
# Indices 1 2 3 4 5 6 
#
# 1 0.006292 -0.002634 -0.002004 0.000000 0.001212 0.000000
# 2 -0.002634 0.013762 -0.001436 0.000000 -0.002414 0.000000
# 3 -0.002004 -0.001436 0.006434 0.000000 -0.001878 0.000000
# 4 0.000000 0.000000 0.000000 -4.495958 0.000000 1.717661
# 5 0.001212 -0.002414 -0.001878 0.000000 0.019945 0.000000
# 6 0.000000 0.000000 0.000000 1.717661 0.000000 -0.621167
#
#
# Mechanical properties :
#
#
# Convention : Reuss Voigt Hill
#
# Bulk Modulus (GPa) = 69.73275 88.21893 78.97584
# Shear Modulus (GPa) = -0.98936 38.73986 18.87525
#
# Velocity S-wave (km/s) = -0.63850 3.99541 2.78888
# Velocity P-wave (km/s) = 5.30951 7.59186 6.55085
#
# Compressibility (1/GPa) = 0.01434046
#
# Stress axis : x y z
#
# Youngs Moduli (GPa) = 158.93639 72.66316 155.43360
#
# Poissons Ratio (x) = 0.19138 0.31148
# Poissons Ratio (y) = 0.41861 0.22317
# Poissons Ratio (z) = 0.31850 0.10433
#
# Static dielectric constant tensor:
#      x y z
#    x 2.074980 0.000000 -0.116790 
#    y 0.000000 2.073810 0.000000 
#    z -0.116790 0.000000 2.073720 
# 
# From -- ./inp_files/2497.got.cif
#   From: 2010.05.17/outbox.cif.g08.bks.cpg/sg5_2_cif.got.tgz:2497.got - 2010.06.03 18:56:24.
