data_PCOD9129617
_publ_section_title
;
Structure prediction by ZEFSAII (Michael W. Deem and Ramdas Pophale) SiO2 
 PCOD9129617
Probable space group: C 2
;
_chemical_formula_sum "Si O2"
_cell_formula_units_Z 32
_cell_length_a 11.377159
_cell_length_b 8.222203
_cell_length_c 29.368128
_cell_angle_alpha 90.000000
_cell_angle_beta 29.079275
_cell_angle_gamma 90.000000
_cell_volume 1335.216812
_symmetry_space_group_name_H-M "C 2"
_symmetry_group_IT_number 5
_symmetry_cell_setting 'monoclinic'
loop_
_space_group_symop_operation_xyz
x,y,z
-x,y,-z
1/2+x,1/2+y,z
1/2-x,1/2+y,-z
loop_
_atom_site_type_symbol
_atom_site_label
_atom_site_fract_x
_atom_site_fract_y
_atom_site_fract_z
Si Si1 0.499540 0.813210 0.375646
Si Si2 0.189537 0.398263 0.649918
Si Si3 0.005733 0.745292 0.688532
Si Si4 0.049373 0.238100 0.114970
Si Si5 0.681646 0.364456 0.053177
Si Si6 0.619838 0.453390 0.564233
Si Si7 0.273591 0.758571 0.851603
Si Si8 0.537345 0.392086 0.197197
O O1 0.347257 0.787766 0.381352
O O2 0.492614 0.633073 0.398385
O O3 0.377278 0.934700 0.452974
O O4 0.759800 0.882153 0.273535
O O5 0.434261 0.361890 0.593376
O O6 0.152885 0.577357 0.640368
O O7 0.971756 0.365801 0.758435
O O8 0.720495 0.733153 0.773856
O O9 0.115709 0.870116 0.614940
O O10 0.991433 0.802447 0.745406
O O11 0.219974 0.307163 0.097297
O O12 0.121398 0.054737 0.077757
O O13 0.081314 0.337737 0.057544
O O14 0.470208 0.279121 0.094998
O O15 0.684907 0.312893 0.105085
O O16 0.361975 0.571143 0.825403
#
# Coordination Sequence:
#
# PCOD9129617 Si02
#       8
#     4   4   4   4   4   4   4   4
#     4  12  26  48  71 106 142 184 235 287 354 416
#     4  12  23  47  74  98 138 186 232 286 352 414
#     4  12  25  46  71 101 143 185 234 288 348 420
#     4  11  25  43  69 104 135 186 233 286 351 418
#     4  11  25  45  69 101 141 180 236 289 346 417
#     4  12  28  46  72 104 143 184 234 296 346 418
#     4  11  22  45  73  96 137 185 231 288 353 412
#     4  11  26  44  71 102 141 184 233 288 348 421
#
# _framework density 23.966145999999998
#
# number of rings (size 3 to 8) (size 9 to 14) (size 15 to 20)
#    0.000    0.500    5.000    3.000    3.500    2.000 
#    4.500    0.000    0.000    0.000    0.000    0.000 
#    0.000    0.000    0.000    0.000    0.000    0.000 
#
# Total GULP energy -89481.874170 kJ/mol
# GULP energy per Si atom -5592.617136 kJ/mol
# Density = 2.391160 g / cm^3
# Si number density = 23.966146 Si / 1000 Ang^3
#
#
#
# Elastic Constant Matrix: (Units=GPa)
#
#
# Indices 1 2 3 4 5 6 
#
# 1 120.3278 10.7228 8.1190 -0.0006 25.0901 0.0002
# 2 10.7228 54.4646 8.6821 -0.0002 6.6539 0.0001
# 3 8.1190 8.6821 88.1970 -0.0052 24.3471 -0.0012
# 4 -0.0006 -0.0002 -0.0052 31.0540 -0.0003 3.7109
# 5 25.0901 6.6539 24.3471 -0.0003 29.0737 -0.0005
# 6 0.0002 0.0001 -0.0012 3.7109 -0.0005 31.3046
#
#
#
# Elastic Compliance Matrix: (Units=1/GPa)
#
#
# Indices 1 2 3 4 5 6 
#
# 1 0.010456 -0.001103 0.002039 0.000000 -0.010478 0.000000
# 2 -0.001103 0.019056 -0.001084 0.000000 -0.002501 0.000000
# 3 0.002039 -0.001084 0.015185 0.000002 -0.014227 0.000000
# 4 0.000000 0.000000 0.000002 0.032665 -0.000002 -0.003872
# 5 -0.010478 -0.002501 -0.014227 -0.000002 0.055925 0.000001
# 6 0.000000 0.000000 0.000000 -0.003872 0.000001 0.032403
#
#
# Mechanical properties :
#
#
# Convention : Reuss Voigt Hill
#
# Bulk Modulus (GPa) = 22.52254 35.33748 28.93001
# Shear Modulus (GPa) = 27.65685 33.98416 30.82050
#
# Velocity S-wave (km/s) = 3.40074 3.76973 3.58998
# Velocity P-wave (km/s) = 4.98378 5.80729 5.41122
#
# Compressibility (1/GPa) = 0.04439996
#
# Stress axis : x y z
#
# Youngs Moduli (GPa) = 95.63644 52.47650 65.85535
#
# Poissons Ratio (x) = 0.05791 -0.13425
# Poissons Ratio (y) = 0.10553 0.07137
# Poissons Ratio (z) = -0.19497 0.05687
#
# Static dielectric constant tensor:
#      x y z
#    x 1.988360 0.000000 -0.053520 
#    y 0.000000 1.889790 0.000000 
#    z -0.053520 0.000000 1.951530 
# 
# From -- ./inp_files/71741.got.cif
#   From: 2010.05.17/outbox.cif.g08.bks.cpg/sg5_36_cif.got.tgz:71741.got - 2010.06.03 18:56:24.
