data_PCOD9129127
_publ_section_title
;
Structure prediction by ZEFSAII (Michael W. Deem and Ramdas Pophale) SiO2 
 PCOD9129127
Probable space group: C 2
;
_chemical_formula_sum "Si O2"
_cell_formula_units_Z 20
_cell_length_a 23.523376
_cell_length_b 5.005959
_cell_length_c 8.485946
_cell_angle_alpha 90.000000
_cell_angle_beta 129.690003
_cell_angle_gamma 90.000000
_cell_volume 768.956961
_symmetry_space_group_name_H-M "C 2"
_symmetry_group_IT_number 5
_symmetry_cell_setting 'monoclinic'
loop_
_space_group_symop_operation_xyz
x,y,z
-x,y,-z
1/2+x,1/2+y,z
1/2-x,1/2+y,-z
loop_
_atom_site_type_symbol
_atom_site_label
_atom_site_fract_x
_atom_site_fract_y
_atom_site_fract_z
Si Si1 0.275774 0.935570 0.239797
Si Si2 0.846166 0.917184 0.520047
Si Si3 0.501898 0.400031 0.664426
Si Si4 0.356520 0.114084 0.064197
Si Si5 0.923735 0.246917 0.934468
O O1 0.308821 0.656257 0.357547
O O2 0.293309 0.161046 0.402401
O O3 0.312134 0.996462 0.134100
O O4 0.189526 0.880928 0.058311
O O5 0.920994 0.815681 0.569973
O O6 0.877708 0.062257 0.731877
O O7 0.500000 0.565837 0.500000
O O8 0.560272 0.168995 0.735043
O O9 0.537862 0.560569 0.869046
O O10 0.368850 0.948625 0.925725
O O11 0.000000 0.384483 0.000000
#
# Coordination Sequence:
#
# PCOD9129127 Si02
#       5
#     4   4   4   4   4
#     4  12  28  52  82 124 168 216 280 338 423 491
#     4  11  27  53  82 120 166 217 273 348 416 498
#     4  11  24  46  81 119 157 218 279 338 408 483
#     4  12  28  49  87 121 166 220 278 349 407 502
#     4  10  27  49  85 122 168 215 284 343 419 492
#
# _framework density 26.009253999999999
#
# number of rings (size 3 to 8) (size 9 to 14) (size 15 to 20)
#    0.000    0.800    2.000    2.400   14.000    1.600 
#    3.600    0.000    0.000    0.000    0.000    0.000 
#    0.000    0.000    0.000    0.000    0.000    0.000 
#
# Total GULP energy -55986.235687 kJ/mol
# GULP energy per Si atom -5598.623569 kJ/mol
# Density = 2.595006 g / cm^3
# Si number density = 26.009254 Si / 1000 Ang^3
#
#
#
# Elastic Constant Matrix: (Units=GPa)
#
#
# Indices 1 2 3 4 5 6 
#
# 1 98.6794 20.5819 19.0667 0.0000 10.9028 0.0000
# 2 20.5819 108.4946 33.2138 0.0000 11.1075 0.0000
# 3 19.0667 33.2138 121.7670 0.0000 0.3680 0.0000
# 4 0.0000 0.0000 0.0000 47.5551 0.0000 -1.5875
# 5 10.9028 11.1075 0.3680 0.0000 52.1527 0.0000
# 6 0.0000 0.0000 0.0000 -1.5875 0.0000 46.1697
#
#
#
# Elastic Compliance Matrix: (Units=1/GPa)
#
#
# Indices 1 2 3 4 5 6 
#
# 1 0.010908 -0.001471 -0.001301 0.000000 -0.001958 0.000000
# 2 -0.001471 0.010496 -0.002627 0.000000 -0.001909 0.000000
# 3 -0.001301 -0.002627 0.009130 0.000000 0.000767 0.000000
# 4 0.000000 0.000000 0.000000 0.021052 0.000000 0.000724
# 5 -0.001958 -0.001909 0.000767 0.000000 0.019985 0.000000
# 6 0.000000 0.000000 0.000000 0.000724 0.000000 0.021684
#
#
# Mechanical properties :
#
#
# Convention : Reuss Voigt Hill
#
# Bulk Modulus (GPa) = 50.66521 52.74063 51.70292
# Shear Modulus (GPa) = 45.19497 46.24741 45.72119
#
# Velocity S-wave (km/s) = 4.17303 4.22134 4.19726
# Velocity P-wave (km/s) = 6.53766 6.63938 6.58871
#
# Compressibility (1/GPa) = 0.01973741
#
# Stress axis : x y z
#
# Youngs Moduli (GPa) = 91.67354 95.27743 109.52541
#
# Poissons Ratio (x) = 0.14012 0.14249
# Poissons Ratio (y) = 0.13482 0.28770
# Poissons Ratio (z) = 0.11927 0.25028
#
# Static dielectric constant tensor:
#      x y z
#    x 2.078790 0.000000 -0.033450 
#    y 0.000000 2.044640 0.000000 
#    z -0.033450 0.000000 2.044480 
# 
# From -- ./inp_files/30356.got.cif
#   From: 2010.05.17/outbox.cif.g08.bks.cpg/sg5_16_cif.got.tgz:30356.got - 2010.06.03 18:56:24.
