data_PCOD9129294
_publ_section_title
;
Structure prediction by ZEFSAII (Michael W. Deem and Ramdas Pophale) SiO2 
 PCOD9129294
Probable space group: C 2
;
_chemical_formula_sum "Si O2"
_cell_formula_units_Z 24
_cell_length_a 19.528677
_cell_length_b 7.113023
_cell_length_c 8.495083
_cell_angle_alpha 90.000000
_cell_angle_beta 70.446204
_cell_angle_gamma 90.000000
_cell_volume 1111.979038
_symmetry_space_group_name_H-M "C 2"
_symmetry_group_IT_number 5
_symmetry_cell_setting 'monoclinic'
loop_
_space_group_symop_operation_xyz
x,y,z
-x,y,-z
1/2+x,1/2+y,z
1/2-x,1/2+y,-z
loop_
_atom_site_type_symbol
_atom_site_label
_atom_site_fract_x
_atom_site_fract_y
_atom_site_fract_z
Si Si1 0.293473 0.901910 0.152954
Si Si2 0.457379 0.181272 0.690855
Si Si3 0.413615 0.060374 0.229551
Si Si4 0.732022 0.344036 0.856252
Si Si5 0.072379 0.928809 0.002138
Si Si6 0.317218 0.118740 0.610128
O O1 0.375371 0.894130 0.160715
O O2 0.236203 0.790743 0.306155
O O3 0.281682 0.126414 0.164714
O O4 0.276735 0.851237 0.985023
O O5 0.500000 0.232241 0.500000
O O6 0.508222 0.034126 0.746401
O O7 0.444428 0.361225 0.808996
O O8 0.379236 0.112281 0.697059
O O9 0.358389 0.117236 0.413121
O O10 0.426230 0.241000 0.109227
O O11 0.772002 0.431415 0.676126
O O12 0.658486 0.471125 0.932941
O O13 0.000000 0.038106 0.000000
#
# Coordination Sequence:
#
# PCOD9129294 Si02
#       6
#     4   4   4   4   4   4
#     4  11  21  36  59  87 118 156 201 251 296 358
#     4   9  17  35  60  85 115 162 199 239 300 366
#     4   9  21  33  58  90 118 159 196 248 301 359
#     4  11  21  37  59  88 119 160 201 252 302 356
#     4   9  17  34  56  83 119 154 200 241 299 360
#     4  11  21  37  61  87 124 156 206 246 305 360
#
# _framework density 21.583141000000001
#
# number of rings (size 3 to 8) (size 9 to 14) (size 15 to 20)
#    0.000    2.000    3.333    1.000    4.667    0.000 
#    0.000    0.000    3.667   10.000    0.000    0.000 
#    0.000    0.000    0.000    0.000    0.000    0.000 
#
# Total GULP energy -66843.232408 kJ/mol
# GULP energy per Si atom -5570.269367 kJ/mol
# Density = 2.153402 g / cm^3
# Si number density = 21.583141 Si / 1000 Ang^3
#
#
#
# Elastic Constant Matrix: (Units=GPa)
#
#
# Indices 1 2 3 4 5 6 
#
# 1 127.3002 0.6789 19.1322 0.0000 12.7985 0.0000
# 2 0.6789 40.3624 2.2134 0.0000 -1.2794 0.0000
# 3 19.1322 2.2134 73.4991 0.0000 -0.5037 0.0000
# 4 0.0000 0.0000 0.0000 17.7053 0.0000 -1.9762
# 5 12.7985 -1.2794 -0.5037 0.0000 38.0100 0.0000
# 6 0.0000 0.0000 0.0000 -1.9762 0.0000 24.1740
#
#
#
# Elastic Compliance Matrix: (Units=1/GPa)
#
#
# Indices 1 2 3 4 5 6 
#
# 1 0.008481 -0.000112 -0.002224 0.000000 -0.002889 0.000000
# 2 -0.000112 0.024844 -0.000713 0.000000 0.000865 0.000000
# 3 -0.002224 -0.000713 0.014212 0.000000 0.000913 0.000000
# 4 0.000000 0.000000 0.000000 0.057000 0.000000 0.004660
# 5 -0.002889 0.000865 0.000913 0.000000 0.027323 0.000000
# 6 0.000000 0.000000 0.000000 0.004660 0.000000 0.041748
#
#
# Mechanical properties :
#
#
# Convention : Reuss Voigt Hill
#
# Bulk Modulus (GPa) = 24.13220 31.69006 27.91113
# Shear Modulus (GPa) = 25.83723 30.58700 28.21212
#
# Velocity S-wave (km/s) = 3.46367 3.76862 3.61936
# Velocity P-wave (km/s) = 5.21549 5.80097 5.51601
#
# Compressibility (1/GPa) = 0.04143841
#
# Stress axis : x y z
#
# Youngs Moduli (GPa) = 117.91438 40.25127 70.36185
#
# Poissons Ratio (x) = 0.00452 0.15648
# Poissons Ratio (y) = 0.01324 0.05017
# Poissons Ratio (z) = 0.26224 0.02870
#
# Static dielectric constant tensor:
#      x y z
#    x 1.957400 0.000000 0.010390 
#    y 0.000000 1.769560 0.000000 
#    z 0.010390 0.000000 1.748580 
# 
# From -- ./inp_files/26452.got.cif
#   From: 2010.05.17/outbox.cif.g08.bks.cpg/sg5_14_cif.got.tgz:26452.got - 2010.06.03 18:56:24.
