data_PCOD9129313
_publ_section_title
;
Structure prediction by ZEFSAII (Michael W. Deem and Ramdas Pophale) SiO2 
 PCOD9129313
Probable space group: C 2
;
_chemical_formula_sum "Si O2"
_cell_formula_units_Z 20
_cell_length_a 24.583877
_cell_length_b 6.907176
_cell_length_c 9.331193
_cell_angle_alpha 90.000000
_cell_angle_beta 142.522996
_cell_angle_gamma 90.000000
_cell_volume 964.068608
_symmetry_space_group_name_H-M "C 2"
_symmetry_group_IT_number 5
_symmetry_cell_setting 'monoclinic'
loop_
_space_group_symop_operation_xyz
x,y,z
-x,y,-z
1/2+x,1/2+y,z
1/2-x,1/2+y,-z
loop_
_atom_site_type_symbol
_atom_site_label
_atom_site_fract_x
_atom_site_fract_y
_atom_site_fract_z
Si Si1 0.309338 0.125000 0.812293
Si Si2 0.408906 0.512376 0.052234
Si Si3 0.357360 0.843498 0.126715
Si Si4 0.864075 0.294267 0.704032
Si Si5 0.954726 0.296430 0.608951
O O1 0.222325 0.225737 0.565172
O O2 0.381627 0.292341 0.989710
O O3 0.340946 0.969453 0.760589
O O4 0.394743 0.616386 0.868955
O O5 0.345063 0.632141 0.029312
O O6 0.509096 0.573185 0.310736
O O7 0.374943 0.830817 0.331417
O O8 0.455724 0.896934 0.264656
O O9 0.293079 0.001947 0.923669
O O10 0.567139 0.853558 0.275887
#
# Coordination Sequence:
#
# PCOD9129313 Si02
#       5
#     4   4   4   4   4
#     4  11  21  38  60  83 122 153 190 233 299 332
#     4   9  19  38  61  82 113 153 188 241 283 338
#     4   8  20  41  57  80 117 152 188 244 274 347
#     4  11  21  38  58  89 119 150 189 247 277 350
#     4   9  19  43  57  80 123 144 195 245 277 331
#
# _framework density 20.745412999999999
#
# number of rings (size 3 to 8) (size 9 to 14) (size 15 to 20)
#    1.200    1.200    2.000    0.600    0.000    0.000 
#   18.000    0.000    0.000    0.000    0.000    0.000 
#    0.000    0.000    0.000    0.000    0.000    0.000 
#
# Total GULP energy -55672.387581 kJ/mol
# GULP energy per Si atom -5567.238758 kJ/mol
# Density = 2.069820 g / cm^3
# Si number density = 20.745413 Si / 1000 Ang^3
#
#
#
# Elastic Constant Matrix: (Units=GPa)
#
#
# Indices 1 2 3 4 5 6 
#
# 1 58.8247 8.5973 13.3921 0.0000 -26.0354 0.0000
# 2 8.5973 105.1616 39.6151 0.0000 -18.5245 0.0000
# 3 13.3921 39.6151 76.5655 0.0000 -32.2877 0.0000
# 4 0.0000 0.0000 0.0000 32.4450 0.0000 -2.4576
# 5 -26.0354 -18.5245 -32.2877 0.0000 35.6403 0.0000
# 6 0.0000 0.0000 0.0000 -2.4576 0.0000 4.8518
#
#
#
# Elastic Compliance Matrix: (Units=1/GPa)
#
#
# Indices 1 2 3 4 5 6 
#
# 1 0.026589 0.000005 0.005726 0.000000 0.024614 0.000000
# 2 0.000005 0.011832 -0.005709 0.000000 0.000982 0.000000
# 3 0.005726 -0.005709 0.025124 0.000000 0.023976 0.000000
# 4 0.000000 0.000000 0.000000 0.032051 0.000000 0.016235
# 5 0.024614 0.000982 0.023976 0.000000 0.068270 0.000000
# 6 0.000000 0.000000 0.000000 0.016235 0.000000 0.214335
#
#
# Mechanical properties :
#
#
# Convention : Reuss Voigt Hill
#
# Bulk Modulus (GPa) = 15.72580 40.41788 28.07184
# Shear Modulus (GPa) = 12.52026 26.51723 19.51875
#
# Velocity S-wave (km/s) = 2.45933 3.57910 3.07069
# Velocity P-wave (km/s) = 3.95743 6.05021 5.11206
#
# Compressibility (1/GPa) = 0.06358977
#
# Stress axis : x y z
#
# Youngs Moduli (GPa) = 37.60933 84.51448 39.80299
#
# Poissons Ratio (x) = -0.00041 -0.22793
# Poissons Ratio (y) = -0.00018 0.22723
# Poissons Ratio (z) = -0.21537 0.48249
#
# Static dielectric constant tensor:
#      x y z
#    x 1.778770 0.000000 0.020740 
#    y 0.000000 1.724340 0.000000 
#    z 0.020740 0.000000 1.821650 
# 
# From -- ./inp_files/47790.got.cif
#   From: 2010.05.17/outbox.cif.g08.bks.cpg/sg5_24_cif.got.tgz:47790.got - 2010.06.03 18:56:24.
