data_PCOD9129358
_publ_section_title
;
Structure prediction by ZEFSAII (Michael W. Deem and Ramdas Pophale) SiO2 
 PCOD9129358
Probable space group: C 2
;
_chemical_formula_sum "Si O2"
_cell_formula_units_Z 22
_cell_length_a 15.138479
_cell_length_b 6.385872
_cell_length_c 25.458252
_cell_angle_alpha 90.000000
_cell_angle_beta 22.720995
_cell_angle_gamma 90.000000
_cell_volume 950.589145
_symmetry_space_group_name_H-M "C 2"
_symmetry_group_IT_number 5
_symmetry_cell_setting 'monoclinic'
loop_
_space_group_symop_operation_xyz
x,y,z
-x,y,-z
1/2+x,1/2+y,z
1/2-x,1/2+y,-z
loop_
_atom_site_type_symbol
_atom_site_label
_atom_site_fract_x
_atom_site_fract_y
_atom_site_fract_z
Si Si1 0.759553 0.915880 0.700707
Si Si2 0.500000 0.112940 0.500000
Si Si3 0.372499 0.452188 0.360472
Si Si4 0.531913 0.782306 0.344106
Si Si5 0.919439 0.697653 0.833775
Si Si6 0.014152 0.024792 0.878178
O O1 0.952337 0.761211 0.574468
O O2 0.573946 0.758937 0.826271
O O3 0.872890 0.079478 0.677248
O O4 0.636927 0.045536 0.722230
O O5 0.714998 0.974812 0.395336
O O6 0.465396 0.679322 0.325444
O O7 0.568282 0.301117 0.230705
O O8 0.195564 0.368555 0.501757
O O9 0.747835 0.937027 0.228311
O O10 0.694885 0.558699 0.967466
O O11 0.939455 0.870015 0.870881
#
# Coordination Sequence:
#
# PCOD9129358 Si02
#       6
#     4   2   4   4   4   4
#     4  11  21  41  71 101 137 181 229 301 347 423
#     4  12  20  40  74 104 130 178 250 280 354 412
#     4  12  24  45  73 105 139 191 235 294 352 426
#     4  11  26  44  70 102 149 183 236 293 362 417
#     4  11  23  42  76 104 137 183 246 288 354 421
#     4  11  22  43  74 105 138 187 229 301 350 427
#
# _framework density 23.143543999999999
#
# number of rings (size 3 to 8) (size 9 to 14) (size 15 to 20)
#    0.000    0.727    5.455    3.273    0.000    0.000 
#    0.000    0.909    8.000    0.000    0.000    0.000 
#    0.000    0.000    0.000    0.000    0.000    0.000 
#
# Total GULP energy -61450.181532 kJ/mol
# GULP energy per Si atom -5586.380139 kJ/mol
# Density = 2.309087 g / cm^3
# Si number density = 23.143544 Si / 1000 Ang^3
#
#
#
# Elastic Constant Matrix: (Units=GPa)
#
#
# Indices 1 2 3 4 5 6 
#
# 1 53.3347 23.8276 30.1725 -0.0027 -6.3466 0.0004
# 2 23.8276 89.9445 32.6638 -0.0025 -3.3114 0.0019
# 3 30.1725 32.6638 131.7152 -0.0150 2.0555 -0.0019
# 4 -0.0027 -0.0025 -0.0150 45.5629 0.0021 6.1714
# 5 -6.3466 -3.3114 2.0555 0.0021 11.1360 -0.0002
# 6 0.0004 0.0019 -0.0019 6.1714 -0.0002 32.3969
#
#
#
# Elastic Compliance Matrix: (Units=1/GPa)
#
#
# Indices 1 2 3 4 5 6 
#
# 1 0.025123 -0.004367 -0.004889 -0.000001 0.013922 0.000000
# 2 -0.004367 0.013177 -0.002296 0.000000 0.001853 -0.000001
# 3 -0.004889 -0.002296 0.009363 0.000003 -0.005197 0.000000
# 4 -0.000001 0.000000 0.000003 0.022529 -0.000005 -0.004292
# 5 0.013922 0.001853 -0.005197 -0.000005 0.099243 0.000001
# 6 0.000000 -0.000001 0.000000 -0.004292 0.000001 0.031685
#
#
# Mechanical properties :
#
#
# Convention : Reuss Voigt Hill
#
# Bulk Modulus (GPa) = 40.72117 49.81357 45.26737
# Shear Modulus (GPa) = 21.51357 30.37454 25.94406
#
# Velocity S-wave (km/s) = 3.05219 3.62669 3.35178
# Velocity P-wave (km/s) = 5.48219 6.25361 5.88057
#
# Compressibility (1/GPa) = 0.02455725
#
# Stress axis : x y z
#
# Youngs Moduli (GPa) = 39.80371 75.88947 106.80699
#
# Poissons Ratio (x) = 0.33144 0.52221
# Poissons Ratio (y) = 0.17384 0.24525
# Poissons Ratio (z) = 0.19461 0.17426
#
# Static dielectric constant tensor:
#      x y z
#    x 1.938060 0.000000 0.034060 
#    y 0.000000 1.879930 0.000000 
#    z 0.034060 0.000000 1.902040 
# 
# From -- ./inp_files/55170.got.cif
#   From: 2010.05.17/outbox.cif.g08.bks.cpg/sg5_28_cif.got.tgz:55170.got - 2010.06.03 18:56:24.
