data_PCOD9129369
_publ_section_title
;
Structure prediction by ZEFSAII (Michael W. Deem and Ramdas Pophale) SiO2 
 PCOD9129369
Probable space group: C 2
;
_chemical_formula_sum "Si O2"
_cell_formula_units_Z 22
_cell_length_a 19.931807
_cell_length_b 6.092877
_cell_length_c 13.341295
_cell_angle_alpha 90.000000
_cell_angle_beta 30.864713
_cell_angle_gamma 90.000000
_cell_volume 831.180189
_symmetry_space_group_name_H-M "C 2"
_symmetry_group_IT_number 5
_symmetry_cell_setting 'monoclinic'
loop_
_space_group_symop_operation_xyz
x,y,z
-x,y,-z
1/2+x,1/2+y,z
1/2-x,1/2+y,-z
loop_
_atom_site_type_symbol
_atom_site_label
_atom_site_fract_x
_atom_site_fract_y
_atom_site_fract_z
Si Si1 0.546675 0.285440 0.078149
Si Si2 0.232379 0.566851 0.285296
Si Si3 0.500000 0.839242 0.500000
Si Si4 0.191855 0.551164 0.563908
Si Si5 0.457930 0.573617 0.737634
Si Si6 0.724490 0.913946 0.914734
O O1 0.432293 0.110130 0.205755
O O2 0.483620 0.444043 0.243877
O O3 0.630722 0.431744 0.892969
O O4 0.660942 0.149743 0.985373
O O5 0.165438 0.556141 0.478242
O O6 0.261622 0.812846 0.213428
O O7 0.130527 0.484896 0.329978
O O8 0.535561 0.687343 0.549089
O O9 0.225524 0.286888 0.533197
O O10 0.358703 0.424830 0.801873
O O11 0.373312 0.760891 0.899200
#
# Coordination Sequence:
#
# PCOD9129369 Si02
#       6
#     4   4   2   4   4   4
#     4  11  26  48  77 108 157 207 264 331 401 480
#     4  11  28  47  78 116 152 212 254 332 412 485
#     4  12  24  42  74 118 166 190 250 316 412 504
#     4  12  33  57  82 113 157 213 286 347 390 470
#     4  11  22  37  69 112 156 198 236 311 398 493
#     4  11  21  42  68 108 152 194 253 305 402 488
#
# _framework density 26.468388000000001
#
# number of rings (size 3 to 8) (size 9 to 14) (size 15 to 20)
#    0.000    0.727    3.636    2.182   15.273    0.727 
#    0.000    0.000    0.000    0.000    0.000    0.000 
#    0.000    0.000    0.000    0.000    0.000    0.000 
#
# Total GULP energy -61391.505096 kJ/mol
# GULP energy per Si atom -5581.045918 kJ/mol
# Density = 2.640814 g / cm^3
# Si number density = 26.468388 Si / 1000 Ang^3
#
#
#
# Elastic Constant Matrix: (Units=GPa)
#
#
# Indices 1 2 3 4 5 6 
#
# 1 32.6095 27.7515 10.0390 -0.0013 3.0567 0.0008
# 2 27.7515 128.7131 33.3034 -0.0052 -9.7016 0.0045
# 3 10.0390 33.3034 71.1676 -0.0028 -7.9579 0.0016
# 4 -0.0013 -0.0052 -0.0028 49.0461 0.0011 -8.0400
# 5 3.0567 -9.7016 -7.9579 0.0011 39.0613 -0.0002
# 6 0.0008 0.0045 0.0016 -8.0400 -0.0002 43.2685
#
#
#
# Elastic Compliance Matrix: (Units=1/GPa)
#
#
# Indices 1 2 3 4 5 6 
#
# 1 0.038871 -0.008214 -0.002259 0.000000 -0.005542 0.000000
# 2 -0.008214 0.010649 -0.003538 0.000001 0.002567 -0.000001
# 3 -0.002259 -0.003538 0.016319 0.000000 0.002623 0.000000
# 4 0.000000 0.000001 0.000000 0.021030 0.000000 0.003908
# 5 -0.005542 0.002567 0.002623 0.000000 0.027206 0.000000
# 6 0.000000 -0.000001 0.000000 0.003908 0.000000 0.023838
#
#
# Mechanical properties :
#
#
# Convention : Reuss Voigt Hill
#
# Bulk Modulus (GPa) = 26.44279 41.63090 34.03684
# Shear Modulus (GPa) = 28.00487 37.03492 32.51990
#
# Velocity S-wave (km/s) = 3.25630 3.74466 3.50899
# Velocity P-wave (km/s) = 4.91426 5.87021 5.41338
#
# Compressibility (1/GPa) = 0.03781749
#
# Stress axis : x y z
#
# Youngs Moduli (GPa) = 25.72582 93.90497 61.27934
#
# Poissons Ratio (x) = 0.77135 0.13844
# Poissons Ratio (y) = 0.21132 0.21678
# Poissons Ratio (z) = 0.05812 0.33219
#
# Static dielectric constant tensor:
#      x y z
#    x 2.111150 0.000000 -0.005710 
#    y 0.000000 2.083410 0.000000 
#    z -0.005710 0.000000 2.061610 
# 
# From -- ./inp_files/57434.got.cif
#   From: 2010.05.17/outbox.cif.g08.bks.cpg/sg5_29_cif.got.tgz:57434.got - 2010.06.03 18:56:24.
