data_PCOD9129356
_publ_section_title
;
Structure prediction by ZEFSAII (Michael W. Deem and Ramdas Pophale) SiO2 
 PCOD9129356
Probable space group: C 2
;
_chemical_formula_sum "Si O2"
_cell_formula_units_Z 26
_cell_length_a 12.129010
_cell_length_b 11.187409
_cell_length_c 11.902673
_cell_angle_alpha 90.000000
_cell_angle_beta 45.199488
_cell_angle_gamma 90.000000
_cell_volume 1146.017408
_symmetry_space_group_name_H-M "C 2"
_symmetry_group_IT_number 5
_symmetry_cell_setting 'monoclinic'
loop_
_space_group_symop_operation_xyz
x,y,z
-x,y,-z
1/2+x,1/2+y,z
1/2-x,1/2+y,-z
loop_
_atom_site_type_symbol
_atom_site_label
_atom_site_fract_x
_atom_site_fract_y
_atom_site_fract_z
Si Si1 0.195862 0.460180 0.223865
Si Si2 0.737168 0.120915 0.406685
Si Si3 0.991459 0.261226 0.873668
Si Si4 0.144361 0.702076 0.115722
Si Si5 0.000000 0.789974 0.000000
Si Si6 0.623871 0.943210 0.632017
Si Si7 0.944099 0.844493 0.434364
O O1 0.203283 0.522864 0.338713
O O2 0.182634 0.570795 0.142200
O O3 0.025485 0.401546 0.332166
O O4 0.348038 0.377154 0.110831
O O5 0.641215 0.236287 0.440156
O O6 0.913627 0.163471 0.267743
O O7 0.658434 0.081590 0.580424
O O8 0.075350 0.387844 0.786382
O O9 0.813251 0.257074 0.967639
O O10 0.000000 0.232852 0.000000
O O11 0.068959 0.793798 0.259469
O O12 0.035484 0.708695 0.083962
O O13 0.795305 0.896761 0.476739
O O14 0.000000 0.924103 0.500000
#
# Coordination Sequence:
#
# PCOD9129356 Si02
#       7
#     4   4   4   4   2   4   4
#     4  12  22  44  71  99 137 195 244 296 377 439
#     4  11  21  41  72  98 128 188 241 286 364 453
#     4  11  22  43  73 104 140 187 248 307 369 442
#     4  12  23  44  68 107 145 187 248 314 366 449
#     4  12  28  44  68 112 148 186 244 316 372 448
#     4  11  23  39  67 105 137 186 240 302 373 443
#     4  11  21  41  69  97 138 184 242 300 360 445
#
# _framework density 22.687265
#
# number of rings (size 3 to 8) (size 9 to 14) (size 15 to 20)
#    0.000    0.615    6.154    3.231    0.000    0.000 
#    1.385    1.538    0.000    0.000    0.000    0.000 
#    0.000    0.000    0.000    0.000    0.000    0.000 
#
# Total GULP energy -72390.721506 kJ/mol
# GULP energy per Si atom -5568.517039 kJ/mol
# Density = 2.263563 g / cm^3
# Si number density = 22.687265 Si / 1000 Ang^3
#
#
#
# Elastic Constant Matrix: (Units=GPa)
#
#
# Indices 1 2 3 4 5 6 
#
# 1 156.5573 34.6715 62.1593 0.0000 -16.1736 0.0000
# 2 34.6715 40.1392 21.3456 0.0000 2.7351 0.0000
# 3 62.1593 21.3456 113.8034 0.0000 -20.1785 0.0000
# 4 0.0000 0.0000 0.0000 37.8997 0.0000 -2.4550
# 5 -16.1736 2.7351 -20.1785 0.0000 52.0235 0.0000
# 6 0.0000 0.0000 0.0000 -2.4550 0.0000 34.0277
#
#
#
# Elastic Compliance Matrix: (Units=1/GPa)
#
#
# Indices 1 2 3 4 5 6 
#
# 1 0.009423 -0.006336 -0.003630 0.000000 0.001855 0.000000
# 2 -0.006336 0.032622 -0.003556 0.000000 -0.005064 0.000000
# 3 -0.003630 -0.003556 0.012102 0.000000 0.003753 0.000000
# 4 0.000000 0.000000 0.000000 0.026509 0.000000 0.001913
# 5 0.001855 -0.005064 0.003753 0.000000 0.021520 0.000000
# 6 0.000000 0.000000 0.000000 0.001913 0.000000 0.029526
#
#
# Mechanical properties :
#
#
# Convention : Reuss Voigt Hill
#
# Bulk Modulus (GPa) = 36.89463 60.76140 48.82802
# Shear Modulus (GPa) = 29.80067 37.61174 33.70620
#
# Velocity S-wave (km/s) = 3.62821 4.07607 3.85864
# Velocity P-wave (km/s) = 5.81803 6.99948 6.43592
#
# Compressibility (1/GPa) = 0.02710421
#
# Stress axis : x y z
#
# Youngs Moduli (GPa) = 106.11915 30.65391 82.63080
#
# Poissons Ratio (x) = 0.19422 0.29993
# Poissons Ratio (y) = 0.67236 0.29384
# Poissons Ratio (z) = 0.38519 0.10901
#
# Static dielectric constant tensor:
#      x y z
#    x 2.052760 0.000000 -0.012130 
#    y 0.000000 1.947960 0.000000 
#    z -0.012130 0.000000 1.883750 
# 
# From -- ./inp_files/39119.got.cif
#   From: 2010.05.17/outbox.cif.g08.bks.cpg/sg5_20_cif.got.tgz:39119.got - 2010.06.03 18:56:24.
