data_PCOD9129662
_publ_section_title
;
Structure prediction by ZEFSAII (Michael W. Deem and Ramdas Pophale) SiO2 
 PCOD9129662
Probable space group: C 2
;
_chemical_formula_sum "Si O2"
_cell_formula_units_Z 28
_cell_length_a 17.627273
_cell_length_b 6.682809
_cell_length_c 16.627944
_cell_angle_alpha 90.000000
_cell_angle_beta 51.072894
_cell_angle_gamma 90.000000
_cell_volume 1523.814750
_symmetry_space_group_name_H-M "C 2"
_symmetry_group_IT_number 5
_symmetry_cell_setting 'monoclinic'
loop_
_space_group_symop_operation_xyz
x,y,z
-x,y,-z
1/2+x,1/2+y,z
1/2-x,1/2+y,-z
loop_
_atom_site_type_symbol
_atom_site_label
_atom_site_fract_x
_atom_site_fract_y
_atom_site_fract_z
Si Si1 0.500000 0.291021 0.500000
Si Si2 0.365935 0.929180 0.550242
Si Si3 0.518665 0.832699 0.687465
Si Si4 0.113224 0.090968 0.323745
Si Si5 0.500000 0.995650 0.000000
Si Si6 0.547643 0.140747 0.801191
Si Si7 0.845517 0.038048 0.304752
Si Si8 0.188038 0.366162 0.796903
O O1 0.527243 0.439888 0.409155
O O2 0.407890 0.143196 0.552120
O O3 0.436415 0.885318 0.428767
O O4 0.371061 0.755455 0.614857
O O5 0.255266 0.952021 0.594059
O O6 0.421410 0.710496 0.731464
O O7 0.598695 0.693627 0.676653
O O8 0.502303 0.022171 0.756421
O O9 0.209333 0.957554 0.245867
O O10 0.400227 0.872693 0.079957
O O11 0.509898 0.119146 0.076275
O O12 0.578022 0.363636 0.762645
O O13 0.647560 0.021819 0.756533
O O14 0.812456 0.151388 0.245123
#
# Coordination Sequence:
#
# PCOD9129662 Si02
#       8
#     2   4   4   4   2   4   4   4
#     4  12  22  36  60  84 126 174 212 230 298 374
#     4  12  23  37  57  88 127 173 202 236 306 373
#     4  11  25  35  56  94 129 156 200 260 303 364
#     4  12  22  40  60  89 127 168 206 248 301 380
#     4   8  18  44  68  82 116 156 212 266 306 368
#     4   9  21  40  60  88 119 151 208 259 309 359
#     4  11  23  37  62  92 121 168 205 256 302 371
#     4   9  20  39  65  89 114 158 217 250 301 373
#
# _framework density 18.374938
#
# number of rings (size 3 to 8) (size 9 to 14) (size 15 to 20)
#    0.857    0.571    5.714    0.000    4.000    0.571 
#    0.000    0.000    3.143    0.000    0.000    0.000 
#    0.000    0.000    0.000    0.000    0.000    0.000 
#
# Total GULP energy -77935.553051 kJ/mol
# GULP energy per Si atom -5566.825218 kJ/mol
# Density = 1.833312 g / cm^3
# Si number density = 18.374938 Si / 1000 Ang^3
#
#
#
# Elastic Constant Matrix: (Units=GPa)
#
#
# Indices 1 2 3 4 5 6 
#
# 1 77.6528 25.4743 30.3566 -0.0002 0.4318 0.0002
# 2 25.4743 84.8604 23.6453 -0.0002 2.8534 0.0000
# 3 30.3566 23.6453 63.5241 0.0000 -7.5908 0.0000
# 4 -0.0002 -0.0002 0.0000 17.5868 0.0001 2.0439
# 5 0.4318 2.8534 -7.5908 0.0001 19.2729 -0.0002
# 6 0.0002 0.0000 0.0000 2.0439 -0.0002 30.8652
#
#
#
# Elastic Compliance Matrix: (Units=1/GPa)
#
#
# Indices 1 2 3 4 5 6 
#
# 1 0.016666 -0.002898 -0.007219 0.000000 -0.002787 0.000000
# 2 -0.002898 0.013962 -0.004252 0.000000 -0.003677 0.000000
# 3 -0.007219 -0.004252 0.021899 0.000000 0.009416 0.000000
# 4 0.000000 0.000000 0.000000 0.057302 0.000000 -0.003794
# 5 -0.002787 -0.003677 0.009416 0.000000 0.056202 0.000000
# 6 0.000000 0.000000 0.000000 -0.003794 0.000000 0.032650
#
#
# Mechanical properties :
#
#
# Convention : Reuss Voigt Hill
#
# Bulk Modulus (GPa) = 42.03209 42.77661 42.40435
# Shear Modulus (GPa) = 21.24510 23.31573 22.28041
#
# Velocity S-wave (km/s) = 3.40398 3.56601 3.48594
# Velocity P-wave (km/s) = 6.19466 6.34710 6.27134
#
# Compressibility (1/GPa) = 0.02379135
#
# Stress axis : x y z
#
# Youngs Moduli (GPa) = 60.00253 71.62168 45.66318
#
# Poissons Ratio (x) = 0.20755 0.32963
# Poissons Ratio (y) = 0.17388 0.19414
# Poissons Ratio (z) = 0.43314 0.30451
#
# Static dielectric constant tensor:
#      x y z
#    x 1.649740 0.000000 -0.002830 
#    y 0.000000 1.670630 0.000000 
#    z -0.002830 0.000000 1.636590 
# 
# From -- ./inp_files/55253.got.cif
#   From: 2010.05.17/outbox.cif.g08.bks.cpg/sg5_28_cif.got.tgz:55253.got - 2010.06.03 18:56:24.
