data_PCOD9129661
_publ_section_title
;
Structure prediction by ZEFSAII (Michael W. Deem and Ramdas Pophale) SiO2 
 PCOD9129661
Probable space group: C 2
;
_chemical_formula_sum "Si O2"
_cell_formula_units_Z 30
_cell_length_a 13.812181
_cell_length_b 5.748836
_cell_length_c 14.596444
_cell_angle_alpha 90.000000
_cell_angle_beta 68.163357
_cell_angle_gamma 90.000000
_cell_volume 1075.853977
_symmetry_space_group_name_H-M "C 2"
_symmetry_group_IT_number 5
_symmetry_cell_setting 'monoclinic'
loop_
_space_group_symop_operation_xyz
x,y,z
-x,y,-z
1/2+x,1/2+y,z
1/2-x,1/2+y,-z
loop_
_atom_site_type_symbol
_atom_site_label
_atom_site_fract_x
_atom_site_fract_y
_atom_site_fract_z
Si Si1 0.000000 0.591930 0.500000
Si Si2 0.680384 0.251285 0.125946
Si Si3 0.595834 0.248266 0.892475
Si Si4 0.086997 0.248363 0.890287
Si Si5 0.328225 0.339683 0.658967
Si Si6 0.838379 0.253340 0.878545
Si Si7 0.472973 0.714610 0.655004
Si Si8 0.794647 0.131160 0.441352
O O1 0.900162 0.739196 0.554455
O O2 0.003082 0.441488 0.589585
O O3 0.804332 0.249433 0.092671
O O4 0.648453 0.261415 0.244909
O O5 0.649396 0.490837 0.088731
O O6 0.649137 0.014241 0.087939
O O7 0.582715 0.494460 0.846144
O O8 0.718261 0.251229 0.882683
O O9 0.586858 0.001945 0.843314
O O10 0.500000 0.245924 0.000000
O O11 0.000000 0.251167 0.000000
O O12 0.367673 0.604561 0.645979
O O13 0.223297 0.230335 0.656835
O O14 0.929427 0.254828 0.770513
O O15 0.580450 0.575016 0.604270
O O16 0.761793 0.378545 0.510246
#
# Coordination Sequence:
#
# PCOD9129661 Si02
#       8
#     2   4   4   4   4   4   4   4
#     4  12  18  36  56  70 100 144 186 228 286 336
#     4   9  17  29  47  71 100 134 173 221 275 327
#     4   8  13  22  38  63  96 127 161 209 265 316
#     4   8  13  22  38  63  96 127 161 209 265 316
#     4  11  23  37  57  80 109 149 190 241 294 342
#     4   9  17  29  47  71 100 134 173 221 275 327
#     4  11  23  37  57  80 109 149 190 241 294 342
#     4  12  26  42  58  84 114 148 204 250 290 358
#
# _framework density 27.884827000000001
#
# number of rings (size 3 to 8) (size 9 to 14) (size 15 to 20)
#    0.000    2.133    2.667    2.000    0.000    0.000 
#    0.000    0.000    0.000    0.000    0.000    0.000 
#    0.000   51.200    0.000    0.000    0.000   44.800 
#
# Total GULP energy -83555.575840 kJ/mol
# GULP energy per Si atom -5570.371723 kJ/mol
# Density = 2.782136 g / cm^3
# Si number density = 27.884827 Si / 1000 Ang^3
#
#
#
# Elastic Constant Matrix: (Units=GPa)
#
#
# Indices 1 2 3 4 5 6 
#
# 1 110.2262 33.5682 18.9707 -0.0006 -22.7323 0.0001
# 2 33.5682 254.0939 66.7824 -0.0012 8.2578 0.0005
# 3 18.9707 66.7824 171.8485 0.0000 -16.6876 0.0000
# 4 -0.0006 -0.0012 0.0000 63.4223 0.0002 -1.2754
# 5 -22.7323 8.2578 -16.6876 0.0002 43.0934 0.0000
# 6 0.0001 0.0005 0.0000 -1.2754 0.0000 26.5210
#
#
#
# Elastic Compliance Matrix: (Units=1/GPa)
#
#
# Indices 1 2 3 4 5 6 
#
# 1 0.010806 -0.001630 0.000025 0.000000 0.006023 0.000000
# 2 -0.001630 0.004732 -0.001902 0.000000 -0.002503 0.000000
# 3 0.000025 -0.001902 0.006850 0.000000 0.003030 0.000000
# 4 0.000000 0.000000 0.000000 0.015783 0.000000 0.000759
# 5 0.006023 -0.002503 0.003030 0.000000 0.028036 0.000000
# 6 0.000000 0.000000 0.000000 0.000759 0.000000 0.037742
#
#
# Mechanical properties :
#
#
# Convention : Reuss Voigt Hill
#
# Bulk Modulus (GPa) = 65.04192 86.09014 75.56603
# Shear Modulus (GPa) = 43.07101 54.39717 48.73409
#
# Velocity S-wave (km/s) = 3.93441 4.42156 4.18508
# Velocity P-wave (km/s) = 6.63440 7.55032 7.10713
#
# Compressibility (1/GPa) = 0.01537470
#
# Stress axis : x y z
#
# Youngs Moduli (GPa) = 92.53805 211.31943 145.99095
#
# Poissons Ratio (x) = 0.34445 -0.00370
# Poissons Ratio (y) = 0.15084 0.27769
# Poissons Ratio (z) = -0.00235 0.40196
#
# Static dielectric constant tensor:
#      x y z
#    x 0.504080 0.000000 0.191060 
#    y 0.000000 2.215540 0.000000 
#    z 0.191060 0.000000 2.122250 
# 
# From -- ./inp_files/61124.got.cif
#   From: 2010.05.17/outbox.cif.g08.bks.cpg/sg5_31_cif.got.tgz:61124.got - 2010.06.03 18:56:24.
