data_PCOD9129625
_publ_section_title
;
Structure prediction by ZEFSAII (Michael W. Deem and Ramdas Pophale) SiO2 
 PCOD9129625
Probable space group: C 2
;
_chemical_formula_sum "Si O2"
_cell_formula_units_Z 26
_cell_length_a 8.598045
_cell_length_b 20.035107
_cell_length_c 9.623276
_cell_angle_alpha 90.000000
_cell_angle_beta 131.811512
_cell_angle_gamma 90.000000
_cell_volume 1235.577392
_symmetry_space_group_name_H-M "C 2"
_symmetry_group_IT_number 5
_symmetry_cell_setting 'monoclinic'
loop_
_space_group_symop_operation_xyz
x,y,z
-x,y,-z
1/2+x,1/2+y,z
1/2-x,1/2+y,-z
loop_
_atom_site_type_symbol
_atom_site_label
_atom_site_fract_x
_atom_site_fract_y
_atom_site_fract_z
Si Si1 0.419472 0.422230 0.713296
Si Si2 0.818961 0.423845 0.153584
Si Si3 0.569030 0.188195 0.880769
Si Si4 0.960600 0.285100 0.132679
Si Si5 0.000000 0.018034 0.500000
Si Si6 0.785991 0.278193 0.466377
Si Si7 0.950332 0.548840 0.809376
O O1 0.260241 0.442012 0.740595
O O2 0.455154 0.470989 0.605926
O O3 0.330122 0.350430 0.611054
O O4 0.635676 0.422769 0.929068
O O5 0.893751 0.347955 0.187285
O O6 0.991271 0.478167 0.221143
O O7 0.385898 0.227763 0.695065
O O8 0.580467 0.112299 0.833305
O O9 0.500000 0.183360 0.000000
O O10 0.781972 0.229924 0.008326
O O11 0.154430 0.259772 0.339140
O O12 0.000000 0.310189 0.000000
O O13 0.205537 0.061472 0.646408
O O14 0.000000 0.275018 0.500000
O O15 0.000000 0.540483 0.000000
#
# Coordination Sequence:
#
# PCOD9129625 Si02
#       7
#     4   4   4   4   2   4   4
#     4  11  24  40  70 101 133 171 232 274 342 399
#     4  11  22  46  67  96 138 183 213 286 340 398
#     4  11  24  45  68  98 136 182 228 276 342 411
#     4  12  26  43  70 101 140 174 229 283 340 396
#     4  12  26  42  68 106 130 176 230 284 332 400
#     4  12  23  41  71  99 129 179 224 277 337 401
#     4  11  25  44  67  99 139 178 224 281 342 399
#
# _framework density 21.042793
#
# number of rings (size 3 to 8) (size 9 to 14) (size 15 to 20)
#    0.000    0.615    6.154    1.385    3.231    0.615 
#    2.769    1.538    0.000    0.000    0.000    0.000 
#    0.000    0.000    0.000    0.000    0.000    0.000 
#
# Total GULP energy -72605.361418 kJ/mol
# GULP energy per Si atom -5585.027801 kJ/mol
# Density = 2.099490 g / cm^3
# Si number density = 21.042793 Si / 1000 Ang^3
#
#
#
# Elastic Constant Matrix: (Units=GPa)
#
#
# Indices 1 2 3 4 5 6 
#
# 1 41.2515 8.2857 26.4399 0.0000 -1.2165 0.0000
# 2 8.2857 78.8031 18.0706 0.0000 13.0859 0.0000
# 3 26.4399 18.0706 136.3677 0.0000 -1.3877 0.0000
# 4 0.0000 0.0000 0.0000 -33.7835 0.0000 10.8643
# 5 -1.2165 13.0859 -1.3877 0.0000 38.3774 0.0000
# 6 0.0000 0.0000 0.0000 10.8643 0.0000 25.1209
#
#
#
# Elastic Compliance Matrix: (Units=1/GPa)
#
#
# Indices 1 2 3 4 5 6 
#
# 1 0.027981 -0.001991 -0.005147 0.000000 0.001380 0.000000
# 2 -0.001991 0.014066 -0.001528 0.000000 -0.004914 0.000000
# 3 -0.005147 -0.001528 0.008540 0.000000 0.000667 0.000000
# 4 0.000000 0.000000 0.000000 -0.025986 0.000000 0.011239
# 5 0.001380 -0.004914 0.000667 0.000000 0.027801 0.000000
# 6 0.000000 0.000000 0.000000 0.011239 0.000000 0.034947
#
#
# Mechanical properties :
#
#
# Convention : Reuss Voigt Hill
#
# Bulk Modulus (GPa) = 30.07057 40.22386 35.14721
# Shear Modulus (GPa) = 43.19057 19.51803 31.35430
#
# Velocity S-wave (km/s) = 4.53538 3.04886 3.86427
# Velocity P-wave (km/s) = 6.46123 5.61701 6.05385
#
# Compressibility (1/GPa) = 0.03325511
#
# Stress axis : x y z
#
# Youngs Moduli (GPa) = 35.73822 71.09521 117.09092
#
# Poissons Ratio (x) = 0.14154 0.60271
# Poissons Ratio (y) = 0.07115 0.17890
# Poissons Ratio (z) = 0.18396 0.10863
#
# Static dielectric constant tensor:
#      x y z
#    x 1.764270 0.000000 0.005560 
#    y 0.000000 1.796790 0.000000 
#    z 0.005560 0.000000 1.875010 
# 
# From -- ./inp_files/16739.got.cif
#   From: 2010.05.17/outbox.cif.g08.bks.cpg/sg5_9_cif.got.tgz:16739.got - 2010.06.03 18:56:24.
