data_PCOD9129915
_publ_section_title
;
Structure prediction by ZEFSAII (Michael W. Deem and Ramdas Pophale) SiO2 
 PCOD9129915
Probable space group: C 2
;
_chemical_formula_sum "Si O2"
_cell_formula_units_Z 22
_cell_length_a 8.332394
_cell_length_b 16.151580
_cell_length_c 8.947911
_cell_angle_alpha 90.000000
_cell_angle_beta 53.491375
_cell_angle_gamma 90.000000
_cell_volume 967.914075
_symmetry_space_group_name_H-M "C 2"
_symmetry_group_IT_number 5
_symmetry_cell_setting 'monoclinic'
loop_
_space_group_symop_operation_xyz
x,y,z
-x,y,-z
1/2+x,1/2+y,z
1/2-x,1/2+y,-z
loop_
_atom_site_type_symbol
_atom_site_label
_atom_site_fract_x
_atom_site_fract_y
_atom_site_fract_z
Si Si1 0.410236 0.434530 0.382964
Si Si2 0.004769 0.484917 0.757042
Si Si3 0.085271 0.771407 0.175108
Si Si4 0.000000 0.677267 0.500000
Si Si5 0.858041 0.065551 0.204476
Si Si6 0.000000 0.344184 0.000000
Si Si7 0.000000 0.630723 0.000000
O O1 0.500000 0.419777 0.500000
O O2 0.468407 0.360006 0.236782
O O3 0.487259 0.517002 0.256370
O O4 0.180798 0.459718 0.545124
O O5 0.794555 0.503693 0.795793
O O6 0.058150 0.564856 0.834513
O O7 0.979013 0.404944 0.872554
O O8 0.300279 0.792837 0.121479
O O9 0.961652 0.727602 0.372781
O O10 0.120945 0.702462 0.026358
O O11 0.799059 0.626712 0.636550
O O12 0.000000 0.102355 0.000000
#
# Coordination Sequence:
#
# PCOD9129915 Si02
#       7
#     4   4   4   2   4   2   2
#     4  12  24  45  73 105 144 189 245 301 362 432
#     4  11  23  49  71 103 144 198 248 296 354 456
#     4  12  25  45  70 109 149 188 238 317 368 428
#     4  12  24  48  68 100 148 184 240 304 368 424
#     4  12  26  45  77 104 141 196 252 298 356 446
#     4  11  24  42  72 103 144 194 246 289 370 438
#     4  11  26  44  74 105 146 188 244 307 368 434
#
# _framework density 22.729288
#
# number of rings (size 3 to 8) (size 9 to 14) (size 15 to 20)
#    0.000    0.364    6.364    1.091    7.636    0.000 
#    0.000    0.000    0.000    0.000    0.000    0.000 
#    0.000    0.000    0.000    0.000    0.000    0.000 
#
# Total GULP energy -61285.938488 kJ/mol
# GULP energy per Si atom -5571.448953 kJ/mol
# Density = 2.267756 g / cm^3
# Si number density = 22.729288 Si / 1000 Ang^3
#
#
#
# Elastic Constant Matrix: (Units=GPa)
#
#
# Indices 1 2 3 4 5 6 
#
# 1 77.0714 28.3992 13.7154 0.0000 -3.3361 0.0000
# 2 28.3992 111.2239 31.0132 0.0000 -4.7645 0.0000
# 3 13.7154 31.0132 97.0132 0.0000 -17.2306 0.0000
# 4 0.0000 0.0000 0.0000 55.0275 0.0000 99.3339
# 5 -3.3361 -4.7645 -17.2306 0.0000 34.1723 0.0000
# 6 0.0000 0.0000 0.0000 99.3339 0.0000 388.7511
#
#
#
# Elastic Compliance Matrix: (Units=1/GPa)
#
#
# Indices 1 2 3 4 5 6 
#
# 1 0.014409 -0.003419 -0.000855 0.000000 0.000499 0.000000
# 2 -0.003419 0.010684 -0.002995 0.000000 -0.000354 0.000000
# 3 -0.000855 -0.002995 0.012409 0.000000 0.005756 0.000000
# 4 0.000000 0.000000 0.000000 0.033732 0.000000 -0.008619
# 5 0.000499 -0.000354 0.005756 0.000000 0.032165 0.000000
# 6 0.000000 0.000000 0.000000 -0.008619 0.000000 0.004775
#
#
# Mechanical properties :
#
#
# Convention : Reuss Voigt Hill
#
# Bulk Modulus (GPa) = 43.55041 47.95156 45.75098
# Shear Modulus (GPa) = 38.35375 109.73557 74.04466
#
# Velocity S-wave (km/s) = 4.11227 6.95587 5.71380
# Velocity P-wave (km/s) = 6.46141 9.25499 7.98137
#
# Compressibility (1/GPa) = 0.02296190
#
# Stress axis : x y z
#
# Youngs Moduli (GPa) = 69.40268 93.59950 80.58991
#
# Poissons Ratio (x) = 0.32003 0.06894
# Poissons Ratio (y) = 0.23730 0.24136
# Poissons Ratio (z) = 0.05937 0.28033
#
# Static dielectric constant tensor:
#      x y z
#    x 1.646080 0.000000 -0.006740 
#    y 0.000000 1.911800 0.000000 
#    z -0.006740 0.000000 1.882520 
# 
# From -- ./inp_files/16052.got.cif
#   From: 2010.05.17/outbox.cif.g08.bks.cpg/sg5_9_cif.got.tgz:16052.got - 2010.06.03 18:56:24.
