data_PCOD9129938
_publ_section_title
;
Structure prediction by ZEFSAII (Michael W. Deem and Ramdas Pophale) SiO2 
 PCOD9129938
Probable space group: C 2
;
_chemical_formula_sum "Si O2"
_cell_formula_units_Z 26
_cell_length_a 5.483217
_cell_length_b 12.929200
_cell_length_c 19.496701
_cell_angle_alpha 90.000000
_cell_angle_beta 119.525554
_cell_angle_gamma 90.000000
_cell_volume 1202.694568
_symmetry_space_group_name_H-M "C 2"
_symmetry_group_IT_number 5
_symmetry_cell_setting 'monoclinic'
loop_
_space_group_symop_operation_xyz
x,y,z
-x,y,-z
1/2+x,1/2+y,z
1/2-x,1/2+y,-z
loop_
_atom_site_type_symbol
_atom_site_label
_atom_site_fract_x
_atom_site_fract_y
_atom_site_fract_z
Si Si1 0.783439 0.861670 0.909192
Si Si2 0.537005 0.683059 0.785222
Si Si3 0.719145 0.329868 0.300813
Si Si4 0.093916 0.466937 0.438300
Si Si5 0.964614 0.666102 0.629847
Si Si6 0.186330 0.950171 0.842960
Si Si7 0.500000 0.279905 0.500000
O O1 0.640272 0.755483 0.862131
O O2 0.515137 0.926896 0.898713
O O3 0.969218 0.920217 0.875185
O O4 0.000000 0.840840 0.000000
O O5 0.647450 0.755772 0.738218
O O6 0.212877 0.658728 0.720623
O O7 0.660054 0.568798 0.815119
O O8 0.714027 0.258524 0.366023
O O9 0.423701 0.373302 0.232461
O O10 0.874991 0.431186 0.349629
O O11 0.259520 0.363852 0.478858
O O12 0.000000 0.504102 0.500000
O O13 0.216348 0.565782 0.414704
O O14 0.084620 0.710068 0.575584
#
# Coordination Sequence:
#
# PCOD9129938 Si02
#       7
#     4   4   4   4   4   4   2
#     4  11  26  47  72 108 147 182 226 287 351 421
#     4  11  25  43  73 102 134 182 234 284 347 421
#     4  11  24  41  67  97 135 175 233 291 348 411
#     4  12  25  40  61  93 131 180 225 287 352 404
#     4  12  24  41  66  95 130 179 233 282 350 410
#     4  11  25  45  74 107 140 183 231 287 347 418
#     4  12  26  40  62  94 136 174 230 292 348 410
#
# _framework density 21.618124999999999
#
# number of rings (size 3 to 8) (size 9 to 14) (size 15 to 20)
#    0.000    0.615    6.923    0.462    2.154    4.923 
#    0.000    0.000    0.000    0.000    0.000    0.000 
#    0.000    0.000    0.000    0.000    0.000    0.000 
#
# Total GULP energy -72370.292721 kJ/mol
# GULP energy per Si atom -5566.945594 kJ/mol
# Density = 2.156892 g / cm^3
# Si number density = 21.618125 Si / 1000 Ang^3
#
#
#
# Elastic Constant Matrix: (Units=GPa)
#
#
# Indices 1 2 3 4 5 6 
#
# 1 59.5125 10.2556 21.1514 0.0000 17.0685 0.0000
# 2 10.2556 92.0170 42.7709 0.0000 6.7227 0.0000
# 3 21.1514 42.7709 112.7656 0.0000 18.8977 0.0000
# 4 0.0000 0.0000 0.0000 30.3872 0.0000 -13.4467
# 5 17.0685 6.7227 18.8977 0.0000 36.0813 0.0000
# 6 0.0000 0.0000 0.0000 -13.4467 0.0000 12.6721
#
#
#
# Elastic Compliance Matrix: (Units=1/GPa)
#
#
# Indices 1 2 3 4 5 6 
#
# 1 0.020035 -0.000639 -0.002135 0.000000 -0.008241 0.000000
# 2 -0.000639 0.013215 -0.004966 0.000000 0.000441 0.000000
# 3 -0.002135 -0.004966 0.011870 0.000000 -0.004282 0.000000
# 4 0.000000 0.000000 0.000000 0.062040 0.000000 0.065832
# 5 -0.008241 0.000441 -0.004282 0.000000 0.033774 0.000000
# 6 0.000000 0.000000 0.000000 0.065832 0.000000 0.148770
#
#
# Mechanical properties :
#
#
# Convention : Reuss Voigt Hill
#
# Bulk Modulus (GPa) = 33.73783 45.85009 39.79396
# Shear Modulus (GPa) = 15.86980 28.50259 22.18620
#
# Velocity S-wave (km/s) = 2.71236 3.63500 3.20703
# Velocity P-wave (km/s) = 5.04474 6.23480 5.67107
#
# Compressibility (1/GPa) = 0.02964032
#
# Stress axis : x y z
#
# Youngs Moduli (GPa) = 49.91142 75.67156 84.24873
#
# Poissons Ratio (x) = 0.04833 0.17985
# Poissons Ratio (y) = 0.03188 0.41842
# Poissons Ratio (z) = 0.10655 0.37582
#
# Static dielectric constant tensor:
#      x y z
#    x 1.919640 0.000000 -0.023770 
#    y 0.000000 1.750010 0.000000 
#    z -0.023770 0.000000 1.791170 
# 
# From -- ./inp_files/58616.got.cif
#   From: 2010.05.17/outbox.cif.g08.bks.cpg/sg5_30_cif.got.tgz:58616.got - 2010.06.03 18:56:24.
