data_PCOD9129141
_publ_section_title
;
Structure prediction by ZEFSAII (Michael W. Deem and Ramdas Pophale) SiO2 
 PCOD9129141
Probable space group: C 2
;
_chemical_formula_sum "Si O2"
_cell_formula_units_Z 22
_cell_length_a 6.779080
_cell_length_b 22.848058
_cell_length_c 9.716818
_cell_angle_alpha 90.000000
_cell_angle_beta 43.649823
_cell_angle_gamma 90.000000
_cell_volume 1038.842979
_symmetry_space_group_name_H-M "C 2"
_symmetry_group_IT_number 5
_symmetry_cell_setting 'monoclinic'
loop_
_space_group_symop_operation_xyz
x,y,z
-x,y,-z
1/2+x,1/2+y,z
1/2-x,1/2+y,-z
loop_
_atom_site_type_symbol
_atom_site_label
_atom_site_fract_x
_atom_site_fract_y
_atom_site_fract_z
Si Si1 0.500000 0.256580 0.500000
Si Si2 0.839694 0.853786 0.801836
Si Si3 0.580085 0.698137 0.213306
Si Si4 0.500000 0.610191 0.000000
Si Si5 0.000000 0.948735 0.500000
Si Si6 0.500000 0.304211 0.000000
Si Si7 0.558977 0.040799 0.626288
Si Si8 0.000000 0.132264 0.500000
O O1 0.398268 0.297329 0.676478
O O2 0.758823 0.215926 0.412726
O O3 0.957045 0.908063 0.654841
O O4 0.500000 0.859863 0.000000
O O5 0.005166 0.843510 0.861288
O O6 0.572376 0.653442 0.090842
O O7 0.740444 0.758994 0.107881
O O8 0.692980 0.668458 0.295776
O O9 0.228650 0.568667 0.167144
O O10 0.716865 0.988455 0.626565
O O11 0.500000 0.022730 0.500000
O O12 0.797252 0.091751 0.510214
#
# Coordination Sequence:
#
# PCOD9129141 Si02
#       8
#     2   4   4   2   2   2   4   2
#     4  11  22  43  68  98 150 185 226 271 338 412
#     4  11  24  48  68 104 135 181 235 296 334 411
#     4  12  22  40  70 108 144 192 215 273 341 423
#     4  12  24  42  75 104 148 179 232 274 344 418
#     4  10  28  48  80  90 136 180 242 296 358 388
#     4  12  24  40  73 108 142 181 232 266 350 414
#     4  11  24  48  68 103 133 184 231 294 341 409
#     4  11  22  41  66 102 144 181 230 267 338 412
#
# _framework density 21.177403999999999
#
# number of rings (size 3 to 8) (size 9 to 14) (size 15 to 20)
#    0.000    0.727    3.636    4.364    0.000    2.909 
#    0.000    0.000    0.000    0.000    0.000    0.000 
#    0.000    0.000    0.000    0.000    0.000    0.000 
#
# Total GULP energy -61501.353449 kJ/mol
# GULP energy per Si atom -5591.032132 kJ/mol
# Density = 2.112920 g / cm^3
# Si number density = 21.177404 Si / 1000 Ang^3
#
#
#
# Elastic Constant Matrix: (Units=GPa)
#
#
# Indices 1 2 3 4 5 6 
#
# 1 110.8891 54.5426 47.0768 0.0000 17.3746 0.0000
# 2 54.5426 119.2055 53.5022 0.0000 13.9807 0.0000
# 3 47.0768 53.5022 106.3426 0.0000 5.4418 0.0000
# 4 0.0000 0.0000 0.0000 20.0389 0.0000 -5.0588
# 5 17.3746 13.9807 5.4418 0.0000 57.8042 0.0000
# 6 0.0000 0.0000 0.0000 -5.0588 0.0000 29.0902
#
#
#
# Elastic Compliance Matrix: (Units=1/GPa)
#
#
# Indices 1 2 3 4 5 6 
#
# 1 0.012904 -0.004001 -0.003568 0.000000 -0.002575 0.000000
# 2 -0.004001 0.012340 -0.004367 0.000000 -0.001371 0.000000
# 3 -0.003568 -0.004367 0.013135 0.000000 0.000892 0.000000
# 4 0.000000 0.000000 0.000000 0.052194 0.000000 0.009077
# 5 -0.002575 -0.001371 0.000892 0.000000 0.018321 0.000000
# 6 0.000000 0.000000 0.000000 0.009077 0.000000 0.035954
#
#
# Mechanical properties :
#
#
# Convention : Reuss Voigt Hill
#
# Bulk Modulus (GPa) = 68.93213 71.85338 70.39275
# Shear Modulus (GPa) = 28.80899 33.47435 31.14167
#
# Velocity S-wave (km/s) = 3.69231 3.98007 3.83889
# Velocity P-wave (km/s) = 7.12728 7.42457 7.27744
#
# Compressibility (1/GPa) = 0.01450702
#
# Stress axis : x y z
#
# Youngs Moduli (GPa) = 77.49467 81.03439 76.13488
#
# Poissons Ratio (x) = 0.32421 0.27164
# Poissons Ratio (y) = 0.31005 0.33250
# Poissons Ratio (z) = 0.27649 0.35390
#
# Static dielectric constant tensor:
#      x y z
#    x 1.869710 0.000000 0.003570 
#    y 0.000000 1.733800 0.000000 
#    z 0.003570 0.000000 1.786970 
# 
# From -- ./inp_files/13005.got.cif
#   From: 2010.05.17/outbox.cif.g08.bks.cpg/sg5_7_cif.got.tgz:13005.got - 2010.06.03 18:56:24.
