data_PCOD9129197
_publ_section_title
;
Structure prediction by ZEFSAII (Michael W. Deem and Ramdas Pophale) SiO2 
 PCOD9129197
Probable space group: C 2
;
_chemical_formula_sum "Si O2"
_cell_formula_units_Z 22
_cell_length_a 22.233723
_cell_length_b 6.616976
_cell_length_c 8.717217
_cell_angle_alpha 90.000000
_cell_angle_beta 45.258098
_cell_angle_gamma 90.000000
_cell_volume 910.924058
_symmetry_space_group_name_H-M "C 2"
_symmetry_group_IT_number 5
_symmetry_cell_setting 'monoclinic'
loop_
_space_group_symop_operation_xyz
x,y,z
-x,y,-z
1/2+x,1/2+y,z
1/2-x,1/2+y,-z
loop_
_atom_site_type_symbol
_atom_site_label
_atom_site_fract_x
_atom_site_fract_y
_atom_site_fract_z
Si Si1 0.197819 0.493010 0.977983
Si Si2 0.780588 0.148747 0.301549
Si Si3 0.000000 0.581899 0.000000
Si Si4 0.086567 0.866313 0.085357
Si Si5 0.358635 0.835071 0.434525
Si Si6 0.117982 0.142503 0.292509
O O1 0.154666 0.700619 0.013494
O O2 0.130337 0.363011 0.195394
O O3 0.217580 0.352645 0.797987
O O4 0.287826 0.545312 0.890477
O O5 0.790289 0.205709 0.461135
O O6 0.697698 0.022841 0.405817
O O7 0.864400 0.022140 0.111611
O O8 0.073051 0.433505 0.803559
O O9 0.978220 0.732788 0.897760
O O10 0.063906 0.998992 0.276547
O O11 0.396220 0.697136 0.503166
#
# Coordination Sequence:
#
# PCOD9129197 Si02
#       6
#     4   4   2   4   4   4
#     4  11  19  42  74 111 139 182 242 320 358 436
#     4  11  23  43  78 106 142 192 259 296 370 437
#     4  12  28  50  74 102 166 204 246 294 382 450
#     4  11  24  47  76 104 146 199 240 309 371 444
#     4  12  24  44  76 112 148 197 247 311 362 453
#     4  11  22  39  78 112 145 179 253 309 375 423
#
# _framework density 24.151299999999999
#
# number of rings (size 3 to 8) (size 9 to 14) (size 15 to 20)
#    0.000    0.727    5.455    3.273    0.000    0.727 
#    0.000    0.909    8.000    0.000    0.000    0.000 
#    0.000    0.000    0.000    0.000    0.000    0.000 
#
# Total GULP energy -61498.715026 kJ/mol
# GULP energy per Si atom -5590.792275 kJ/mol
# Density = 2.409633 g / cm^3
# Si number density = 24.151300 Si / 1000 Ang^3
#
#
#
# Elastic Constant Matrix: (Units=GPa)
#
#
# Indices 1 2 3 4 5 6 
#
# 1 107.3895 38.0317 16.3844 0.0000 22.0844 0.0000
# 2 38.0317 124.5805 20.8508 0.0000 18.7995 0.0000
# 3 16.3844 20.8508 77.6068 0.0000 13.8594 0.0000
# 4 0.0000 0.0000 0.0000 19.4409 0.0000 8.4096
# 5 22.0844 18.7995 13.8594 0.0000 36.5635 0.0000
# 6 0.0000 0.0000 0.0000 8.4096 0.0000 29.1753
#
#
#
# Elastic Compliance Matrix: (Units=1/GPa)
#
#
# Indices 1 2 3 4 5 6 
#
# 1 0.011425 -0.002559 -0.000780 0.000000 -0.005289 0.000000
# 2 -0.002559 0.009477 -0.001514 0.000000 -0.002753 0.000000
# 3 -0.000780 -0.001514 0.014195 0.000000 -0.004131 0.000000
# 4 0.000000 0.000000 0.000000 0.058765 0.000000 -0.016939
# 5 -0.005289 -0.002753 -0.004131 0.000000 0.033526 0.000000
# 6 0.000000 0.000000 0.000000 -0.016939 0.000000 0.039158
#
#
# Mechanical properties :
#
#
# Convention : Reuss Voigt Hill
#
# Bulk Modulus (GPa) = 39.38549 51.12341 45.25445
# Shear Modulus (GPa) = 27.06865 32.65660 29.86263
#
# Velocity S-wave (km/s) = 3.35146 3.68117 3.52018
# Velocity P-wave (km/s) = 5.59639 6.26753 5.94145
#
# Compressibility (1/GPa) = 0.02539006
#
# Stress axis : x y z
#
# Youngs Moduli (GPa) = 87.52816 105.51792 70.44897
#
# Poissons Ratio (x) = 0.27003 0.05494
# Poissons Ratio (y) = 0.22399 0.10668
# Poissons Ratio (z) = 0.06826 0.15979
#
# Static dielectric constant tensor:
#      x y z
#    x 1.955040 0.000000 0.035650 
#    y 0.000000 1.871430 0.000000 
#    z 0.035650 0.000000 1.956210 
# 
# From -- ./inp_files/31346.got.cif
#   From: 2010.05.17/outbox.cif.g08.bks.cpg/sg5_16_cif.got.tgz:31346.got - 2010.06.03 18:56:24.
