data_PCOD9129757
_publ_section_title
;
Structure prediction by ZEFSAII (Michael W. Deem and Ramdas Pophale) SiO2 
 PCOD9129757
Probable space group: C 2
;
_chemical_formula_sum "Si O2"
_cell_formula_units_Z 28
_cell_length_a 12.574139
_cell_length_b 19.632922
_cell_length_c 5.082915
_cell_angle_alpha 90.000000
_cell_angle_beta 67.554190
_cell_angle_gamma 90.000000
_cell_volume 1159.741780
_symmetry_space_group_name_H-M "C 2"
_symmetry_group_IT_number 5
_symmetry_cell_setting 'monoclinic'
loop_
_space_group_symop_operation_xyz
x,y,z
-x,y,-z
1/2+x,1/2+y,z
1/2-x,1/2+y,-z
loop_
_atom_site_type_symbol
_atom_site_label
_atom_site_fract_x
_atom_site_fract_y
_atom_site_fract_z
Si Si1 0.926226 0.402650 0.334769
Si Si2 0.617088 0.290926 0.192537
Si Si3 0.423438 0.670609 0.310910
Si Si4 0.500000 0.410974 0.000000
Si Si5 0.750746 0.290041 0.566423
Si Si6 0.500000 0.169945 0.000000
Si Si7 0.618792 0.521063 0.557639
Si Si8 0.376440 0.041153 0.257469
O O1 0.815652 0.356670 0.407623
O O2 0.887764 0.479670 0.456752
O O3 0.000000 0.372267 0.500000
O O4 0.000000 0.397238 0.000000
O O5 0.727991 0.295074 0.897231
O O6 0.562527 0.220116 0.142920
O O7 0.553625 0.360192 0.164618
O O8 0.641468 0.287107 0.476993
O O9 0.500000 0.668175 0.500000
O O10 0.321460 0.722421 0.447844
O O11 0.382763 0.593624 0.291276
O O12 0.500000 0.695816 0.000000
O O13 0.402429 0.459141 0.221019
O O14 0.595918 0.121913 0.761044
O O15 0.500000 0.518592 0.500000
O O16 0.744009 0.526033 0.291479
O O17 0.500000 0.025681 0.000000
#
# Coordination Sequence:
#
# PCOD9129757 Si02
#       8
#     4   4   4   2   4   2   4   4
#     4  11  23  43  66 107 143 193 245 298 370 442
#     4  11  26  44  71 105 138 200 244 307 372 438
#     4  11  23  43  68 108 146 197 245 304 377 446
#     4  11  26  44  70 105 152 190 254 305 382 446
#     4  12  24  44  73 102 149 189 253 303 369 446
#     4   9  22  50  68 105 144 190 252 303 366 448
#     4  11  24  45  74 108 151 196 248 311 374 450
#     4   9  22  46  73 104 147 197 244 307 373 444
#
# _framework density 24.143307
#
# number of rings (size 3 to 8) (size 9 to 14) (size 15 to 20)
#    0.429    0.857    0.714    4.286    4.000    2.857 
#    7.714    0.000    0.000    0.000    0.000    0.000 
#    0.000    0.000    0.000    0.000    0.000    0.000 
#
# Total GULP energy -78010.222142 kJ/mol
# GULP energy per Si atom -5572.158724 kJ/mol
# Density = 2.408836 g / cm^3
# Si number density = 24.143307 Si / 1000 Ang^3
#
#
#
# Elastic Constant Matrix: (Units=GPa)
#
#
# Indices 1 2 3 4 5 6 
#
# 1 98.1982 40.1576 20.0167 0.0000 -19.7172 0.0000
# 2 40.1576 167.6927 18.7392 0.0000 -22.5429 0.0000
# 3 20.0167 18.7392 93.3747 0.0000 -26.6397 0.0000
# 4 0.0000 0.0000 0.0000 40.9381 0.0000 -13.9596
# 5 -19.7172 -22.5429 -26.6397 0.0000 47.8287 0.0000
# 6 0.0000 0.0000 0.0000 -13.9596 0.0000 23.9837
#
#
#
# Elastic Compliance Matrix: (Units=1/GPa)
#
#
# Indices 1 2 3 4 5 6 
#
# 1 0.012016 -0.002314 -0.001200 0.000000 0.003194 0.000000
# 2 -0.002314 0.006832 -0.000272 0.000000 0.002115 0.000000
# 3 -0.001200 -0.000272 0.012892 0.000000 0.006558 0.000000
# 4 0.000000 0.000000 0.000000 0.030476 0.000000 0.017738
# 5 0.003194 0.002115 0.006558 0.000000 0.026874 0.000000
# 6 0.000000 0.000000 0.000000 0.017738 0.000000 0.052019
#
#
# Mechanical properties :
#
#
# Convention : Reuss Voigt Hill
#
# Bulk Modulus (GPa) = 41.37571 57.45475 49.41523
# Shear Modulus (GPa) = 31.90053 41.24022 36.57038
#
# Velocity S-wave (km/s) = 3.63891 4.13745 3.89616
# Velocity P-wave (km/s) = 5.90172 6.83182 6.38373
#
# Compressibility (1/GPa) = 0.02416877
#
# Stress axis : x y z
#
# Youngs Moduli (GPa) = 83.22389 146.36846 77.56558
#
# Poissons Ratio (x) = 0.33868 0.09309
# Poissons Ratio (y) = 0.19257 0.02108
# Poissons Ratio (z) = 0.09988 0.03977
#
# Static dielectric constant tensor:
#      x y z
#    x 1.979050 0.000000 -0.060340 
#    y 0.000000 1.978370 0.000000 
#    z -0.060340 0.000000 1.935710 
# 
# From -- ./inp_files/5629.got.cif
#   From: 2010.05.17/outbox.cif.g08.bks.cpg/sg5_3_cif.got.tgz:5629.got - 2010.06.03 18:56:24.
