data_PCOD9129275
_publ_section_title
;
Structure prediction by ZEFSAII (Michael W. Deem and Ramdas Pophale) SiO2 
 PCOD9129275
Probable space group: C 2
;
_chemical_formula_sum "Si O2"
_cell_formula_units_Z 32
_cell_length_a 10.003375
_cell_length_b 9.861940
_cell_length_c 13.743301
_cell_angle_alpha 90.000000
_cell_angle_beta 81.977326
_cell_angle_gamma 90.000000
_cell_volume 1342.544070
_symmetry_space_group_name_H-M "C 2"
_symmetry_group_IT_number 5
_symmetry_cell_setting 'monoclinic'
loop_
_space_group_symop_operation_xyz
x,y,z
-x,y,-z
1/2+x,1/2+y,z
1/2-x,1/2+y,-z
loop_
_atom_site_type_symbol
_atom_site_label
_atom_site_fract_x
_atom_site_fract_y
_atom_site_fract_z
Si Si1 0.052081 0.654330 0.761923
Si Si2 0.191236 0.646764 0.950030
Si Si3 0.792313 0.352378 0.076597
Si Si4 0.011907 0.380106 0.664723
Si Si5 0.201034 0.972204 0.450429
Si Si6 0.258398 0.761784 0.584519
Si Si7 0.003940 0.170210 0.163128
Si Si8 0.406909 0.422801 0.745988
O O1 0.090782 0.661289 0.870330
O O2 0.992139 0.511701 0.734316
O O3 0.184215 0.695473 0.685181
O O4 0.948502 0.768689 0.742078
O O5 0.175242 0.489941 0.986755
O O6 0.343655 0.674796 0.893783
O O7 0.181308 0.762923 0.032150
O O8 0.734790 0.419815 0.181537
O O9 0.905401 0.244261 0.097262
O O10 0.150968 0.414852 0.595693
O O11 0.887813 0.345910 0.606843
O O12 0.017338 0.253691 0.736271
O O13 0.161798 0.865293 0.537090
O O14 0.113795 0.972734 0.361013
O O15 0.207262 0.128480 0.482817
O O16 0.991657 0.013985 0.199357
#
# Coordination Sequence:
#
# PCOD9129275 Si02
#       8
#     4   4   4   4   4   4   4   4
#     4  11  25  42  65  96 136 171 216 270 325 396
#     4  11  24  43  66  98 129 172 224 267 327 394
#     4  11  24  44  67  95 132 171 220 274 324 391
#     4  11  20  44  71  88 125 177 217 266 329 383
#     4  11  24  43  66  98 129 172 224 267 327 394
#     4  11  24  44  67  95 132 171 220 274 324 391
#     4  11  20  44  71  88 125 177 217 266 329 383
#     4  11  25  42  65  96 136 171 216 270 325 396
#
# _framework density 23.835343999999999
#
# number of rings (size 3 to 8) (size 9 to 14) (size 15 to 20)
#    0.000    1.000    5.000    2.250    3.500    4.000 
#    4.500    0.000    0.000    0.000    0.000    0.000 
#    0.000    0.000    0.000    0.000    0.000    0.000 
#
# Total GULP energy -89429.395294 kJ/mol
# GULP energy per Si atom -5589.337206 kJ/mol
# Density = 2.378109 g / cm^3
# Si number density = 23.835344 Si / 1000 Ang^3
#
#
#
# Elastic Constant Matrix: (Units=GPa)
#
#
# Indices 1 2 3 4 5 6 
#
# 1 60.5509 26.8147 14.6525 0.0000 -6.1773 0.0000
# 2 26.8147 133.6197 35.1994 0.0000 23.3230 0.0000
# 3 14.6525 35.1994 83.9257 0.0000 25.4925 0.0000
# 4 0.0000 0.0000 0.0000 44.2846 0.0000 11.9233
# 5 -6.1773 23.3230 25.4925 0.0000 18.6335 0.0000
# 6 0.0000 0.0000 0.0000 11.9233 0.0000 44.3027
#
#
#
# Elastic Compliance Matrix: (Units=1/GPa)
#
#
# Indices 1 2 3 4 5 6 
#
# 1 0.026902 -0.008518 -0.012100 0.000000 0.036134 0.000000
# 2 -0.008518 0.012294 0.003187 0.000000 -0.022572 0.000000
# 3 -0.012100 0.003187 0.025873 0.000000 -0.043398 0.000000
# 4 0.000000 0.000000 0.000000 0.024345 0.000000 -0.006552
# 5 0.036134 -0.022572 -0.043398 0.000000 0.153272 0.000000
# 6 0.000000 0.000000 0.000000 -0.006552 0.000000 0.024335
#
#
# Mechanical properties :
#
#
# Convention : Reuss Voigt Hill
#
# Bulk Modulus (GPa) = 33.10492 47.93664 40.52078
# Shear Modulus (GPa) = 16.02814 34.87281 25.45048
#
# Velocity S-wave (km/s) = 2.59598 3.82916 3.27121
# Velocity P-wave (km/s) = 4.78588 6.30121 5.59508
#
# Compressibility (1/GPa) = 0.03020699
#
# Stress axis : x y z
#
# Youngs Moduli (GPa) = 37.17239 81.34279 38.65017
#
# Poissons Ratio (x) = 0.69290 0.46766
# Poissons Ratio (y) = 0.31665 -0.12320
# Poissons Ratio (z) = 0.44978 -0.25928
#
# Static dielectric constant tensor:
#      x y z
#    x 1.967360 0.000000 -0.092220 
#    y 0.000000 1.888630 0.000000 
#    z -0.092220 0.000000 1.990550 
# 
# From -- ./inp_files/52461.got.cif
#   From: 2010.05.17/outbox.cif.g08.bks.cpg/sg5_27_cif.got.tgz:52461.got - 2010.06.03 18:56:24.
