data_PCOD9129951
_publ_section_title
;
Structure prediction by ZEFSAII (Michael W. Deem and Ramdas Pophale) SiO2 
 PCOD9129951
Probable space group: C 2
;
_chemical_formula_sum "Si O2"
_cell_formula_units_Z 28
_cell_length_a 17.891916
_cell_length_b 5.189696
_cell_length_c 14.337143
_cell_angle_alpha 90.000000
_cell_angle_beta 113.835220
_cell_angle_gamma 90.000000
_cell_volume 1217.714546
_symmetry_space_group_name_H-M "C 2"
_symmetry_group_IT_number 5
_symmetry_cell_setting 'monoclinic'
loop_
_space_group_symop_operation_xyz
x,y,z
-x,y,-z
1/2+x,1/2+y,z
1/2-x,1/2+y,-z
loop_
_atom_site_type_symbol
_atom_site_label
_atom_site_fract_x
_atom_site_fract_y
_atom_site_fract_z
Si Si1 0.730379 0.272130 0.597836
Si Si2 0.585278 0.658323 0.557350
Si Si3 0.272063 0.472889 0.959815
Si Si4 0.549399 0.701528 0.929278
Si Si5 0.342147 0.996072 0.265257
Si Si6 0.472839 0.211922 0.209030
Si Si7 0.121519 0.506734 0.400617
O O1 0.668990 0.505509 0.588810
O O2 0.826390 0.319600 0.639551
O O3 0.708657 0.082040 0.670646
O O4 0.694999 0.174290 0.481660
O O5 0.500000 0.506365 0.500000
O O6 0.593148 0.792765 0.661552
O O7 0.584095 0.863638 0.471789
O O8 0.223057 0.400858 0.842204
O O9 0.279330 0.202649 0.017118
O O10 0.359402 0.610953 0.995974
O O11 0.543618 0.964600 0.866597
O O12 0.519607 0.468864 0.847763
O O13 0.500000 0.728467 0.000000
O O14 0.396989 0.214794 0.243504
O O15 0.554162 0.159332 0.309834
#
# Coordination Sequence:
#
# PCOD9129951 Si02
#       7
#     4   4   4   4   4   4   4
#     4  11  26  43  69 101 145 184 242 288 361 427
#     4  11  24  42  69  99 146 182 235 288 352 436
#     4  12  25  48  75 102 146 185 236 302 353 424
#     4  12  28  50  73 109 144 189 238 298 364 426
#     4  11  26  42  70 107 131 191 237 289 358 419
#     4  12  27  47  78 106 146 186 242 297 359 427
#     4  11  25  45  67 104 144 191 231 300 355 426
#
# _framework density 22.993893
#
# number of rings (size 3 to 8) (size 9 to 14) (size 15 to 20)
#    0.000    0.571    5.714    0.429   10.000    1.143 
#    0.000    0.000    0.000    0.000    0.000    0.000 
#    0.000    0.000    0.000    0.000    0.000    0.000 
#
# Total GULP energy -78280.717650 kJ/mol
# GULP energy per Si atom -5591.479832 kJ/mol
# Density = 2.294156 g / cm^3
# Si number density = 22.993893 Si / 1000 Ang^3
#
#
#
# Elastic Constant Matrix: (Units=GPa)
#
#
# Indices 1 2 3 4 5 6 
#
# 1 69.2178 1.0155 45.6979 0.0000 1.4419 0.0000
# 2 1.0155 86.8924 21.6494 0.0000 -10.3993 0.0000
# 3 45.6979 21.6494 111.3169 0.0000 8.4333 0.0000
# 4 0.0000 0.0000 0.0000 25.6538 0.0000 -0.5874
# 5 1.4419 -10.3993 8.4333 0.0000 38.4709 0.0000
# 6 0.0000 0.0000 0.0000 -0.5874 0.0000 29.1494
#
#
#
# Elastic Compliance Matrix: (Units=1/GPa)
#
#
# Indices 1 2 3 4 5 6 
#
# 1 0.020230 0.002185 -0.008864 0.000000 0.001776 0.000000
# 2 0.002185 0.012918 -0.003730 0.000000 0.004228 0.000000
# 3 -0.008864 -0.003730 0.013625 0.000000 -0.003663 0.000000
# 4 0.000000 0.000000 0.000000 0.038999 0.000000 0.000786
# 5 0.001776 0.004228 -0.003663 0.000000 0.027873 0.000000
# 6 0.000000 0.000000 0.000000 0.000786 0.000000 0.034322
#
#
# Mechanical properties :
#
#
# Convention : Reuss Voigt Hill
#
# Bulk Modulus (GPa) = 38.52783 44.90584 41.71683
# Shear Modulus (GPa) = 28.17894 31.92575 30.05234
#
# Velocity S-wave (km/s) = 3.50451 3.73023 3.61913
# Velocity P-wave (km/s) = 5.75912 6.17452 5.97043
#
# Compressibility (1/GPa) = 0.02595527
#
# Stress axis : x y z
#
# Youngs Moduli (GPa) = 49.43042 77.41050 73.39334
#
# Poissons Ratio (x) = -0.16912 0.65059
# Poissons Ratio (y) = -0.10799 0.27372
# Poissons Ratio (z) = 0.43817 0.28870
#
# Static dielectric constant tensor:
#      x y z
#    x 1.927390 0.000000 -0.011410 
#    y 0.000000 1.950900 0.000000 
#    z -0.011410 0.000000 1.825700 
# 
# From -- ./inp_files/55509.got.cif
#   From: 2010.05.17/outbox.cif.g08.bks.cpg/sg5_28_cif.got.tgz:55509.got - 2010.06.03 18:56:24.
