data_PCOD9129589
_publ_section_title
;
Structure prediction by ZEFSAII (Michael W. Deem and Ramdas Pophale) SiO2 
 PCOD9129589
Probable space group: C 2
;
_chemical_formula_sum "Si O2"
_cell_formula_units_Z 26
_cell_length_a 10.153773
_cell_length_b 11.492231
_cell_length_c 8.919837
_cell_angle_alpha 90.000000
_cell_angle_beta 99.539661
_cell_angle_gamma 90.000000
_cell_volume 1026.457551
_symmetry_space_group_name_H-M "C 2"
_symmetry_group_IT_number 5
_symmetry_cell_setting 'monoclinic'
loop_
_space_group_symop_operation_xyz
x,y,z
-x,y,-z
1/2+x,1/2+y,z
1/2-x,1/2+y,-z
loop_
_atom_site_type_symbol
_atom_site_label
_atom_site_fract_x
_atom_site_fract_y
_atom_site_fract_z
Si Si1 0.204296 0.880980 0.733408
Si Si2 0.350098 0.189441 0.033230
Si Si3 0.180972 0.485808 0.742187
Si Si4 0.174758 0.582856 0.407254
Si Si5 0.500000 0.253155 0.500000
Si Si6 0.869988 0.222038 0.270335
Si Si7 0.524412 0.541512 0.175511
O O1 0.214992 0.779221 0.857973
O O2 0.125913 0.827774 0.576443
O O3 0.319373 0.967983 0.695583
O O4 0.096117 0.965396 0.787753
O O5 0.355911 0.066037 0.122372
O O6 0.500000 0.218992 0.000000
O O7 0.243702 0.190900 0.876954
O O8 0.163061 0.544483 0.576961
O O9 0.117811 0.359271 0.723817
O O10 0.340453 0.472037 0.783214
O O11 0.054353 0.675213 0.371862
O O12 0.307880 0.657369 0.402130
O O13 0.010598 0.162770 0.259078
O O14 0.500000 0.569275 0.000000
#
# Coordination Sequence:
#
# PCOD9129589 Si02
#       7
#     4   4   4   4   2   4   4
#     4  11  23  42  73  98 142 190 239 295 359 427
#     4  12  25  45  72 103 142 195 237 297 369 428
#     4  12  25  46  70 104 148 184 241 299 363 428
#     4  11  25  44  72 107 138 191 241 295 363 433
#     4  12  22  46  68 104 144 188 236 298 358 432
#     4  11  26  45  72 105 141 185 248 296 358 436
#     4  11  22  44  69 101 138 185 240 299 357 423
#
# _framework density 25.329833000000001
#
# number of rings (size 3 to 8) (size 9 to 14) (size 15 to 20)
#    0.000    0.615    3.077    6.000    2.154    2.462 
#    2.769    0.000    0.000    0.000    0.000    0.000 
#    0.000    0.000    0.000    0.000    0.000    0.000 
#
# Total GULP energy -72766.281951 kJ/mol
# GULP energy per Si atom -5597.406304 kJ/mol
# Density = 2.527218 g / cm^3
# Si number density = 25.329833 Si / 1000 Ang^3
#
#
#
# Elastic Constant Matrix: (Units=GPa)
#
#
# Indices 1 2 3 4 5 6 
#
# 1 63.7845 14.9530 13.6379 0.0000 -18.6510 0.0000
# 2 14.9530 149.7153 36.6069 0.0000 -22.6729 0.0000
# 3 13.6379 36.6069 100.0231 0.0000 -10.3325 0.0000
# 4 0.0000 0.0000 0.0000 43.8367 0.0000 -8.8320
# 5 -18.6510 -22.6729 -10.3325 0.0000 37.9311 0.0000
# 6 0.0000 0.0000 0.0000 -8.8320 0.0000 21.4219
#
#
#
# Elastic Compliance Matrix: (Units=1/GPa)
#
#
# Indices 1 2 3 4 5 6 
#
# 1 0.018570 -0.000165 -0.001583 0.000000 0.008601 0.000000
# 2 -0.000165 0.007898 -0.002458 0.000000 0.003970 0.000000
# 3 -0.001583 -0.002458 0.011196 0.000000 0.000802 0.000000
# 4 0.000000 0.000000 0.000000 0.024879 0.000000 0.010257
# 5 0.008601 0.003970 0.000802 0.000000 0.033185 0.000000
# 6 0.000000 0.000000 0.000000 0.010257 0.000000 0.050910
#
#
# Mechanical properties :
#
#
# Convention : Reuss Voigt Hill
#
# Bulk Modulus (GPa) = 34.18578 49.32428 41.75503
# Shear Modulus (GPa) = 30.33980 37.19293 33.76637
#
# Velocity S-wave (km/s) = 3.46466 3.83606 3.65508
# Velocity P-wave (km/s) = 5.43422 6.25584 5.85945
#
# Compressibility (1/GPa) = 0.02925193
#
# Stress axis : x y z
#
# Youngs Moduli (GPa) = 53.85028 126.61306 89.31785
#
# Poissons Ratio (x) = 0.02090 0.14139
# Poissons Ratio (y) = 0.00889 0.21954
# Poissons Ratio (z) = 0.08525 0.31121
#
# Static dielectric constant tensor:
#      x y z
#    x 2.000070 0.000000 0.000850 
#    y 0.000000 2.057740 0.000000 
#    z 0.000850 0.000000 1.839850 
# 
# From -- ./inp_files/19397.got.cif
#   From: 2010.05.17/outbox.cif.g08.bks.cpg/sg5_10_cif.got.tgz:19397.got - 2010.06.03 18:56:24.
