data_PCOD9129167
_publ_section_title
;
Structure prediction by ZEFSAII (Michael W. Deem and Ramdas Pophale) SiO2 
 PCOD9129167
Probable space group: C 2
;
_chemical_formula_sum "Si O2"
_cell_formula_units_Z 32
_cell_length_a 9.924432
_cell_length_b 20.162941
_cell_length_c 13.267471
_cell_angle_alpha 90.000000
_cell_angle_beta 138.253359
_cell_angle_gamma 90.000000
_cell_volume 1767.731155
_symmetry_space_group_name_H-M "C 2"
_symmetry_group_IT_number 5
_symmetry_cell_setting 'monoclinic'
loop_
_space_group_symop_operation_xyz
x,y,z
-x,y,-z
1/2+x,1/2+y,z
1/2-x,1/2+y,-z
loop_
_atom_site_type_symbol
_atom_site_label
_atom_site_fract_x
_atom_site_fract_y
_atom_site_fract_z
Si Si1 0.710560 0.359940 0.439655
Si Si2 0.578761 0.715408 0.661119
Si Si3 0.948925 0.998906 0.659907
Si Si4 0.369844 0.216569 0.529085
Si Si5 0.338308 0.496896 0.831801
Si Si6 0.672155 0.858254 0.730500
Si Si7 0.063862 0.574103 0.349522
Si Si8 0.835553 0.581729 0.820590
O O1 0.578294 0.423476 0.392073
O O2 0.613241 0.289238 0.411097
O O3 0.766899 0.363135 0.353122
O O4 0.931764 0.367170 0.613315
O O5 0.500000 0.725684 0.500000
O O6 0.374580 0.707224 0.613095
O O7 0.699242 0.780254 0.766991
O O8 0.717575 0.651348 0.741948
O O9 0.767331 0.042773 0.511035
O O10 0.162093 0.029000 0.749037
O O11 0.924622 0.998077 0.767152
O O12 0.500000 0.216570 0.500000
O O13 0.441278 0.152618 0.631431
O O14 0.284371 0.421745 0.838193
O O15 0.129755 0.537422 0.713071
O O16 0.500000 0.525693 0.000000
O O17 0.066728 0.564015 0.231685
O O18 0.000000 0.585486 0.000000
#
# Coordination Sequence:
#
# PCOD9129167 Si02
#       8
#     4   4   4   4   4   4   4   4
#     4   9  17  33  57  85 113 144 196 244 283 328
#     4  11  18  38  63  85 114 153 201 246 284 351
#     4  11  21  39  63  86 113 159 204 244 284 352
#     4  11  21  34  59  92 115 142 193 257 289 334
#     4  11  23  37  58  91 126 156 190 245 306 349
#     4   9  16  33  59  85 113 151 194 242 281 340
#     4  12  22  39  61  86 115 156 204 246 289 352
#     4  12  25  39  57  86 122 156 192 248 313 355
#
# _framework density 18.1023
#
# number of rings (size 3 to 8) (size 9 to 14) (size 15 to 20)
#    0.000    1.250    6.250    2.250    0.000    1.500 
#    0.000    0.000    0.000    0.750    0.000    0.000 
#    0.000    0.000    0.000    0.000    0.000    0.000 
#
# Total GULP energy -89227.145679 kJ/mol
# GULP energy per Si atom -5576.696605 kJ/mol
# Density = 1.806110 g / cm^3
# Si number density = 18.102300 Si / 1000 Ang^3
#
#
#
# Elastic Constant Matrix: (Units=GPa)
#
#
# Indices 1 2 3 4 5 6 
#
# 1 68.8391 14.2566 3.1042 0.0000 -4.2554 0.0000
# 2 14.2566 121.1390 12.8196 0.0000 7.7152 0.0000
# 3 3.1042 12.8196 58.4588 0.0000 -3.2515 0.0000
# 4 0.0000 0.0000 0.0000 12.8468 0.0000 0.0413
# 5 -4.2554 7.7152 -3.2515 0.0000 22.1486 0.0000
# 6 0.0000 0.0000 0.0000 0.0413 0.0000 26.4686
#
#
#
# Elastic Compliance Matrix: (Units=1/GPa)
#
#
# Indices 1 2 3 4 5 6 
#
# 1 0.015169 -0.001996 -0.000168 0.000000 0.003585 0.000000
# 2 -0.001996 0.008951 -0.002069 0.000000 -0.003805 0.000000
# 3 -0.000168 -0.002069 0.017752 0.000000 0.003294 0.000000
# 4 0.000000 0.000000 0.000000 0.077841 0.000000 -0.000121
# 5 0.003585 -0.003805 0.003294 0.000000 0.047647 0.000000
# 6 0.000000 0.000000 0.000000 -0.000121 0.000000 0.037781
#
#
# Mechanical properties :
#
#
# Convention : Reuss Voigt Hill
#
# Bulk Modulus (GPa) = 29.93417 34.31084 32.12251
# Shear Modulus (GPa) = 22.24773 26.84325 24.54549
#
# Velocity S-wave (km/s) = 3.50951 3.85497 3.68629
# Velocity P-wave (km/s) = 5.74406 6.22972 5.99182
#
# Compressibility (1/GPa) = 0.03340663
#
# Stress axis : x y z
#
# Youngs Moduli (GPa) = 65.92331 111.71814 56.33209
#
# Poissons Ratio (x) = 0.22296 0.00949
# Poissons Ratio (y) = 0.13156 0.11653
# Poissons Ratio (z) = 0.01110 0.23110
#
# Static dielectric constant tensor:
#      x y z
#    x 1.603790 0.000000 -0.007730 
#    y 0.000000 1.658780 0.000000 
#    z -0.007730 0.000000 1.602080 
# 
# From -- ./inp_files/37365.got.cif
#   From: 2010.05.17/outbox.cif.g08.bks.cpg/sg5_19_cif.got.tgz:37365.got - 2010.06.03 18:56:24.
