data_PCOD9129406
_publ_section_title
;
Structure prediction by ZEFSAII (Michael W. Deem and Ramdas Pophale) SiO2 
 PCOD9129406
Probable space group: C 2
;
_chemical_formula_sum "Si O2"
_cell_formula_units_Z 16
_cell_length_a 13.886578
_cell_length_b 10.329276
_cell_length_c 5.313635
_cell_angle_alpha 90.000000
_cell_angle_beta 50.918261
_cell_angle_gamma 90.000000
_cell_volume 591.639256
_symmetry_space_group_name_H-M "C 2"
_symmetry_group_IT_number 5
_symmetry_cell_setting 'monoclinic'
loop_
_space_group_symop_operation_xyz
x,y,z
-x,y,-z
1/2+x,1/2+y,z
1/2-x,1/2+y,-z
loop_
_atom_site_type_symbol
_atom_site_label
_atom_site_fract_x
_atom_site_fract_y
_atom_site_fract_z
Si Si1 0.863586 0.400350 0.289045
Si Si2 0.824646 0.553612 0.839263
Si Si3 0.399237 0.282668 0.375876
Si Si4 0.963014 0.057237 0.797017
O O1 0.882041 0.461118 0.533531
O O2 0.741124 0.308915 0.495492
O O3 0.835829 0.505696 0.108304
O O4 0.000000 0.353266 0.000000
O O5 0.873844 0.694353 0.664917
O O6 0.681425 0.541654 0.996048
O O7 0.456999 0.423673 0.341018
O O8 0.500000 0.231931 0.000000
O O9 0.000000 0.142993 0.500000
O O10 0.000000 0.109214 0.000000
#
# Coordination Sequence:
#
# PCOD9129406 Si02
#       4
#     4   4   4   4
#     4  12  27  49  71 114 163 190 264 327 372 473
#     4  12  25  47  79 112 151 205 259 318 387 460
#     4  11  25  49  84 108 153 212 256 310 402 451
#     4  11  21  44  74 102 151 192 251 315 365 458
#
# _framework density 27.043506000000001
#
# number of rings (size 3 to 8) (size 9 to 14) (size 15 to 20)
#    0.000    0.500    7.500    1.500    0.000    9.000 
#    0.000    2.500    0.000    0.000    0.000    0.000 
#    0.000    0.000    0.000    0.000    0.000    0.000 
#
# Total GULP energy -44712.099920 kJ/mol
# GULP energy per Si atom -5589.012490 kJ/mol
# Density = 2.698195 g / cm^3
# Si number density = 27.043506 Si / 1000 Ang^3
#
#
#
# Elastic Constant Matrix: (Units=GPa)
#
#
# Indices 1 2 3 4 5 6 
#
# 1 184.3440 34.9808 63.3076 0.0000 -16.6805 0.0000
# 2 34.9808 107.9539 36.0454 0.0000 -11.6077 0.0000
# 3 63.3076 36.0454 192.2288 0.0000 -9.7588 0.0000
# 4 0.0000 0.0000 0.0000 26.3907 0.0000 24.5419
# 5 -16.6805 -11.6077 -9.7588 0.0000 89.5937 0.0000
# 6 0.0000 0.0000 0.0000 24.5419 0.0000 -48.4366
#
#
#
# Elastic Compliance Matrix: (Units=1/GPa)
#
#
# Indices 1 2 3 4 5 6 
#
# 1 0.006378 -0.001378 -0.001801 0.000000 0.000813 0.000000
# 2 -0.001378 0.010286 -0.001428 0.000000 0.000920 0.000000
# 3 -0.001801 -0.001428 0.006070 0.000000 0.000141 0.000000
# 4 0.000000 0.000000 0.000000 0.025756 0.000000 0.013050
# 5 0.000813 0.000920 0.000141 0.000000 0.011447 0.000000
# 6 0.000000 0.000000 0.000000 0.013050 0.000000 -0.014033
#
#
# Mechanical properties :
#
#
# Convention : Reuss Voigt Hill
#
# Bulk Modulus (GPa) = 73.96555 83.68825 78.82690
# Shear Modulus (GPa) = 83.85761 36.85576 60.35669
#
# Velocity S-wave (km/s) = 5.57456 3.69566 4.72936
# Velocity P-wave (km/s) = 8.29724 7.01595 7.68335
#
# Compressibility (1/GPa) = 0.01351981
#
# Stress axis : x y z
#
# Youngs Moduli (GPa) = 156.78553 97.22373 164.74008
#
# Poissons Ratio (x) = 0.13398 0.29668
# Poissons Ratio (y) = 0.21606 0.23527
# Poissons Ratio (z) = 0.28235 0.13885
#
# Static dielectric constant tensor:
#      x y z
#    x 2.173350 0.000000 0.159680 
#    y 0.000000 2.139780 0.000000 
#    z 0.159680 0.000000 2.563520 
# 
# From -- ./inp_files/4312.got.cif
#   From: 2010.05.17/outbox.cif.g08.bks.cpg/sg5_3_cif.got.tgz:4312.got - 2010.06.03 18:56:24.
