data_PCOD9129024
_publ_section_title
;
Structure prediction by ZEFSAII (Michael W. Deem and Ramdas Pophale) SiO2 
 PCOD9129024
Probable space group: C 2
;
_chemical_formula_sum "Si O2"
_cell_formula_units_Z 28
_cell_length_a 17.972174
_cell_length_b 5.500971
_cell_length_c 21.137686
_cell_angle_alpha 90.000000
_cell_angle_beta 145.039080
_cell_angle_gamma 90.000000
_cell_volume 1197.471976
_symmetry_space_group_name_H-M "C 2"
_symmetry_group_IT_number 5
_symmetry_cell_setting 'monoclinic'
loop_
_space_group_symop_operation_xyz
x,y,z
-x,y,-z
1/2+x,1/2+y,z
1/2-x,1/2+y,-z
loop_
_atom_site_type_symbol
_atom_site_label
_atom_site_fract_x
_atom_site_fract_y
_atom_site_fract_z
Si Si1 0.761881 0.234180 0.794733
Si Si2 0.000000 0.450010 0.500000
Si Si3 0.287130 0.589731 0.351396
Si Si4 0.473771 0.672702 0.756736
Si Si5 0.474036 0.178921 0.273810
Si Si6 0.939531 0.888486 0.850076
Si Si7 0.000000 0.574683 0.000000
Si Si8 0.329962 0.242159 0.481774
O O1 0.715093 0.359850 0.696727
O O2 0.644327 0.182148 0.759224
O O3 0.873423 0.412283 0.898740
O O4 0.836422 0.991789 0.828058
O O5 0.925647 0.597324 0.501677
O O6 0.890241 0.275500 0.395360
O O7 0.145120 0.709238 0.253201
O O8 0.330855 0.512492 0.452050
O O9 0.537908 0.433784 0.771226
O O10 0.486892 0.614061 0.840900
O O11 0.319678 0.667086 0.631943
O O12 0.525277 0.930070 0.766480
O O13 0.609102 0.200513 0.407458
O O14 0.030867 0.733013 0.958633
#
# Coordination Sequence:
#
# PCOD9129024 Si02
#       8
#     4   2   4   4   4   4   2   4
#     4  11  24  48  75 111 140 191 263 323 383 457
#     4  12  22  34  66 102 140 196 266 308 360 418
#     4  11  21  38  70 103 145 191 259 324 365 427
#     4  12  27  47  71 107 161 204 241 304 384 452
#     4  12  29  44  73 110 160 205 244 304 374 466
#     4  11  23  47  79 106 140 195 254 326 384 455
#     4  10  26  44  92 106 138 188 274 330 396 458
#     4  12  24  42  63 109 148 213 250 297 357 463
#
# _framework density 23.382591999999999
#
# number of rings (size 3 to 8) (size 9 to 14) (size 15 to 20)
#    0.000    0.571    2.857    5.143   10.000    0.000 
#    0.000    0.000    6.286    0.000    0.000    0.000 
#    0.000    0.000    0.000    0.000    0.000    0.000 
#
# Total GULP energy -78316.292074 kJ/mol
# GULP energy per Si atom -5594.020862 kJ/mol
# Density = 2.332937 g / cm^3
# Si number density = 23.382592 Si / 1000 Ang^3
#
#
#
# Elastic Constant Matrix: (Units=GPa)
#
#
# Indices 1 2 3 4 5 6 
#
# 1 105.5975 46.9244 7.5321 0.0000 0.9828 0.0000
# 2 46.9244 124.4926 29.5439 0.0000 -11.3702 0.0011
# 3 7.5321 29.5439 83.9654 0.0000 -18.6886 0.0001
# 4 0.0000 0.0000 0.0000 47.4840 -0.0001 -6.2606
# 5 0.9828 -11.3702 -18.6886 -0.0001 14.8994 0.0000
# 6 0.0000 0.0011 0.0001 -6.2606 0.0000 42.2086
#
#
#
# Elastic Compliance Matrix: (Units=1/GPa)
#
#
# Indices 1 2 3 4 5 6 
#
# 1 0.011655 -0.004732 -0.000493 0.000000 -0.004998 0.000000
# 2 -0.004732 0.010854 -0.002055 0.000000 0.006017 0.000000
# 3 -0.000493 -0.002055 0.017113 0.000000 0.019929 0.000000
# 4 0.000000 0.000000 0.000000 0.021480 0.000000 0.003186
# 5 -0.004998 0.006017 0.019929 0.000000 0.097035 0.000000
# 6 0.000000 0.000000 0.000000 0.003186 0.000000 0.024164
#
#
# Mechanical properties :
#
#
# Convention : Reuss Voigt Hill
#
# Bulk Modulus (GPa) = 39.90432 53.56182 46.73307
# Shear Modulus (GPa) = 24.36473 36.25541 30.31007
#
# Velocity S-wave (km/s) = 3.23151 3.94195 3.60428
# Velocity P-wave (km/s) = 5.57014 6.60871 6.11152
#
# Compressibility (1/GPa) = 0.02505994
#
# Stress axis : x y z
#
# Youngs Moduli (GPa) = 85.80333 92.13475 58.43626
#
# Poissons Ratio (x) = 0.43602 0.02880
# Poissons Ratio (y) = 0.40606 0.12010
# Poissons Ratio (z) = 0.04229 0.18935
#
# Static dielectric constant tensor:
#      x y z
#    x 1.872890 0.000000 -0.031400 
#    y 0.000000 1.918720 0.000000 
#    z -0.031400 0.000000 1.881240 
# 
# From -- ./inp_files/66478.got.cif
#   From: 2010.05.17/outbox.cif.g08.bks.cpg/sg5_34_cif.got.tgz:66478.got - 2010.06.03 18:56:24.
