data_PCOD9129678
_publ_section_title
;
Structure prediction by ZEFSAII (Michael W. Deem and Ramdas Pophale) SiO2 
 PCOD9129678
Probable space group: C 2
;
_chemical_formula_sum "Si O2"
_cell_formula_units_Z 30
_cell_length_a 13.160229
_cell_length_b 12.883784
_cell_length_c 8.751491
_cell_angle_alpha 90.000000
_cell_angle_beta 110.920659
_cell_angle_gamma 90.000000
_cell_volume 1386.024943
_symmetry_space_group_name_H-M "C 2"
_symmetry_group_IT_number 5
_symmetry_cell_setting 'monoclinic'
loop_
_space_group_symop_operation_xyz
x,y,z
-x,y,-z
1/2+x,1/2+y,z
1/2-x,1/2+y,-z
loop_
_atom_site_type_symbol
_atom_site_label
_atom_site_fract_x
_atom_site_fract_y
_atom_site_fract_z
Si Si1 0.331315 0.358420 0.631705
Si Si2 0.621618 0.165624 0.530618
Si Si3 0.224613 0.158292 0.089887
Si Si4 0.397924 0.935474 0.547206
Si Si5 0.000000 0.977016 0.500000
Si Si6 0.382862 0.871113 0.876573
Si Si7 0.890283 0.776566 0.987362
Si Si8 0.343459 0.475591 0.148186
O O1 0.317249 0.247550 0.541606
O O2 0.217389 0.414774 0.589736
O O3 0.412666 0.418811 0.562512
O O4 0.369852 0.339344 0.822538
O O5 0.500000 0.207988 0.500000
O O6 0.692402 0.146198 0.721810
O O7 0.597949 0.059214 0.429448
O O8 0.145074 0.254134 0.085339
O O9 0.297720 0.198319 0.987919
O O10 0.166048 0.055111 0.998157
O O11 0.500000 0.904841 0.500000
O O12 0.394786 0.875092 0.702329
O O13 0.916909 0.022416 0.325476
O O14 0.278899 0.942167 0.866373
O O15 0.500000 0.906178 0.000000
O O16 0.894376 0.864569 0.122089
O O17 0.000000 0.717780 0.000000
#
# Coordination Sequence:
#
# PCOD9129678 Si02
#       8
#     4   4   4   4   2   4   4   4
#     4  12  22  43  72 100 146 179 238 296 354 419
#     4  11  23  42  73 103 137 188 240 294 346 419
#     4  11  25  47  66 105 141 183 232 289 364 424
#     4  11  26  44  70 103 138 191 233 289 348 425
#     4  12  22  46  74 104 142 188 240 302 364 414
#     4  11  26  48  68  98 146 190 226 291 360 422
#     4  11  23  39  69 103 132 179 230 287 346 415
#     4  11  25  46  73 101 139 186 235 295 358 426
#
# _framework density 21.644632000000001
#
# number of rings (size 3 to 8) (size 9 to 14) (size 15 to 20)
#    0.000    0.800    4.667    2.400    9.333    1.067 
#    2.400    1.333    1.467    0.000    0.000    0.000 
#    0.000    0.000    0.000    0.000    0.000    0.000 
#
# Total GULP energy -83721.813808 kJ/mol
# GULP energy per Si atom -5581.454254 kJ/mol
# Density = 2.159537 g / cm^3
# Si number density = 21.644632 Si / 1000 Ang^3
#
#
#
# Elastic Constant Matrix: (Units=GPa)
#
#
# Indices 1 2 3 4 5 6 
#
# 1 130.1937 25.1430 17.7257 0.0000 -0.5604 0.0000
# 2 25.1430 53.1111 -5.9187 0.0000 -6.2064 0.0000
# 3 17.7257 -5.9187 84.6865 0.0000 11.6463 0.0000
# 4 0.0000 0.0000 0.0000 35.1608 0.0000 -148.7552
# 5 -0.5604 -6.2064 11.6463 0.0000 40.5088 0.0000
# 6 0.0000 0.0000 0.0000 -148.7552 0.0000 2303.3201
#
#
#
# Elastic Compliance Matrix: (Units=1/GPa)
#
#
# Indices 1 2 3 4 5 6 
#
# 1 0.008828 -0.004413 -0.002166 0.000000 0.000069 0.000000
# 2 -0.004413 0.021455 0.002061 0.000000 0.002634 0.000000
# 3 -0.002166 0.002061 0.012875 0.000000 -0.003416 0.000000
# 4 0.000000 0.000000 0.000000 0.039133 0.000000 0.002527
# 5 0.000069 0.002634 -0.003416 0.000000 0.026072 0.000000
# 6 0.000000 0.000000 0.000000 0.002527 0.000000 0.000597
#
#
# Mechanical properties :
#
#
# Convention : Reuss Voigt Hill
#
# Bulk Modulus (GPa) = 29.30527 37.98794 33.64661
# Shear Modulus (GPa) = 38.64862 491.20069 264.92466
#
# Velocity S-wave (km/s) = 4.23022 15.08083 11.07534
# Velocity P-wave (km/s) = 6.11787 17.91175 13.38393
#
# Compressibility (1/GPa) = 0.03412355
#
# Stress axis : x y z
#
# Youngs Moduli (GPa) = 113.27376 46.60962 77.66781
#
# Poissons Ratio (x) = 0.20567 0.16820
# Poissons Ratio (y) = 0.49983 -0.16006
# Poissons Ratio (z) = 0.24531 -0.09606
#
# Static dielectric constant tensor:
#      x y z
#    x -8.709290 0.000000 -8.475410 
#    y 0.000000 1.768670 0.000000 
#    z -8.475410 0.000000 -5.101700 
# 
# From -- ./inp_files/20675.got.cif
#   From: 2010.05.17/outbox.cif.g08.bks.cpg/sg5_11_cif.got.tgz:20675.got - 2010.06.03 18:56:24.
