data_PCOD9129718
_publ_section_title
;
Structure prediction by ZEFSAII (Michael W. Deem and Ramdas Pophale) SiO2 
 PCOD9129718
Probable space group: C 2
;
_chemical_formula_sum "Si O2"
_cell_formula_units_Z 22
_cell_length_a 10.765394
_cell_length_b 13.263350
_cell_length_c 11.144908
_cell_angle_alpha 90.000000
_cell_angle_beta 149.512409
_cell_angle_gamma 90.000000
_cell_volume 807.362925
_symmetry_space_group_name_H-M "C 2"
_symmetry_group_IT_number 5
_symmetry_cell_setting 'monoclinic'
loop_
_space_group_symop_operation_xyz
x,y,z
-x,y,-z
1/2+x,1/2+y,z
1/2-x,1/2+y,-z
loop_
_atom_site_type_symbol
_atom_site_label
_atom_site_fract_x
_atom_site_fract_y
_atom_site_fract_z
Si Si1 0.500000 0.376660 0.000000
Si Si2 0.605782 0.012710 0.951194
Si Si3 0.500000 0.991108 0.500000
Si Si4 0.885135 0.747394 0.131232
Si Si5 0.500000 0.720238 0.000000
Si Si6 0.898466 0.971973 0.543879
Si Si7 0.753688 0.146562 0.558229
O O1 0.609149 0.307694 0.985521
O O2 0.257114 0.433894 0.743643
O O3 0.636545 0.128568 0.928940
O O4 0.391633 0.948137 0.706249
O O5 0.500000 0.020328 0.000000
O O6 0.875059 0.960331 0.174369
O O7 0.551056 0.066346 0.432810
O O8 0.703016 0.773754 0.088809
O O9 0.383526 0.659787 0.793020
O O10 0.855685 0.749824 0.582133
O O11 0.881124 0.093928 0.551402
O O12 0.000000 0.942763 0.500000
#
# Coordination Sequence:
#
# PCOD9129718 Si02
#       7
#     2   4   2   4   2   4   4
#     4  12  31  48  78 109 164 196 256 308 405 448
#     4   9  16  29  51  88 129 160 224 291 345 387
#     4  12  28  50  70 114 158 208 236 318 394 474
#     4  11  23  42  71 112 140 201 258 321 355 462
#     4  12  21  38  76 115 142 184 268 330 357 426
#     4   9  18  30  56  94 131 170 225 303 348 402
#     4  11  23  41  75 107 150 194 264 305 377 450
#
# _framework density 27.249210000000001
#
# number of rings (size 3 to 8) (size 9 to 14) (size 15 to 20)
#    0.000    1.455    4.545    0.545    2.545    0.000 
#    0.000    0.000    4.000    0.000    0.000    0.000 
#    0.000    0.000    0.000    0.000    0.000    0.000 
#
# Total GULP energy -61248.843631 kJ/mol
# GULP energy per Si atom -5568.076694 kJ/mol
# Density = 2.718719 g / cm^3
# Si number density = 27.249210 Si / 1000 Ang^3
#
#
#
# Elastic Constant Matrix: (Units=GPa)
#
#
# Indices 1 2 3 4 5 6 
#
# 1 99.1496 24.8059 -0.9626 0.0004 -16.4800 -0.0003
# 2 24.8059 72.6398 37.1846 -0.0008 -2.2757 0.0004
# 3 -0.9626 37.1846 190.0439 0.0021 17.7645 -0.0009
# 4 0.0004 -0.0008 0.0021 78.2671 0.0033 -73.4059
# 5 -16.4800 -2.2757 17.7645 0.0033 47.2847 -0.0027
# 6 -0.0003 0.0004 -0.0009 -73.4059 -0.0027 91.6979
#
#
#
# Elastic Compliance Matrix: (Units=1/GPa)
#
#
# Indices 1 2 3 4 5 6 
#
# 1 0.011748 -0.004167 0.000529 0.000000 0.003695 0.000000
# 2 -0.004167 0.016949 -0.003397 0.000001 0.000640 0.000000
# 3 0.000529 -0.003397 0.006143 0.000000 -0.002287 0.000000
# 4 0.000000 0.000001 0.000000 0.051271 -0.000001 0.041043
# 5 0.003695 0.000640 -0.002287 -0.000001 0.023326 0.000000
# 6 0.000000 0.000000 0.000000 0.041043 0.000000 0.043761
#
#
# Mechanical properties :
#
#
# Convention : Reuss Voigt Hill
#
# Bulk Modulus (GPa) = 48.14648 53.76547 50.95598
# Shear Modulus (GPa) = 28.70421 63.50362 46.10391
#
# Velocity S-wave (km/s) = 3.24913 4.83274 4.11778
# Velocity P-wave (km/s) = 5.63765 7.13543 6.43030
#
# Compressibility (1/GPa) = 0.02076995
#
# Stress axis : x y z
#
# Youngs Moduli (GPa) = 85.12390 59.00195 162.78469
#
# Poissons Ratio (x) = 0.24586 -0.08619
# Poissons Ratio (y) = 0.35471 0.55300
# Poissons Ratio (z) = -0.04507 0.20044
#
# Static dielectric constant tensor:
#      x y z
#    x 2.003830 0.000000 0.219830 
#    y 0.000000 2.182800 0.000000 
#    z 0.219830 0.000000 2.410530 
# 
# From -- ./inp_files/40108.got.cif
#   From: 2010.05.17/outbox.cif.g08.bks.cpg/sg5_21_cif.got.tgz:40108.got - 2010.06.03 18:56:24.
