data_PCOD9129772
_publ_section_title
;
Structure prediction by ZEFSAII (Michael W. Deem and Ramdas Pophale) SiO2 
 PCOD9129772
Probable space group: C 2
;
_chemical_formula_sum "Si O2"
_cell_formula_units_Z 26
_cell_length_a 15.769742
_cell_length_b 6.839823
_cell_length_c 11.681665
_cell_angle_alpha 90.000000
_cell_angle_beta 117.855604
_cell_angle_gamma 90.000000
_cell_volume 1114.010581
_symmetry_space_group_name_H-M "C 2"
_symmetry_group_IT_number 5
_symmetry_cell_setting 'monoclinic'
loop_
_space_group_symop_operation_xyz
x,y,z
-x,y,-z
1/2+x,1/2+y,z
1/2-x,1/2+y,-z
loop_
_atom_site_type_symbol
_atom_site_label
_atom_site_fract_x
_atom_site_fract_y
_atom_site_fract_z
Si Si1 0.000000 0.012421 0.000000
Si Si2 0.870892 0.816066 0.296107
Si Si3 0.549133 0.461863 0.266313
Si Si4 0.337322 0.203519 0.508601
Si Si5 0.715206 0.539349 0.073384
Si Si6 0.862818 0.362369 0.702001
Si Si7 0.274340 0.093923 0.846527
O O1 0.102881 0.105388 0.020166
O O2 0.034837 0.887671 0.129240
O O3 0.792608 0.677842 0.184282
O O4 0.819214 0.025768 0.283727
O O5 0.897942 0.719589 0.431855
O O6 0.960399 0.871516 0.276799
O O7 0.639961 0.381128 0.391191
O O8 0.555404 0.696721 0.253254
O O9 0.232683 0.237734 0.388234
O O10 0.364117 0.017991 0.600903
O O11 0.718066 0.325019 0.132679
O O12 0.750486 0.526076 0.963036
O O13 0.852843 0.479675 0.816811
#
# Coordination Sequence:
#
# PCOD9129772 Si02
#       7
#     2   4   4   4   4   4   4
#     4  12  24  44  74 110 150 202 254 330 382 470
#     4  11  26  46  73 110 154 206 262 330 392 473
#     4  12  25  47  73 111 156 197 270 323 388 481
#     4  11  24  45  73 111 146 206 255 325 399 458
#     4  12  24  46  75 108 159 201 264 328 397 474
#     4  11  25  43  76 110 153 206 261 324 400 474
#     4  11  23  43  71 108 148 211 252 321 402 457
#
# _framework density 23.339098
#
# number of rings (size 3 to 8) (size 9 to 14) (size 15 to 20)
#    0.000    0.615    4.615    3.231    2.154    1.231 
#    0.000    8.462    0.000    0.000    0.000    0.000 
#    0.000    0.000    0.000    0.000    0.000    0.000 
#
# Total GULP energy -72425.403394 kJ/mol
# GULP energy per Si atom -5571.184876 kJ/mol
# Density = 2.328598 g / cm^3
# Si number density = 23.339098 Si / 1000 Ang^3
#
#
#
# Elastic Constant Matrix: (Units=GPa)
#
#
# Indices 1 2 3 4 5 6 
#
# 1 126.9231 70.8257 66.8683 0.0000 -17.0661 0.0000
# 2 70.8257 157.8010 60.6895 0.0000 -10.3261 0.0000
# 3 66.8683 60.6895 150.3171 0.0000 -32.3136 0.0000
# 4 0.0000 0.0000 0.0000 31.5049 0.0000 1.2706
# 5 -17.0661 -10.3261 -32.3136 0.0000 41.7121 0.0000
# 6 0.0000 0.0000 0.0000 1.2706 0.0000 32.5001
#
#
#
# Elastic Compliance Matrix: (Units=1/GPa)
#
#
# Indices 1 2 3 4 5 6 
#
# 1 0.012137 -0.004016 -0.003508 0.000000 0.001254 0.000000
# 2 -0.004016 0.008843 -0.001999 0.000000 -0.001003 0.000000
# 3 -0.003508 -0.001999 0.010325 0.000000 0.006068 0.000000
# 4 0.000000 0.000000 0.000000 0.031791 0.000000 -0.001243
# 5 0.001254 -0.001003 0.006068 0.000000 0.028939 0.000000
# 6 0.000000 0.000000 0.000000 -0.001243 0.000000 0.030818
#
#
# Mechanical properties :
#
#
# Convention : Reuss Voigt Hill
#
# Bulk Modulus (GPa) = 81.58168 92.42315 87.00241
# Shear Modulus (GPa) = 34.25004 36.92060 35.58532
#
# Velocity S-wave (km/s) = 3.83495 3.98165 3.90899
# Velocity P-wave (km/s) = 7.39188 7.79899 7.59816
#
# Compressibility (1/GPa) = 0.01225765
#
# Stress axis : x y z
#
# Youngs Moduli (GPa) = 82.39575 113.08480 96.85420
#
# Poissons Ratio (x) = 0.45416 0.33976
# Poissons Ratio (y) = 0.33091 0.19364
# Poissons Ratio (z) = 0.28904 0.22609
#
# Static dielectric constant tensor:
#      x y z
#    x 2.033600 0.000000 0.002300 
#    y 0.000000 1.919540 0.000000 
#    z 0.002300 0.000000 1.913460 
# 
# From -- ./inp_files/43983.got.cif
#   From: 2010.05.17/outbox.cif.g08.bks.cpg/sg5_22_cif.got.tgz:43983.got - 2010.06.03 18:56:24.
