data_PCOD9129929
_publ_section_title
;
Structure prediction by ZEFSAII (Michael W. Deem and Ramdas Pophale) SiO2 
 PCOD9129929
Probable space group: C 2
;
_chemical_formula_sum "Si O2"
_cell_formula_units_Z 26
_cell_length_a 9.659442
_cell_length_b 22.437972
_cell_length_c 12.957854
_cell_angle_alpha 90.000000
_cell_angle_beta 27.777343
_cell_angle_gamma 90.000000
_cell_volume 1308.847176
_symmetry_space_group_name_H-M "C 2"
_symmetry_group_IT_number 5
_symmetry_cell_setting 'monoclinic'
loop_
_space_group_symop_operation_xyz
x,y,z
-x,y,-z
1/2+x,1/2+y,z
1/2-x,1/2+y,-z
loop_
_atom_site_type_symbol
_atom_site_label
_atom_site_fract_x
_atom_site_fract_y
_atom_site_fract_z
Si Si1 0.794166 0.072870 0.347776
Si Si2 0.000000 0.816009 0.500000
Si Si3 0.891065 0.645832 0.955769
Si Si4 0.082154 0.963684 0.058360
Si Si5 0.175865 0.879055 0.180457
Si Si6 0.403177 0.753748 0.952412
Si Si7 0.694830 0.034067 0.646128
O O1 0.500000 0.103782 0.500000
O O2 0.752741 0.044969 0.487643
O O3 0.874420 0.020935 0.214072
O O4 0.067199 0.116654 0.171740
O O5 0.993783 0.859178 0.604170
O O6 0.707539 0.773911 0.694711
O O7 0.095500 0.597719 0.761365
O O8 0.829298 0.709373 0.945469
O O9 0.000000 0.652254 0.000000
O O10 0.034832 0.921294 0.187982
O O11 0.000000 0.938179 0.000000
O O12 0.421050 0.988263 0.838716
O O13 0.500000 0.904447 0.000000
O O14 0.247617 0.816492 0.078427
O O15 0.500000 0.727821 0.000000
O O16 0.000000 0.014402 0.500000
#
# Coordination Sequence:
#
# PCOD9129929 Si02
#       7
#     4   2   4   4   4   4   4
#     4  11  24  40  61  91 125 170 204 248 312 371
#     4   8  18  42  62  94 118 164 208 250 310 380
#     4  11  24  39  62  95 127 161 207 259 304 367
#     4  11  24  41  63  95 128 161 210 260 305 368
#     4   9  21  40  63  91 124 161 208 255 307 369
#     4   9  21  39  63  90 123 161 208 251 308 367
#     4  11  24  43  60  90 131 166 205 252 311 372
#
# _framework density 19.864811
#
# number of rings (size 3 to 8) (size 9 to 14) (size 15 to 20)
#    0.000    2.154    3.077    0.000    5.385    4.308 
#    1.385    0.000    0.000    0.000    0.000    0.000 
#    0.000    0.000    0.000    0.000    0.000    0.000 
#
# Total GULP energy -72560.768660 kJ/mol
# GULP energy per Si atom -5581.597589 kJ/mol
# Density = 1.981960 g / cm^3
# Si number density = 19.864811 Si / 1000 Ang^3
#
#
#
# Elastic Constant Matrix: (Units=GPa)
#
#
# Indices 1 2 3 4 5 6 
#
# 1 100.9009 21.7536 19.6165 0.0015 -9.9057 -0.0013
# 2 21.7536 45.2106 6.2745 0.0002 -5.1293 -0.0006
# 3 19.6165 6.2745 84.2693 0.0027 1.1068 -0.0045
# 4 0.0015 0.0002 0.0027 7.3213 -0.0017 0.9987
# 5 -9.9057 -5.1293 1.1068 -0.0017 28.4283 0.0024
# 6 -0.0013 -0.0006 -0.0045 0.9987 0.0024 38.7105
#
#
#
# Elastic Compliance Matrix: (Units=1/GPa)
#
#
# Indices 1 2 3 4 5 6 
#
# 1 0.011773 -0.004955 -0.002415 -0.000001 0.003302 0.000000
# 2 -0.004955 0.024923 -0.000739 0.000001 0.002799 0.000000
# 3 -0.002415 -0.000739 0.012503 -0.000005 -0.001462 0.000002
# 4 -0.000001 0.000001 -0.000005 0.137071 0.000009 -0.003536
# 5 0.003302 0.002799 -0.001462 0.000009 0.036889 -0.000003
# 6 0.000000 0.000000 0.000002 -0.003536 -0.000003 0.025924
#
#
# Mechanical properties :
#
#
# Convention : Reuss Voigt Hill
#
# Bulk Modulus (GPa) = 30.32041 36.18557 33.25299
# Shear Modulus (GPa) = 18.09670 27.07443 22.58557
#
# Velocity S-wave (km/s) = 3.02154 3.69580 3.37555
# Velocity P-wave (km/s) = 5.24113 6.03882 5.65406
#
# Compressibility (1/GPa) = 0.03298108
#
# Stress axis : x y z
#
# Youngs Moduli (GPa) = 84.94303 40.12378 79.98020
#
# Poissons Ratio (x) = 0.19880 0.19315
# Poissons Ratio (y) = 0.42087 0.05911
# Poissons Ratio (z) = 0.20513 0.02966
#
# Static dielectric constant tensor:
#      x y z
#    x 1.681840 0.000000 0.004350 
#    y 0.000000 1.695060 0.000000 
#    z 0.004350 0.000000 1.720940 
# 
# From -- ./inp_files/37521.got.cif
#   From: 2010.05.17/outbox.cif.g08.bks.cpg/sg5_19_cif.got.tgz:37521.got - 2010.06.03 18:56:24.
