data_PCOD9129978
_publ_section_title
;
Structure prediction by ZEFSAII (Michael W. Deem and Ramdas Pophale) SiO2 
 PCOD9129978
Probable space group: C 2
;
_chemical_formula_sum "Si O2"
_cell_formula_units_Z 22
_cell_length_a 13.154228
_cell_length_b 12.163205
_cell_length_c 14.901656
_cell_angle_alpha 90.000000
_cell_angle_beta 155.044588
_cell_angle_gamma 90.000000
_cell_volume 1005.936730
_symmetry_space_group_name_H-M "C 2"
_symmetry_group_IT_number 5
_symmetry_cell_setting 'monoclinic'
loop_
_space_group_symop_operation_xyz
x,y,z
-x,y,-z
1/2+x,1/2+y,z
1/2-x,1/2+y,-z
loop_
_atom_site_type_symbol
_atom_site_label
_atom_site_fract_x
_atom_site_fract_y
_atom_site_fract_z
Si Si1 0.855757 0.750000 0.227752
Si Si2 0.495263 0.191669 0.141616
Si Si3 0.000000 0.071848 0.000000
Si Si4 0.192501 0.396532 0.835010
Si Si5 0.014544 0.446829 0.882163
Si Si6 0.000000 0.878322 0.500000
Si Si7 0.500000 0.802903 0.500000
O O1 0.038028 0.805370 0.442047
O O2 0.968085 0.700564 0.227798
O O3 0.720712 0.657080 0.178277
O O4 0.672283 0.846900 0.048559
O O5 0.320254 0.282158 0.959497
O O6 0.766292 0.227566 0.332890
O O7 0.407464 0.072061 0.040168
O O8 0.092949 0.987146 0.998991
O O9 0.939884 0.379644 0.365751
O O10 0.023164 0.429032 0.781709
O O11 0.745871 0.443158 0.705556
#
# Coordination Sequence:
#
# PCOD9129978 Si02
#       7
#     4   4   2   4   4   2   2
#     4  11  25  44  68  96 125 174 217 262 317 378
#     4  11  24  44  66  95 133 168 213 264 320 382
#     4  12  20  50  66  90 128 174 214 266 316 372
#     4  11  25  44  68  96 125 174 217 262 317 378
#     4  11  24  44  66  95 133 168 213 264 320 382
#     4  12  23  43  64 100 128 167 217 260 324 378
#     4  12  23  43  64 100 128 167 217 260 324 378
#
# _framework density 21.870163000000002
#
# number of rings (size 3 to 8) (size 9 to 14) (size 15 to 20)
#    0.000    0.727    5.455    1.636    0.000    5.091 
#    0.000    0.000    0.000    0.000    0.000    0.000 
#    0.000    0.000    0.000    0.000    0.000    0.000 
#
# Total GULP energy -61402.090724 kJ/mol
# GULP energy per Si atom -5582.008248 kJ/mol
# Density = 2.182039 g / cm^3
# Si number density = 21.870163 Si / 1000 Ang^3
#
#
#
# Elastic Constant Matrix: (Units=GPa)
#
#
# Indices 1 2 3 4 5 6 
#
# 1 118.4129 18.2071 26.6639 -0.0016 -0.7404 -0.0023
# 2 18.2071 147.4427 17.3903 0.0084 1.7651 -0.0005
# 3 26.6639 17.3903 30.0594 0.0148 1.1540 0.0040
# 4 -0.0016 0.0084 0.0148 21.4129 0.0059 8.7719
# 5 -0.7404 1.7651 1.1540 0.0059 43.6393 0.0001
# 6 -0.0023 -0.0005 0.0040 8.7719 0.0001 29.5315
#
#
#
# Elastic Compliance Matrix: (Units=1/GPa)
#
#
# Indices 1 2 3 4 5 6 
#
# 1 0.010567 -0.000217 -0.009265 0.000007 0.000433 0.000000
# 2 -0.000217 0.007285 -0.004014 0.000000 -0.000192 0.000001
# 3 -0.009265 -0.004014 0.043852 -0.000030 -0.001154 0.000002
# 4 0.000007 0.000000 -0.000030 0.053171 -0.000006 -0.015794
# 5 0.000433 -0.000192 -0.001154 -0.000006 0.022961 0.000002
# 6 0.000000 0.000001 0.000002 -0.015794 0.000002 0.038553
#
#
# Mechanical properties :
#
#
# Convention : Reuss Voigt Hill
#
# Bulk Modulus (GPa) = 28.80848 46.71529 37.76189
# Shear Modulus (GPa) = 23.26093 34.49364 28.87729
#
# Velocity S-wave (km/s) = 3.26481 3.97571 3.63767
# Velocity P-wave (km/s) = 5.23575 6.51780 5.91163
#
# Compressibility (1/GPa) = 0.03471200
#
# Stress axis : x y z
#
# Youngs Moduli (GPa) = 94.63133 137.26991 22.80382
#
# Poissons Ratio (x) = 0.02984 0.21127
# Poissons Ratio (y) = 0.02057 0.09154
# Poissons Ratio (z) = 0.87671 0.55105
#
# Static dielectric constant tensor:
#      x y z
#    x 1.835210 0.000000 0.001850 
#    y 0.000000 1.796240 0.000000 
#    z 0.001850 0.000000 1.760340 
# 
# From -- ./inp_files/6658.got.cif
#   From: 2010.05.17/outbox.cif.g08.bks.cpg/sg5_4_cif.got.tgz:6658.got - 2010.06.03 18:56:24.
