data_PCOD9129985
_publ_section_title
;
Structure prediction by ZEFSAII (Michael W. Deem and Ramdas Pophale) SiO2 
 PCOD9129985
Probable space group: C 2
;
_chemical_formula_sum "Si O2"
_cell_formula_units_Z 20
_cell_length_a 5.313712
_cell_length_b 32.933949
_cell_length_c 5.153005
_cell_angle_alpha 90.000000
_cell_angle_beta 92.817746
_cell_angle_gamma 90.000000
_cell_volume 900.693414
_symmetry_space_group_name_H-M "C 2"
_symmetry_group_IT_number 5
_symmetry_cell_setting 'monoclinic'
loop_
_space_group_symop_operation_xyz
x,y,z
-x,y,-z
1/2+x,1/2+y,z
1/2-x,1/2+y,-z
loop_
_atom_site_type_symbol
_atom_site_label
_atom_site_fract_x
_atom_site_fract_y
_atom_site_fract_z
Si Si1 0.000000 0.306770 0.000000
Si Si2 0.745646 0.243918 0.669552
Si Si3 0.500000 0.028641 0.000000
Si Si4 0.167171 0.153816 0.257466
Si Si5 0.000000 0.917926 0.500000
Si Si6 0.500000 0.082490 0.500000
Si Si7 0.000000 0.363138 0.500000
Si Si8 0.500000 0.475191 0.000000
O O1 0.215187 0.275234 0.096105
O O2 0.960170 0.335109 0.245889
O O3 0.500000 0.255732 0.500000
O O4 0.703613 0.197712 0.768169
O O5 0.000000 0.245763 0.500000
O O6 0.578542 0.054184 0.262057
O O7 0.747980 0.002091 0.953680
O O8 0.322776 0.114299 0.339231
O O9 0.000000 0.160346 0.500000
O O10 0.000000 0.145607 0.000000
O O11 0.250587 0.890462 0.511457
O O12 0.017705 0.946555 0.751084
#
# Coordination Sequence:
#
# PCOD9129985 Si02
#       8
#     2   4   2   4   2   2   2   2
#     4  12  26  49  69 114 152 190 246 314 351 423
#     4  11  25  46  70 101 144 204 256 301 353 418
#     4  12  28  45  78 112 147 184 235 302 374 415
#     4  11  24  44  68  98 143 203 255 300 352 417
#     4  12  26  52  79 108 143 186 233 286 365 470
#     4  12  26  45  69 110 150 190 244 314 349 423
#     4  12  28  45  78 112 147 184 235 302 374 415
#     4  12  26  52  79 108 143 186 233 286 365 470
#
# _framework density 22.205112
#
# number of rings (size 3 to 8) (size 9 to 14) (size 15 to 20)
#    0.000    0.400    3.000    4.800    5.600    2.400 
#    0.000    0.000    0.000    0.000    0.000    0.000 
#    0.000    0.000    0.000    0.000    0.000    0.000 
#
# Total GULP energy -55932.736672 kJ/mol
# GULP energy per Si atom -5593.273667 kJ/mol
# Density = 2.215457 g / cm^3
# Si number density = 22.205112 Si / 1000 Ang^3
#
#
#
# Elastic Constant Matrix: (Units=GPa)
#
#
# Indices 1 2 3 4 5 6 
#
# 1 134.6007 64.5788 51.4419 0.0000 22.7525 0.0000
# 2 64.5788 164.2853 86.5329 0.0000 3.8726 0.0000
# 3 51.4419 86.5329 212.8516 0.0000 22.8614 0.0000
# 4 0.0000 0.0000 0.0000 69.8650 0.0000 -12.5223
# 5 22.7525 3.8726 22.8614 0.0000 46.8622 0.0000
# 6 0.0000 0.0000 0.0000 -12.5223 0.0000 23.6386
#
#
#
# Elastic Compliance Matrix: (Units=1/GPa)
#
#
# Indices 1 2 3 4 5 6 
#
# 1 0.010083 -0.003593 -0.000509 0.000000 -0.004350 0.000000
# 2 -0.003593 0.009066 -0.003086 0.000000 0.002501 0.000000
# 3 -0.000509 -0.003086 0.006355 0.000000 -0.002598 0.000000
# 4 0.000000 0.000000 0.000000 0.015815 0.000000 0.008378
# 5 -0.004350 0.002501 -0.002598 0.000000 0.024512 0.000000
# 6 0.000000 0.000000 0.000000 0.008378 0.000000 0.046742
#
#
# Mechanical properties :
#
#
# Convention : Reuss Voigt Hill
#
# Bulk Modulus (GPa) = 89.86303 101.87163 95.86733
# Shear Modulus (GPa) = 38.26813 48.68543 43.47678
#
# Velocity S-wave (km/s) = 4.15588 4.68753 4.42969
# Velocity P-wave (km/s) = 7.97407 8.67608 8.33247
#
# Compressibility (1/GPa) = 0.01112805
#
# Stress axis : x y z
#
# Youngs Moduli (GPa) = 99.17613 110.30533 157.36455
#
# Poissons Ratio (x) = 0.39632 0.08009
# Poissons Ratio (y) = 0.35633 0.48560
# Poissons Ratio (z) = 0.05048 0.34039
#
# Static dielectric constant tensor:
#      x y z
#    x 1.820110 0.000000 -0.042830 
#    y 0.000000 1.858640 0.000000 
#    z -0.042830 0.000000 1.769790 
# 
# From -- ./inp_files/1320.got.cif
#   From: 2010.05.17/outbox.cif.g08.bks.cpg/sg5_1_cif.got.tgz:1320.got - 2010.06.03 18:56:24.
