data_PCOD9129329
_publ_section_title
;
Structure prediction by ZEFSAII (Michael W. Deem and Ramdas Pophale) SiO2 
 PCOD9129329
Probable space group: C 2
;
_chemical_formula_sum "Si O2"
_cell_formula_units_Z 22
_cell_length_a 4.911092
_cell_length_b 15.939047
_cell_length_c 11.743626
_cell_angle_alpha 90.000000
_cell_angle_beta 76.519175
_cell_angle_gamma 90.000000
_cell_volume 893.941331
_symmetry_space_group_name_H-M "C 2"
_symmetry_group_IT_number 5
_symmetry_cell_setting 'monoclinic'
loop_
_space_group_symop_operation_xyz
x,y,z
-x,y,-z
1/2+x,1/2+y,z
1/2-x,1/2+y,-z
loop_
_atom_site_type_symbol
_atom_site_label
_atom_site_fract_x
_atom_site_fract_y
_atom_site_fract_z
Si Si1 0.720409 0.159410 0.079797
Si Si2 0.698226 0.463636 0.873146
Si Si3 0.919576 0.714961 0.319092
Si Si4 0.808201 0.945869 0.720694
Si Si5 0.583225 0.621459 0.624780
Si Si6 0.500000 0.348087 0.500000
O O1 0.795531 0.066835 0.124235
O O2 0.600023 0.219917 0.187749
O O3 0.500000 0.144334 0.000000
O O4 0.000000 0.195723 0.000000
O O5 0.551581 0.416634 0.781861
O O6 0.025689 0.444745 0.821568
O O7 0.500000 0.442098 0.000000
O O8 0.100067 0.641546 0.369450
O O9 0.611393 0.693674 0.304985
O O10 0.881930 0.787367 0.414703
O O11 0.791381 0.903302 0.597901
O O12 0.935304 0.037426 0.681364
O O13 0.500000 0.626292 0.500000
#
# Coordination Sequence:
#
# PCOD9129329 Si02
#       6
#     4   4   4   4   4   2
#     4  11  21  39  70 102 132 169 227 287 339 396
#     4  11  23  42  72 106 135 174 231 297 343 406
#     4  12  25  44  67 102 141 179 229 286 345 415
#     4  12  24  43  69 105 139 179 230 289 342 418
#     4  12  21  42  67  99 137 179 234 287 343 404
#     4  12  30  46  68 102 148 190 228 284 356 416
#
# _framework density 24.610115
#
# number of rings (size 3 to 8) (size 9 to 14) (size 15 to 20)
#    0.000    0.364    6.364    3.818    0.000    3.636 
#    0.000    2.727    0.000    0.000    0.000    0.000 
#    0.000    0.000    0.000    0.000    0.000    0.000 
#
# Total GULP energy -61347.177366 kJ/mol
# GULP energy per Si atom -5577.016124 kJ/mol
# Density = 2.455410 g / cm^3
# Si number density = 24.610115 Si / 1000 Ang^3
#
#
#
# Elastic Constant Matrix: (Units=GPa)
#
#
# Indices 1 2 3 4 5 6 
#
# 1 115.5029 14.7479 39.1727 0.0000 -17.3976 0.0000
# 2 14.7479 55.7536 35.9966 0.0000 7.6531 0.0000
# 3 39.1727 35.9966 145.7491 0.0000 -0.2476 0.0000
# 4 0.0000 0.0000 0.0000 -50.6478 0.0000 -17.3293
# 5 -17.3976 7.6531 -0.2476 0.0000 30.4071 0.0000
# 6 0.0000 0.0000 0.0000 -17.3293 0.0000 0.8038
#
#
#
# Elastic Compliance Matrix: (Units=1/GPa)
#
#
# Indices 1 2 3 4 5 6 
#
# 1 0.010741 -0.002265 -0.002316 0.000000 0.006697 0.000000
# 2 -0.002265 0.022746 -0.005021 0.000000 -0.007062 0.000000
# 3 -0.002316 -0.005021 0.008724 0.000000 0.000010 0.000000
# 4 0.000000 0.000000 0.000000 -0.002357 0.000000 -0.050817
# 5 0.006697 -0.007062 0.000010 0.000000 0.038496 0.000000
# 6 0.000000 0.000000 0.000000 -0.050817 0.000000 0.148521
#
#
# Mechanical properties :
#
#
# Convention : Reuss Voigt Hill
#
# Bulk Modulus (GPa) = 43.46552 55.20444 49.33498
# Shear Modulus (GPa) = 19.70480 11.25185 15.47833
#
# Velocity S-wave (km/s) = 2.83270 2.14055 2.51059
# Velocity P-wave (km/s) = 5.32906 5.34692 5.33800
#
# Compressibility (1/GPa) = 0.02300674
#
# Stress axis : x y z
#
# Youngs Moduli (GPa) = 93.09913 43.96309 114.63047
#
# Poissons Ratio (x) = 0.09958 0.26549
# Poissons Ratio (y) = 0.21089 0.57556
# Poissons Ratio (z) = 0.21562 0.22074
#
# Static dielectric constant tensor:
#      x y z
#    x 1.935410 0.000000 0.016490 
#    y 0.000000 2.065960 0.000000 
#    z 0.016490 0.000000 2.044830 
# 
# From -- ./inp_files/33470.got.cif
#   From: 2010.05.17/outbox.cif.g08.bks.cpg/sg5_17_cif.got.tgz:33470.got - 2010.06.03 18:56:24.
