data_PCOD9129948
_publ_section_title
;
Structure prediction by ZEFSAII (Michael W. Deem and Ramdas Pophale) SiO2 
 PCOD9129948
Probable space group: C 2
;
_chemical_formula_sum "Si O2"
_cell_formula_units_Z 30
_cell_length_a 6.891973
_cell_length_b 8.760202
_cell_length_c 20.868987
_cell_angle_alpha 90.000000
_cell_angle_beta 75.109736
_cell_angle_gamma 90.000000
_cell_volume 1217.656684
_symmetry_space_group_name_H-M "C 2"
_symmetry_group_IT_number 5
_symmetry_cell_setting 'monoclinic'
loop_
_space_group_symop_operation_xyz
x,y,z
-x,y,-z
1/2+x,1/2+y,z
1/2-x,1/2+y,-z
loop_
_atom_site_type_symbol
_atom_site_label
_atom_site_fract_x
_atom_site_fract_y
_atom_site_fract_z
Si Si1 0.136424 0.868230 0.313830
Si Si2 0.647675 0.584128 0.435772
Si Si3 0.275205 0.527925 0.136697
Si Si4 0.000000 0.586960 0.500000
Si Si5 0.061721 0.357711 0.259413
Si Si6 0.024338 0.702967 0.922358
Si Si7 0.810067 0.379405 0.618976
Si Si8 0.847081 0.072422 0.810923
O O1 0.346101 0.781093 0.291089
O O2 0.912957 0.817419 0.348546
O O3 0.180850 0.979724 0.371145
O O4 0.127990 0.939670 0.242867
O O5 0.500000 0.508073 0.500000
O O6 0.553284 0.737141 0.414007
O O7 0.838109 0.643829 0.461357
O O8 0.182273 0.652260 0.095959
O O9 0.382739 0.373378 0.099117
O O10 0.444854 0.595940 0.168729
O O11 0.091415 0.469836 0.197391
O O12 0.152054 0.497592 0.439859
O O13 0.123265 0.442197 0.318445
O O14 0.203672 0.216978 0.230090
O O15 0.182832 0.579805 0.880676
O O16 0.000000 0.687645 0.000000
#
# Coordination Sequence:
#
# PCOD9129948 Si02
#       8
#     4   4   4   2   4   4   4   4
#     4  12  24  41  70 100 131 179 238 301 371 437
#     4  12  26  42  64  91 130 175 234 292 367 444
#     4  11  26  48  76 113 153 198 251 312 376 458
#     4  12  26  42  62  90 124 180 228 292 358 454
#     4  11  24  42  69 105 136 179 240 307 369 444
#     4  11  28  49  77 114 160 204 254 306 380 459
#     4  12  25  41  65  94 133 175 235 298 368 441
#     4  11  25  44  75 109 145 191 244 310 372 451
#
# _framework density 24.637485000000002
#
# number of rings (size 3 to 8) (size 9 to 14) (size 15 to 20)
#    0.000    0.533    7.333    0.000    3.733    4.267 
#    0.000    0.000    0.000    0.000    0.000    0.000 
#    0.000    0.000    0.000    0.000    0.000    0.000 
#
# Total GULP energy -83613.067136 kJ/mol
# GULP energy per Si atom -5574.204476 kJ/mol
# Density = 2.458141 g / cm^3
# Si number density = 24.637485 Si / 1000 Ang^3
#
#
#
# Elastic Constant Matrix: (Units=GPa)
#
#
# Indices 1 2 3 4 5 6 
#
# 1 104.7778 11.3978 60.3385 0.0000 3.9099 0.0000
# 2 11.3978 31.4850 45.0296 0.0000 3.8789 0.0000
# 3 60.3385 45.0296 210.3402 0.0000 -2.0347 0.0000
# 4 0.0000 0.0000 0.0000 39.7256 0.0000 1.0969
# 5 3.9099 3.8789 -2.0347 0.0000 40.8776 0.0000
# 6 0.0000 0.0000 0.0000 1.0969 0.0000 25.6201
#
#
#
# Elastic Compliance Matrix: (Units=1/GPa)
#
#
# Indices 1 2 3 4 5 6 
#
# 1 0.011522 0.001074 -0.003549 0.000000 -0.001381 0.000000
# 2 0.001074 0.046852 -0.010387 0.000000 -0.005066 0.000000
# 3 -0.003549 -0.010387 0.008013 0.000000 0.001724 0.000000
# 4 0.000000 0.000000 0.000000 0.025202 0.000000 -0.001079
# 5 -0.001381 -0.005066 0.001724 0.000000 0.025162 0.000000
# 6 0.000000 0.000000 0.000000 -0.001079 0.000000 0.039078
#
#
# Mechanical properties :
#
#
# Convention : Reuss Voigt Hill
#
# Bulk Modulus (GPa) = 24.59212 64.45942 44.52577
# Shear Modulus (GPa) = 25.62699 36.56714 31.09706
#
# Velocity S-wave (km/s) = 3.22865 3.85672 3.55658
# Velocity P-wave (km/s) = 4.88899 6.78619 5.91416
#
# Compressibility (1/GPa) = 0.04066343
#
# Stress axis : x y z
#
# Youngs Moduli (GPa) = 86.78886 21.34382 124.80466
#
# Poissons Ratio (x) = -0.02293 0.44288
# Poissons Ratio (y) = -0.09322 1.29637
# Poissons Ratio (z) = 0.30798 0.22170
#
# Static dielectric constant tensor:
#      x y z
#    x 2.062430 0.000000 0.017000 
#    y 0.000000 1.976520 0.000000 
#    z 0.017000 0.000000 1.931940 
# 
# From -- ./inp_files/64029.got.cif
#   From: 2010.05.17/outbox.cif.g08.bks.cpg/sg5_33_cif.got.tgz:64029.got - 2010.06.03 18:56:24.
