data_PCOD9129884
_publ_section_title
;
Structure prediction by ZEFSAII (Michael W. Deem and Ramdas Pophale) SiO2 
 PCOD9129884
Probable space group: C 2
;
_chemical_formula_sum "Si O2"
_cell_formula_units_Z 26
_cell_length_a 10.435425
_cell_length_b 9.083111
_cell_length_c 14.214023
_cell_angle_alpha 90.000000
_cell_angle_beta 124.430425
_cell_angle_gamma 90.000000
_cell_volume 1111.264578
_symmetry_space_group_name_H-M "C 2"
_symmetry_group_IT_number 5
_symmetry_cell_setting 'monoclinic'
loop_
_space_group_symop_operation_xyz
x,y,z
-x,y,-z
1/2+x,1/2+y,z
1/2-x,1/2+y,-z
loop_
_atom_site_type_symbol
_atom_site_label
_atom_site_fract_x
_atom_site_fract_y
_atom_site_fract_z
Si Si1 0.000000 0.360981 0.000000
Si Si2 0.034417 0.499593 0.693418
Si Si3 0.268938 0.333603 0.675710
Si Si4 0.304420 0.991920 0.751669
Si Si5 0.512289 0.328619 0.395321
Si Si6 0.952050 0.909840 0.085750
Si Si7 0.730722 0.133560 0.945072
O O1 0.072819 0.455815 0.114972
O O2 0.135763 0.248875 0.026599
O O3 0.107238 0.393280 0.646457
O O4 0.003441 0.655048 0.630818
O O5 0.157884 0.544271 0.827369
O O6 0.888758 0.434895 0.690772
O O7 0.280338 0.163980 0.715445
O O8 0.326634 0.360719 0.593020
O O9 0.402009 0.423304 0.786841
O O10 0.141175 0.912590 0.707632
O O11 0.500000 0.361846 0.500000
O O12 0.897543 0.741908 0.066912
O O13 0.000000 0.945450 0.000000
O O14 0.810943 0.019678 0.049073
#
# Coordination Sequence:
#
# PCOD9129884 Si02
#       7
#     2   4   4   4   4   4   4
#     4  12  22  40  70 100 146 184 220 270 344 416
#     4  11  23  47  67 102 135 179 231 279 344 401
#     4  11  25  44  67 103 139 177 230 283 342 408
#     4  11  25  44  69 105 139 181 233 274 345 413
#     4  11  26  50  73  97 136 181 234 291 340 401
#     4  12  24  39  62  96 144 180 219 269 334 412
#     4  12  23  42  63  99 143 184 220 268 339 408
#
# _framework density 23.396768000000002
#
# number of rings (size 3 to 8) (size 9 to 14) (size 15 to 20)
#    0.000    0.615    6.923    0.923    1.077    4.923 
#    0.000    0.769    0.000    0.000    0.000    0.000 
#    0.000    0.000    0.000    0.000    0.000    0.000 
#
# Total GULP energy -72664.455896 kJ/mol
# GULP energy per Si atom -5589.573530 kJ/mol
# Density = 2.334352 g / cm^3
# Si number density = 23.396768 Si / 1000 Ang^3
#
#
#
# Elastic Constant Matrix: (Units=GPa)
#
#
# Indices 1 2 3 4 5 6 
#
# 1 141.9579 42.8830 0.6404 0.0000 -28.0687 0.0000
# 2 42.8830 70.0470 2.0537 0.0000 -15.8130 0.0000
# 3 0.6404 2.0537 68.2843 0.0000 -22.5214 0.0000
# 4 0.0000 0.0000 0.0000 10.0047 0.0000 -19.2746
# 5 -28.0687 -15.8130 -22.5214 0.0000 29.9684 0.0000
# 6 0.0000 0.0000 0.0000 -19.2746 0.0000 26.9728
#
#
#
# Elastic Compliance Matrix: (Units=1/GPa)
#
#
# Indices 1 2 3 4 5 6 
#
# 1 0.010228 -0.004131 0.003283 0.000000 0.009868 0.000000
# 2 -0.004131 0.018384 0.001874 0.000000 0.007240 0.000000
# 3 0.003283 0.001874 0.021137 0.000000 0.019948 0.000000
# 4 0.000000 0.000000 0.000000 -0.265329 0.000000 -0.189603
# 5 0.009868 0.007240 0.019948 0.000000 0.061422 0.000000
# 6 0.000000 0.000000 0.000000 -0.189603 0.000000 -0.098415
#
#
# Mechanical properties :
#
#
# Convention : Reuss Voigt Hill
#
# Bulk Modulus (GPa) = 19.30454 41.27149 30.28802
# Shear Modulus (GPa) = -21.06525 29.03663 3.98569
#
# Velocity S-wave (km/s) = -3.00384 3.52668 1.30661
# Velocity P-wave (km/s) = 1.93955 5.85333 3.90510
#
# Compressibility (1/GPa) = 0.05180128
#
# Stress axis : x y z
#
# Youngs Moduli (GPa) = 97.76755 54.39409 47.31130
#
# Poissons Ratio (x) = 0.22468 -0.15531
# Poissons Ratio (y) = 0.40383 -0.08865
# Poissons Ratio (z) = -0.32095 -0.10192
#
# Static dielectric constant tensor:
#      x y z
#    x 1.949280 0.000000 0.002360 
#    y 0.000000 1.846000 0.000000 
#    z 0.002360 0.000000 1.904790 
# 
# From -- ./inp_files/52351.got.cif
#   From: 2010.05.17/outbox.cif.g08.bks.cpg/sg5_27_cif.got.tgz:52351.got - 2010.06.03 18:56:24.
