data_PCOD9129809
_publ_section_title
;
Structure prediction by ZEFSAII (Michael W. Deem and Ramdas Pophale) SiO2 
 PCOD9129809
Probable space group: C 2
;
_chemical_formula_sum "Si O2"
_cell_formula_units_Z 28
_cell_length_a 20.634740
_cell_length_b 9.346053
_cell_length_c 7.901891
_cell_angle_alpha 90.000000
_cell_angle_beta 52.372807
_cell_angle_gamma 90.000000
_cell_volume 1206.933781
_symmetry_space_group_name_H-M "C 2"
_symmetry_group_IT_number 5
_symmetry_cell_setting 'monoclinic'
loop_
_space_group_symop_operation_xyz
x,y,z
-x,y,-z
1/2+x,1/2+y,z
1/2-x,1/2+y,-z
loop_
_atom_site_type_symbol
_atom_site_label
_atom_site_fract_x
_atom_site_fract_y
_atom_site_fract_z
Si Si1 0.095873 0.406670 0.143684
Si Si2 0.706505 0.747880 0.716727
Si Si3 0.748140 0.688871 0.191016
Si Si4 0.500000 0.059460 0.000000
Si Si5 0.891337 0.079265 0.361033
Si Si6 0.500000 0.668189 0.500000
Si Si7 0.790536 0.518077 0.806632
Si Si8 0.632600 0.284634 0.750362
O O1 0.059471 0.271000 0.298646
O O2 0.119013 0.521384 0.253792
O O3 0.177225 0.354198 0.911278
O O4 0.037165 0.467223 0.093096
O O5 0.622314 0.707793 0.752329
O O6 0.752688 0.605382 0.712246
O O7 0.779784 0.804386 0.483123
O O8 0.697271 0.599622 0.408922
O O9 0.839155 0.726530 0.111343
O O10 0.716176 0.849869 0.216570
O O11 0.741216 0.594468 0.035834
O O12 0.568567 0.162011 0.803889
O O13 0.951950 0.087664 0.425113
O O14 0.906151 0.938338 0.226413
#
# Coordination Sequence:
#
# PCOD9129809 Si02
#       8
#     4   4   4   2   4   2   4   4
#     4  12  26  45  72 106 146 191 243 301 370 439
#     4  11  25  42  75 102 136 194 242 304 353 442
#     4  11  23  44  72 106 136 189 246 304 353 438
#     4  12  28  48  70 108 154 192 238 308 380 426
#     4  11  24  45  68  98 145 186 244 292 373 430
#     4  12  26  46  68 102 146 190 238 306 374 436
#     4  12  21  42  71 105 139 179 250 297 358 421
#     4  11  26  45  70 103 142 192 245 301 363 435
#
# _framework density 23.199286000000001
#
# number of rings (size 3 to 8) (size 9 to 14) (size 15 to 20)
#    0.000    0.571    5.714    1.714    4.000    1.143 
#    5.143    0.000    0.000    0.000    0.000    0.000 
#    0.000    0.000    0.000    0.000    0.000    0.000 
#
# Total GULP energy -77948.075455 kJ/mol
# GULP energy per Si atom -5567.719675 kJ/mol
# Density = 2.314648 g / cm^3
# Si number density = 23.199286 Si / 1000 Ang^3
#
#
#
# Elastic Constant Matrix: (Units=GPa)
#
#
# Indices 1 2 3 4 5 6 
#
# 1 157.4941 44.0705 8.4504 0.0000 5.4000 0.0000
# 2 44.0705 77.8101 15.9064 0.0000 3.6143 0.0000
# 3 8.4504 15.9064 51.3290 0.0000 5.1274 0.0000
# 4 0.0000 0.0000 0.0000 26.7195 0.0000 3.6212
# 5 5.4000 3.6143 5.1274 0.0000 28.9443 0.0000
# 6 0.0000 0.0000 0.0000 3.6212 0.0000 41.6616
#
#
#
# Elastic Compliance Matrix: (Units=1/GPa)
#
#
# Indices 1 2 3 4 5 6 
#
# 1 0.007569 -0.004280 0.000171 0.000000 -0.000908 0.000000
# 2 -0.004280 0.016168 -0.004259 0.000000 -0.000466 0.000000
# 3 0.000171 -0.004259 0.021097 0.000000 -0.003237 0.000000
# 4 0.000000 0.000000 0.000000 0.037872 0.000000 -0.003292
# 5 -0.000908 -0.000466 -0.003237 0.000000 0.035350 0.000000
# 6 0.000000 0.000000 0.000000 -0.003292 0.000000 0.024289
#
#
# Mechanical properties :
#
#
# Convention : Reuss Voigt Hill
#
# Bulk Modulus (GPa) = 35.58942 47.05419 41.32180
# Shear Modulus (GPa) = 29.68279 34.01215 31.84747
#
# Velocity S-wave (km/s) = 3.58085 3.83310 3.70912
# Velocity P-wave (km/s) = 5.69830 6.31798 6.01613
#
# Compressibility (1/GPa) = 0.02809824
#
# Stress axis : x y z
#
# Youngs Moduli (GPa) = 132.11840 61.85018 47.39934
#
# Poissons Ratio (x) = 0.26470 -0.00810
# Poissons Ratio (y) = 0.56543 0.20188
# Poissons Ratio (z) = -0.02257 0.26343
#
# Static dielectric constant tensor:
#      x y z
#    x 2.014980 0.000000 -0.005740 
#    y 0.000000 1.903540 0.000000 
#    z -0.005740 0.000000 1.899010 
# 
# From -- ./inp_files/29122.got.cif
#   From: 2010.05.17/outbox.cif.g08.bks.cpg/sg5_15_cif.got.tgz:29122.got - 2010.06.03 18:56:24.
