data_PCOD9129115
_publ_section_title
;
Structure prediction by ZEFSAII (Michael W. Deem and Ramdas Pophale) SiO2 
 PCOD9129115
Probable space group: C 2
;
_chemical_formula_sum "Si O2"
_cell_formula_units_Z 22
_cell_length_a 19.597396
_cell_length_b 5.076892
_cell_length_c 9.532222
_cell_angle_alpha 90.000000
_cell_angle_beta 115.982193
_cell_angle_gamma 90.000000
_cell_volume 852.543277
_symmetry_space_group_name_H-M "C 2"
_symmetry_group_IT_number 5
_symmetry_cell_setting 'monoclinic'
loop_
_space_group_symop_operation_xyz
x,y,z
-x,y,-z
1/2+x,1/2+y,z
1/2-x,1/2+y,-z
loop_
_atom_site_type_symbol
_atom_site_label
_atom_site_fract_x
_atom_site_fract_y
_atom_site_fract_z
Si Si1 0.578770 0.606360 0.310264
Si Si2 0.255826 0.679469 0.585970
Si Si3 0.000000 0.443530 0.000000
Si Si4 0.793307 0.074970 0.089914
Si Si5 0.440514 0.241985 0.187145
Si Si6 0.131682 0.417902 0.630104
O O1 0.661139 0.553509 0.316337
O O2 0.536505 0.773034 0.154517
O O3 0.523920 0.360546 0.290660
O O4 0.590578 0.769115 0.465551
O O5 0.228872 0.479238 0.439249
O O6 0.185434 0.653266 0.625856
O O7 0.940980 0.619473 0.032915
O O8 0.807805 0.213725 0.250808
O O9 0.876429 0.966613 0.126287
O O10 0.761380 0.320926 0.969873
O O11 0.418987 0.035910 0.290400
#
# Coordination Sequence:
#
# PCOD9129115 Si02
#       6
#     4   4   2   4   4   4
#     4  11  29  55  82 125 172 227 292 357 437 515
#     4  10  26  52  80 121 166 219 277 355 432 510
#     4  12  30  54  78 118 180 232 276 366 438 508
#     4  12  28  53  82 128 170 216 287 360 431 515
#     4  12  29  54  84 130 169 234 287 366 434 513
#     4  11  28  54  91 124 168 228 293 361 427 525
#
# _framework density 25.805140000000002
#
# number of rings (size 3 to 8) (size 9 to 14) (size 15 to 20)
#    0.000    0.727    1.818    1.636   10.182   10.182 
#    3.273    0.000    0.000    0.000    0.000    0.000 
#    0.000    0.000    0.000    0.000    0.000    0.000 
#
# Total GULP energy -61594.781145 kJ/mol
# GULP energy per Si atom -5599.525559 kJ/mol
# Density = 2.574641 g / cm^3
# Si number density = 25.805140 Si / 1000 Ang^3
#
#
#
# Elastic Constant Matrix: (Units=GPa)
#
#
# Indices 1 2 3 4 5 6 
#
# 1 107.8540 13.7887 16.3878 0.0000 -3.8051 0.0000
# 2 13.7887 117.9494 46.6227 0.0000 -2.9234 0.0000
# 3 16.3878 46.6227 145.4329 0.0000 -1.9153 0.0000
# 4 0.0000 0.0000 0.0000 13.2571 0.0000 3.7928
# 5 -3.8051 -2.9234 -1.9153 0.0000 51.0017 0.0000
# 6 0.0000 0.0000 0.0000 3.7928 0.0000 57.0073
#
#
#
# Elastic Compliance Matrix: (Units=1/GPa)
#
#
# Indices 1 2 3 4 5 6 
#
# 1 0.009517 -0.000774 -0.000816 0.000000 0.000635 0.000000
# 2 -0.000774 0.009781 -0.003043 0.000000 0.000389 0.000000
# 3 -0.000816 -0.003043 0.007944 0.000000 0.000063 0.000000
# 4 0.000000 0.000000 0.000000 0.076895 0.000000 -0.005116
# 5 0.000635 0.000389 0.000063 0.000000 0.019679 0.000000
# 6 0.000000 0.000000 0.000000 -0.005116 0.000000 0.017882
#
#
# Mechanical properties :
#
#
# Convention : Reuss Voigt Hill
#
# Bulk Modulus (GPa) = 55.63008 58.31497 56.97252
# Shear Modulus (GPa) = 31.85570 43.88234 37.86902
#
# Velocity S-wave (km/s) = 3.51732 4.12822 3.83495
# Velocity P-wave (km/s) = 6.17251 6.73574 6.46027
#
# Compressibility (1/GPa) = 0.01797589
#
# Stress axis : x y z
#
# Youngs Moduli (GPa) = 105.07336 102.23563 125.87475
#
# Poissons Ratio (x) = 0.07917 0.10269
# Poissons Ratio (y) = 0.08137 0.38308
# Poissons Ratio (z) = 0.08572 0.31113
#
# Static dielectric constant tensor:
#      x y z
#    x 2.108260 0.000000 0.009160 
#    y 0.000000 2.116740 0.000000 
#    z 0.009160 0.000000 2.048860 
# 
# From -- ./inp_files/28387.got.cif
#   From: 2010.05.17/outbox.cif.g08.bks.cpg/sg5_15_cif.got.tgz:28387.got - 2010.06.03 18:56:24.
