data_PCOD9129848
_publ_section_title
;
Structure prediction by ZEFSAII (Michael W. Deem and Ramdas Pophale) SiO2 
 PCOD9129848
Probable space group: C 2
;
_chemical_formula_sum "Si O2"
_cell_formula_units_Z 32
_cell_length_a 15.475262
_cell_length_b 11.480335
_cell_length_c 8.804052
_cell_angle_alpha 90.000000
_cell_angle_beta 68.019843
_cell_angle_gamma 90.000000
_cell_volume 1450.446683
_symmetry_space_group_name_H-M "C 2"
_symmetry_group_IT_number 5
_symmetry_cell_setting 'monoclinic'
loop_
_space_group_symop_operation_xyz
x,y,z
-x,y,-z
1/2+x,1/2+y,z
1/2-x,1/2+y,-z
loop_
_atom_site_type_symbol
_atom_site_label
_atom_site_fract_x
_atom_site_fract_y
_atom_site_fract_z
Si Si1 0.040021 0.398050 0.302258
Si Si2 0.560641 0.109180 0.094277
Si Si3 0.777215 0.627424 0.214059
Si Si4 0.763330 0.898608 0.188098
Si Si5 0.967865 0.148529 0.344640
Si Si6 0.879240 0.991819 0.824174
Si Si7 0.601975 0.259323 0.357446
Si Si8 0.745766 0.603654 0.567928
O O1 0.010894 0.503761 0.213026
O O2 0.152370 0.397822 0.228081
O O3 0.000000 0.415971 0.500000
O O4 0.004831 0.273927 0.268838
O O5 0.592646 0.197787 0.200726
O O6 0.500000 0.163899 0.000000
O O7 0.651235 0.066585 0.946042
O O8 0.791709 0.766465 0.208962
O O9 0.677833 0.600463 0.205748
O O10 0.786525 0.577963 0.375685
O O11 0.769762 0.989288 0.321669
O O12 0.827260 0.944325 0.007506
O O13 0.857120 0.152577 0.398749
O O14 0.000000 0.135464 0.500000
O O15 0.016574 0.041454 0.224362
O O16 0.876944 0.892875 0.695819
O O17 0.500000 0.249200 0.500000
O O18 0.683142 0.192538 0.395582
#
# Coordination Sequence:
#
# PCOD9129848 Si02
#       8
#     4   4   4   4   4   4   4   4
#     4  11  23  45  74 103 148 194 254 319 381 454
#     4  12  26  45  70 106 147 198 250 316 385 458
#     4  12  25  47  73 109 150 197 255 314 389 456
#     4  12  26  49  75 106 151 198 254 324 387 456
#     4  11  24  49  73 111 150 200 254 316 380 463
#     4  12  25  48  77 105 155 201 254 319 389 464
#     4  12  27  49  76 113 155 199 259 320 390 470
#     4  12  28  47  80 111 150 203 261 314 394 460
#
# _framework density 22.062169000000001
#
# number of rings (size 3 to 8) (size 9 to 14) (size 15 to 20)
#    0.000    0.250    6.250    2.250    3.500    2.500 
#    2.250    0.000    0.000    0.000    0.000    0.000 
#    0.000    0.000    0.000    0.000    0.000    0.000 
#
# Total GULP energy -89492.894714 kJ/mol
# GULP energy per Si atom -5593.305920 kJ/mol
# Density = 2.201195 g / cm^3
# Si number density = 22.062169 Si / 1000 Ang^3
#
#
#
# Elastic Constant Matrix: (Units=GPa)
#
#
# Indices 1 2 3 4 5 6 
#
# 1 115.4157 21.8883 44.1998 0.0000 -9.1832 0.0000
# 2 21.8883 107.4489 39.6186 0.0000 0.6253 0.0000
# 3 44.1998 39.6186 129.5287 0.0000 -11.3897 0.0000
# 4 0.0000 0.0000 0.0000 24.1352 0.0000 -16.8145
# 5 -9.1832 0.6253 -11.3897 0.0000 33.8544 0.0000
# 6 0.0000 0.0000 0.0000 -16.8145 0.0000 8.3629
#
#
#
# Elastic Compliance Matrix: (Units=1/GPa)
#
#
# Indices 1 2 3 4 5 6 
#
# 1 0.010140 -0.000966 -0.003010 0.000000 0.001756 0.000000
# 2 -0.000966 0.010639 -0.003055 0.000000 -0.001486 0.000000
# 3 -0.003010 -0.003055 0.009908 0.000000 0.002573 0.000000
# 4 0.000000 0.000000 0.000000 -0.103387 0.000000 -0.207873
# 5 0.001756 -0.001486 0.002573 0.000000 0.030908 0.000000
# 6 0.000000 0.000000 0.000000 -0.207873 0.000000 -0.298376
#
#
# Mechanical properties :
#
#
# Convention : Reuss Voigt Hill
#
# Bulk Modulus (GPa) = 60.15291 62.64518 61.39905
# Shear Modulus (GPa) = -15.59746 29.71626 7.05940
#
# Velocity S-wave (km/s) = -2.66179 3.67404 1.79073
# Velocity P-wave (km/s) = 4.22818 6.81576 5.67151
#
# Compressibility (1/GPa) = 0.01662430
#
# Stress axis : x y z
#
# Youngs Moduli (GPa) = 98.61892 93.99692 100.92574
#
# Poissons Ratio (x) = 0.09079 0.30382
# Poissons Ratio (y) = 0.09525 0.30834
# Poissons Ratio (z) = 0.29688 0.28717
#
# Static dielectric constant tensor:
#      x y z
#    x 1.900980 0.000000 -0.035480 
#    y 0.000000 1.800630 0.000000 
#    z -0.035480 0.000000 1.814830 
# 
# From -- ./inp_files/23845.got.cif
#   From: 2010.05.17/outbox.cif.g08.bks.cpg/sg5_12_cif.got.tgz:23845.got - 2010.06.03 18:56:24.
