data_PCOD9129671
_publ_section_title
;
Structure prediction by ZEFSAII (Michael W. Deem and Ramdas Pophale) SiO2 
 PCOD9129671
Probable space group: C 2
;
_chemical_formula_sum "Si O2"
_cell_formula_units_Z 22
_cell_length_a 22.405314
_cell_length_b 7.848299
_cell_length_c 6.138243
_cell_angle_alpha 90.000000
_cell_angle_beta 114.407937
_cell_angle_gamma 90.000000
_cell_volume 982.903545
_symmetry_space_group_name_H-M "C 2"
_symmetry_group_IT_number 5
_symmetry_cell_setting 'monoclinic'
loop_
_space_group_symop_operation_xyz
x,y,z
-x,y,-z
1/2+x,1/2+y,z
1/2-x,1/2+y,-z
loop_
_atom_site_type_symbol
_atom_site_label
_atom_site_fract_x
_atom_site_fract_y
_atom_site_fract_z
Si Si1 0.000000 0.412890 0.000000
Si Si2 0.584726 0.772595 0.495551
Si Si3 0.605400 0.078487 0.861815
Si Si4 0.816727 0.126334 0.690851
Si Si5 0.119819 0.960248 0.831535
Si Si6 0.742885 0.947657 0.213088
O O1 0.940287 0.524215 0.004528
O O2 0.025865 0.301339 0.239488
O O3 0.647513 0.740464 0.436764
O O4 0.581956 0.606220 0.642939
O O5 0.592657 0.941187 0.652710
O O6 0.591316 0.271466 0.771787
O O7 0.681636 0.059548 0.042389
O O8 0.782988 0.255476 0.806552
O O9 0.766201 0.008652 0.486526
O O10 0.869863 0.017241 0.903376
O O11 0.193333 0.955166 0.841307
#
# Coordination Sequence:
#
# PCOD9129671 Si02
#       6
#     2   4   4   4   4   4
#     4  12  26  50  74  98 148 198 240 290 354 428
#     4  11  25  49  69 101 141 194 245 292 353 418
#     4  12  26  46  74 107 144 189 240 293 359 426
#     4  11  23  42  69 108 144 190 231 300 359 423
#     4  11  25  44  72 109 144 184 240 302 362 419
#     4  11  23  38  72 107 150 180 235 296 363 428
#
# _framework density 22.382666
#
# number of rings (size 3 to 8) (size 9 to 14) (size 15 to 20)
#    0.000    0.727    3.636    2.727    7.636    2.909 
#    0.000   13.636    0.000    0.000    0.000    0.000 
#    0.000    0.000    0.000    0.000    0.000    0.000 
#
# Total GULP energy -61582.344168 kJ/mol
# GULP energy per Si atom -5598.394924 kJ/mol
# Density = 2.233172 g / cm^3
# Si number density = 22.382666 Si / 1000 Ang^3
#
#
#
# Elastic Constant Matrix: (Units=GPa)
#
#
# Indices 1 2 3 4 5 6 
#
# 1 93.5690 28.3470 15.1054 0.0000 -8.3029 0.0000
# 2 28.3470 188.9103 76.7783 0.0000 0.0090 0.0000
# 3 15.1054 76.7783 131.8171 0.0000 11.2279 0.0000
# 4 0.0000 0.0000 0.0000 30.0650 0.0000 -5.8856
# 5 -8.3029 0.0090 11.2279 0.0000 33.4223 0.0000
# 6 0.0000 0.0000 0.0000 -5.8856 0.0000 12.6056
#
#
#
# Elastic Compliance Matrix: (Units=1/GPa)
#
#
# Indices 1 2 3 4 5 6 
#
# 1 0.011516 -0.001420 -0.000758 0.000000 0.003116 0.000000
# 2 -0.001420 0.007174 -0.004103 0.000000 0.001024 0.000000
# 3 -0.000758 -0.004103 0.010376 0.000000 -0.003673 0.000000
# 4 0.000000 0.000000 0.000000 0.036607 0.000000 0.017092
# 5 0.003116 0.001024 -0.003673 0.000000 0.031928 0.000000
# 6 0.000000 0.000000 0.000000 0.017092 0.000000 0.087310
#
#
# Mechanical properties :
#
#
# Convention : Reuss Voigt Hill
#
# Bulk Modulus (GPa) = 60.59141 72.75088 66.67115
# Shear Modulus (GPa) = 24.63357 34.82297 29.72827
#
# Velocity S-wave (km/s) = 3.32107 3.94864 3.64838
# Velocity P-wave (km/s) = 6.46804 7.30499 6.89922
#
# Compressibility (1/GPa) = 0.01650399
#
# Stress axis : x y z
#
# Youngs Moduli (GPa) = 86.83262 139.38818 96.37728
#
# Poissons Ratio (x) = 0.19796 0.07304
# Poissons Ratio (y) = 0.12332 0.39545
# Poissons Ratio (z) = 0.06581 0.57193
#
# Static dielectric constant tensor:
#      x y z
#    x 1.839780 0.000000 0.010660 
#    y 0.000000 1.817180 0.000000 
#    z 0.010660 0.000000 1.826520 
# 
# From -- ./inp_files/10100.got.cif
#   From: 2010.05.17/outbox.cif.g08.bks.cpg/sg5_6_cif.got.tgz:10100.got - 2010.06.03 18:56:24.
