data_PCOD9129765
_publ_section_title
;
Structure prediction by ZEFSAII (Michael W. Deem and Ramdas Pophale) SiO2 
 PCOD9129765
Probable space group: C 2
;
_chemical_formula_sum "Si O2"
_cell_formula_units_Z 16
_cell_length_a 9.260843
_cell_length_b 17.652514
_cell_length_c 8.118406
_cell_angle_alpha 90.000000
_cell_angle_beta 148.934603
_cell_angle_gamma 90.000000
_cell_volume 684.843137
_symmetry_space_group_name_H-M "C 2"
_symmetry_group_IT_number 5
_symmetry_cell_setting 'monoclinic'
loop_
_space_group_symop_operation_xyz
x,y,z
-x,y,-z
1/2+x,1/2+y,z
1/2-x,1/2+y,-z
loop_
_atom_site_type_symbol
_atom_site_label
_atom_site_fract_x
_atom_site_fract_y
_atom_site_fract_z
Si Si1 0.068919 0.102070 0.879375
Si Si2 0.255967 0.330995 0.368703
Si Si3 0.732358 0.447841 0.345781
Si Si4 0.588167 0.186993 0.271460
O O1 0.896795 0.153459 0.585943
O O2 0.945123 0.017353 0.750925
O O3 0.000000 0.125479 0.000000
O O4 0.387228 0.121523 0.149353
O O5 0.500000 0.368903 0.500000
O O6 0.160076 0.389605 0.413936
O O7 0.401839 0.259936 0.601232
O O8 0.000000 0.309695 0.000000
O O9 0.000000 0.474228 0.500000
O O10 0.500000 0.409609 0.000000
O O11 0.500000 0.204973 0.000000
#
# Coordination Sequence:
#
# PCOD9129765 Si02
#       4
#     4   4   4   4
#     4  11  23  43  68  96 134 180 225 274 337 405
#     4  12  26  44  69 101 140 182 228 283 342 409
#     4  11  24  45  71 101 139 181 226 280 345 412
#     4  12  25  42  66  98 137 179 227 279 334 402
#
# _framework density 23.363012999999999
#
# number of rings (size 3 to 8) (size 9 to 14) (size 15 to 20)
#    0.000    0.500    0.000   10.500    0.000    5.000 
#    0.000    0.000    0.000    0.000    0.000    0.000 
#    0.000    0.000    0.000    0.000    0.000    0.000 
#
# Total GULP energy -44760.323816 kJ/mol
# GULP energy per Si atom -5595.040477 kJ/mol
# Density = 2.330984 g / cm^3
# Si number density = 23.363013 Si / 1000 Ang^3
#
#
#
# Elastic Constant Matrix: (Units=GPa)
#
#
# Indices 1 2 3 4 5 6 
#
# 1 89.9024 34.3039 37.1541 0.0004 -11.8773 0.0004
# 2 34.3039 96.4161 17.0746 -0.0001 -10.9557 0.0001
# 3 37.1541 17.0746 115.5537 0.0013 -23.2848 0.0041
# 4 0.0004 -0.0001 0.0013 26.2229 0.0006 -5.0075
# 5 -11.8773 -10.9557 -23.2848 0.0006 59.4382 0.0004
# 6 0.0004 0.0001 0.0041 -5.0075 0.0004 -15.3265
#
#
#
# Elastic Compliance Matrix: (Units=1/GPa)
#
#
# Indices 1 2 3 4 5 6 
#
# 1 0.014486 -0.004401 -0.003895 0.000000 0.000558 -0.000001
# 2 -0.004401 0.012106 -0.000110 0.000000 0.001309 0.000000
# 3 -0.003895 -0.000110 0.010598 0.000000 0.003353 0.000003
# 4 0.000000 0.000000 0.000000 0.035895 0.000000 -0.011728
# 5 0.000558 0.001309 0.003353 0.000000 0.018491 0.000002
# 6 -0.000001 0.000000 0.000003 -0.011728 0.000002 -0.061415
#
#
# Mechanical properties :
#
#
# Convention : Reuss Voigt Hill
#
# Bulk Modulus (GPa) = 49.07220 53.21526 51.14373
# Shear Modulus (GPa) = 92.99764 28.28956 60.64360
#
# Velocity S-wave (km/s) = 6.31600 3.48353 5.10034
# Velocity P-wave (km/s) = 8.61621 6.24556 7.52483
#
# Compressibility (1/GPa) = 0.02037814
#
# Stress axis : x y z
#
# Youngs Moduli (GPa) = 69.03363 82.60604 94.35472
#
# Poissons Ratio (x) = 0.36353 0.36751
# Poissons Ratio (y) = 0.30380 0.01039
# Poissons Ratio (z) = 0.26888 0.00909
#
# Static dielectric constant tensor:
#      x y z
#    x 2.008450 0.000000 -0.069590 
#    y 0.000000 1.860960 0.000000 
#    z -0.069590 0.000000 1.854630 
# 
# From -- ./inp_files/2232.got.cif
#   From: 2010.05.17/outbox.cif.g08.bks.cpg/sg5_2_cif.got.tgz:2232.got - 2010.06.03 18:56:24.
