data_PCOD9129472
_publ_section_title
;
Structure prediction by ZEFSAII (Michael W. Deem and Ramdas Pophale) SiO2 
 PCOD9129472
Probable space group: C 2
;
_chemical_formula_sum "Si O2"
_cell_formula_units_Z 22
_cell_length_a 7.977083
_cell_length_b 16.408057
_cell_length_c 7.673056
_cell_angle_alpha 90.000000
_cell_angle_beta 82.577348
_cell_angle_gamma 90.000000
_cell_volume 995.898285
_symmetry_space_group_name_H-M "C 2"
_symmetry_group_IT_number 5
_symmetry_cell_setting 'monoclinic'
loop_
_space_group_symop_operation_xyz
x,y,z
-x,y,-z
1/2+x,1/2+y,z
1/2-x,1/2+y,-z
loop_
_atom_site_type_symbol
_atom_site_label
_atom_site_fract_x
_atom_site_fract_y
_atom_site_fract_z
Si Si1 0.066367 0.452770 0.293104
Si Si2 0.000000 0.326357 0.000000
Si Si3 0.834051 0.767548 0.836879
Si Si4 0.438162 0.128299 0.305195
Si Si5 0.917260 0.894876 0.325429
Si Si6 0.804159 0.241182 0.529658
O O1 0.273015 0.455366 0.271136
O O2 0.000000 0.439513 0.500000
O O3 0.982880 0.537658 0.244296
O O4 0.002937 0.383641 0.169985
O O5 0.173975 0.275837 0.983211
O O6 0.752734 0.745421 0.661998
O O7 0.966882 0.694108 0.826920
O O8 0.932629 0.854621 0.810056
O O9 0.500000 0.133848 0.500000
O O10 0.247926 0.160002 0.357792
O O11 0.801970 0.815433 0.377222
O O12 0.000000 0.921255 0.500000
O O13 0.000000 0.253012 0.500000
#
# Coordination Sequence:
#
# PCOD9129472 Si02
#       6
#     4   2   4   4   4   4
#     4  11  22  40  61  88 124 157 193 251 306 351
#     4  12  24  38  62  88 120 160 202 246 296 358
#     4   9  19  36  54  83 117 156 203 243 287 353
#     4   8  18  37  59  82 120 157 193 246 299 352
#     4   9  17  33  61  88 117 156 202 247 292 351
#     4   9  15  31  61  90 115 155 202 242 292 357
#
# _framework density 22.090606999999999
#
# number of rings (size 3 to 8) (size 9 to 14) (size 15 to 20)
#    0.000    2.545    0.000    6.000    0.000    0.727 
#    0.000   20.909    0.000    0.000    0.000    0.000 
#    0.000    0.000    0.000    0.000    0.000    0.000 
#
# Total GULP energy -61334.210336 kJ/mol
# GULP energy per Si atom -5575.837303 kJ/mol
# Density = 2.204033 g / cm^3
# Si number density = 22.090607 Si / 1000 Ang^3
#
#
#
# Elastic Constant Matrix: (Units=GPa)
#
#
# Indices 1 2 3 4 5 6 
#
# 1 100.9056 2.7157 23.2826 0.0000 -10.4498 0.0000
# 2 2.7157 72.7429 29.9087 0.0000 -9.0000 0.0000
# 3 23.2826 29.9087 72.6661 0.0000 -6.9903 0.0000
# 4 0.0000 0.0000 0.0000 11.9685 0.0000 -5.2016
# 5 -10.4498 -9.0000 -6.9903 0.0000 40.3584 0.0000
# 6 0.0000 0.0000 0.0000 -5.2016 0.0000 29.0562
#
#
#
# Elastic Compliance Matrix: (Units=1/GPa)
#
#
# Indices 1 2 3 4 5 6 
#
# 1 0.011033 0.001509 -0.003914 0.000000 0.002515 0.000000
# 2 0.001509 0.017016 -0.007205 0.000000 0.002937 0.000000
# 3 -0.003914 -0.007205 0.018029 0.000000 0.000503 0.000000
# 4 0.000000 0.000000 0.000000 0.090602 0.000000 0.016219
# 5 0.002515 0.002937 0.000503 0.000000 0.026171 0.000000
# 6 0.000000 0.000000 0.000000 0.016219 0.000000 0.037320
#
#
# Mechanical properties :
#
#
# Convention : Reuss Voigt Hill
#
# Bulk Modulus (GPa) = 37.23165 39.79208 38.51186
# Shear Modulus (GPa) = 21.89673 28.97047 25.43360
#
# Velocity S-wave (km/s) = 3.15179 3.62531 3.39681
# Velocity P-wave (km/s) = 5.48960 5.96456 5.73200
#
# Compressibility (1/GPa) = 0.02685887
#
# Stress axis : x y z
#
# Youngs Moduli (GPa) = 90.63517 58.76703 55.46516
#
# Poissons Ratio (x) = -0.08865 0.21709
# Poissons Ratio (y) = -0.13673 0.39960
# Poissons Ratio (z) = 0.35475 0.42339
#
# Static dielectric constant tensor:
#      x y z
#    x 1.839430 0.000000 0.014380 
#    y 0.000000 1.875370 0.000000 
#    z 0.014380 0.000000 1.852460 
# 
# From -- ./inp_files/15680.got.cif
#   From: 2010.05.17/outbox.cif.g08.bks.cpg/sg5_8_cif.got.tgz:15680.got - 2010.06.03 18:56:24.
