data_PCOD9129110
_publ_section_title
;
Structure prediction by ZEFSAII (Michael W. Deem and Ramdas Pophale) SiO2 
 PCOD9129110
Probable space group: C 2
;
_chemical_formula_sum "Si O2"
_cell_formula_units_Z 16
_cell_length_a 28.290645
_cell_length_b 4.867213
_cell_length_c 9.495708
_cell_angle_alpha 90.000000
_cell_angle_beta 151.684594
_cell_angle_gamma 90.000000
_cell_volume 620.192504
_symmetry_space_group_name_H-M "C 2"
_symmetry_group_IT_number 5
_symmetry_cell_setting 'monoclinic'
loop_
_space_group_symop_operation_xyz
x,y,z
-x,y,-z
1/2+x,1/2+y,z
1/2-x,1/2+y,-z
loop_
_atom_site_type_symbol
_atom_site_label
_atom_site_fract_x
_atom_site_fract_y
_atom_site_fract_z
Si Si1 0.592178 0.898300 0.822357
Si Si2 0.498312 0.578978 0.150846
Si Si3 0.182193 0.001721 0.824603
Si Si4 0.188657 0.733192 0.293664
O O1 0.500000 0.042521 0.500000
O O2 0.546608 0.767603 0.844563
O O3 0.630196 0.654519 0.820927
O O4 0.673230 0.099954 0.100756
O O5 0.605919 0.500857 0.493939
O O6 0.500000 0.704702 0.000000
O O7 0.418765 0.330880 0.933142
O O8 0.278325 0.194963 0.052164
O O9 0.241573 0.500766 0.525511
#
# Coordination Sequence:
#
# PCOD9129110 Si02
#       4
#     4   4   4   4
#     4  10  26  51  80 109 158 199 255 317 378 447
#     4  11  28  50  77 115 158 197 256 314 379 454
#     4  11  29  49  80 115 151 201 255 313 384 451
#     4  12  27  48  76 112 151 205 251 310 379 449
#
# _framework density 25.798439999999999
#
# number of rings (size 3 to 8) (size 9 to 14) (size 15 to 20)
#    0.000    1.000    2.500    0.000   14.000    4.000 
#    0.000    0.000    0.000    0.000    0.000    0.000 
#    0.000    0.000    0.000    0.000    0.000    0.000 
#
# Total GULP energy -44842.842107 kJ/mol
# GULP energy per Si atom -5605.355263 kJ/mol
# Density = 2.573972 g / cm^3
# Si number density = 25.798440 Si / 1000 Ang^3
#
#
#
# Elastic Constant Matrix: (Units=GPa)
#
#
# Indices 1 2 3 4 5 6 
#
# 1 126.3237 -9.5059 32.6518 0.0000 -34.5079 0.0000
# 2 -9.5059 97.8253 36.3752 0.0000 -12.4715 0.0000
# 3 32.6518 36.3752 198.5550 0.0000 -20.9055 0.0000
# 4 0.0000 0.0000 0.0000 40.4962 0.0000 0.6204
# 5 -34.5079 -12.4715 -20.9055 0.0000 38.5650 0.0000
# 6 0.0000 0.0000 0.0000 0.6204 0.0000 27.3183
#
#
#
# Elastic Compliance Matrix: (Units=1/GPa)
#
#
# Indices 1 2 3 4 5 6 
#
# 1 0.011295 0.002899 -0.001300 0.000000 0.010339 0.000000
# 2 0.002899 0.011966 -0.002109 0.000000 0.005321 0.000000
# 3 -0.001300 -0.002109 0.005772 0.000000 0.001284 0.000000
# 4 0.000000 0.000000 0.000000 0.024702 0.000000 -0.000561
# 5 0.010339 0.005321 0.001284 0.000000 0.037598 0.000000
# 6 0.000000 0.000000 0.000000 -0.000561 0.000000 0.036618
#
#
# Mechanical properties :
#
#
# Convention : Reuss Voigt Hill
#
# Bulk Modulus (GPa) = 35.69698 60.19400 47.94549
# Shear Modulus (GPa) = 36.15100 45.48810 40.81955
#
# Velocity S-wave (km/s) = 3.74744 4.20362 3.98206
# Velocity P-wave (km/s) = 5.70888 6.85154 6.30614
#
# Compressibility (1/GPa) = 0.02801357
#
# Stress axis : x y z
#
# Youngs Moduli (GPa) = 88.53693 83.56684 173.26132
#
# Poissons Ratio (x) = -0.24226 0.22522
# Poissons Ratio (y) = -0.25667 0.36537
# Poissons Ratio (z) = 0.11509 0.17622
#
# Static dielectric constant tensor:
#      x y z
#    x 2.086540 0.000000 0.047470 
#    y 0.000000 2.037010 0.000000 
#    z 0.047470 0.000000 2.020230 
# 
# From -- ./inp_files/22393.got.cif
#   From: 2010.05.17/outbox.cif.g08.bks.cpg/sg5_12_cif.got.tgz:22393.got - 2010.06.03 18:56:24.
