data_PCOD9129740
_publ_section_title
;
Structure prediction by ZEFSAII (Michael W. Deem and Ramdas Pophale) SiO2 
 PCOD9129740
Probable space group: C 2
;
_chemical_formula_sum "Si O2"
_cell_formula_units_Z 28
_cell_length_a 20.062509
_cell_length_b 14.495304
_cell_length_c 8.195997
_cell_angle_alpha 90.000000
_cell_angle_beta 147.568835
_cell_angle_gamma 90.000000
_cell_volume 1278.235282
_symmetry_space_group_name_H-M "C 2"
_symmetry_group_IT_number 5
_symmetry_cell_setting 'monoclinic'
loop_
_space_group_symop_operation_xyz
x,y,z
-x,y,-z
1/2+x,1/2+y,z
1/2-x,1/2+y,-z
loop_
_atom_site_type_symbol
_atom_site_label
_atom_site_fract_x
_atom_site_fract_y
_atom_site_fract_z
Si Si1 0.733835 0.211880 0.338190
Si Si2 0.851400 0.526260 0.674010
Si Si3 0.856358 0.440816 0.168888
Si Si4 0.863630 0.251816 0.293058
Si Si5 0.683559 0.118647 0.744513
Si Si6 0.759470 0.859121 0.387131
Si Si7 0.490872 0.287216 0.664017
O O1 0.681517 0.111810 0.275909
O O2 0.841674 0.209730 0.425816
O O3 0.771868 0.265417 0.581441
O O4 0.620062 0.269697 0.022475
O O5 0.819208 0.562009 0.427531
O O6 0.761525 0.441021 0.527964
O O7 0.000000 0.505063 0.000000
O O8 0.817011 0.357782 0.206535
O O9 0.800140 0.540652 0.083373
O O10 0.000000 0.458328 0.500000
O O11 0.831369 0.395240 0.943014
O O12 0.000000 0.254642 0.500000
O O13 0.785268 0.194419 0.000129
O O14 0.563642 0.184246 0.479736
O O15 0.892732 0.841548 0.575551
O O16 0.500000 0.328876 0.500000
#
# Coordination Sequence:
#
# PCOD9129740 Si02
#       7
#     4   4   4   4   4   4   4
#     4  12  23  47  74 106 148 189 249 308 366 436
#     4  12  24  42  72 109 145 192 250 308 360 430
#     4  11  23  42  69 101 141 191 253 287 354 441
#     4  11  25  46  69 102 147 196 243 298 377 445
#     4  12  22  45  72 108 139 193 251 301 357 433
#     4  12  25  43  67 117 145 183 241 321 371 415
#     4  12  23  44  78 105 144 197 246 311 358 441
#
# _framework density 21.905201999999999
#
# number of rings (size 3 to 8) (size 9 to 14) (size 15 to 20)
#    0.000    0.286    5.714    3.429    0.000    1.143 
#    0.000   15.000    0.000    0.000    0.000    0.000 
#    0.000    0.000    0.000    0.000    0.000    0.000 
#
# Total GULP energy -78178.361823 kJ/mol
# GULP energy per Si atom -5584.168702 kJ/mol
# Density = 2.185535 g / cm^3
# Si number density = 21.905202 Si / 1000 Ang^3
#
#
#
# Elastic Constant Matrix: (Units=GPa)
#
#
# Indices 1 2 3 4 5 6 
#
# 1 134.9430 37.0204 15.8801 0.0000 6.5827 0.0000
# 2 37.0204 118.6395 26.0323 0.0000 17.5810 0.0000
# 3 15.8801 26.0323 41.5821 0.0000 -1.2430 0.0000
# 4 0.0000 0.0000 0.0000 8.5403 0.0000 -10.6716
# 5 6.5827 17.5810 -1.2430 0.0000 26.9397 0.0000
# 6 0.0000 0.0000 0.0000 -10.6716 0.0000 35.2162
#
#
#
# Elastic Compliance Matrix: (Units=1/GPa)
#
#
# Indices 1 2 3 4 5 6 
#
# 1 0.008230 -0.002040 -0.001889 0.000000 -0.000767 0.000000
# 2 -0.002040 0.011640 -0.006729 0.000000 -0.007408 0.000000
# 3 -0.001889 -0.006729 0.029168 0.000000 0.006199 0.000000
# 4 0.000000 0.000000 0.000000 0.188450 0.000000 0.057106
# 5 -0.000767 -0.007408 0.006199 0.000000 0.042428 0.000000
# 6 0.000000 0.000000 0.000000 0.057106 0.000000 0.045701
#
#
# Mechanical properties :
#
#
# Convention : Reuss Voigt Hill
#
# Bulk Modulus (GPa) = 36.07284 50.33670 43.20477
# Shear Modulus (GPa) = 14.03808 28.55469 21.29639
#
# Velocity S-wave (km/s) = 2.53426 3.61440 3.12141
# Velocity P-wave (km/s) = 5.00667 6.35985 5.72339
#
# Compressibility (1/GPa) = 0.02772169
#
# Stress axis : x y z
#
# Youngs Moduli (GPa) = 121.50869 85.91153 34.28368
#
# Poissons Ratio (x) = 0.17526 0.06475
# Poissons Ratio (y) = 0.24788 0.23071
# Poissons Ratio (z) = 0.22950 0.57814
#
# Static dielectric constant tensor:
#      x y z
#    x 1.889600 0.000000 -0.033120 
#    y 0.000000 1.805290 0.000000 
#    z -0.033120 0.000000 1.819930 
# 
# From -- ./inp_files/29881.got.cif
#   From: 2010.05.17/outbox.cif.g08.bks.cpg/sg5_15_cif.got.tgz:29881.got - 2010.06.03 18:56:24.
