data_PCOD9129380
_publ_section_title
;
Structure prediction by ZEFSAII (Michael W. Deem and Ramdas Pophale) SiO2 
 PCOD9129380
Probable space group: C 2
;
_chemical_formula_sum "Si O2"
_cell_formula_units_Z 24
_cell_length_a 7.842127
_cell_length_b 15.687327
_cell_length_c 13.996697
_cell_angle_alpha 90.000000
_cell_angle_beta 37.564536
_cell_angle_gamma 90.000000
_cell_volume 1049.765441
_symmetry_space_group_name_H-M "C 2"
_symmetry_group_IT_number 5
_symmetry_cell_setting 'monoclinic'
loop_
_space_group_symop_operation_xyz
x,y,z
-x,y,-z
1/2+x,1/2+y,z
1/2-x,1/2+y,-z
loop_
_atom_site_type_symbol
_atom_site_label
_atom_site_fract_x
_atom_site_fract_y
_atom_site_fract_z
Si Si1 0.216377 0.659640 0.671327
Si Si2 0.156805 0.975605 0.330812
Si Si3 0.717221 0.210556 0.979087
Si Si4 0.215740 0.927328 0.674712
Si Si5 0.319620 0.125091 0.672151
Si Si6 0.275276 0.895536 0.860675
O O1 0.500000 0.701321 0.500000
O O2 0.334898 0.578574 0.679174
O O3 0.971979 0.706036 0.841003
O O4 0.040605 0.625740 0.659663
O O5 0.000000 0.955075 0.500000
O O6 0.027614 0.926895 0.296942
O O7 0.465943 0.945461 0.214961
O O8 0.500000 0.169139 0.000000
O O9 0.763671 0.307348 0.923260
O O10 0.027527 0.170116 0.832549
O O11 0.500000 0.900567 0.500000
O O12 0.243466 0.027563 0.685248
O O13 0.239944 0.879209 0.764252
O O14 0.500000 0.159180 0.500000
O O15 0.000000 0.951490 0.000000
#
# Coordination Sequence:
#
# PCOD9129380 Si02
#       6
#     4   4   4   4   4   4
#     4  11  22  43  75 108 140 187 243 309 361 423
#     4  11  21  42  77 109 137 180 247 304 362 430
#     4  11  25  46  65 101 149 191 236 298 361 434
#     4  11  21  43  75 106 137 190 242 297 358 430
#     4  11  22  42  73 110 143 184 243 299 363 434
#     4  11  26  46  64 102 152 184 237 295 363 435
#
# _framework density 22.86225
#
# number of rings (size 3 to 8) (size 9 to 14) (size 15 to 20)
#    0.000    1.000    3.333    5.500    2.333    1.333 
#   12.000    3.333    0.000    0.000    0.000    0.000 
#    0.000    0.000    0.000    0.000    0.000    0.000 
#
# Total GULP energy -66888.971435 kJ/mol
# GULP energy per Si atom -5574.080953 kJ/mol
# Density = 2.281021 g / cm^3
# Si number density = 22.862250 Si / 1000 Ang^3
#
#
#
# Elastic Constant Matrix: (Units=GPa)
#
#
# Indices 1 2 3 4 5 6 
#
# 1 143.9035 17.1215 52.8799 0.0060 -14.3570 -0.0272
# 2 17.1215 61.1837 44.4238 -0.0034 -6.4713 0.0092
# 3 52.8799 44.4238 182.8672 -0.0072 -16.0921 0.0091
# 4 0.0060 -0.0034 -0.0072 55.1159 -0.0019 -53.4869
# 5 -14.3570 -6.4713 -16.0921 -0.0019 57.6964 0.0122
# 6 -0.0272 0.0092 0.0091 -53.4869 0.0122 229.5619
#
#
#
# Elastic Compliance Matrix: (Units=1/GPa)
#
#
# Indices 1 2 3 4 5 6 
#
# 1 0.007896 -0.000602 -0.002020 0.000000 0.001334 0.000001
# 2 -0.000602 0.019936 -0.004598 0.000000 0.000804 -0.000001
# 3 -0.002020 -0.004598 0.007258 0.000001 0.001006 0.000000
# 4 0.000000 0.000000 0.000001 0.023445 0.000000 0.005463
# 5 0.001334 0.000804 0.001006 0.000000 0.018035 -0.000001
# 6 0.000001 -0.000001 0.000000 0.005463 -0.000001 0.005629
#
#
# Mechanical properties :
#
#
# Convention : Reuss Voigt Hill
#
# Bulk Modulus (GPa) = 48.42522 68.53387 58.47955
# Shear Modulus (GPa) = 48.29877 86.71012 67.50445
#
# Velocity S-wave (km/s) = 4.60129 6.16519 5.43973
# Velocity P-wave (km/s) = 7.03253 8.98451 8.06777
#
# Compressibility (1/GPa) = 0.02065040
#
# Stress axis : x y z
#
# Youngs Moduli (GPa) = 126.64680 50.15946 137.77780
#
# Poissons Ratio (x) = 0.03020 0.27826
# Poissons Ratio (y) = 0.07625 0.63354
# Poissons Ratio (z) = 0.25578 0.23065
#
# Static dielectric constant tensor:
#      x y z
#    x 0.668430 -0.000040 -1.930020 
#    y -0.000040 1.884570 -0.000070 
#    z -1.930020 -0.000070 -1.323070 
# 
# From -- ./inp_files/51319.got.cif
#   From: 2010.05.17/outbox.cif.g08.bks.cpg/sg5_26_cif.got.tgz:51319.got - 2010.06.03 18:56:24.
