data_PCOD9129155
_publ_section_title
;
Structure prediction by ZEFSAII (Michael W. Deem and Ramdas Pophale) SiO2 
 PCOD9129155
Probable space group: C 2
;
_chemical_formula_sum "Si O2"
_cell_formula_units_Z 28
_cell_length_a 14.703270
_cell_length_b 5.963144
_cell_length_c 22.654091
_cell_angle_alpha 90.000000
_cell_angle_beta 147.073100
_cell_angle_gamma 90.000000
_cell_volume 1079.667977
_symmetry_space_group_name_H-M "C 2"
_symmetry_group_IT_number 5
_symmetry_cell_setting 'monoclinic'
loop_
_space_group_symop_operation_xyz
x,y,z
-x,y,-z
1/2+x,1/2+y,z
1/2-x,1/2+y,-z
loop_
_atom_site_type_symbol
_atom_site_label
_atom_site_fract_x
_atom_site_fract_y
_atom_site_fract_z
Si Si1 0.946311 0.122130 0.176475
Si Si2 0.807984 0.970632 0.329580
Si Si3 0.844849 0.871287 0.799901
Si Si4 0.500000 0.472699 0.000000
Si Si5 0.650406 0.126478 0.851520
Si Si6 0.000000 0.278577 0.500000
Si Si7 0.973250 0.634287 0.339366
Si Si8 0.256399 0.143826 0.411567
O O1 0.866924 0.372123 0.129532
O O2 0.074255 0.078936 0.191612
O O3 0.057339 0.121682 0.297608
O O4 0.853997 0.879037 0.123402
O O5 0.657245 0.143155 0.238532
O O6 0.970147 0.121981 0.429030
O O7 0.856011 0.835466 0.298195
O O8 0.792566 0.836348 0.382507
O O9 0.949696 0.831460 0.915653
O O10 0.654044 0.932455 0.713015
O O11 0.335895 0.614490 0.924805
O O12 0.514129 0.129736 0.723811
O O13 0.842126 0.432060 0.426386
O O14 0.142647 0.651949 0.471346
#
# Coordination Sequence:
#
# PCOD9129155 Si02
#       8
#     4   4   4   2   4   2   4   4
#     4  12  26  47  73 110 152 191 239 313 384 459
#     4  12  19  36  70 110 145 200 260 312 346 454
#     4  11  24  45  78 105 148 193 261 314 381 441
#     4  10  28  58  76 108 132 200 258 336 386 458
#     4  11  30  50  72 107 147 192 254 310 386 451
#     4  12  18  32  64 112 140 204 248 302 346 464
#     4  11  23  41  68 109 150 202 251 294 352 464
#     4  12  21  37  66 111 151 197 248 295 375 445
#
# _framework density 25.933899
#
# number of rings (size 3 to 8) (size 9 to 14) (size 15 to 20)
#    0.000    0.571    7.143    0.857    4.000    2.857 
#    2.571    0.000    0.000    0.000    0.000    0.000 
#    0.000    0.000    0.000    0.000    0.000    0.000 
#
# Total GULP energy -78078.253880 kJ/mol
# GULP energy per Si atom -5577.018134 kJ/mol
# Density = 2.587487 g / cm^3
# Si number density = 25.933899 Si / 1000 Ang^3
#
#
#
# Elastic Constant Matrix: (Units=GPa)
#
#
# Indices 1 2 3 4 5 6 
#
# 1 58.4176 43.6634 18.8525 0.0000 -4.1768 0.0000
# 2 43.6634 166.4030 40.0632 0.0000 -2.3056 0.0004
# 3 18.8525 40.0632 116.2794 0.0000 -24.8060 0.0000
# 4 0.0000 0.0000 0.0000 6.1000 0.0000 3.2660
# 5 -4.1768 -2.3056 -24.8060 0.0000 45.9511 0.0000
# 6 0.0000 0.0004 0.0000 3.2660 0.0000 29.4972
#
#
#
# Elastic Compliance Matrix: (Units=1/GPa)
#
#
# Indices 1 2 3 4 5 6 
#
# 1 0.021627 -0.005304 -0.001488 0.000000 0.000897 0.000000
# 2 -0.005304 0.007895 -0.002123 0.000000 -0.001232 0.000000
# 3 -0.001488 -0.002123 0.010760 0.000000 0.005567 0.000000
# 4 0.000000 0.000000 0.000000 0.174266 0.000000 -0.019295
# 5 0.000897 -0.001232 0.005567 0.000000 0.024787 0.000000
# 6 0.000000 0.000000 0.000000 -0.019295 0.000000 0.036038
#
#
# Mechanical properties :
#
#
# Convention : Reuss Voigt Hill
#
# Bulk Modulus (GPa) = 44.53821 60.69536 52.61679
# Shear Modulus (GPa) = 16.62852 32.21104 24.41978
#
# Velocity S-wave (km/s) = 2.53492 3.52809 3.07191
# Velocity P-wave (km/s) = 5.07728 6.32860 5.73716
#
# Compressibility (1/GPa) = 0.02245263
#
# Stress axis : x y z
#
# Youngs Moduli (GPa) = 46.23878 126.65578 92.93418
#
# Poissons Ratio (x) = 0.67181 0.13825
# Poissons Ratio (y) = 0.24526 0.19732
# Poissons Ratio (z) = 0.06878 0.26891
#
# Static dielectric constant tensor:
#      x y z
#    x 2.036750 0.000000 0.003380 
#    y 0.000000 2.118120 0.000000 
#    z 0.003380 0.000000 2.097070 
# 
# From -- ./inp_files/70815.got.cif
#   From: 2010.05.17/outbox.cif.g08.bks.cpg/sg5_36_cif.got.tgz:70815.got - 2010.06.03 18:56:24.
