data_PCOD9129407
_publ_section_title
;
Structure prediction by ZEFSAII (Michael W. Deem and Ramdas Pophale) SiO2 
 PCOD9129407
Probable space group: C 2
;
_chemical_formula_sum "Si O2"
_cell_formula_units_Z 20
_cell_length_a 17.505127
_cell_length_b 8.759353
_cell_length_c 5.408943
_cell_angle_alpha 90.000000
_cell_angle_beta 65.787230
_cell_angle_gamma 90.000000
_cell_volume 756.411667
_symmetry_space_group_name_H-M "C 2"
_symmetry_group_IT_number 5
_symmetry_cell_setting 'monoclinic'
loop_
_space_group_symop_operation_xyz
x,y,z
-x,y,-z
1/2+x,1/2+y,z
1/2-x,1/2+y,-z
loop_
_atom_site_type_symbol
_atom_site_label
_atom_site_fract_x
_atom_site_fract_y
_atom_site_fract_z
Si Si1 0.500000 0.208930 0.500000
Si Si2 0.181620 0.584051 0.373217
Si Si3 0.000000 0.905523 0.000000
Si Si4 0.700920 0.779755 0.097192
Si Si5 0.920594 0.138182 0.426072
Si Si6 0.090308 0.442715 0.868291
O O1 0.585939 0.113508 0.408058
O O2 0.487148 0.309768 0.766149
O O3 0.225334 0.426258 0.228543
O O4 0.161497 0.561162 0.689672
O O5 0.234876 0.721362 0.192870
O O6 0.073164 0.021194 0.810055
O O7 0.665080 0.640017 0.306300
O O8 0.621273 0.849171 0.059572
O O9 0.922422 0.309212 0.316579
O O10 0.000000 0.113446 0.500000
O O11 0.000000 0.517655 0.000000
#
# Coordination Sequence:
#
# PCOD9129407 Si02
#       6
#     2   4   2   4   4   4
#     4  12  30  52  80 116 156 210 262 330 392 464
#     4  11  29  49  74 110 160 203 265 326 394 465
#     4  12  26  46  82 114 158 198 268 320 388 468
#     4  11  26  48  75 110 160 203 266 321 397 461
#     4  11  21  44  74 113 151 201 256 315 384 469
#     4  11  22  44  80 107 149 211 259 316 387 471
#
# _framework density 26.440626999999999
#
# number of rings (size 3 to 8) (size 9 to 14) (size 15 to 20)
#    0.000    0.800    4.000    1.200    9.800    3.200 
#    3.600    0.000    0.000    0.000    0.000    0.000 
#    0.000    0.000    0.000    0.000    0.000    0.000 
#
# Total GULP energy -55926.623447 kJ/mol
# GULP energy per Si atom -5592.662345 kJ/mol
# Density = 2.638045 g / cm^3
# Si number density = 26.440627 Si / 1000 Ang^3
#
#
#
# Elastic Constant Matrix: (Units=GPa)
#
#
# Indices 1 2 3 4 5 6 
#
# 1 84.5547 17.8624 33.1125 0.0000 -12.9015 0.0000
# 2 17.8624 114.1316 72.1750 0.0000 -10.9158 0.0000
# 3 33.1125 72.1750 168.0904 0.0000 -12.7148 0.0000
# 4 0.0000 0.0000 0.0000 73.6463 0.0000 -8.0800
# 5 -12.9015 -10.9158 -12.7148 0.0000 38.2600 0.0000
# 6 0.0000 0.0000 0.0000 -8.0800 0.0000 16.6165
#
#
#
# Elastic Compliance Matrix: (Units=1/GPa)
#
#
# Indices 1 2 3 4 5 6 
#
# 1 0.013319 -0.000344 -0.002199 0.000000 0.003662 0.000000
# 2 -0.000344 0.012153 -0.005023 0.000000 0.001682 0.000000
# 3 -0.002199 -0.005023 0.008591 0.000000 0.000680 0.000000
# 4 0.000000 0.000000 0.000000 0.014344 0.000000 0.006975
# 5 0.003662 0.001682 0.000680 0.000000 0.028078 0.000000
# 6 0.000000 0.000000 0.000000 0.006975 0.000000 0.063573
#
#
# Mechanical properties :
#
#
# Convention : Reuss Voigt Hill
#
# Bulk Modulus (GPa) = 52.82367 68.11960 60.47164
# Shear Modulus (GPa) = 30.95970 41.94636 36.45303
#
# Velocity S-wave (km/s) = 3.42557 3.98733 3.71708
# Velocity P-wave (km/s) = 5.97224 6.85694 6.42982
#
# Compressibility (1/GPa) = 0.01893091
#
# Stress axis : x y z
#
# Youngs Moduli (GPa) = 75.07895 82.28278 116.40290
#
# Poissons Ratio (x) = 0.02826 0.25600
# Poissons Ratio (y) = 0.02579 0.58475
# Poissons Ratio (z) = 0.16512 0.41334
#
# Static dielectric constant tensor:
#      x y z
#    x 2.048310 0.000000 0.015420 
#    y 0.000000 2.059040 0.000000 
#    z 0.015420 0.000000 2.201760 
# 
# From -- ./inp_files/8018.got.cif
#   From: 2010.05.17/outbox.cif.g08.bks.cpg/sg5_5_cif.got.tgz:8018.got - 2010.06.03 18:56:24.
