data_PCOD9129304
_publ_section_title
;
Structure prediction by ZEFSAII (Michael W. Deem and Ramdas Pophale) SiO2 
 PCOD9129304
Probable space group: C 2
;
_chemical_formula_sum "Si O2"
_cell_formula_units_Z 32
_cell_length_a 24.378133
_cell_length_b 7.709330
_cell_length_c 20.203629
_cell_angle_alpha 90.000000
_cell_angle_beta 157.389077
_cell_angle_gamma 90.000000
_cell_volume 1459.857315
_symmetry_space_group_name_H-M "C 2"
_symmetry_group_IT_number 5
_symmetry_cell_setting 'monoclinic'
loop_
_space_group_symop_operation_xyz
x,y,z
-x,y,-z
1/2+x,1/2+y,z
1/2-x,1/2+y,-z
loop_
_atom_site_type_symbol
_atom_site_label
_atom_site_fract_x
_atom_site_fract_y
_atom_site_fract_z
Si Si1 0.880691 0.256700 0.315186
Si Si2 0.442259 0.746312 0.234095
Si Si3 0.625660 0.332744 0.688743
Si Si4 0.559535 0.266837 0.994902
Si Si5 0.648300 0.852019 0.357217
Si Si6 0.948048 0.341790 0.014529
Si Si7 0.937834 0.747039 0.725486
Si Si8 0.651970 0.349216 0.863511
O O1 0.926376 0.307975 0.291883
O O2 0.000000 0.313497 0.500000
O O3 0.876997 0.044698 0.312412
O O4 0.723190 0.316031 0.161622
O O5 0.589991 0.772792 0.361030
O O6 0.401668 0.544617 0.188834
O O7 0.321946 0.841314 0.056506
O O8 0.500000 0.276040 0.500000
O O9 0.601836 0.275260 0.737613
O O10 0.785810 0.282929 0.846335
O O11 0.463824 0.328888 0.826451
O O12 0.554709 0.054380 0.988120
O O13 0.500000 0.321150 0.000000
O O14 0.558015 0.782998 0.194196
O O15 0.817613 0.831001 0.545476
O O16 0.613410 0.053307 0.321389
O O17 0.000000 0.287806 0.000000
O O18 0.086975 0.748464 0.853058
#
# Coordination Sequence:
#
# PCOD9129304 Si02
#       8
#     4   4   4   4   4   4   4   4
#     4   9  18  32  54  84 112 144 191 237 277 329
#     4  11  21  37  61  87 116 152 191 239 289 338
#     4   9  18  32  54  84 112 144 191 237 277 329
#     4   9  18  33  54  81 113 147 189 238 278 327
#     4  11  23  39  59  87 117 151 194 238 289 343
#     4   9  18  33  54  81 113 147 189 238 278 327
#     4  11  23  39  59  87 117 151 194 238 289 343
#     4  11  21  37  61  87 116 152 191 239 289 338
#
# _framework density 21.919951000000001
#
# number of rings (size 3 to 8) (size 9 to 14) (size 15 to 20)
#    0.000    2.000    2.500    1.500    3.500    0.000 
#    0.000    0.000    0.000    9.000    0.000    0.000 
#    0.000    0.000    0.000    0.000    0.000    0.000 
#
# Total GULP energy -89399.479680 kJ/mol
# GULP energy per Si atom -5587.467480 kJ/mol
# Density = 2.187006 g / cm^3
# Si number density = 21.919951 Si / 1000 Ang^3
#
#
#
# Elastic Constant Matrix: (Units=GPa)
#
#
# Indices 1 2 3 4 5 6 
#
# 1 130.9885 1.6579 48.9352 0.0000 -20.2211 0.0000
# 2 1.6579 35.3557 7.7405 0.0000 -0.9905 0.0000
# 3 48.9352 7.7405 121.3041 0.0000 -18.9692 0.0000
# 4 0.0000 0.0000 0.0000 18.5963 0.0000 8.4422
# 5 -20.2211 -0.9905 -18.9692 0.0000 40.4618 0.0000
# 6 0.0000 0.0000 0.0000 8.4422 0.0000 14.0284
#
#
#
# Elastic Compliance Matrix: (Units=1/GPa)
#
#
# Indices 1 2 3 4 5 6 
#
# 1 0.009348 0.000373 -0.003305 0.000000 0.003131 0.000000
# 2 0.000373 0.028701 -0.001989 0.000000 -0.000043 0.000000
# 3 -0.003305 -0.001989 0.010185 0.000000 0.003074 0.000000
# 4 0.000000 0.000000 0.000000 0.073988 0.000000 -0.044526
# 5 0.003131 -0.000043 0.003074 0.000000 0.027720 0.000000
# 6 0.000000 0.000000 0.000000 -0.044526 0.000000 0.098079
#
#
# Mechanical properties :
#
#
# Convention : Reuss Voigt Hill
#
# Bulk Modulus (GPa) = 26.04740 44.92391 35.48566
# Shear Modulus (GPa) = 18.47347 29.90494 24.18920
#
# Velocity S-wave (km/s) = 2.90620 3.69762 3.32554
# Velocity P-wave (km/s) = 4.81353 6.22647 5.56502
#
# Compressibility (1/GPa) = 0.03839155
#
# Stress axis : x y z
#
# Youngs Moduli (GPa) = 106.97887 34.84237 98.18646
#
# Poissons Ratio (x) = -0.01300 0.32451
# Poissons Ratio (y) = -0.03990 0.19526
# Poissons Ratio (z) = 0.35357 0.06929
#
# Static dielectric constant tensor:
#      x y z
#    x 1.771470 0.000000 -0.025540 
#    y 0.000000 1.848050 0.000000 
#    z -0.025540 0.000000 1.769840 
# 
# From -- ./inp_files/67598.got.cif
#   From: 2010.05.17/outbox.cif.g08.bks.cpg/sg5_34_cif.got.tgz:67598.got - 2010.06.03 18:56:24.
