data_PCOD9129739
_publ_section_title
;
Structure prediction by ZEFSAII (Michael W. Deem and Ramdas Pophale) SiO2 
 PCOD9129739
Probable space group: C 2
;
_chemical_formula_sum "Si O2"
_cell_formula_units_Z 26
_cell_length_a 8.126422
_cell_length_b 12.210083
_cell_length_c 19.623174
_cell_angle_alpha 90.000000
_cell_angle_beta 142.102325
_cell_angle_gamma 90.000000
_cell_volume 1196.009571
_symmetry_space_group_name_H-M "C 2"
_symmetry_group_IT_number 5
_symmetry_cell_setting 'monoclinic'
loop_
_space_group_symop_operation_xyz
x,y,z
-x,y,-z
1/2+x,1/2+y,z
1/2-x,1/2+y,-z
loop_
_atom_site_type_symbol
_atom_site_label
_atom_site_fract_x
_atom_site_fract_y
_atom_site_fract_z
Si Si1 0.802402 0.566240 0.818668
Si Si2 0.500000 0.226731 0.000000
Si Si3 0.186582 0.485820 0.412877
Si Si4 0.581618 0.810233 0.602237
Si Si5 0.224650 0.120122 0.432419
Si Si6 0.557894 0.166026 0.767722
Si Si7 0.485598 0.823479 0.077538
O O1 0.492057 0.580123 0.693191
O O2 0.987196 0.615971 0.818275
O O3 0.888219 0.439676 0.856744
O O4 0.849092 0.644120 0.898751
O O5 0.699622 0.302439 0.020223
O O6 0.500000 0.466363 0.500000
O O7 0.176673 0.523461 0.487603
O O8 0.051663 0.576308 0.321163
O O9 0.006344 0.378257 0.359987
O O10 0.500000 0.843803 0.500000
O O11 0.430686 0.696200 0.565659
O O12 0.889433 0.778262 0.704968
O O13 0.500000 0.177031 0.500000
O O14 0.853563 0.210887 0.852896
O O15 0.500000 0.829259 0.000000
#
# Coordination Sequence:
#
# PCOD9129739 Si02
#       7
#     4   2   4   4   4   4   4
#     4  11  26  49  75 107 147 190 249 301 370 432
#     4  12  28  50  76 112 140 186 262 306 364 440
#     4  12  23  43  67 106 149 189 237 289 358 435
#     4  11  23  42  68  99 148 194 237 284 355 433
#     4  11  24  43  68 110 150 188 240 297 354 443
#     4  11  25  48  69 105 145 187 241 309 357 438
#     4  12  28  50  78 103 144 196 247 312 372 421
#
# _framework density 21.738956000000002
#
# number of rings (size 3 to 8) (size 9 to 14) (size 15 to 20)
#    0.000    0.615    6.923    0.923    6.462    3.692 
#    0.000    0.000    0.000    0.000    0.000    0.000 
#    0.000    0.000    0.000    0.000    0.000    0.000 
#
# Total GULP energy -72521.582583 kJ/mol
# GULP energy per Si atom -5578.583276 kJ/mol
# Density = 2.168948 g / cm^3
# Si number density = 21.738956 Si / 1000 Ang^3
#
#
#
# Elastic Constant Matrix: (Units=GPa)
#
#
# Indices 1 2 3 4 5 6 
#
# 1 109.4648 40.8779 58.8886 0.0000 2.5848 0.0000
# 2 40.8779 96.6313 30.8806 0.0000 -10.2858 0.0000
# 3 58.8886 30.8806 74.8967 0.0001 -19.1410 0.0000
# 4 0.0000 0.0000 0.0001 44.8146 0.0000 -1.4108
# 5 2.5848 -10.2858 -19.1410 0.0000 36.0795 0.0000
# 6 0.0000 0.0000 0.0000 -1.4108 0.0000 26.8175
#
#
#
# Elastic Compliance Matrix: (Units=1/GPa)
#
#
# Indices 1 2 3 4 5 6 
#
# 1 0.020267 -0.004346 -0.017157 0.000000 -0.011793 0.000000
# 2 -0.004346 0.012877 -0.001012 0.000000 0.003446 0.000000
# 3 -0.017157 -0.001012 0.031813 0.000000 0.017818 0.000000
# 4 0.000000 0.000000 0.000000 0.022351 0.000000 0.001176
# 5 -0.011793 0.003446 0.017818 0.000000 0.038997 0.000000
# 6 0.000000 0.000000 0.000000 0.001176 0.000000 0.037351
#
#
# Mechanical properties :
#
#
# Convention : Reuss Voigt Hill
#
# Bulk Modulus (GPa) = 50.18318 60.25412 55.21865
# Shear Modulus (GPa) = 23.22053 31.56535 27.39294
#
# Velocity S-wave (km/s) = 3.27181 3.81467 3.55362
# Velocity P-wave (km/s) = 6.11617 6.86874 6.50335
#
# Compressibility (1/GPa) = 0.01992699
#
# Stress axis : x y z
#
# Youngs Moduli (GPa) = 49.34218 77.65703 31.43414
#
# Poissons Ratio (x) = 0.33748 0.53932
# Poissons Ratio (y) = 0.21443 0.03181
# Poissons Ratio (z) = 0.84657 0.07858
#
# Static dielectric constant tensor:
#      x y z
#    x 1.826950 0.000000 0.112350 
#    y 0.000000 1.810670 0.000000 
#    z 0.112350 0.000000 1.903670 
# 
# From -- ./inp_files/64580.got.cif
#   From: 2010.05.17/outbox.cif.g08.bks.cpg/sg5_33_cif.got.tgz:64580.got - 2010.06.03 18:56:24.
