data_PCOD9129319
_publ_section_title
;
Structure prediction by ZEFSAII (Michael W. Deem and Ramdas Pophale) SiO2 
 PCOD9129319
Probable space group: C 2
;
_chemical_formula_sum "Si O2"
_cell_formula_units_Z 18
_cell_length_a 18.504248
_cell_length_b 7.461351
_cell_length_c 5.350850
_cell_angle_alpha 90.000000
_cell_angle_beta 69.419313
_cell_angle_gamma 90.000000
_cell_volume 691.624160
_symmetry_space_group_name_H-M "C 2"
_symmetry_group_IT_number 5
_symmetry_cell_setting 'monoclinic'
loop_
_space_group_symop_operation_xyz
x,y,z
-x,y,-z
1/2+x,1/2+y,z
1/2-x,1/2+y,-z
loop_
_atom_site_type_symbol
_atom_site_label
_atom_site_fract_x
_atom_site_fract_y
_atom_site_fract_z
Si Si1 0.629652 0.522320 0.525764
Si Si2 0.161446 0.513425 0.138897
Si Si3 0.574976 0.671307 0.089623
Si Si4 0.000000 0.440905 0.500000
Si Si5 0.231403 0.792235 0.685109
O O1 0.587792 0.542016 0.313300
O O2 0.690719 0.684406 0.454391
O O3 0.682432 0.349122 0.505091
O O4 0.580294 0.550253 0.837636
O O5 0.141930 0.325386 0.018079
O O6 0.236682 0.469011 0.212051
O O7 0.081186 0.541928 0.388857
O O8 0.179298 0.669780 0.925907
O O9 0.504669 0.805542 0.257884
#
# Coordination Sequence:
#
# PCOD9129319 Si02
#       5
#     4   4   4   2   4
#     4  11  22  37  64 100 135 171 225 285 334 398
#     4   9  20  40  67 101 135 177 226 281 336 414
#     4   9  21  41  64  95 129 183 220 274 332 415
#     4   8  20  44  70  96 138 188 224 270 360 410
#     4  11  21  38  68 106 136 178 232 288 342 398
#
# _framework density 26.025696
#
# number of rings (size 3 to 8) (size 9 to 14) (size 15 to 20)
#    1.333    0.889    0.000    4.000    0.000    4.444 
#    0.000    1.111    0.000    2.667    0.000    0.000 
#    0.000    0.000    0.000    0.000    0.000    0.000 
#
# Total GULP energy -50280.875758 kJ/mol
# GULP energy per Si atom -5586.763973 kJ/mol
# Density = 2.596646 g / cm^3
# Si number density = 26.025696 Si / 1000 Ang^3
#
#
#
# Elastic Constant Matrix: (Units=GPa)
#
#
# Indices 1 2 3 4 5 6 
#
# 1 91.2672 28.6005 47.8468 0.0000 0.0186 0.0000
# 2 28.6005 64.0261 26.3792 0.0000 6.2767 0.0000
# 3 47.8468 26.3792 165.2009 0.0000 -8.2280 0.0000
# 4 0.0000 0.0000 0.0000 39.9756 0.0000 -0.1874
# 5 0.0186 6.2767 -8.2280 0.0000 46.6920 0.0000
# 6 0.0000 0.0000 0.0000 -0.1874 0.0000 41.4761
#
#
#
# Elastic Compliance Matrix: (Units=1/GPa)
#
#
# Indices 1 2 3 4 5 6 
#
# 1 0.014273 -0.005012 -0.003329 0.000000 0.000081 0.000000
# 2 -0.005012 0.018834 -0.001697 0.000000 -0.002829 0.000000
# 3 -0.003329 -0.001697 0.007365 0.000000 0.001527 0.000000
# 4 0.000000 0.000000 0.000000 0.025016 0.000000 0.000113
# 5 0.000081 -0.002829 0.001527 0.000000 0.022066 0.000000
# 6 0.000000 0.000000 0.000000 0.000113 0.000000 0.024111
#
#
# Mechanical properties :
#
#
# Convention : Reuss Voigt Hill
#
# Bulk Modulus (GPa) = 49.03138 58.46079 53.74608
# Shear Modulus (GPa) = 36.09102 40.13992 38.11547
#
# Velocity S-wave (km/s) = 3.72794 3.93150 3.83107
# Velocity P-wave (km/s) = 6.11642 6.56661 6.34551
#
# Compressibility (1/GPa) = 0.02039510
#
# Stress axis : x y z
#
# Youngs Moduli (GPa) = 70.06288 53.09600 135.78592
#
# Poissons Ratio (x) = 0.26611 0.45210
# Poissons Ratio (y) = 0.35115 0.23038
# Poissons Ratio (z) = 0.23327 0.09009
#
# Static dielectric constant tensor:
#      x y z
#    x 2.175060 0.000000 -0.003200 
#    y 0.000000 2.054360 0.000000 
#    z -0.003200 0.000000 2.086680 
# 
# From -- ./inp_files/10074.got.cif
#   From: 2010.05.17/outbox.cif.g08.bks.cpg/sg5_6_cif.got.tgz:10074.got - 2010.06.03 18:56:24.
