data_PCOD9129475
_publ_section_title
;
Structure prediction by ZEFSAII (Michael W. Deem and Ramdas Pophale) SiO2 
 PCOD9129475
Probable space group: C 2
;
_chemical_formula_sum "Si O2"
_cell_formula_units_Z 20
_cell_length_a 23.707742
_cell_length_b 4.853339
_cell_length_c 11.486765
_cell_angle_alpha 90.000000
_cell_angle_beta 41.806780
_cell_angle_gamma 90.000000
_cell_volume 881.063760
_symmetry_space_group_name_H-M "C 2"
_symmetry_group_IT_number 5
_symmetry_cell_setting 'monoclinic'
loop_
_space_group_symop_operation_xyz
x,y,z
-x,y,-z
1/2+x,1/2+y,z
1/2-x,1/2+y,-z
loop_
_atom_site_type_symbol
_atom_site_label
_atom_site_fract_x
_atom_site_fract_y
_atom_site_fract_z
Si Si1 0.257918 0.509740 0.820812
Si Si2 0.864760 0.533339 0.694537
Si Si3 0.792059 0.919290 0.496170
Si Si4 0.075415 0.271424 0.169215
Si Si5 0.535593 0.229826 0.690736
O O1 0.285334 0.825125 0.799814
O O2 0.273623 0.477669 0.659409
O O3 0.324765 0.325761 0.791510
O O4 0.168655 0.366999 0.985182
O O5 0.922184 0.388870 0.702379
O O6 0.914462 0.611731 0.500315
O O7 0.732870 0.675028 0.543768
O O8 0.890749 0.841366 0.339912
O O9 0.013429 0.464343 0.189092
O O10 0.033700 0.968621 0.229374
#
# Coordination Sequence:
#
# PCOD9129475 Si02
#       5
#     4   4   4   4   4
#     4  11  23  41  65  94 124 169 217 254 310 387
#     4  11  22  40  63  92 133 175 201 241 316 398
#     4  11  23  44  65  83 116 167 215 262 315 378
#     4  12  23  40  63  98 133 160 203 269 316 370
#     4  11  24  39  62  95 125 163 213 260 316 379
#
# _framework density 22.699831
#
# number of rings (size 3 to 8) (size 9 to 14) (size 15 to 20)
#    0.000    0.800    0.000   10.200    0.000    3.200 
#    0.000    6.000    0.000    0.000    0.000    0.000 
#    0.000    0.000    0.000    0.000    0.000    0.000 
#
# Total GULP energy -55815.463520 kJ/mol
# GULP energy per Si atom -5581.546352 kJ/mol
# Density = 2.264816 g / cm^3
# Si number density = 22.699831 Si / 1000 Ang^3
#
#
#
# Elastic Constant Matrix: (Units=GPa)
#
#
# Indices 1 2 3 4 5 6 
#
# 1 81.8861 11.6443 -9.3042 -0.0005 -13.7470 0.0019
# 2 11.6443 133.2438 4.7425 -0.0043 -6.9874 -0.0011
# 3 -9.3042 4.7425 56.1323 -0.0009 -22.4242 0.0002
# 4 -0.0005 -0.0043 -0.0009 37.4027 -0.0003 -22.1240
# 5 -13.7470 -6.9874 -22.4242 -0.0003 40.7869 0.0000
# 6 0.0019 -0.0011 0.0002 -22.1240 0.0000 38.2406
#
#
#
# Elastic Compliance Matrix: (Units=1/GPa)
#
#
# Indices 1 2 3 4 5 6 
#
# 1 0.014274 -0.001042 0.005516 0.000000 0.007665 -0.000001
# 2 -0.001042 0.007650 -0.000558 0.000002 0.000652 0.000001
# 3 0.005516 -0.000558 0.024964 0.000001 0.015489 0.000000
# 4 0.000000 0.000002 0.000001 0.040646 0.000001 0.023515
# 5 0.007665 0.000652 0.015489 0.000001 0.035728 0.000000
# 6 -0.000001 0.000001 0.000000 0.023515 0.000000 0.039755
#
#
# Mechanical properties :
#
#
# Convention : Reuss Voigt Hill
#
# Bulk Modulus (GPa) = 18.27486 31.71415 24.99451
# Shear Modulus (GPa) = 28.83087 40.89799 34.86443
#
# Velocity S-wave (km/s) = 3.56770 4.24923 3.92329
# Velocity P-wave (km/s) = 5.00394 6.17058 5.61763
#
# Compressibility (1/GPa) = 0.05471997
#
# Stress axis : x y z
#
# Youngs Moduli (GPa) = 70.05842 130.71599 40.05759
#
# Poissons Ratio (x) = 0.13618 -0.22096
# Poissons Ratio (y) = 0.07298 0.02237
# Poissons Ratio (z) = -0.38645 0.07299
#
# Static dielectric constant tensor:
#      x y z
#    x 1.849440 0.000000 -0.030110 
#    y 0.000000 1.864420 0.000000 
#    z -0.030110 0.000000 1.925920 
# 
# From -- ./inp_files/45360.got.cif
#   From: 2010.05.17/outbox.cif.g08.bks.cpg/sg5_23_cif.got.tgz:45360.got - 2010.06.03 18:56:24.
