data_PCOD9129614
_publ_section_title
;
Structure prediction by ZEFSAII (Michael W. Deem and Ramdas Pophale) SiO2 
 PCOD9129614
Probable space group: C 2
;
_chemical_formula_sum "Si O2"
_cell_formula_units_Z 28
_cell_length_a 13.328373
_cell_length_b 12.861109
_cell_length_c 8.311149
_cell_angle_alpha 90.000000
_cell_angle_beta 54.203799
_cell_angle_gamma 90.000000
_cell_volume 1155.559788
_symmetry_space_group_name_H-M "C 2"
_symmetry_group_IT_number 5
_symmetry_cell_setting 'monoclinic'
loop_
_space_group_symop_operation_xyz
x,y,z
-x,y,-z
1/2+x,1/2+y,z
1/2-x,1/2+y,-z
loop_
_atom_site_type_symbol
_atom_site_label
_atom_site_fract_x
_atom_site_fract_y
_atom_site_fract_z
Si Si1 0.687024 0.364750 0.372699
Si Si2 0.450342 0.871458 0.729104
Si Si3 0.178152 0.790389 0.062047
Si Si4 0.397991 0.702945 0.214976
Si Si5 0.640969 0.597274 0.441020
Si Si6 0.531475 0.109845 0.279167
Si Si7 0.648516 0.260248 0.745671
O O1 0.609032 0.342124 0.281497
O O2 0.790099 0.274433 0.243497
O O3 0.705593 0.488026 0.340785
O O4 0.662530 0.340192 0.583987
O O5 0.500000 0.868339 0.500000
O O6 0.532175 0.788396 0.743748
O O7 0.469263 0.989876 0.764335
O O8 0.310396 0.841813 0.904175
O O9 0.160386 0.667357 0.116760
O O10 0.113333 0.807145 0.950711
O O11 0.359463 0.609702 0.365500
O O12 0.500000 0.662123 0.000000
O O13 0.500000 0.600326 0.500000
O O14 0.724353 0.698106 0.323327
O O15 0.500000 0.120306 0.500000
O O16 0.433984 0.170904 0.260039
#
# Coordination Sequence:
#
# PCOD9129614 Si02
#       7
#     4   4   4   4   4   4   4
#     4  11  25  46  72 107 150 192 246 310 378 445
#     4  11  24  46  75 110 147 199 252 314 371 450
#     4  12  25  45  75 108 144 196 249 310 376 437
#     4  11  22  45  72 103 147 192 252 304 369 452
#     4  11  26  46  75 106 151 192 244 317 384 437
#     4  11  25  47  78 107 152 199 256 309 372 454
#     4  11  25  48  75 107 148 196 254 306 368 458
#
# _framework density 24.230678000000001
#
# number of rings (size 3 to 8) (size 9 to 14) (size 15 to 20)
#    0.000    0.857    2.857    4.286    4.000    2.286 
#    2.571    0.000    0.000    0.000    0.000    0.000 
#    0.000    0.000    0.000    0.000    0.000    0.000 
#
# Total GULP energy -78065.808641 kJ/mol
# GULP energy per Si atom -5576.129189 kJ/mol
# Density = 2.417553 g / cm^3
# Si number density = 24.230678 Si / 1000 Ang^3
#
#
#
# Elastic Constant Matrix: (Units=GPa)
#
#
# Indices 1 2 3 4 5 6 
#
# 1 100.2665 18.3891 7.4855 0.0000 4.4856 0.0000
# 2 18.3891 69.8476 15.9879 0.0000 8.6088 0.0000
# 3 7.4855 15.9879 130.3485 0.0000 33.3153 0.0000
# 4 0.0000 0.0000 0.0000 7.9548 0.0000 -12.8453
# 5 4.4856 8.6088 33.3153 0.0000 42.1738 0.0000
# 6 0.0000 0.0000 0.0000 -12.8453 0.0000 -5.2930
#
#
#
# Elastic Compliance Matrix: (Units=1/GPa)
#
#
# Indices 1 2 3 4 5 6 
#
# 1 0.010495 -0.002671 -0.000162 0.000000 -0.000443 0.000000
# 2 -0.002671 0.015543 -0.001271 0.000000 -0.001884 0.000000
# 3 -0.000162 -0.001271 0.009731 0.000000 -0.007410 0.000000
# 4 0.000000 0.000000 0.000000 0.025557 0.000000 -0.062023
# 5 -0.000443 -0.001884 -0.007410 0.000000 0.029997 0.000000
# 6 0.000000 0.000000 0.000000 -0.062023 0.000000 -0.038409
#
#
# Mechanical properties :
#
#
# Convention : Reuss Voigt Hill
#
# Bulk Modulus (GPa) = 36.28414 42.68749 39.48582
# Shear Modulus (GPa) = 71.11349 26.20714 48.66032
#
# Velocity S-wave (km/s) = 5.42331 3.29229 4.48617
# Velocity P-wave (km/s) = 7.36365 5.66636 6.57004
#
# Compressibility (1/GPa) = 0.02756025
#
# Stress axis : x y z
#
# Youngs Moduli (GPa) = 95.28097 64.33558 102.76498
#
# Poissons Ratio (x) = 0.17187 0.01662
# Poissons Ratio (y) = 0.25454 0.13066
# Poissons Ratio (z) = 0.01541 0.08180
#
# Static dielectric constant tensor:
#      x y z
#    x 2.238210 0.000000 -0.295070 
#    y 0.000000 1.843490 0.000000 
#    z -0.295070 0.000000 2.583580 
# 
# From -- ./inp_files/23797.got.cif
#   From: 2010.05.17/outbox.cif.g08.bks.cpg/sg5_12_cif.got.tgz:23797.got - 2010.06.03 18:56:24.
