data_PCOD9129128
_publ_section_title
;
Structure prediction by ZEFSAII (Michael W. Deem and Ramdas Pophale) SiO2 
 PCOD9129128
Probable space group: C 2
;
_chemical_formula_sum "Si O2"
_cell_formula_units_Z 16
_cell_length_a 5.366148
_cell_length_b 19.522714
_cell_length_c 5.544951
_cell_angle_alpha 90.000000
_cell_angle_beta 90.806456
_cell_angle_gamma 90.000000
_cell_volume 580.841355
_symmetry_space_group_name_H-M "C 2"
_symmetry_group_IT_number 5
_symmetry_cell_setting 'monoclinic'
loop_
_space_group_symop_operation_xyz
x,y,z
-x,y,-z
1/2+x,1/2+y,z
1/2-x,1/2+y,-z
loop_
_atom_site_type_symbol
_atom_site_label
_atom_site_fract_x
_atom_site_fract_y
_atom_site_fract_z
Si Si1 0.500000 0.533921 0.000000
Si Si2 0.000000 0.814210 0.500000
Si Si3 0.255625 0.199323 0.163450
Si Si4 0.754808 0.073896 0.442136
Si Si5 0.748689 0.398593 0.133579
O O1 0.681430 0.581235 0.838605
O O2 0.298814 0.479705 0.893980
O O3 0.160288 0.763881 0.673762
O O4 0.208310 0.864304 0.388841
O O5 0.237969 0.138264 0.370751
O O6 0.500000 0.188695 0.000000
O O7 0.000000 0.210088 0.000000
O O8 0.500000 0.038754 0.500000
O O9 0.000000 0.030271 0.500000
O O10 0.500000 0.370130 0.000000
O O11 0.000000 0.381151 0.000000
#
# Coordination Sequence:
#
# PCOD9129128 Si02
#       5
#     2   2   4   4   4
#     4  10  30  52  86 124 172 218 296 350 430 518
#     4  12  28  54  90 122 176 232 276 366 438 506
#     4  12  30  55  82 132 175 225 291 350 434 525
#     4  12  29  50  83 122 172 229 280 356 428 511
#     4  10  27  52  79 127 164 218 291 348 422 517
#
# _framework density 27.546251000000002
#
# number of rings (size 3 to 8) (size 9 to 14) (size 15 to 20)
#    0.750    0.000    1.250    2.250   10.500    7.000 
#    2.250    0.000    0.000    0.000    0.000    0.000 
#    0.000    0.000    0.000    0.000    0.000    0.000 
#
# Total GULP energy -44594.128157 kJ/mol
# GULP energy per Si atom -5574.266020 kJ/mol
# Density = 2.748355 g / cm^3
# Si number density = 27.546251 Si / 1000 Ang^3
#
#
#
# Elastic Constant Matrix: (Units=GPa)
#
#
# Indices 1 2 3 4 5 6 
#
# 1 283.5512 69.0841 115.1584 0.0000 -38.3726 0.0000
# 2 69.0841 114.7247 94.2818 0.0000 -2.5469 0.0000
# 3 115.1584 94.2818 194.5494 0.0000 -53.7381 0.0000
# 4 0.0000 0.0000 0.0000 52.4340 0.0000 -22.2348
# 5 -38.3726 -2.5469 -53.7381 0.0000 82.4380 0.0000
# 6 0.0000 0.0000 0.0000 -22.2348 0.0000 -1.0712
#
#
#
# Elastic Compliance Matrix: (Units=1/GPa)
#
#
# Indices 1 2 3 4 5 6 
#
# 1 0.004744 -0.001213 -0.001977 0.000000 0.000882 0.000000
# 2 -0.001213 0.016739 -0.009034 0.000000 -0.005936 0.000000
# 3 -0.001977 -0.009034 0.012631 0.000000 0.007035 0.000000
# 4 0.000000 0.000000 0.000000 0.001946 0.000000 -0.040386
# 5 0.000882 -0.005936 0.007035 0.000000 0.016943 0.000000
# 6 0.000000 0.000000 0.000000 -0.040386 0.000000 -0.095239
#
#
# Mechanical properties :
#
#
# Convention : Reuss Voigt Hill
#
# Bulk Modulus (GPa) = 103.43643 127.76378 115.60010
# Shear Modulus (GPa) = -343.27870 47.71356 -147.78257
#
# Velocity S-wave (km/s) = -11.17540 4.16640 -7.33249
# Velocity P-wave (km/s) = 11.35288 8.34430 5.44336
#
# Compressibility (1/GPa) = 0.00966777
#
# Stress axis : x y z
#
# Youngs Moduli (GPa) = 210.77216 59.74022 79.16815
#
# Poissons Ratio (x) = 0.07245 0.15651
# Poissons Ratio (y) = 0.25561 0.71520
# Poissons Ratio (z) = 0.41669 0.53969
#
# Static dielectric constant tensor:
#      x y z
#    x 2.206450 0.000000 0.159750 
#    y 0.000000 2.097470 0.000000 
#    z 0.159750 0.000000 3.283600 
# 
# From -- ./inp_files/749.got.cif
#   From: 2010.05.17/outbox.cif.g08.bks.cpg/sg5_1_cif.got.tgz:749.got - 2010.06.03 18:56:24.
