data_PCOD9129498
_publ_section_title
;
Structure prediction by ZEFSAII (Michael W. Deem and Ramdas Pophale) SiO2 
 PCOD9129498
Probable space group: C 2
;
_chemical_formula_sum "Si O2"
_cell_formula_units_Z 24
_cell_length_a 10.690970
_cell_length_b 11.174205
_cell_length_c 17.436815
_cell_angle_alpha 90.000000
_cell_angle_beta 148.542088
_cell_angle_gamma 90.000000
_cell_volume 1087.088701
_symmetry_space_group_name_H-M "C 2"
_symmetry_group_IT_number 5
_symmetry_cell_setting 'monoclinic'
loop_
_space_group_symop_operation_xyz
x,y,z
-x,y,-z
1/2+x,1/2+y,z
1/2-x,1/2+y,-z
loop_
_atom_site_type_symbol
_atom_site_label
_atom_site_fract_x
_atom_site_fract_y
_atom_site_fract_z
Si Si1 0.000000 0.809280 0.500000
Si Si2 0.172867 0.085407 0.160874
Si Si3 0.407431 0.826135 0.808470
Si Si4 0.100528 0.946798 0.776050
Si Si5 0.037516 0.837687 0.899537
Si Si6 0.000000 0.635771 0.000000
Si Si7 0.626435 0.077684 0.485695
O O1 0.222528 0.877766 0.650531
O O2 0.126330 0.719931 0.504427
O O3 0.113901 0.181913 0.196839
O O4 0.460536 0.072507 0.322894
O O5 0.091051 0.951939 0.133659
O O6 0.000000 0.125634 0.000000
O O7 0.288572 0.873822 0.823501
O O8 0.679642 0.855235 0.937936
O O9 0.877780 0.008503 0.615770
O O10 0.010251 0.854946 0.794072
O O11 0.267913 0.054243 0.895020
O O12 0.959148 0.719679 0.904130
O O13 0.500000 0.031245 0.500000
#
# Coordination Sequence:
#
# PCOD9129498 Si02
#       7
#     2   4   4   4   4   2   4
#     4   8  18  40  60  92 124 182 228 264 350 404
#     4  11  22  41  63 100 125 173 232 267 347 403
#     4  11  23  39  69  95 136 182 225 294 340 411
#     4  12  23  44  67 101 140 178 233 283 350 410
#     4  12  22  41  67  96 132 179 227 283 342 410
#     4  12  26  42  70 104 136 184 232 290 344 408
#     4   9  19  40  66  86 133 180 212 286 332 403
#
# _framework density 22.077314999999999
#
# number of rings (size 3 to 8) (size 9 to 14) (size 15 to 20)
#    0.500    0.667    4.167    3.000    0.000    1.333 
#    6.000    0.000    0.000    0.000    0.000    0.000 
#    0.000    0.000    0.000    0.000    0.000    0.000 
#
# Total GULP energy -66820.797663 kJ/mol
# GULP energy per Si atom -5568.399805 kJ/mol
# Density = 2.202707 g / cm^3
# Si number density = 22.077315 Si / 1000 Ang^3
#
#
#
# Elastic Constant Matrix: (Units=GPa)
#
#
# Indices 1 2 3 4 5 6 
#
# 1 43.7211 10.3415 -2.9399 0.0005 -2.6876 0.0004
# 2 10.3415 61.4249 1.4253 0.0006 0.4936 0.0005
# 3 -2.9399 1.4253 131.9571 0.0015 -3.1159 0.0013
# 4 0.0005 0.0006 0.0015 32.0843 0.0008 -2.3968
# 5 -2.6876 0.4936 -3.1159 0.0008 25.0846 0.0009
# 6 0.0004 0.0005 0.0013 -2.3968 0.0009 -30.1457
#
#
#
# Elastic Compliance Matrix: (Units=1/GPa)
#
#
# Indices 1 2 3 4 5 6 
#
# 1 0.024050 -0.004086 0.000645 0.000000 0.002737 0.000000
# 2 -0.004086 0.016981 -0.000294 0.000000 -0.000808 0.000000
# 3 0.000645 -0.000294 0.007620 0.000000 0.001021 0.000000
# 4 0.000000 0.000000 0.000000 0.030984 -0.000001 -0.002463
# 5 0.002737 -0.000808 0.001021 -0.000001 0.040301 0.000001
# 6 0.000000 0.000000 0.000000 -0.002463 0.000001 -0.032976
#
#
# Mechanical properties :
#
#
# Convention : Reuss Voigt Hill
#
# Bulk Modulus (GPa) = 24.28278 28.30632 26.29455
# Shear Modulus (GPa) = 46.22892 20.62304 33.42598
#
# Velocity S-wave (km/s) = 4.58094 3.05967 3.89529
# Velocity P-wave (km/s) = 6.24523 5.03303 5.67161
#
# Compressibility (1/GPa) = 0.04118145
#
# Stress axis : x y z
#
# Youngs Moduli (GPa) = 41.57947 58.88836 131.23584
#
# Poissons Ratio (x) = 0.24062 -0.08459
# Poissons Ratio (y) = 0.16990 0.03852
# Poissons Ratio (z) = -0.02680 0.01729
#
# Static dielectric constant tensor:
#      x y z
#    x 1.913960 0.000000 -0.082110 
#    y 0.000000 1.824990 0.000000 
#    z -0.082110 0.000000 1.944520 
# 
# From -- ./inp_files/60523.got.cif
#   From: 2010.05.17/outbox.cif.g08.bks.cpg/sg5_31_cif.got.tgz:60523.got - 2010.06.03 18:56:24.
