data_PCOD9129224
_publ_section_title
;
Structure prediction by ZEFSAII (Michael W. Deem and Ramdas Pophale) SiO2 
 PCOD9129224
Probable space group: C 2
;
_chemical_formula_sum "Si O2"
_cell_formula_units_Z 20
_cell_length_a 23.100626
_cell_length_b 4.845216
_cell_length_c 7.980643
_cell_angle_alpha 90.000000
_cell_angle_beta 87.375042
_cell_angle_gamma 90.000000
_cell_volume 892.316323
_symmetry_space_group_name_H-M "C 2"
_symmetry_group_IT_number 5
_symmetry_cell_setting 'monoclinic'
loop_
_space_group_symop_operation_xyz
x,y,z
-x,y,-z
1/2+x,1/2+y,z
1/2-x,1/2+y,-z
loop_
_atom_site_type_symbol
_atom_site_label
_atom_site_fract_x
_atom_site_fract_y
_atom_site_fract_z
Si Si1 0.211718 0.123620 0.005303
Si Si2 0.887476 0.286755 0.745841
Si Si3 0.431081 0.296625 0.544366
Si Si4 0.114178 0.126434 0.768488
Si Si5 0.434987 0.110547 0.055599
O O1 0.175431 0.189768 0.179517
O O2 0.269670 0.306305 0.001013
O O3 0.177079 0.197826 0.837392
O O4 0.897608 0.515954 0.599398
O O5 0.909617 0.446848 0.904437
O O6 0.925023 0.018129 0.695785
O O7 0.500000 0.252690 0.500000
O O8 0.397481 0.463001 0.401290
O O9 0.074942 0.400387 0.787966
O O10 0.094347 0.898561 0.905532
O O11 0.500000 0.163522 0.000000
#
# Coordination Sequence:
#
# PCOD9129224 Si02
#       5
#     4   4   4   4   4
#     4  11  23  44  68  88 117 165 220 272 302 340
#     4  11  23  39  63  92 124 166 210 248 306 376
#     4  12  23  40  62  98 138 163 187 248 320 384
#     4  11  23  38  62  92 123 163 208 252 308 372
#     4  11  20  37  60  90 123 165 209 250 298 372
#
# _framework density 22.413575999999999
#
# number of rings (size 3 to 8) (size 9 to 14) (size 15 to 20)
#    0.000    0.800    0.000   10.800    0.000    0.000 
#    0.000    4.000    0.000    2.400    0.000    0.000 
#    0.000    0.000    0.000    0.000    0.000    0.000 
#
# Total GULP energy -55855.783170 kJ/mol
# GULP energy per Si atom -5585.578317 kJ/mol
# Density = 2.236256 g / cm^3
# Si number density = 22.413576 Si / 1000 Ang^3
#
#
#
# Elastic Constant Matrix: (Units=GPa)
#
#
# Indices 1 2 3 4 5 6 
#
# 1 86.8966 0.0375 31.7117 0.0000 -9.6797 0.0000
# 2 0.0375 118.3505 7.4161 0.0000 -15.3242 0.0000
# 3 31.7117 7.4161 109.2800 0.0000 -3.8277 0.0000
# 4 0.0000 0.0000 0.0000 56.4628 0.0000 -24.1835
# 5 -9.6797 -15.3242 -3.8277 0.0000 28.7616 0.0000
# 6 0.0000 0.0000 0.0000 -24.1835 0.0000 63.9290
#
#
#
# Elastic Compliance Matrix: (Units=1/GPa)
#
#
# Indices 1 2 3 4 5 6 
#
# 1 0.013381 0.000806 -0.003783 0.000000 0.004430 0.000000
# 2 0.000806 0.009146 -0.000678 0.000000 0.005054 0.000000
# 3 -0.003783 -0.000678 0.010285 0.000000 -0.000265 0.000000
# 4 0.000000 0.000000 0.000000 0.021135 0.000000 0.007995
# 5 0.004430 0.005054 -0.000265 0.000000 0.038917 0.000000
# 6 0.000000 0.000000 0.000000 0.007995 0.000000 0.018667
#
#
# Mechanical properties :
#
#
# Convention : Reuss Voigt Hill
#
# Bulk Modulus (GPa) = 39.20831 43.65086 41.42959
# Shear Modulus (GPa) = 39.26453 48.18812 43.72633
#
# Velocity S-wave (km/s) = 4.19001 4.64179 4.42167
# Velocity P-wave (km/s) = 6.39839 6.94591 6.67777
#
# Compressibility (1/GPa) = 0.02550480
#
# Stress axis : x y z
#
# Youngs Moduli (GPa) = 74.73018 109.33596 97.22717
#
# Poissons Ratio (x) = -0.08817 0.36778
# Poissons Ratio (y) = -0.06026 0.06589
# Poissons Ratio (z) = 0.28268 0.07409
#
# Static dielectric constant tensor:
#      x y z
#    x 1.716860 0.000000 -0.004410 
#    y 0.000000 1.779280 0.000000 
#    z -0.004410 0.000000 1.965920 
# 
# From -- ./inp_files/28322.got.cif
#   From: 2010.05.17/outbox.cif.g08.bks.cpg/sg5_15_cif.got.tgz:28322.got - 2010.06.03 18:56:24.
