data_PCOD9129144
_publ_section_title
;
Structure prediction by ZEFSAII (Michael W. Deem and Ramdas Pophale) SiO2 
 PCOD9129144
Probable space group: C 2
;
_chemical_formula_sum "Si O2"
_cell_formula_units_Z 28
_cell_length_a 27.899937
_cell_length_b 7.713324
_cell_length_c 11.976050
_cell_angle_alpha 90.000000
_cell_angle_beta 27.058318
_cell_angle_gamma 90.000000
_cell_volume 1172.388717
_symmetry_space_group_name_H-M "C 2"
_symmetry_group_IT_number 5
_symmetry_cell_setting 'monoclinic'
loop_
_space_group_symop_operation_xyz
x,y,z
-x,y,-z
1/2+x,1/2+y,z
1/2-x,1/2+y,-z
loop_
_atom_site_type_symbol
_atom_site_label
_atom_site_fract_x
_atom_site_fract_y
_atom_site_fract_z
Si Si1 0.500000 0.813840 0.000000
Si Si2 0.054475 0.180643 0.643961
Si Si3 0.719835 0.996867 0.588694
Si Si4 0.014316 0.570466 0.673686
Si Si5 0.782547 0.666502 0.197071
Si Si6 0.500000 0.336864 0.500000
Si Si7 0.294428 0.197147 0.591908
Si Si8 0.854112 0.023818 0.948691
O O1 0.466891 0.709937 0.179692
O O2 0.398703 0.926264 0.176495
O O3 0.050213 0.370308 0.593484
O O4 0.170072 0.103848 0.386444
O O5 0.961744 0.064614 0.790138
O O6 0.781136 0.868312 0.545120
O O7 0.722141 0.171590 0.658984
O O8 0.752546 0.055095 0.397938
O O9 0.085823 0.651112 0.624488
O O10 0.026160 0.703329 0.546284
O O11 0.888894 0.561886 0.952840
O O12 0.799843 0.851104 0.105923
O O13 0.400928 0.463307 0.732589
O O14 0.226184 0.175776 0.847389
#
# Coordination Sequence:
#
# PCOD9129144 Si02
#       8
#     2   4   4   4   4   2   4   4
#     4  12  20  42  64 106 154 184 234 288 356 464
#     4  12  24  45  75 104 151 194 236 298 373 450
#     4  12  23  40  71 113 152 199 231 292 376 455
#     4  11  24  50  71 102 146 195 246 316 358 432
#     4  11  24  44  70 110 150 188 243 292 360 455
#     4  10  28  50  70 104 142 186 274 308 368 426
#     4  12  23  44  76 108 157 193 241 304 373 448
#     4  11  24  48  70 107 142 188 252 312 357 442
#
# _framework density 23.882863
#
# number of rings (size 3 to 8) (size 9 to 14) (size 15 to 20)
#    0.000    0.571    5.714    1.714    4.000    0.571 
#    5.143    0.000    0.000    0.000    0.000    0.000 
#    0.000    0.000    0.000    0.000    0.000    0.000 
#
# Total GULP energy -78152.023202 kJ/mol
# GULP energy per Si atom -5582.287372 kJ/mol
# Density = 2.382850 g / cm^3
# Si number density = 23.882863 Si / 1000 Ang^3
#
#
#
# Elastic Constant Matrix: (Units=GPa)
#
#
# Indices 1 2 3 4 5 6 
#
# 1 69.0331 16.0683 26.2528 0.0000 -11.6138 0.0000
# 2 16.0683 59.7366 8.5030 0.0000 0.3308 0.0000
# 3 26.2528 8.5030 116.2055 0.0000 -16.3338 0.0000
# 4 0.0000 0.0000 0.0000 31.5936 0.0000 -1.1558
# 5 -11.6138 0.3308 -16.3338 0.0000 55.5232 0.0000
# 6 0.0000 0.0000 0.0000 -1.1558 0.0000 34.0324
#
#
#
# Elastic Compliance Matrix: (Units=1/GPa)
#
#
# Indices 1 2 3 4 5 6 
#
# 1 0.017116 -0.004165 -0.003187 0.000000 0.002667 0.000000
# 2 -0.004165 0.017942 -0.000531 0.000000 -0.001134 0.000000
# 3 -0.003187 -0.000531 0.009671 0.000000 0.002182 0.000000
# 4 0.000000 0.000000 0.000000 0.031691 0.000000 0.001076
# 5 0.002667 -0.001134 0.002182 0.000000 0.019217 0.000000
# 6 0.000000 0.000000 0.000000 0.001076 0.000000 0.029420
#
#
# Mechanical properties :
#
#
# Convention : Reuss Voigt Hill
#
# Bulk Modulus (GPa) = 34.52763 38.51372 36.52067
# Shear Modulus (GPa) = 33.22715 37.17324 35.20019
#
# Velocity S-wave (km/s) = 3.73400 3.94951 3.84326
# Velocity P-wave (km/s) = 5.75142 6.07941 5.91769
#
# Compressibility (1/GPa) = 0.02896232
#
# Stress axis : x y z
#
# Youngs Moduli (GPa) = 58.42468 55.73383 103.40207
#
# Poissons Ratio (x) = 0.23214 0.32955
# Poissons Ratio (y) = 0.24334 0.05495
# Poissons Ratio (z) = 0.18621 0.02962
#
# Static dielectric constant tensor:
#      x y z
#    x 1.883350 0.000000 0.059680 
#    y 0.000000 2.002590 0.000000 
#    z 0.059680 0.000000 1.964990 
# 
# From -- ./inp_files/47928.got.cif
#   From: 2010.05.17/outbox.cif.g08.bks.cpg/sg5_24_cif.got.tgz:47928.got - 2010.06.03 18:56:24.
