data_PCOD9130980
_publ_section_title
;
Structure prediction by ZEFSAII (Michael W. Deem and Ramdas Pophale) SiO2 
 PCOD9130980
Probable space group: P M
;
_chemical_formula_sum "Si O2"
_cell_formula_units_Z 16
_cell_length_a 12.617145
_cell_length_b 8.810906
_cell_length_c 12.982338
_cell_angle_alpha 90.000000
_cell_angle_beta 144.867549
_cell_angle_gamma 90.000000
_cell_volume 830.531600
_symmetry_space_group_name_H-M "P M"
_symmetry_group_IT_number 6
_symmetry_cell_setting 'monoclinic'
loop_
_space_group_symop_operation_xyz
x,y,z
x,-y,z
loop_
_atom_site_type_symbol
_atom_site_label
_atom_site_fract_x
_atom_site_fract_y
_atom_site_fract_z
Si Si1 0.558190 0.318157 0.767790
Si Si2 0.778457 0.316312 0.149294
Si Si3 0.071836 0.182700 0.872515
Si Si4 0.422394 0.181768 0.265213
Si Si5 0.172949 0.180462 0.519348
Si Si6 0.675620 0.183740 0.648196
Si Si7 0.661420 0.325133 0.276786
Si Si8 0.096988 0.674569 0.673176
O O1 0.544894 0.500000 0.755933
O O2 0.354313 0.247955 0.610869
O O3 0.657369 0.258124 0.744582
O O4 0.673141 0.274419 0.961463
O O5 0.796032 0.500000 0.168405
O O6 0.663270 0.270535 0.159945
O O7 0.982566 0.247175 0.322077
O O8 0.131014 0.257832 0.812437
O O9 0.865996 0.223431 0.742369
O O10 0.078366 0.000000 0.865148
O O11 0.215268 0.229043 0.074988
O O12 0.512170 0.236741 0.442422
O O13 0.545619 0.231091 0.266153
O O14 0.426115 0.000000 0.273482
O O15 0.179239 0.231482 0.644060
O O16 0.170450 0.000000 0.509065
O O17 0.669846 0.000000 0.654163
O O18 0.598134 0.500000 0.229384
O O19 0.875862 0.322081 0.480423
O O20 0.159260 0.500000 0.715609
#
# Coordination Sequence:
#
# PCOD9130980 Si02
#       8
#     2   2   2   2   2   2   2   2
#     4  11  24  42  65  90 122 162 208 254 302 363
#     4   9  21  41  61  88 124 161 201 251 306 357
#     4  10  21  37  58  86 117 155 200 248 301 356
#     4  10  21  36  57  86 118 155 197 243 297 354
#     4  11  23  39  62  92 124 160 203 249 304 364
#     4  10  22  41  59  82 122 161 202 253 300 351
#     4   9  18  34  57  85 118 154 194 240 297 358
#     4  10  20  36  59  87 123 160 197 244 301 359
#
# _framework density 19.264769000000001
#
# number of rings (size 3 to 8) (size 9 to 14) (size 15 to 20)
#    0.000    2.000    1.250    2.625    1.750    5.500 
#    0.000    1.250    0.000    0.000    0.000    0.000 
#    0.000    0.000    0.000    0.000    0.000    0.000 
#
# Total GULP energy -89367.328567 kJ/mol
# GULP energy per Si atom -5585.458035 kJ/mol
# Density = 1.922092 g / cm^3
# Si number density = 19.264769 Si / 1000 Ang^3
#
#
#
# Elastic Constant Matrix: (Units=GPa)
#
#
# Indices 1 2 3 4 5 6 
#
# 1 41.1662 8.3605 12.8142 0.0000 -17.6245 0.0000
# 2 8.3605 26.9438 18.7481 0.0000 -3.2564 0.0000
# 3 12.8142 18.7481 90.0603 0.0000 -24.8075 0.0000
# 4 0.0000 0.0000 0.0000 32.3173 0.0000 8.4758
# 5 -17.6245 -3.2564 -24.8075 0.0000 29.2475 0.0000
# 6 0.0000 0.0000 0.0000 8.4758 0.0000 50.1764
#
#
#
# Elastic Compliance Matrix: (Units=1/GPa)
#
#
# Indices 1 2 3 4 5 6 
#
# 1 0.035207 -0.010607 0.003546 0.000000 0.023042 0.000000
# 2 -0.010607 0.046905 -0.011192 0.000000 -0.010662 0.000000
# 3 0.003546 -0.011192 0.017191 0.000000 0.015472 0.000000
# 4 0.000000 0.000000 0.000000 0.032378 0.000000 -0.005469
# 5 0.023042 -0.010662 0.015472 0.000000 0.060012 0.000000
# 6 0.000000 0.000000 0.000000 -0.005469 0.000000 0.020854
#
#
# Mechanical properties :
#
#
# Convention : Reuss Voigt Hill
#
# Bulk Modulus (GPa) = 15.92451 26.44620 21.18536
# Shear Modulus (GPa) = 18.51959 30.23141 24.37550
#
# Velocity S-wave (km/s) = 3.10388 3.96569 3.56095
# Velocity P-wave (km/s) = 4.59668 5.89291 5.28469
#
# Compressibility (1/GPa) = 0.06279626
#
# Stress axis : x y z
#
# Youngs Moduli (GPa) = 28.40314 21.31990 58.17080
#
# Poissons Ratio (x) = 0.22614 -0.20626
# Poissons Ratio (y) = 0.30127 0.65105
# Poissons Ratio (z) = -0.10071 0.23861
#
# Static dielectric constant tensor:
#      x y z
#    x 1.632390 0.000000 0.005460 
#    y 0.000000 1.644430 0.000000 
#    z 0.005460 0.000000 1.693090 
# 
# From -- ./inp_files/5047.got.cif
#   From: 2010.05.17/outbox.cif.g08.bks.cpg/sg6_3_cif.got.tgz:5047.got - 2010.06.03 19:42:10.
