data_PCOD9130277
_publ_section_title
;
Structure prediction by ZEFSAII (Michael W. Deem and Ramdas Pophale) SiO2 
 PCOD9130277
Probable space group: C 2
;
_chemical_formula_sum "Si O2"
_cell_formula_units_Z 20
_cell_length_a 16.970904
_cell_length_b 5.778477
_cell_length_c 7.740212
_cell_angle_alpha 90.000000
_cell_angle_beta 87.333113
_cell_angle_gamma 90.000000
_cell_volume 758.229359
_symmetry_space_group_name_H-M "C 2"
_symmetry_group_IT_number 5
_symmetry_cell_setting 'monoclinic'
loop_
_space_group_symop_operation_xyz
x,y,z
-x,y,-z
1/2+x,1/2+y,z
1/2-x,1/2+y,-z
loop_
_atom_site_type_symbol
_atom_site_label
_atom_site_fract_x
_atom_site_fract_y
_atom_site_fract_z
Si Si1 0.406447 0.865840 0.835541
Si Si2 0.206531 0.683216 0.978103
Si Si3 0.820602 0.382270 0.517363
Si Si4 0.355758 0.330938 0.387075
Si Si5 0.573587 0.707675 0.784965
O O1 0.497024 0.862924 0.768982
O O2 0.353161 0.762136 0.687378
O O3 0.408071 0.712948 0.013366
O O4 0.367953 0.107661 0.897541
O O5 0.175454 0.727590 0.790189
O O6 0.254595 0.434487 0.979605
O O7 0.727946 0.436459 0.531647
O O8 0.868992 0.623815 0.516310
O O9 0.850533 0.281812 0.333458
O O10 0.433464 0.464973 0.315082
#
# Coordination Sequence:
#
# PCOD9130277 Si02
#       5
#     4   4   4   4   4
#     4  11  26  49  81 109 165 215 273 344 423 498
#     4  12  26  48  82 124 159 216 285 342 420 503
#     4  12  25  46  78 116 153 215 272 343 416 489
#     4  12  26  45  83 115 167 211 283 354 411 510
#     4  11  26  54  71 118 163 214 279 340 425 498
#
# _framework density 26.377244999999998
#
# number of rings (size 3 to 8) (size 9 to 14) (size 15 to 20)
#    0.000    0.400    6.000    1.800    2.800    0.000 
#   10.800    2.000    0.000    0.000    0.000    0.000 
#    0.000    0.000    0.000    0.000    0.000    0.000 
#
# Total GULP energy -55712.443096 kJ/mol
# GULP energy per Si atom -5571.244310 kJ/mol
# Density = 2.631721 g / cm^3
# Si number density = 26.377245 Si / 1000 Ang^3
#
#
#
# Elastic Constant Matrix: (Units=GPa)
#
#
# Indices 1 2 3 4 5 6 
#
# 1 94.3632 32.7035 27.1715 0.0000 -24.1494 0.0000
# 2 32.7035 74.9422 -1.0115 0.0000 -18.6993 0.0000
# 3 27.1715 -1.0115 133.3731 0.0000 -17.2491 0.0000
# 4 0.0000 0.0000 0.0000 49.4264 0.0000 -10.0566
# 5 -24.1494 -18.6993 -17.2491 0.0000 48.4189 0.0000
# 6 0.0000 0.0000 0.0000 -10.0566 0.0000 14.7647
#
#
#
# Elastic Compliance Matrix: (Units=1/GPa)
#
#
# Indices 1 2 3 4 5 6 
#
# 1 0.014147 -0.005153 -0.002375 0.000000 0.004220 0.000000
# 2 -0.005153 0.016745 0.001762 0.000000 0.004525 0.000000
# 3 -0.002375 0.001762 0.008313 0.000000 0.002457 0.000000
# 4 0.000000 0.000000 0.000000 0.023487 0.000000 0.015998
# 5 0.004220 0.004525 0.002457 0.000000 0.025380 0.000000
# 6 0.000000 0.000000 0.000000 0.015998 0.000000 0.078625
#
#
# Mechanical properties :
#
#
# Convention : Reuss Voigt Hill
#
# Bulk Modulus (GPa) = 36.13724 46.71172 41.42448
# Shear Modulus (GPa) = 26.67318 38.77633 32.72476
#
# Velocity S-wave (km/s) = 3.18342 3.83831 3.52610
# Velocity P-wave (km/s) = 5.21940 6.11482 5.68476
#
# Compressibility (1/GPa) = 0.02767229
#
# Stress axis : x y z
#
# Youngs Moduli (GPa) = 70.68605 59.71966 120.29585
#
# Poissons Ratio (x) = 0.30772 0.28576
# Poissons Ratio (y) = 0.36422 -0.21195
# Poissons Ratio (z) = 0.16791 -0.10522
#
# Static dielectric constant tensor:
#      x y z
#    x 2.067800 0.000000 -0.050910 
#    y 0.000000 2.720390 0.000000 
#    z -0.050910 0.000000 2.055190 
# 
# From -- ./inp_files/25990.got.cif
#   From: 2010.05.17/outbox.cif.g08.bks.cpg/sg5_13_cif.got.tgz:25990.got - 2010.06.03 18:56:24.
