data_PCOD9130769
_publ_section_title
;
Structure prediction by ZEFSAII (Michael W. Deem and Ramdas Pophale) SiO2 
 PCOD9130769
Probable space group: P M
;
_chemical_formula_sum "Si O2"
_cell_formula_units_Z 14
_cell_length_a 14.238307
_cell_length_b 10.493893
_cell_length_c 15.186333
_cell_angle_alpha 90.000000
_cell_angle_beta 159.740527
_cell_angle_gamma 90.000000
_cell_volume 785.715805
_symmetry_space_group_name_H-M "P M"
_symmetry_group_IT_number 6
_symmetry_cell_setting 'monoclinic'
loop_
_space_group_symop_operation_xyz
x,y,z
x,-y,z
loop_
_atom_site_type_symbol
_atom_site_label
_atom_site_fract_x
_atom_site_fract_y
_atom_site_fract_z
Si Si1 0.321690 0.155520 0.005310
Si Si2 0.459663 0.262176 0.608542
Si Si3 0.711962 0.845637 0.501903
Si Si4 0.831678 0.856156 0.804425
Si Si5 0.253299 0.845684 0.610365
Si Si6 0.037025 0.641012 0.096180
Si Si7 0.640749 0.154735 0.111841
O O1 0.471480 0.198164 0.226596
O O2 0.493952 0.197365 0.072144
O O3 0.321636 0.000000 0.005232
O O4 0.007594 0.193857 0.725359
O O5 0.589782 0.149356 0.663197
O O6 0.334008 0.212846 0.587914
O O7 0.726788 0.348124 0.857980
O O8 0.241332 0.330162 0.354786
O O9 0.717043 0.812615 0.609485
O O10 0.702055 0.000000 0.490805
O O11 0.043029 0.753594 0.028791
O O12 0.941487 0.000000 0.893234
O O13 0.952075 0.806185 0.375030
O O14 0.256794 0.000000 0.605686
O O15 0.467055 0.808791 0.873684
O O16 0.085795 0.500000 0.103061
O O17 0.640838 0.000000 0.115094
#
# Coordination Sequence:
#
# PCOD9130769 Si02
#       7
#     2   2   2   2   2   2   2
#     4   9  16  27  41  62  95 138 170 202 249 306
#     4  10  21  34  53  73 105 138 171 217 257 307
#     4   9  17  27  43  66  97 131 171 205 249 307
#     4   9  21  34  53  80 109 141 174 215 261 311
#     4  10  18  29  45  71 101 135 172 208 255 310
#     4  10  22  38  55  73 105 145 179 217 254 305
#     4   9  17  27  42  63  98 138 173 206 251 308
#
# _framework density 17.818148000000001
#
# number of rings (size 3 to 8) (size 9 to 14) (size 15 to 20)
#    0.857    1.714    0.000    2.571    2.000    4.571 
#    0.000    0.000    0.000    0.000    0.000    0.000 
#    0.000   22.857    0.000    0.000    0.000    0.000 
#
# Total GULP energy -77947.778728 kJ/mol
# GULP energy per Si atom -5567.698481 kJ/mol
# Density = 1.777759 g / cm^3
# Si number density = 17.818148 Si / 1000 Ang^3
#
#
#
# Elastic Constant Matrix: (Units=GPa)
#
#
# Indices 1 2 3 4 5 6 
#
# 1 62.2969 2.1999 -11.8687 0.0000 -6.7008 0.0000
# 2 2.1999 47.7665 12.0804 0.0000 -8.6183 0.0000
# 3 -11.8687 12.0804 87.2729 0.0000 -3.2689 0.0000
# 4 0.0000 0.0000 0.0000 -12.0723 0.0000 8.9896
# 5 -6.7008 -8.6183 -3.2689 0.0000 23.9988 0.0000
# 6 0.0000 0.0000 0.0000 8.9896 0.0000 -6.3287
#
#
#
# Elastic Compliance Matrix: (Units=1/GPa)
#
#
# Indices 1 2 3 4 5 6 
#
# 1 0.017094 -0.000552 0.002586 0.000000 0.004927 0.000000
# 2 -0.000552 0.023112 -0.002984 0.000000 0.007739 0.000000
# 3 0.002586 -0.002984 0.012273 0.000000 0.001322 0.000000
# 4 0.000000 0.000000 0.000000 1.435019 0.000000 2.038359
# 5 0.004927 0.007739 0.001322 0.000000 0.046004 0.000000
# 6 0.000000 0.000000 0.000000 2.038359 0.000000 2.737357
#
#
# Mechanical properties :
#
#
# Convention : Reuss Voigt Hill
#
# Bulk Modulus (GPa) = 19.77197 22.46215 21.11706
# Shear Modulus (GPa) = 1.16560 14.11453 7.64007
#
# Velocity S-wave (km/s) = 0.80968 2.81756 2.07295
# Velocity P-wave (km/s) = 3.46334 4.81856 4.19603
#
# Compressibility (1/GPa) = 0.05057666
#
# Stress axis : x y z
#
# Youngs Moduli (GPa) = 58.49920 43.26816 81.48255
#
# Poissons Ratio (x) = 0.02390 -0.21069
# Poissons Ratio (y) = 0.03231 0.24317
# Poissons Ratio (z) = -0.15126 0.12913
#
# Static dielectric constant tensor:
#      x y z
#    x 1.610880 0.000000 0.015700 
#    y 0.000000 1.601170 0.000000 
#    z 0.015700 0.000000 1.620640 
# 
# From -- ./inp_files/1588.got.cif
#   From: 2010.05.17/outbox.cif.g08.bks.cpg/sg6_1_cif.got.tgz:1588.got - 2010.06.03 19:42:10.
