data_PCOD9130223
_publ_section_title
;
Structure prediction by ZEFSAII (Michael W. Deem and Ramdas Pophale) SiO2 
 PCOD9130223
Probable space group: C 2
;
_chemical_formula_sum "Si O2"
_cell_formula_units_Z 20
_cell_length_a 10.146219
_cell_length_b 7.662397
_cell_length_c 11.127951
_cell_angle_alpha 90.000000
_cell_angle_beta 88.765061
_cell_angle_gamma 90.000000
_cell_volume 864.934459
_symmetry_space_group_name_H-M "C 2"
_symmetry_group_IT_number 5
_symmetry_cell_setting 'monoclinic'
loop_
_space_group_symop_operation_xyz
x,y,z
-x,y,-z
1/2+x,1/2+y,z
1/2-x,1/2+y,-z
loop_
_atom_site_type_symbol
_atom_site_label
_atom_site_fract_x
_atom_site_fract_y
_atom_site_fract_z
Si Si1 0.623208 0.116820 0.416046
Si Si2 0.646881 0.258612 0.973660
Si Si3 0.139255 0.382076 0.855170
Si Si4 0.137387 0.328551 0.219393
Si Si5 0.704814 0.496525 0.374519
O O1 0.500000 0.066850 0.500000
O O2 0.618491 0.323169 0.391576
O O3 0.624589 0.003827 0.296310
O O4 0.746844 0.064529 0.497292
O O5 0.731614 0.340246 0.863491
O O6 0.632254 0.060022 0.931117
O O7 0.500000 0.330153 0.000000
O O8 0.741189 0.276313 0.087213
O O9 0.179365 0.430453 0.717756
O O10 0.994341 0.301328 0.855904
O O11 0.145561 0.162241 0.307033
#
# Coordination Sequence:
#
# PCOD9130223 Si02
#       5
#     4   4   4   4   4
#     4  12  25  46  74 108 154 194 247 304 369 437
#     4  11  26  47  74 108 148 197 245 312 374 436
#     4  11  26  48  73 107 152 195 246 312 366 443
#     4  11  25  50  76 110 150 197 251 307 366 442
#     4  11  26  44  74 111 145 201 245 303 368 440
#
# _framework density 23.123139999999999
#
# number of rings (size 3 to 8) (size 9 to 14) (size 15 to 20)
#    0.000    0.800    4.000    1.800    5.600    5.600 
#    0.000    0.000    0.000    0.000    0.000    0.000 
#    0.000    0.000    0.000    0.000    0.000    0.000 
#
# Total GULP energy -55970.065236 kJ/mol
# GULP energy per Si atom -5597.006524 kJ/mol
# Density = 2.307051 g / cm^3
# Si number density = 23.123140 Si / 1000 Ang^3
#
#
#
# Elastic Constant Matrix: (Units=GPa)
#
#
# Indices 1 2 3 4 5 6 
#
# 1 149.4715 26.9242 46.3421 0.0000 8.5526 0.0000
# 2 26.9242 83.2338 24.7601 0.0000 -1.1002 0.0000
# 3 46.3421 24.7601 87.9850 0.0000 11.4402 0.0000
# 4 0.0000 0.0000 0.0000 36.6593 0.0000 -5.5909
# 5 8.5526 -1.1002 11.4402 0.0000 35.9096 0.0000
# 6 0.0000 0.0000 0.0000 -5.5909 0.0000 25.4209
#
#
#
# Elastic Compliance Matrix: (Units=1/GPa)
#
#
# Indices 1 2 3 4 5 6 
#
# 1 0.008182 -0.001534 -0.003775 0.000000 -0.000793 0.000000
# 2 -0.001534 0.013494 -0.003224 0.000000 0.001806 0.000000
# 3 -0.003775 -0.003224 0.014769 0.000000 -0.003905 0.000000
# 4 0.000000 0.000000 0.000000 0.028225 0.000000 0.006208
# 5 -0.000793 0.001806 -0.003905 0.000000 0.029336 0.000000
# 6 0.000000 0.000000 0.000000 0.006208 0.000000 0.040703
#
#
# Mechanical properties :
#
#
# Convention : Reuss Voigt Hill
#
# Bulk Modulus (GPa) = 51.60342 57.41591 54.50966
# Shear Modulus (GPa) = 31.59877 34.44223 33.02050
#
# Velocity S-wave (km/s) = 3.70069 3.86361 3.78303
# Velocity P-wave (km/s) = 6.37380 6.69236 6.53502
#
# Compressibility (1/GPa) = 0.01937856
#
# Stress axis : x y z
#
# Youngs Moduli (GPa) = 122.21455 74.10915 67.71069
#
# Poissons Ratio (x) = 0.11371 0.25559
# Poissons Ratio (y) = 0.18752 0.21829
# Poissons Ratio (z) = 0.46133 0.23892
#
# Static dielectric constant tensor:
#      x y z
#    x 1.903460 0.000000 -0.004730 
#    y 0.000000 1.846980 0.000000 
#    z -0.004730 0.000000 1.875250 
# 
# From -- ./inp_files/34746.got.cif
#   From: 2010.05.17/outbox.cif.g08.bks.cpg/sg5_18_cif.got.tgz:34746.got - 2010.06.03 18:56:24.
