data_PCOD9130300
_publ_section_title
;
Structure prediction by ZEFSAII (Michael W. Deem and Ramdas Pophale) SiO2 
 PCOD9130300
Probable space group: C 2
;
_chemical_formula_sum "Si O2"
_cell_formula_units_Z 18
_cell_length_a 4.942789
_cell_length_b 18.741184
_cell_length_c 7.504665
_cell_angle_alpha 90.000000
_cell_angle_beta 80.428680
_cell_angle_gamma 90.000000
_cell_volume 685.507624
_symmetry_space_group_name_H-M "C 2"
_symmetry_group_IT_number 5
_symmetry_cell_setting 'monoclinic'
loop_
_space_group_symop_operation_xyz
x,y,z
-x,y,-z
1/2+x,1/2+y,z
1/2-x,1/2+y,-z
loop_
_atom_site_type_symbol
_atom_site_label
_atom_site_fract_x
_atom_site_fract_y
_atom_site_fract_z
Si Si1 0.643887 0.310680 0.798437
Si Si2 0.005100 0.014712 0.793545
Si Si3 0.000000 0.555709 0.500000
Si Si4 0.299531 0.151135 0.195706
Si Si5 0.147486 0.391575 0.677155
O O1 0.886348 0.365485 0.815394
O O2 0.759770 0.232246 0.742068
O O3 0.410708 0.341437 0.691840
O O4 0.500000 0.298698 0.000000
O O5 0.765443 0.968104 0.726075
O O6 0.955561 0.099526 0.814339
O O7 0.000000 0.989461 0.000000
O O8 0.090431 0.609507 0.645119
O O9 0.761470 0.510642 0.629610
O O10 0.500000 0.146789 0.000000
O O11 0.000000 0.380990 0.500000
#
# Coordination Sequence:
#
# PCOD9130300 Si02
#       5
#     4   4   2   4   4
#     4  11  28  54  88 123 173 229 290 357 441 520
#     4  12  29  56  90 127 180 231 297 359 440 521
#     4  12  28  52  92 128 168 230 288 366 428 522
#     4  11  27  50  88 129 173 227 293 360 437 521
#     4  12  30  54  81 126 176 229 290 361 437 518
#
# _framework density 26.257911
#
# number of rings (size 3 to 8) (size 9 to 14) (size 15 to 20)
#    0.000    0.444    2.222    2.667   10.889    3.556 
#    4.000    0.000    0.000    0.000    0.000    0.000 
#    0.000    0.000    0.000    0.000    0.000    0.000 
#
# Total GULP energy -50283.153859 kJ/mol
# GULP energy per Si atom -5587.017095 kJ/mol
# Density = 2.619815 g / cm^3
# Si number density = 26.257911 Si / 1000 Ang^3
#
#
#
# Elastic Constant Matrix: (Units=GPa)
#
#
# Indices 1 2 3 4 5 6 
#
# 1 182.3348 70.0185 69.9155 0.0000 4.6682 0.0000
# 2 70.0185 194.6755 40.7010 0.0000 5.5445 0.0000
# 3 69.9155 40.7010 200.6728 0.0000 23.4066 0.0000
# 4 0.0000 0.0000 0.0000 13.2149 0.0000 13.7127
# 5 4.6682 5.5445 23.4066 0.0000 56.6945 0.0000
# 6 0.0000 0.0000 0.0000 13.7127 0.0000 27.3541
#
#
#
# Elastic Compliance Matrix: (Units=1/GPa)
#
#
# Indices 1 2 3 4 5 6 
#
# 1 0.007093 -0.002126 -0.002097 0.000000 0.000490 0.000000
# 2 -0.002126 0.006002 -0.000450 0.000000 -0.000226 0.000000
# 3 -0.002097 -0.000450 0.006072 0.000000 -0.002290 0.000000
# 4 0.000000 0.000000 0.000000 0.157714 0.000000 -0.079063
# 5 0.000490 -0.000226 -0.002290 0.000000 0.018566 0.000000
# 6 0.000000 0.000000 0.000000 -0.079063 0.000000 0.076192
#
#
# Mechanical properties :
#
#
# Convention : Reuss Voigt Hill
#
# Bulk Modulus (GPa) = 101.83423 104.32813 103.08118
# Shear Modulus (GPa) = 17.58962 45.92257 31.75609
#
# Velocity S-wave (km/s) = 2.59101 4.18653 3.48140
# Velocity P-wave (km/s) = 6.91503 7.94907 7.45001
#
# Compressibility (1/GPa) = 0.00981988
#
# Stress axis : x y z
#
# Youngs Moduli (GPa) = 140.99363 166.60749 164.68401
#
# Poissons Ratio (x) = 0.35429 0.34532
# Poissons Ratio (y) = 0.29982 0.07413
# Poissons Ratio (z) = 0.29565 0.07499
#
# Static dielectric constant tensor:
#      x y z
#    x 2.153430 0.000000 0.055130 
#    y 0.000000 2.081850 0.000000 
#    z 0.055130 0.000000 2.177700 
# 
# From -- ./inp_files/12123.got.cif
#   From: 2010.05.17/outbox.cif.g08.bks.cpg/sg5_7_cif.got.tgz:12123.got - 2010.06.03 18:56:24.
