data_PCOD9130993
_publ_section_title
;
Structure prediction by ZEFSAII (Michael W. Deem and Ramdas Pophale) SiO2 
 PCOD9130993
Probable space group: P M
;
_chemical_formula_sum "Si O2"
_cell_formula_units_Z 16
_cell_length_a 12.861707
_cell_length_b 11.905378
_cell_length_c 5.216877
_cell_angle_alpha 90.000000
_cell_angle_beta 109.601849
_cell_angle_gamma 90.000000
_cell_volume 752.531696
_symmetry_space_group_name_H-M "P M"
_symmetry_group_IT_number 6
_symmetry_cell_setting 'monoclinic'
loop_
_space_group_symop_operation_xyz
x,y,z
x,-y,z
loop_
_atom_site_type_symbol
_atom_site_label
_atom_site_fract_x
_atom_site_fract_y
_atom_site_fract_z
Si Si1 0.606430 0.132664 0.040690
Si Si2 0.371301 0.625761 0.286931
Si Si3 0.953352 0.239520 0.933227
Si Si4 0.169278 0.125231 0.878263
Si Si5 0.724237 0.133813 0.639485
Si Si6 0.416386 0.871906 0.256425
Si Si7 0.975539 0.377816 0.461978
Si Si8 0.228237 0.665892 0.658320
O O1 0.681683 0.180147 0.332973
O O2 0.480668 0.138755 0.036600
O O3 0.629776 0.000000 0.042778
O O4 0.645612 0.178066 0.801707
O O5 0.424225 0.500000 0.341340
O O6 0.309640 0.635973 0.960835
O O7 0.434996 0.745145 0.382058
O O8 0.280427 0.629962 0.435866
O O9 0.849946 0.158328 0.811161
O O10 0.935912 0.335291 0.704347
O O11 0.069752 0.182179 0.952530
O O12 0.953835 0.289961 0.217133
O O13 0.201699 0.201675 0.662890
O O14 0.136678 0.000000 0.777321
O O15 0.284584 0.121475 0.125900
O O16 0.711584 0.000000 0.610304
O O17 0.450878 0.000000 0.383396
O O18 0.930249 0.500000 0.358764
O O19 0.107954 0.385179 0.594263
#
# Coordination Sequence:
#
# PCOD9130993 Si02
#       8
#     2   2   2   2   2   2   2   2
#     4   9  19  35  57  81 107 146 190 229 270 324
#     4  11  21  35  56  81 113 152 195 236 277 334
#     4  11  22  36  56  84 112 146 184 226 287 341
#     4   9  19  35  55  85 122 151 178 224 290 353
#     4  10  20  37  59  83 111 144 186 232 273 326
#     4   9  19  36  58  86 118 150 187 234 289 343
#     4  11  21  35  54  77 109 146 191 236 274 329
#     4  10  21  35  53  79 111 155 194 225 271 332
#
# _framework density 21.261562999999999
#
# number of rings (size 3 to 8) (size 9 to 14) (size 15 to 20)
#    0.000    2.000    0.000    4.875    0.000    2.500 
#    0.000   13.125    0.000    4.500    0.000    0.000 
#    0.000    0.000    0.000    0.000    0.000    0.000 
#
# Total GULP energy -89152.690232 kJ/mol
# GULP energy per Si atom -5572.043139 kJ/mol
# Density = 2.121317 g / cm^3
# Si number density = 21.261563 Si / 1000 Ang^3
#
#
#
# Elastic Constant Matrix: (Units=GPa)
#
#
# Indices 1 2 3 4 5 6 
#
# 1 72.0469 -3.8490 16.1015 0.0000 13.6588 0.0000
# 2 -3.8490 122.6984 6.7627 0.0000 3.6705 0.0000
# 3 16.1015 6.7627 69.1054 0.0000 4.8264 0.0000
# 4 0.0000 0.0000 0.0000 15.1959 0.0000 -0.2734
# 5 13.6588 3.6705 4.8264 0.0000 29.2345 0.0000
# 6 0.0000 0.0000 0.0000 -0.2734 0.0000 -3.6633
#
#
#
# Elastic Compliance Matrix: (Units=1/GPa)
#
#
# Indices 1 2 3 4 5 6 
#
# 1 0.016006 0.000896 -0.003325 0.000000 -0.007042 0.000000
# 2 0.000896 0.008268 -0.000927 0.000000 -0.001304 0.000000
# 3 -0.003325 -0.000927 0.015397 0.000000 -0.000872 0.000000
# 4 0.000000 0.000000 0.000000 0.065719 0.000000 -0.004905
# 5 -0.007042 -0.001304 -0.000872 0.000000 0.037804 0.000000
# 6 0.000000 0.000000 0.000000 -0.004905 0.000000 -0.272611
#
#
# Mechanical properties :
#
#
# Convention : Reuss Voigt Hill
#
# Bulk Modulus (GPa) = 30.34073 33.54235 31.94154
# Shear Modulus (GPa) = -44.75539 24.47576 -10.13981
#
# Velocity S-wave (km/s) = -4.59299 3.39658 -2.18619
# Velocity P-wave (km/s) = 3.71837 5.58503 2.94672
#
# Compressibility (1/GPa) = 0.03295900
#
# Stress axis : x y z
#
# Youngs Moduli (GPa) = 62.47722 120.94441 64.94757
#
# Poissons Ratio (x) = -0.10837 0.21597
# Poissons Ratio (y) = -0.05598 0.06020
# Poissons Ratio (z) = 0.20775 0.11210
#
# Static dielectric constant tensor:
#      x y z
#    x 1.748010 0.000000 0.006670 
#    y 0.000000 1.855050 0.000000 
#    z 0.006670 0.000000 1.782770 
# 
# From -- ./inp_files/1692.got.cif
#   From: 2010.05.17/outbox.cif.g08.bks.cpg/sg6_1_cif.got.tgz:1692.got - 2010.06.03 19:42:10.
