data_PCOD9130717
_publ_section_title
;
Structure prediction by ZEFSAII (Michael W. Deem and Ramdas Pophale) SiO2 
 PCOD9130717
Probable space group: C 2
;
_chemical_formula_sum "Si O2"
_cell_formula_units_Z 14
_cell_length_a 12.000000
_cell_length_b 9.000000
_cell_length_c 15.000000
_cell_angle_alpha 90.000000
_cell_angle_beta 70.000000
_cell_angle_gamma 90.000000
_cell_volume 1522.302046
_symmetry_space_group_name_H-M "C 2"
_symmetry_group_IT_number 5
_symmetry_cell_setting 'monoclinic'
loop_
_space_group_symop_operation_xyz
x,y,z
-x,y,-z
1/2+x,1/2+y,z
1/2-x,1/2+y,-z
loop_
_atom_site_type_symbol
_atom_site_label
_atom_site_fract_x
_atom_site_fract_y
_atom_site_fract_z
Si Si1 0.861142 0.996340 0.559124
Si Si2 0.826301 0.396213 0.898501
Si Si3 0.700380 0.247784 0.089559
Si Si4 0.817123 0.777822 0.408758
Si Si5 0.950141 0.189049 0.107025
Si Si6 0.229213 0.996458 0.742006
Si Si7 0.907904 0.774102 0.701954
O O1 0.817150 0.869103 0.501721
O O2 0.867248 0.914283 0.653463
O O3 0.000000 0.035207 0.500000
O O4 0.773501 0.138300 0.573694
O O5 0.831585 0.573789 0.917498
O O6 0.782982 0.397608 0.808093
O O7 0.948024 0.301407 0.883161
O O8 0.724635 0.328816 0.990318
O O9 0.827995 0.265276 0.105645
O O10 0.607866 0.305560 0.188138
O O11 0.955622 0.734056 0.356643
O O12 0.785935 0.897241 0.340624
O O13 0.895679 0.069882 0.190934
O O14 0.000000 0.122265 0.000000
O O15 0.321937 0.133410 0.704555
#
# Coordination Sequence:
#
# PCOD9130717 Si02
#       7
#     4   4   4   4   4   4   4
#     4  10  23  41  60  84 110 141 183 231 283 339
#     4   9  18  34  55  81 117 154 188 228 271 319
#     4   9  19  34  55  84 113 150 192 228 272 324
#     4  11  23  39  61  85 109 144 183 228 286 337
#     4   8  16  33  55  76 111 154 185 222 270 313
#     4  10  22  36  56  86 113 148 189 226 275 330
#     4   9  21  39  57  82 114 143 184 233 274 326
#
# _framework density 9.1965979999999998
#
# number of rings (size 3 to 8) (size 9 to 14) (size 15 to 20)
#    0.000    2.857    0.000    0.857    0.000   12.571 
#    0.000    5.714    0.000    0.000    0.000    0.000 
#    0.000    0.000    0.000    0.000    0.000    0.000 
#
# Total GULP energy -78000.767496 kJ/mol
# GULP energy per Si atom -5571.483393 kJ/mol
# Density = 0.917567 g / cm^3
# Si number density = 9.196598 Si / 1000 Ang^3
#
#
#
# Elastic Constant Matrix: (Units=GPa)
#
#
# Indices 1 2 3 4 5 6 
#
# 1 100.5536 58.9832 27.1556 0.0000 -14.7368 0.0000
# 2 58.9832 88.5697 31.5258 0.0000 -11.5583 0.0000
# 3 27.1556 31.5258 48.2459 0.0000 -14.3421 0.0000
# 4 0.0000 0.0000 0.0000 40.9858 0.0000 1.2364
# 5 -14.7368 -11.5583 -14.3421 0.0000 30.2144 0.0000
# 6 0.0000 0.0000 0.0000 1.2364 0.0000 47.2958
#
#
#
# Elastic Compliance Matrix: (Units=1/GPa)
#
#
# Indices 1 2 3 4 5 6 
#
# 1 0.016907 -0.010146 -0.001850 0.000000 0.003487 0.000000
# 2 -0.010146 0.020841 -0.008160 0.000000 -0.000849 0.000000
# 3 -0.001850 -0.008160 0.030160 0.000000 0.010292 0.000000
# 4 0.000000 0.000000 0.000000 0.024418 0.000000 -0.000638
# 5 0.003487 -0.000849 0.010292 0.000000 0.039358 0.000000
# 6 0.000000 0.000000 0.000000 -0.000638 0.000000 0.021160
#
#
# Mechanical properties :
#
#
# Convention : Reuss Voigt Hill
#
# Bulk Modulus (GPa) = 36.23685 52.52205 44.37945
# Shear Modulus (GPa) = 24.70912 31.67951 28.19432
#
# Velocity S-wave (km/s) = 3.66920 4.15462 3.91943
# Velocity P-wave (km/s) = 6.13960 7.18552 6.68305
#
# Compressibility (1/GPa) = 0.02759622
#
# Stress axis : x y z
#
# Youngs Moduli (GPa) = 59.14764 47.98301 33.15620
#
# Poissons Ratio (x) = 0.48682 0.06134
# Poissons Ratio (y) = 0.60009 0.27056
# Poissons Ratio (z) = 0.10943 0.39155
#
# Static dielectric constant tensor:
#      x y z
#    x 1.634180 0.000000 -0.009970 
#    y 0.000000 1.621680 0.000000 
#    z -0.009970 0.000000 1.681860 
# 
# From -- ./inp_files/52234.got.cif
#   From: 2010.05.17/outbox.ucp.g08.bks.cvg/sg5_27_cif.got.tgz:52234.got - 2010.06.11 12:53:14.
