data_PCOD9130624
_publ_section_title
;
Structure prediction by ZEFSAII (Michael W. Deem and Ramdas Pophale) SiO2 
 PCOD9130624
Probable space group: C 2
;
_chemical_formula_sum "Si O2"
_cell_formula_units_Z 22
_cell_length_a 26.204539
_cell_length_b 5.462205
_cell_length_c 15.178601
_cell_angle_alpha 90.000000
_cell_angle_beta 154.150023
_cell_angle_gamma 90.000000
_cell_volume 947.281243
_symmetry_space_group_name_H-M "C 2"
_symmetry_group_IT_number 5
_symmetry_cell_setting 'monoclinic'
loop_
_space_group_symop_operation_xyz
x,y,z
-x,y,-z
1/2+x,1/2+y,z
1/2-x,1/2+y,-z
loop_
_atom_site_type_symbol
_atom_site_label
_atom_site_fract_x
_atom_site_fract_y
_atom_site_fract_z
Si Si1 0.982877 0.569350 0.166123
Si Si2 0.108446 0.081259 0.052931
Si Si3 0.500000 0.584894 0.500000
Si Si4 0.746099 0.068492 0.550051
Si Si5 0.157918 0.679219 0.692887
Si Si6 0.915461 0.462981 0.252368
O O1 0.908632 0.520313 0.139690
O O2 0.120006 0.580544 0.401634
O O3 0.964585 0.329341 0.077138
O O4 0.948046 0.826551 0.067372
O O5 0.150551 0.060154 0.218510
O O6 0.225021 0.126495 0.175862
O O7 0.595146 0.439584 0.588608
O O8 0.412861 0.695852 0.290050
O O9 0.752384 0.317483 0.503189
O O10 0.164038 0.625656 0.806965
O O11 0.051891 0.511027 0.493026
#
# Coordination Sequence:
#
# PCOD9130624 Si02
#       6
#     4   4   2   4   4   4
#     4  12  28  45  75 112 142 186 245 293 357 440
#     4  12  28  45  75 112 142 186 245 293 357 440
#     4   8  18  34  72  94 140 210 244 268 346 416
#     4  12  28  53  79 102 145 188 233 312 378 416
#     4   9  20  39  66 100 146 194 235 285 343 423
#     4   9  20  39  66 100 146 194 235 285 343 423
#
# _framework density 23.224361999999999
#
# number of rings (size 3 to 8) (size 9 to 14) (size 15 to 20)
#    0.000    1.818    1.818    2.182   10.182    7.273 
#    0.000    0.000    0.000    0.000    0.000    0.000 
#    0.000    0.000    0.000    0.000    0.000    0.000 
#
# Total GULP energy -61381.310997 kJ/mol
# GULP energy per Si atom -5580.119182 kJ/mol
# Density = 2.317150 g / cm^3
# Si number density = 23.224362 Si / 1000 Ang^3
#
#
#
# Elastic Constant Matrix: (Units=GPa)
#
#
# Indices 1 2 3 4 5 6 
#
# 1 88.5182 21.2666 8.6464 0.0001 -20.0874 0.0001
# 2 21.2666 138.9573 28.5548 0.0005 -30.2569 0.0003
# 3 8.6464 28.5548 89.5623 0.0001 -23.1503 0.0001
# 4 0.0001 0.0005 0.0001-2006.2624 0.0000-1462.0228
# 5 -20.0874 -30.2569 -23.1503 0.0000 53.1347 0.0000
# 6 0.0001 0.0003 0.0001-1462.0228 0.0000-1036.9252
#
#
#
# Elastic Compliance Matrix: (Units=1/GPa)
#
#
# Indices 1 2 3 4 5 6 
#
# 1 0.012483 -0.001035 0.000217 0.000000 0.004224 0.000000
# 2 -0.001035 0.008507 -0.001647 0.000000 0.003735 0.000000
# 3 0.000217 -0.001647 0.012901 0.000000 0.004765 0.000000
# 4 0.000000 0.000000 0.000000 0.018139 0.000000 -0.025575
# 5 0.004224 0.003735 0.004765 0.000000 0.024620 0.000000
# 6 0.000000 0.000000 0.000000 -0.025575 0.000000 0.035095
#
#
# Mechanical properties :
#
#
# Convention : Reuss Voigt Hill
#
# Bulk Modulus (GPa) = 34.52953 48.21927 41.37440
# Shear Modulus (GPa) = 39.57932 -580.77257 -270.59663
#
# Velocity S-wave (km/s) = 4.13269 -15.83077 -10.80588
# Velocity P-wave (km/s) = 6.13778 17.70151 11.74034
#
# Compressibility (1/GPa) = 0.02896072
#
# Stress axis : x y z
#
# Youngs Moduli (GPa) = 80.10736 117.55608 77.51205
#
# Poissons Ratio (x) = 0.12170 -0.01680
# Poissons Ratio (y) = 0.08293 0.12764
# Poissons Ratio (z) = -0.01737 0.19358
#
# Static dielectric constant tensor:
#      x y z
#    x 1.926690 0.000000 0.060870 
#    y 0.000000 1.997980 0.000000 
#    z 0.060870 0.000000 2.299390 
# 
# From -- ./inp_files/57944.got.cif
#   From: 2010.05.17/outbox.cif.g08.bks.cpg/sg5_29_cif.got.tgz:57944.got - 2010.06.03 18:56:24.
