data_PCOD9130453
_publ_section_title
;
Structure prediction by ZEFSAII (Michael W. Deem and Ramdas Pophale) SiO2 
 PCOD9130453
Probable space group: C 2
;
_chemical_formula_sum "Si O2"
_cell_formula_units_Z 20
_cell_length_a 9.158755
_cell_length_b 5.196475
_cell_length_c 22.071298
_cell_angle_alpha 90.000000
_cell_angle_beta 52.334222
_cell_angle_gamma 90.000000
_cell_volume 831.520032
_symmetry_space_group_name_H-M "C 2"
_symmetry_group_IT_number 5
_symmetry_cell_setting 'monoclinic'
loop_
_space_group_symop_operation_xyz
x,y,z
-x,y,-z
1/2+x,1/2+y,z
1/2-x,1/2+y,-z
loop_
_atom_site_type_symbol
_atom_site_label
_atom_site_fract_x
_atom_site_fract_y
_atom_site_fract_z
Si Si1 0.449705 0.872730 0.290325
Si Si2 0.699844 0.591833 0.935748
Si Si3 0.053861 0.191449 0.093017
Si Si4 0.790909 0.957217 0.529023
Si Si5 0.636044 0.373785 0.766730
O O1 0.373411 0.631520 0.271326
O O2 0.664441 0.839899 0.253436
O O3 0.338959 0.893647 0.381242
O O4 0.411478 0.135064 0.263404
O O5 0.636837 0.755304 0.893524
O O6 0.500000 0.444264 0.000000
O O7 0.699492 0.726793 0.000816
O O8 0.862132 0.397383 0.883002
O O9 0.009418 0.934602 0.141694
O O10 0.729078 0.223155 0.513369
O O11 0.000000 0.979361 0.500000
#
# Coordination Sequence:
#
# PCOD9130453 Si02
#       5
#     4   4   4   4   4
#     4  12  26  45  68 103 135 177 220 272 325 410
#     4   8  20  37  57  85 117 158 223 266 317 381
#     4   9  20  40  59  90 121 172 210 280 322 387
#     4  12  24  44  72 101 136 176 221 271 326 386
#     4  12  25  44  68  96 140 175 222 270 343 392
#
# _framework density 24.052336
#
# number of rings (size 3 to 8) (size 9 to 14) (size 15 to 20)
#    1.200    0.000    0.000    6.600    0.000    4.800 
#    7.200    0.000    0.000    0.000    0.000    0.000 
#    0.000    0.000    0.000    0.000    0.000    0.000 
#
# Total GULP energy -55848.970574 kJ/mol
# GULP energy per Si atom -5584.897057 kJ/mol
# Density = 2.399759 g / cm^3
# Si number density = 24.052336 Si / 1000 Ang^3
#
#
#
# Elastic Constant Matrix: (Units=GPa)
#
#
# Indices 1 2 3 4 5 6 
#
# 1 151.1775 34.8570 -1.4893 0.0004 7.3799 0.0004
# 2 34.8570 88.6551 -20.8901 0.0011 14.9915 0.0016
# 3 -1.4893 -20.8901 98.1709 0.0005 8.5283 0.0009
# 4 0.0004 0.0011 0.0005 36.7623 0.0000 7.2406
# 5 7.3799 14.9915 8.5283 0.0000 30.5949 0.0001
# 6 0.0004 0.0016 0.0009 7.2406 0.0001 33.1312
#
#
#
# Elastic Compliance Matrix: (Units=1/GPa)
#
#
# Indices 1 2 3 4 5 6 
#
# 1 0.007301 -0.002961 -0.000505 0.000000 -0.000170 0.000000
# 2 -0.002961 0.014579 0.003706 0.000000 -0.007462 -0.000001
# 3 -0.000505 0.003706 0.011390 0.000000 -0.004869 0.000000
# 4 0.000000 0.000000 0.000000 0.028425 0.000000 -0.006212
# 5 -0.000170 -0.007462 -0.004869 0.000000 0.037740 0.000000
# 6 0.000000 -0.000001 0.000000 -0.006212 0.000000 0.031541
#
#
# Mechanical properties :
#
#
# Convention : Reuss Voigt Hill
#
# Bulk Modulus (GPa) = 29.62913 40.32876 34.97894
# Shear Modulus (GPa) = 35.27468 41.79942 38.53705
#
# Velocity S-wave (km/s) = 3.83375 4.17328 4.00711
# Velocity P-wave (km/s) = 5.65174 6.32654 5.99864
#
# Compressibility (1/GPa) = 0.03375057
#
# Stress axis : x y z
#
# Youngs Moduli (GPa) = 136.97335 68.59292 87.79493
#
# Poissons Ratio (x) = 0.20308 0.04429
# Poissons Ratio (y) = 0.40553 -0.32533
# Poissons Ratio (z) = 0.06910 -0.25418
#
# Static dielectric constant tensor:
#      x y z
#    x 2.073440 0.000000 0.028120 
#    y 0.000000 1.958760 0.000000 
#    z 0.028120 0.000000 1.940280 
# 
# From -- ./inp_files/64174.got.cif
#   From: 2010.05.17/outbox.cif.g08.bks.cpg/sg5_33_cif.got.tgz:64174.got - 2010.06.03 18:56:24.
