data_PCOD9130495
_publ_section_title
;
Structure prediction by ZEFSAII (Michael W. Deem and Ramdas Pophale) SiO2 
 PCOD9130495
Probable space group: C 2
;
_chemical_formula_sum "Si O2"
_cell_formula_units_Z 24
_cell_length_a 26.784047
_cell_length_b 6.967200
_cell_length_c 11.871675
_cell_angle_alpha 90.000000
_cell_angle_beta 26.401864
_cell_angle_gamma 90.000000
_cell_volume 985.096456
_symmetry_space_group_name_H-M "C 2"
_symmetry_group_IT_number 5
_symmetry_cell_setting 'monoclinic'
loop_
_space_group_symop_operation_xyz
x,y,z
-x,y,-z
1/2+x,1/2+y,z
1/2-x,1/2+y,-z
loop_
_atom_site_type_symbol
_atom_site_label
_atom_site_fract_x
_atom_site_fract_y
_atom_site_fract_z
Si Si1 0.000000 0.454870 0.500000
Si Si2 0.304756 0.376404 0.702953
Si Si3 0.875453 0.853038 0.134283
Si Si4 0.059613 0.807159 0.229357
Si Si5 0.318509 0.627829 0.873004
Si Si6 0.690804 0.784582 0.693399
Si Si7 0.000000 0.571164 0.000000
O O1 0.971436 0.599067 0.659429
O O2 0.102605 0.309493 0.311347
O O3 0.439850 0.391055 0.427629
O O4 0.269906 0.554470 0.853368
O O5 0.245098 0.355071 0.702251
O O6 0.266698 0.195521 0.857563
O O7 0.853459 0.814509 0.049068
O O8 0.989188 0.728895 0.923049
O O9 0.786700 0.772655 0.404169
O O10 0.870643 0.080794 0.162926
O O11 0.110450 0.950208 0.219951
O O12 0.600893 0.929007 0.822878
#
# Coordination Sequence:
#
# PCOD9130495 Si02
#       7
#     2   4   4   4   4   4   2
#     4  12  24  50  76 122 164 210 268 332 408 472
#     4  12  26  51  80 121 165 215 272 335 405 481
#     4  12  27  53  83 118 159 211 280 329 410 486
#     4  12  26  50  82 118 166 219 265 336 409 485
#     4  12  26  50  81 123 167 214 271 331 408 493
#     4  12  28  54  81 122 162 214 275 343 407 482
#     4  12  28  52  82 114 164 212 270 344 406 472
#
# _framework density 24.363097
#
# number of rings (size 3 to 8) (size 9 to 14) (size 15 to 20)
#    0.000    0.000    6.667    2.500    2.333    0.000 
#    6.000    0.000    0.000    0.000    0.000    0.000 
#    0.000    0.000    0.000    0.000    0.000    0.000 
#
# Total GULP energy -67072.114143 kJ/mol
# GULP energy per Si atom -5589.342845 kJ/mol
# Density = 2.430765 g / cm^3
# Si number density = 24.363097 Si / 1000 Ang^3
#
#
#
# Elastic Constant Matrix: (Units=GPa)
#
#
# Indices 1 2 3 4 5 6 
#
# 1 152.0899 85.8467 89.4643 0.0000 11.7917 0.0000
# 2 85.8467 182.6613 45.2433 0.0000 -3.7002 0.0000
# 3 89.4643 45.2433 104.0422 0.0000 4.5125 0.0000
# 4 0.0000 0.0000 0.0000 -2.0409 0.0000 -11.7854
# 5 11.7917 -3.7002 4.5125 0.0000 55.5577 0.0000
# 6 0.0000 0.0000 0.0000 -11.7854 0.0000 46.8979
#
#
#
# Elastic Compliance Matrix: (Units=1/GPa)
#
#
# Indices 1 2 3 4 5 6 
#
# 1 0.016669 -0.004901 -0.012077 0.000000 -0.002883 0.000000
# 2 -0.004901 0.007598 0.000846 0.000000 0.001478 0.000000
# 3 -0.012077 0.000846 0.019584 0.000000 0.001029 0.000000
# 4 0.000000 0.000000 0.000000 -0.199896 0.000000 -0.050234
# 5 -0.002883 0.001478 0.001029 0.000000 0.018626 0.000000
# 6 0.000000 0.000000 0.000000 -0.050234 0.000000 0.008699
#
#
# Mechanical properties :
#
#
# Convention : Reuss Voigt Hill
#
# Bulk Modulus (GPa) = 86.30341 97.76688 92.03514
# Shear Modulus (GPa) = -54.00053 34.63222 -9.68415
#
# Velocity S-wave (km/s) = -4.71307 3.77437 -1.99588
# Velocity P-wave (km/s) = 2.42557 7.69485 5.70500
#
# Compressibility (1/GPa) = 0.01158703
#
# Stress axis : x y z
#
# Youngs Moduli (GPa) = 59.99008 131.60645 51.06193
#
# Poissons Ratio (x) = 0.64503 0.61670
# Poissons Ratio (y) = 0.29402 -0.04321
# Poissons Ratio (z) = 0.72452 -0.11136
#
# Static dielectric constant tensor:
#      x y z
#    x 2.082750 0.000000 -0.072880 
#    y 0.000000 1.946130 0.000000 
#    z -0.072880 0.000000 2.194360 
# 
# From -- ./inp_files/58288.got.cif
#   From: 2010.05.17/outbox.cif.g08.bks.cpg/sg5_30_cif.got.tgz:58288.got - 2010.06.03 18:56:24.
