data_PCOD9130711
_publ_section_title
;
Structure prediction by ZEFSAII (Michael W. Deem and Ramdas Pophale) SiO2 
 PCOD9130711
Probable space group: C 2
;
_chemical_formula_sum "Si O2"
_cell_formula_units_Z 16
_cell_length_a 15.000000
_cell_length_b 24.000000
_cell_length_c 9.000000
_cell_angle_alpha 90.000000
_cell_angle_beta 150.000000
_cell_angle_gamma 90.000000
_cell_volume 1620.000000
_symmetry_space_group_name_H-M "C 2"
_symmetry_group_IT_number 5
_symmetry_cell_setting 'monoclinic'
loop_
_space_group_symop_operation_xyz
x,y,z
-x,y,-z
1/2+x,1/2+y,z
1/2-x,1/2+y,-z
loop_
_atom_site_type_symbol
_atom_site_label
_atom_site_fract_x
_atom_site_fract_y
_atom_site_fract_z
Si Si1 0.506270 0.683520 0.828540
Si Si2 0.801279 0.894546 0.764346
Si Si3 0.352750 0.507162 0.670155
Si Si4 0.803076 0.607634 0.756382
Si Si5 0.182354 0.608794 0.857200
Si Si6 0.999550 0.305736 0.680193
Si Si7 0.882357 0.003100 0.198890
Si Si8 0.183935 0.886932 0.854890
O O1 0.346204 0.649479 0.519517
O O2 0.493070 0.747142 0.754528
O O3 0.500000 0.679589 0.000000
O O4 0.683248 0.654558 0.015801
O O5 0.661755 0.847654 0.514170
O O6 0.763582 0.956055 0.635167
O O7 0.804306 0.889819 0.947930
O O8 0.000000 0.880983 0.000000
O O9 0.237081 0.551888 0.406799
O O10 0.475423 0.481324 0.716344
O O11 0.500000 0.532604 0.000000
O O12 0.812465 0.607583 0.952552
O O13 0.000000 0.626696 0.000000
O O14 0.000000 0.614366 0.500000
O O15 0.261280 0.547295 0.941734
O O16 0.000000 0.297044 0.500000
O O17 0.174916 0.340039 0.981012
O O18 0.000000 0.030601 0.500000
O O19 0.777120 0.952279 0.121885
O O20 0.000000 0.876225 0.500000
#
# Coordination Sequence:
#
# PCOD9130711 Si02
#       8
#     4   4   4   4   4   4   4   4
#     4  12  26  49  70  96 137 175 226 286 339 393
#     4  10  21  41  63  95 132 175 217 270 328 391
#     4  11  21  40  67  98 142 175 213 274 336 395
#     4  12  26  43  69 103 134 177 225 276 338 404
#     4  12  26  43  71 102 132 178 227 276 339 405
#     4  10  24  45  70  94 128 180 227 272 329 401
#     4  11  20  40  66  97 137 180 213 269 336 395
#     4  10  22  39  65  94 132 175 220 270 327 393
#
# _framework density 9.8765429999999999
#
# number of rings (size 3 to 8) (size 9 to 14) (size 15 to 20)
#    0.000    1.000    5.000    2.250    1.750    4.500 
#    0.000    2.500    0.000    0.000    0.000    0.000 
#    0.000    0.000    0.000    0.000    0.000    0.000 
#
# Total GULP energy -89124.046353 kJ/mol
# GULP energy per Si atom -5570.252897 kJ/mol
# Density = 0.985406 g / cm^3
# Si number density = 9.876543 Si / 1000 Ang^3
#
#
#
# Elastic Constant Matrix: (Units=GPa)
#
#
# Indices 1 2 3 4 5 6 
#
# 1 98.0468 41.7897 47.7030 0.0000 -19.0075 0.0000
# 2 41.7897 141.0095 84.3916 0.0000 8.5584 0.0000
# 3 47.7030 84.3916 164.8476 0.0000 -7.1226 0.0000
# 4 0.0000 0.0000 0.0000 11.8316 0.0000 -17.4557
# 5 -19.0075 8.5584 -7.1226 0.0000 35.5717 0.0000
# 6 0.0000 0.0000 0.0000 -17.4557 0.0000 22.0417
#
#
#
# Elastic Compliance Matrix: (Units=1/GPa)
#
#
# Indices 1 2 3 4 5 6 
#
# 1 0.014219 -0.003530 -0.001959 0.000000 0.008055 0.000000
# 2 -0.003530 0.011562 -0.005144 0.000000 -0.005698 0.000000
# 3 -0.001959 -0.005144 0.009356 0.000000 0.002064 0.000000
# 4 0.000000 0.000000 0.000000 -0.501925 0.000000 -0.397496
# 5 0.008055 -0.005698 0.002064 0.000000 0.034200 0.000000
# 6 0.000000 0.000000 0.000000 -0.397496 0.000000 -0.269425
#
#
# Mechanical properties :
#
#
# Convention : Reuss Voigt Hill
#
# Bulk Modulus (GPa) = 72.09785 83.51917 77.80851
# Shear Modulus (GPa) = -7.39510 29.22363 10.91427
#
# Velocity S-wave (km/s) = -1.93698 3.85053 2.35316
# Velocity P-wave (km/s) = 5.61927 7.88303 6.84538
#
# Compressibility (1/GPa) = 0.01387004
#
# Stress axis : x y z
#
# Youngs Moduli (GPa) = 70.33071 86.48868 106.88707
#
# Poissons Ratio (x) = 0.30531 0.20943
# Poissons Ratio (y) = 0.24827 0.54981
# Poissons Ratio (z) = 0.13780 0.44488
#
# Static dielectric constant tensor:
#      x y z
#    x 1.760700 0.000000 -0.000560 
#    y 0.000000 1.727660 0.000000 
#    z -0.000560 0.000000 1.723340 
# 
# From -- ./inp_files/25686.got.cif
#   From: 2010.05.17/outbox.ucp.g08.bks.cvg/sg5_13_cif.got.tgz:25686.got - 2010.06.11 12:53:14.
