data_PCOD9130924
_publ_section_title
;
Structure prediction by ZEFSAII (Michael W. Deem and Ramdas Pophale) SiO2 
 PCOD9130924
Probable space group: P M
;
_chemical_formula_sum "Si O2"
_cell_formula_units_Z 16
_cell_length_a 7.101003
_cell_length_b 11.434723
_cell_length_c 7.371779
_cell_angle_alpha 90.000000
_cell_angle_beta 92.674356
_cell_angle_gamma 90.000000
_cell_volume 597.921797
_symmetry_space_group_name_H-M "P M"
_symmetry_group_IT_number 6
_symmetry_cell_setting 'monoclinic'
loop_
_space_group_symop_operation_xyz
x,y,z
x,-y,z
loop_
_atom_site_type_symbol
_atom_site_label
_atom_site_fract_x
_atom_site_fract_y
_atom_site_fract_z
Si Si1 0.757030 0.874548 0.123650
Si Si2 0.244952 0.625340 0.377292
Si Si3 0.670528 0.870246 0.649083
Si Si4 0.800928 0.377394 0.296326
Si Si5 0.401266 0.126286 0.282909
Si Si6 0.163385 0.626965 0.791220
Si Si7 0.052808 0.127496 0.809035
Si Si8 0.710257 0.375536 0.709565
O O1 0.774100 0.745034 0.202185
O O2 0.530129 0.880110 0.110351
O O3 0.803151 0.000000 0.222648
O O4 0.902710 0.875860 0.965602
O O5 0.328827 0.500000 0.319043
O O6 0.304445 0.748157 0.294080
O O7 0.023313 0.617206 0.334185
O O8 0.257018 0.628024 0.596264
O O9 0.546201 0.871236 0.461863
O O10 0.901041 0.859110 0.634463
O O11 0.626081 0.750315 0.755242
O O12 0.642223 0.000000 0.728901
O O13 0.746266 0.500000 0.200147
O O14 0.705286 0.375206 0.489791
O O15 0.296167 0.000000 0.290918
O O16 0.212023 0.500000 0.880578
O O17 0.184487 0.761747 0.851952
O O18 0.933146 0.623293 0.768190
O O19 0.145015 0.000000 0.794988
O O20 0.630990 0.500000 0.769614
#
# Coordination Sequence:
#
# PCOD9130924 Si02
#       8
#     2   2   2   2   2   2   2   2
#     4  10  20  33  50  77 108 133 166 211 257 302
#     4   9  19  34  52  76 105 135 168 211 258 300
#     4   9  16  28  46  69  96 127 163 202 245 291
#     4   9  17  30  49  73  98 129 168 209 253 298
#     4  10  20  32  49  76 105 135 172 211 250 299
#     4   8  15  29  48  70  96 125 161 205 250 294
#     4   9  18  31  50  75 103 133 164 206 257 303
#     4   8  13  23  42  68  91 113 150 199 246 285
#
# _framework density 26.759352
#
# number of rings (size 3 to 8) (size 9 to 14) (size 15 to 20)
#    0.000    3.000    1.250    1.500    0.000    2.500 
#    0.000    1.250    2.750    0.000    0.000    0.000 
#    0.000    0.000    0.000    0.000    0.000    0.000 
#
# Total GULP energy -89132.190926 kJ/mol
# GULP energy per Si atom -5570.761933 kJ/mol
# Density = 2.669845 g / cm^3
# Si number density = 26.759352 Si / 1000 Ang^3
#
#
#
# Elastic Constant Matrix: (Units=GPa)
#
#
# Indices 1 2 3 4 5 6 
#
# 1 68.7133 44.1838 13.9473 0.0000 -10.4871 0.0000
# 2 44.1838 368.6461 38.8521 0.0000 -13.8612 0.0000
# 3 13.9473 38.8521 54.1709 0.0000 -6.2508 0.0000
# 4 0.0000 0.0000 0.0000 4.5698 0.0000 -15.1078
# 5 -10.4871 -13.8612 -6.2508 0.0000 25.2048 0.0000
# 6 0.0000 0.0000 0.0000 -15.1078 0.0000 17.3417
#
#
#
# Elastic Compliance Matrix: (Units=1/GPa)
#
#
# Indices 1 2 3 4 5 6 
#
# 1 0.016922 -0.001545 -0.002609 0.000000 0.005544 0.000000
# 2 -0.001545 0.003107 -0.001758 0.000000 0.000630 0.000000
# 3 -0.002609 -0.001758 0.020750 0.000000 0.003094 0.000000
# 4 0.000000 0.000000 0.000000 -0.116389 0.000000 -0.101396
# 5 0.005544 0.000630 0.003094 0.000000 0.043096 0.000000
# 6 0.000000 0.000000 0.000000 -0.101396 0.000000 -0.030670
#
#
# Mechanical properties :
#
#
# Convention : Reuss Voigt Hill
#
# Bulk Modulus (GPa) = 34.53637 76.16632 55.35134
# Shear Modulus (GPa) = -119.87649 35.72640 -42.07504
#
# Velocity S-wave (km/s) = -6.70039 3.65787 -3.96959
# Velocity P-wave (km/s) = 6.85026 6.80920 0.52953
#
# Compressibility (1/GPa) = 0.02895499
#
# Stress axis : x y z
#
# Youngs Moduli (GPa) = 59.09354 321.88395 48.19379
#
# Poissons Ratio (x) = 0.49723 0.12575
# Poissons Ratio (y) = 0.09128 0.08471
# Poissons Ratio (z) = 0.15419 0.56580
#
# Static dielectric constant tensor:
#      x y z
#    x 2.111730 0.000000 0.081070 
#    y 0.000000 2.172860 0.000000 
#    z 0.081070 0.000000 2.179230 
# 
# From -- ./inp_files/2952.got.cif
#   From: 2010.05.17/outbox.cif.g08.bks.cpg/sg6_2_cif.got.tgz:2952.got - 2010.06.03 19:42:10.
