data_PCOD9130086
_publ_section_title
;
Structure prediction by ZEFSAII (Michael W. Deem and Ramdas Pophale) SiO2 
 PCOD9130086
Probable space group: C 2
;
_chemical_formula_sum "Si O2"
_cell_formula_units_Z 28
_cell_length_a 10.428264
_cell_length_b 9.804300
_cell_length_c 15.069524
_cell_angle_alpha 90.000000
_cell_angle_beta 121.637709
_cell_angle_gamma 90.000000
_cell_volume 1311.754466
_symmetry_space_group_name_H-M "C 2"
_symmetry_group_IT_number 5
_symmetry_cell_setting 'monoclinic'
loop_
_space_group_symop_operation_xyz
x,y,z
-x,y,-z
1/2+x,1/2+y,z
1/2-x,1/2+y,-z
loop_
_atom_site_type_symbol
_atom_site_label
_atom_site_fract_x
_atom_site_fract_y
_atom_site_fract_z
Si Si1 0.833712 0.814640 0.979448
Si Si2 0.841964 0.426411 0.762129
Si Si3 0.091038 0.131949 0.442019
Si Si4 0.577072 0.641818 0.124507
Si Si5 0.873084 0.111304 0.203968
Si Si6 0.850822 0.571833 0.123934
Si Si7 0.839408 0.835760 0.477991
O O1 0.738914 0.727004 0.873165
O O2 0.733178 0.949012 0.959664
O O3 0.846709 0.711867 0.067062
O O4 0.000000 0.844381 0.000000
O O5 0.910572 0.292573 0.831845
O O6 0.726040 0.494234 0.788113
O O7 0.754671 0.387841 0.641322
O O8 0.979969 0.528473 0.795136
O O9 0.240473 0.222448 0.490592
O O10 0.000000 0.154057 0.500000
O O11 0.983504 0.166415 0.320443
O O12 0.128853 0.970859 0.452599
O O13 0.477459 0.563007 0.160198
O O14 0.744811 0.586867 0.171146
O O15 0.500000 0.646500 0.000000
O O16 0.000000 0.783901 0.500000
#
# Coordination Sequence:
#
# PCOD9130086 Si02
#       7
#     4   4   4   4   4   4   4
#     4  12  26  41  68 101 141 186 235 285 346 413
#     4  12  25  47  71  99 141 190 230 290 356 410
#     4  11  24  49  72 104 140 180 228 299 348 419
#     4  12  26  43  70 104 144 184 237 287 337 415
#     4  12  24  47  69  99 146 182 229 292 348 409
#     4  12  26  44  67 102 140 185 237 285 342 416
#     4  11  24  48  74 103 141 180 238 288 357 418
#
# _framework density 21.345459000000002
#
# number of rings (size 3 to 8) (size 9 to 14) (size 15 to 20)
#    0.000    0.286    8.571    0.429    4.000    1.714 
#    5.143    0.000    0.000    0.000    0.000    0.000 
#    0.000    0.000    0.000    0.000    0.000    0.000 
#
# Total GULP energy -78353.778662 kJ/mol
# GULP energy per Si atom -5596.698476 kJ/mol
# Density = 2.129688 g / cm^3
# Si number density = 21.345459 Si / 1000 Ang^3
#
#
#
# Elastic Constant Matrix: (Units=GPa)
#
#
# Indices 1 2 3 4 5 6 
#
# 1 160.0238 18.0294 11.6280 0.0000 9.9947 0.0000
# 2 18.0294 38.7635 -28.0298 0.0000 1.4735 0.0000
# 3 11.6280 -28.0298 67.4675 0.0000 5.8501 0.0000
# 4 0.0000 0.0000 0.0000 10.9865 0.0000 5.1306
# 5 9.9947 1.4735 5.8501 0.0000 26.3129 0.0000
# 6 0.0000 0.0000 0.0000 5.1306 0.0000 47.2506
#
#
#
# Elastic Compliance Matrix: (Units=1/GPa)
#
#
# Indices 1 2 3 4 5 6 
#
# 1 0.007275 -0.005896 -0.003561 0.000000 -0.001641 0.000000
# 2 -0.005896 0.042475 0.019042 0.000000 -0.004372 0.000000
# 3 -0.003561 0.019042 0.023780 0.000000 -0.005001 0.000000
# 4 0.000000 0.000000 0.000000 0.095882 0.000000 -0.010411
# 5 -0.001641 -0.004372 -0.005001 0.000000 0.039984 0.000000
# 6 0.000000 0.000000 0.000000 -0.010411 0.000000 0.022294
#
#
# Mechanical properties :
#
#
# Convention : Reuss Voigt Hill
#
# Bulk Modulus (GPa) = 10.78752 29.94555 20.36654
# Shear Modulus (GPa) = 20.54050 34.55183 27.54617
#
# Velocity S-wave (km/s) = 3.10544 4.02767 3.59624
# Velocity P-wave (km/s) = 4.23357 5.97402 5.17745
#
# Compressibility (1/GPa) = 0.09269971
#
# Stress axis : x y z
#
# Youngs Moduli (GPa) = 137.46389 23.54318 42.05145
#
# Poissons Ratio (x) = 0.13881 0.14975
# Poissons Ratio (y) = 0.81050 -0.80074
# Poissons Ratio (z) = 0.48951 -0.44831
#
# Static dielectric constant tensor:
#      x y z
#    x 1.793770 0.000000 0.006500 
#    y 0.000000 1.791130 0.000000 
#    z 0.006500 0.000000 1.765210 
# 
# From -- ./inp_files/50332.got.cif
#   From: 2010.05.17/outbox.cif.g08.bks.cpg/sg5_26_cif.got.tgz:50332.got - 2010.06.03 18:56:24.
