data_PCOD9130196
_publ_section_title
;
Structure prediction by ZEFSAII (Michael W. Deem and Ramdas Pophale) SiO2 
 PCOD9130196
Probable space group: C 2
;
_chemical_formula_sum "Si O2"
_cell_formula_units_Z 20
_cell_length_a 15.159915
_cell_length_b 11.398089
_cell_length_c 5.194657
_cell_angle_alpha 90.000000
_cell_angle_beta 71.666519
_cell_angle_gamma 90.000000
_cell_volume 852.045046
_symmetry_space_group_name_H-M "C 2"
_symmetry_group_IT_number 5
_symmetry_cell_setting 'monoclinic'
loop_
_space_group_symop_operation_xyz
x,y,z
-x,y,-z
1/2+x,1/2+y,z
1/2-x,1/2+y,-z
loop_
_atom_site_type_symbol
_atom_site_label
_atom_site_fract_x
_atom_site_fract_y
_atom_site_fract_z
Si Si1 0.000000 0.636631 0.500000
Si Si2 0.500000 0.295421 0.000000
Si Si3 0.666541 0.697731 0.163834
Si Si4 0.249813 0.289544 0.579736
Si Si5 0.650658 0.441591 0.146287
Si Si6 0.650084 0.938737 0.316200
O O1 0.913144 0.550792 0.630458
O O2 0.016279 0.712513 0.739692
O O3 0.415915 0.379812 0.994584
O O4 0.744799 0.717834 0.316493
O O5 0.620234 0.572611 0.245144
O O6 0.606191 0.816652 0.249388
O O7 0.710099 0.707944 0.841050
O O8 0.337572 0.354531 0.622896
O O9 0.181198 0.398465 0.572916
O O10 0.753779 0.453323 0.928921
#
# Coordination Sequence:
#
# PCOD9130196 Si02
#       6
#     2   2   4   4   4   4
#     4  12  30  50  76 114 156 194 256 314 368 472
#     4  12  34  46  74 116 160 194 248 314 396 430
#     4   9  22  40  70 104 138 189 253 293 359 443
#     4   9  22  39  70 107 132 191 248 288 371 425
#     4  11  25  48  73 112 152 199 245 315 379 448
#     4   9  25  45  78 106 144 201 250 304 378 431
#
# _framework density 23.472940000000001
#
# number of rings (size 3 to 8) (size 9 to 14) (size 15 to 20)
#    1.200    0.800    0.000    0.000   16.800    0.000 
#    3.600    0.000    0.000    0.000    0.000    0.000 
#    0.000    0.000    0.000    0.000    0.000    0.000 
#
# Total GULP energy -55805.393450 kJ/mol
# GULP energy per Si atom -5580.539345 kJ/mol
# Density = 2.341951 g / cm^3
# Si number density = 23.472940 Si / 1000 Ang^3
#
#
#
# Elastic Constant Matrix: (Units=GPa)
#
#
# Indices 1 2 3 4 5 6 
#
# 1 96.6561 64.9156 41.9459 0.0000 3.8785 0.0000
# 2 64.9156 167.1380 57.0136 0.0000 10.3451 0.0000
# 3 41.9459 57.0136 145.1378 0.0000 24.0994 0.0000
# 4 0.0000 0.0000 0.0000 29.2200 0.0000 7.0433
# 5 3.8785 10.3451 24.0994 0.0000 35.2016 0.0000
# 6 0.0000 0.0000 0.0000 7.0433 0.0000 45.2789
#
#
#
# Elastic Compliance Matrix: (Units=1/GPa)
#
#
# Indices 1 2 3 4 5 6 
#
# 1 0.014715 -0.004934 -0.002579 0.000000 0.001595 0.000000
# 2 -0.004934 0.008565 -0.001817 0.000000 -0.000729 0.000000
# 3 -0.002579 -0.001817 0.009267 0.000000 -0.005526 0.000000
# 4 0.000000 0.000000 0.000000 0.035556 0.000000 -0.005531
# 5 0.001595 -0.000729 -0.005526 0.000000 0.032230 0.000000
# 6 0.000000 0.000000 0.000000 -0.005531 0.000000 0.022946
#
#
# Mechanical properties :
#
#
# Convention : Reuss Voigt Hill
#
# Bulk Modulus (GPa) = 72.01965 81.85357 76.93661
# Shear Modulus (GPa) = 34.11387 38.27722 36.19554
#
# Velocity S-wave (km/s) = 3.81639 4.04257 3.93111
# Velocity P-wave (km/s) = 7.08296 7.53239 7.31113
#
# Compressibility (1/GPa) = 0.01388510
#
# Stress axis : x y z
#
# Youngs Moduli (GPa) = 67.95708 116.76090 107.91138
#
# Poissons Ratio (x) = 0.57612 0.27834
# Poissons Ratio (y) = 0.33531 0.19610
# Poissons Ratio (z) = 0.17528 0.21218
#
# Static dielectric constant tensor:
#      x y z
#    x 1.903720 0.000000 -0.038820 
#    y 0.000000 1.936810 0.000000 
#    z -0.038820 0.000000 1.902880 
# 
# From -- ./inp_files/6628.got.cif
#   From: 2010.05.17/outbox.cif.g08.bks.cpg/sg5_4_cif.got.tgz:6628.got - 2010.06.03 18:56:24.
