data_PCOD9130101
_publ_section_title
;
Structure prediction by ZEFSAII (Michael W. Deem and Ramdas Pophale) SiO2 
 PCOD9130101
Probable space group: C 2
;
_chemical_formula_sum "Si O2"
_cell_formula_units_Z 22
_cell_length_a 11.034784
_cell_length_b 7.983901
_cell_length_c 11.697051
_cell_angle_alpha 90.000000
_cell_angle_beta 114.581075
_cell_angle_gamma 90.000000
_cell_volume 937.125348
_symmetry_space_group_name_H-M "C 2"
_symmetry_group_IT_number 5
_symmetry_cell_setting 'monoclinic'
loop_
_space_group_symop_operation_xyz
x,y,z
-x,y,-z
1/2+x,1/2+y,z
1/2-x,1/2+y,-z
loop_
_atom_site_type_symbol
_atom_site_label
_atom_site_fract_x
_atom_site_fract_y
_atom_site_fract_z
Si Si1 0.356823 0.876910 0.493850
Si Si2 0.000000 0.024155 0.000000
Si Si3 0.884408 0.630097 0.177470
Si Si4 0.336798 0.265509 0.782241
Si Si5 0.179781 0.249271 0.917235
Si Si6 0.356010 0.244667 0.425217
O O1 0.500000 0.811716 0.500000
O O2 0.248146 0.837834 0.354098
O O3 0.281960 0.821450 0.580853
O O4 0.373005 0.075674 0.505769
O O5 0.897616 0.908361 0.889722
O O6 0.065428 0.142772 0.931058
O O7 0.862854 0.435058 0.137523
O O8 0.847071 0.685374 0.290635
O O9 0.037505 0.666823 0.213071
O O10 0.796462 0.741791 0.057094
O O11 0.238437 0.163133 0.826324
O O12 0.500000 0.338533 0.500000
#
# Coordination Sequence:
#
# PCOD9130101 Si02
#       6
#     4   2   4   4   4   4
#     4  11  26  48  73 106 146 191 249 302 362 428
#     4  12  26  44  72 110 148 190 244 292 380 434
#     4  12  24  48  76 104 152 189 243 299 374 431
#     4  12  24  48  70 105 150 188 245 303 360 446
#     4  12  25  45  72 111 145 189 237 309 363 441
#     4  11  24  50  72 106 143 194 242 304 359 440
#
# _framework density 23.476049
#
# number of rings (size 3 to 8) (size 9 to 14) (size 15 to 20)
#    0.000    0.364    7.273    0.000    2.545    3.636 
#    6.545    0.000    0.000    0.000    0.000    0.000 
#    0.000    0.000    0.000    0.000    0.000    0.000 
#
# Total GULP energy -61501.370504 kJ/mol
# GULP energy per Si atom -5591.033682 kJ/mol
# Density = 2.342262 g / cm^3
# Si number density = 23.476049 Si / 1000 Ang^3
#
#
#
# Elastic Constant Matrix: (Units=GPa)
#
#
# Indices 1 2 3 4 5 6 
#
# 1 187.1797 52.6197 16.5823 0.0000 -30.6783 0.0000
# 2 52.6197 54.6369 24.1514 0.0000 -13.5949 0.0000
# 3 16.5823 24.1514 83.2396 0.0000 -21.6266 0.0000
# 4 0.0000 0.0000 0.0000 32.3006 0.0000 -2.3813
# 5 -30.6783 -13.5949 -21.6266 0.0000 60.7237 0.0000
# 6 0.0000 0.0000 0.0000 -2.3813 0.0000 29.7114
#
#
#
# Elastic Compliance Matrix: (Units=1/GPa)
#
#
# Indices 1 2 3 4 5 6 
#
# 1 0.007741 -0.007351 0.001299 0.000000 0.002728 0.000000
# 2 -0.007351 0.028413 -0.006713 0.000000 0.000257 0.000000
# 3 0.001299 -0.006713 0.014857 0.000000 0.004445 0.000000
# 4 0.000000 0.000000 0.000000 0.031143 0.000000 0.002496
# 5 0.002728 0.000257 0.004445 0.000000 0.019487 0.000000
# 6 0.000000 0.000000 0.000000 0.002496 0.000000 0.033857
#
#
# Mechanical properties :
#
#
# Convention : Reuss Voigt Hill
#
# Bulk Modulus (GPa) = 39.24191 56.86256 48.05223
# Shear Modulus (GPa) = 29.49489 39.99399 34.74444
#
# Velocity S-wave (km/s) = 3.54839 4.13196 3.85124
# Velocity P-wave (km/s) = 5.79138 6.85844 6.34737
#
# Compressibility (1/GPa) = 0.02548296
#
# Stress axis : x y z
#
# Youngs Moduli (GPa) = 129.18467 35.19499 67.30746
#
# Poissons Ratio (x) = 0.25871 -0.08746
# Poissons Ratio (y) = 0.94960 0.45182
# Poissons Ratio (z) = -0.16787 0.23626
#
# Static dielectric constant tensor:
#      x y z
#    x 2.010530 0.000000 0.001120 
#    y 0.000000 1.895680 0.000000 
#    z 0.001120 0.000000 1.892350 
# 
# From -- ./inp_files/38081.got.cif
#   From: 2010.05.17/outbox.cif.g08.bks.cpg/sg5_20_cif.got.tgz:38081.got - 2010.06.03 18:56:24.
