data_PCOD9130811
_publ_section_title
;
Structure prediction by ZEFSAII (Michael W. Deem and Ramdas Pophale) SiO2 
 PCOD9130811
Probable space group: P M
;
_chemical_formula_sum "Si O2"
_cell_formula_units_Z 16
_cell_length_a 12.549192
_cell_length_b 8.707720
_cell_length_c 10.516211
_cell_angle_alpha 90.000000
_cell_angle_beta 127.600626
_cell_angle_gamma 90.000000
_cell_volume 910.457831
_symmetry_space_group_name_H-M "P M"
_symmetry_group_IT_number 6
_symmetry_cell_setting 'monoclinic'
loop_
_space_group_symop_operation_xyz
x,y,z
x,-y,z
loop_
_atom_site_type_symbol
_atom_site_label
_atom_site_fract_x
_atom_site_fract_y
_atom_site_fract_z
Si Si1 0.509570 0.184613 0.596080
Si Si2 0.669746 0.814429 0.968148
Si Si3 0.535276 0.317533 0.122101
Si Si4 0.963317 0.813946 0.791381
Si Si5 0.687166 0.185621 0.476181
Si Si6 0.959835 0.814535 0.085423
Si Si7 0.263508 0.184675 0.023641
Si Si8 0.246682 0.682445 0.295576
O O1 0.588166 0.228345 0.781178
O O2 0.599779 0.221990 0.538122
O O3 0.365548 0.262851 0.474013
O O4 0.492327 0.000000 0.584513
O O5 0.665809 0.000000 0.974762
O O6 0.602718 0.742944 0.042767
O O7 0.825961 0.770263 0.063455
O O8 0.529527 0.500000 0.118138
O O9 0.621361 0.259564 0.305217
O O10 0.385736 0.250793 0.032414
O O11 0.839807 0.762053 0.615061
O O12 0.960504 0.000000 0.786127
O O13 0.114982 0.766885 0.868027
O O14 0.939888 0.771864 0.922067
O O15 0.685368 0.000000 0.460213
O O16 0.099396 0.740042 0.230007
O O17 0.973541 0.000000 0.099832
O O18 0.274137 0.242041 0.177081
O O19 0.270475 0.000000 0.029815
O O20 0.247523 0.500000 0.282881
#
# Coordination Sequence:
#
# PCOD9130811 Si02
#       8
#     2   2   2   2   2   2   2   2
#     4  10  19  34  60  87 110 142 191 240 276 323
#     4  10  21  39  62  85 109 146 194 237 279 330
#     4  12  25  38  53  81 120 156 186 224 282 346
#     4   8  15  30  57  88 108 130 177 238 284 318
#     4  10  18  34  60  86 110 141 185 238 281 325
#     4   9  17  34  58  83 110 142 184 231 279 331
#     4  10  19  35  58  81 109 147 191 236 277 324
#     4  11  21  32  52  85 120 148 180 226 282 337
#
# _framework density 17.573578000000001
#
# number of rings (size 3 to 8) (size 9 to 14) (size 15 to 20)
#    0.000    2.000    2.500    3.375    0.000    1.000 
#    0.000    4.375    0.000    3.000    0.000    0.000 
#    0.000    0.000    0.000    0.000    0.000    0.000 
#
# Total GULP energy -89302.525634 kJ/mol
# GULP energy per Si atom -5581.407852 kJ/mol
# Density = 1.753358 g / cm^3
# Si number density = 17.573578 Si / 1000 Ang^3
#
#
#
# Elastic Constant Matrix: (Units=GPa)
#
#
# Indices 1 2 3 4 5 6 
#
# 1 178.7236 58.5985 88.6886 0.0000 17.1018 0.0000
# 2 58.5985 51.4481 47.6903 0.0000 4.0122 0.0000
# 3 88.6886 47.6903 105.8892 0.0000 12.1897 0.0000
# 4 0.0000 0.0000 0.0000 -29.3757 0.0000 -2.1867
# 5 17.1018 4.0122 12.1897 0.0000 32.5753 0.0000
# 6 0.0000 0.0000 0.0000 -2.1867 0.0000 8.7133
#
#
#
# Elastic Compliance Matrix: (Units=1/GPa)
#
#
# Indices 1 2 3 4 5 6 
#
# 1 0.011005 -0.006987 -0.005753 0.000000 -0.002764 0.000000
# 2 -0.006987 0.037881 -0.011594 0.000000 0.003341 0.000000
# 3 -0.005753 -0.011594 0.019826 0.000000 -0.002971 0.000000
# 4 0.000000 0.000000 0.000000 -0.033417 0.000000 -0.008387
# 5 -0.002764 0.003341 -0.002971 0.000000 0.032850 0.000000
# 6 0.000000 0.000000 0.000000 -0.008387 0.000000 0.112663
#
#
# Mechanical properties :
#
#
# Convention : Reuss Voigt Hill
#
# Bulk Modulus (GPa) = 49.88552 80.66841 65.27696
# Shear Modulus (GPa) = 21.17260 11.78814 16.48037
#
# Velocity S-wave (km/s) = 3.47478 2.59277 3.06566
# Velocity P-wave (km/s) = 6.67436 7.41392 7.05384
#
# Compressibility (1/GPa) = 0.02004590
#
# Stress axis : x y z
#
# Youngs Moduli (GPa) = 90.86713 26.39836 50.44008
#
# Poissons Ratio (x) = 0.18444 0.29016
# Poissons Ratio (y) = 0.63485 0.58479
# Poissons Ratio (z) = 0.52272 0.30606
#
# Static dielectric constant tensor:
#      x y z
#    x 1.596670 0.000000 0.025250 
#    y 0.000000 1.584460 0.000000 
#    z 0.025250 0.000000 1.583660 
# 
# From -- ./inp_files/3649.got.cif
#   From: 2010.05.17/outbox.cif.g08.bks.cpg/sg6_2_cif.got.tgz:3649.got - 2010.06.03 19:42:10.
