data_PCOD9130225
_publ_section_title
;
Structure prediction by ZEFSAII (Michael W. Deem and Ramdas Pophale) SiO2 
 PCOD9130225
Probable space group: C 2
;
_chemical_formula_sum "Si O2"
_cell_formula_units_Z 14
_cell_length_a 8.161098
_cell_length_b 12.960890
_cell_length_c 5.484236
_cell_angle_alpha 90.000000
_cell_angle_beta 76.005362
_cell_angle_gamma 90.000000
_cell_volume 562.877389
_symmetry_space_group_name_H-M "C 2"
_symmetry_group_IT_number 5
_symmetry_cell_setting 'monoclinic'
loop_
_space_group_symop_operation_xyz
x,y,z
-x,y,-z
1/2+x,1/2+y,z
1/2-x,1/2+y,-z
loop_
_atom_site_type_symbol
_atom_site_label
_atom_site_fract_x
_atom_site_fract_y
_atom_site_fract_z
Si Si1 0.357308 0.500000 0.895625
Si Si2 0.000000 0.817108 0.500000
Si Si3 0.797387 0.184569 0.629402
Si Si4 0.899996 0.377504 0.788722
O O1 0.434421 0.399075 0.731064
O O2 0.258524 0.571349 0.740644
O O3 0.500000 0.558436 0.000000
O O4 0.233951 0.466973 0.155148
O O5 0.840673 0.741482 0.492430
O O6 0.804140 0.268669 0.841653
O O7 0.000000 0.174193 0.500000
O O8 0.000000 0.379996 0.500000
O O9 0.000000 0.388677 0.000000
#
# Coordination Sequence:
#
# PCOD9130225 Si02
#       4
#     4   2   4   4
#     4  12  25  50  83 119 164 217 279 351 421 501
#     4  12  26  54  82 126 166 220 282 358 408 518
#     4  11  25  51  85 118 168 220 279 348 424 498
#     4  11  25  50  80 119 166 218 278 350 417 500
#
# _framework density 24.872201
#
# number of rings (size 3 to 8) (size 9 to 14) (size 15 to 20)
#    0.000    0.571    4.286    4.286    0.000    0.000 
#   20.571    0.000    0.000    0.000    0.000    0.000 
#    0.000    0.000    0.000    0.000    0.000    0.000 
#
# Total GULP energy -39011.826252 kJ/mol
# GULP energy per Si atom -5573.118036 kJ/mol
# Density = 2.481559 g / cm^3
# Si number density = 24.872201 Si / 1000 Ang^3
#
#
#
# Elastic Constant Matrix: (Units=GPa)
#
#
# Indices 1 2 3 4 5 6 
#
# 1 111.2958 52.8417 40.0004 0.0000 26.6896 0.0000
# 2 52.8417 110.6850 50.1039 0.0000 6.0550 0.0000
# 3 40.0004 50.1039 134.8521 0.0000 -4.4880 0.0000
# 4 0.0000 0.0000 0.0000 48.0304 0.0000 9.9455
# 5 26.6896 6.0550 -4.4880 0.0000 34.4082 0.0000
# 6 0.0000 0.0000 0.0000 9.9455 0.0000 39.1158
#
#
#
# Elastic Compliance Matrix: (Units=1/GPa)
#
#
# Indices 1 2 3 4 5 6 
#
# 1 0.015288 -0.005359 -0.002920 0.000000 -0.011296 0.000000
# 2 -0.005359 0.012949 -0.003173 0.000000 0.001464 0.000000
# 3 -0.002920 -0.003173 0.009596 0.000000 0.004075 0.000000
# 4 0.000000 0.000000 0.000000 0.021977 0.000000 -0.005588
# 5 -0.011296 0.001464 0.004075 0.000000 0.038099 0.000000
# 6 0.000000 0.000000 0.000000 -0.005588 0.000000 0.026986
#
#
# Mechanical properties :
#
#
# Convention : Reuss Voigt Hill
#
# Bulk Modulus (GPa) = 66.97864 71.41388 69.19626
# Shear Modulus (GPa) = 32.72812 38.57001 35.64907
#
# Velocity S-wave (km/s) = 3.63140 3.94220 3.78999
# Velocity P-wave (km/s) = 6.67610 7.03533 6.85807
#
# Compressibility (1/GPa) = 0.01493013
#
# Stress axis : x y z
#
# Youngs Moduli (GPa) = 65.41285 77.22488 104.20963
#
# Poissons Ratio (x) = 0.41384 0.30424
# Poissons Ratio (y) = 0.35054 0.33065
# Poissons Ratio (z) = 0.19097 0.24503
#
# Static dielectric constant tensor:
#      x y z
#    x 2.086170 0.000000 -0.106420 
#    y 0.000000 2.025470 0.000000 
#    z -0.106420 0.000000 1.870610 
# 
# From -- ./inp_files/1542.got.cif
#   From: 2010.05.17/outbox.cif.g08.bks.cpg/sg5_1_cif.got.tgz:1542.got - 2010.06.03 18:56:24.
