data_PCOD9130135
_publ_section_title
;
Structure prediction by ZEFSAII (Michael W. Deem and Ramdas Pophale) SiO2 
 PCOD9130135
Probable space group: C 2
;
_chemical_formula_sum "Si O2"
_cell_formula_units_Z 20
_cell_length_a 13.574157
_cell_length_b 5.085398
_cell_length_c 13.345492
_cell_angle_alpha 90.000000
_cell_angle_beta 91.309054
_cell_angle_gamma 90.000000
_cell_volume 920.998758
_symmetry_space_group_name_H-M "C 2"
_symmetry_group_IT_number 5
_symmetry_cell_setting 'monoclinic'
loop_
_space_group_symop_operation_xyz
x,y,z
-x,y,-z
1/2+x,1/2+y,z
1/2-x,1/2+y,-z
loop_
_atom_site_type_symbol
_atom_site_label
_atom_site_fract_x
_atom_site_fract_y
_atom_site_fract_z
Si Si1 0.796676 0.206540 0.051908
Si Si2 0.502299 0.993262 0.380879
Si Si3 0.902557 0.992592 0.717727
Si Si4 0.463211 0.354954 0.095880
Si Si5 0.182842 0.533288 0.761834
O O1 0.791186 0.277868 0.169439
O O2 0.906124 0.098111 0.044964
O O3 0.770378 0.464567 0.987421
O O4 0.500000 0.002850 0.500000
O O5 0.574814 0.220398 0.339823
O O6 0.392551 0.017910 0.331863
O O7 0.538586 0.715796 0.339570
O O8 0.791571 0.099403 0.726218
O O9 0.950527 0.942627 0.827959
O O10 0.380840 0.209197 0.161636
O O11 0.500000 0.195357 0.000000
#
# Coordination Sequence:
#
# PCOD9130135 Si02
#       5
#     4   4   4   4   4
#     4  12  24  42  67  97 140 190 230 284 337 406
#     4  11  26  49  75 107 140 179 237 300 357 418
#     4  11  26  45  74 103 140 187 233 292 355 417
#     4  11  25  45  68 103 147 194 237 283 343 415
#     4  11  26  47  72 103 148 183 244 287 344 423
#
# _framework density 21.715553
#
# number of rings (size 3 to 8) (size 9 to 14) (size 15 to 20)
#    0.000    0.800    4.000    1.800    2.800    2.400 
#    3.600    0.000    0.000    0.000    0.000    0.000 
#    0.000    0.000    0.000    0.000    0.000    0.000 
#
# Total GULP energy -55831.713636 kJ/mol
# GULP energy per Si atom -5583.171364 kJ/mol
# Density = 2.166613 g / cm^3
# Si number density = 21.715553 Si / 1000 Ang^3
#
#
#
# Elastic Constant Matrix: (Units=GPa)
#
#
# Indices 1 2 3 4 5 6 
#
# 1 139.6323 15.6107 62.6529 0.0000 15.8400 0.0000
# 2 15.6107 97.6699 38.0700 0.0000 11.1695 0.0000
# 3 62.6529 38.0700 187.4375 0.0000 25.7054 0.0000
# 4 0.0000 0.0000 0.0000 9.3530 0.0000 -6.8694
# 5 15.8400 11.1695 25.7054 0.0000 30.6612 0.0000
# 6 0.0000 0.0000 0.0000 -6.8694 0.0000 28.9931
#
#
#
# Elastic Compliance Matrix: (Units=1/GPa)
#
#
# Indices 1 2 3 4 5 6 
#
# 1 0.008566 -0.000125 -0.002528 0.000000 -0.002261 0.000000
# 2 -0.000125 0.011284 -0.001915 0.000000 -0.002440 0.000000
# 3 -0.002528 -0.001915 0.007112 0.000000 -0.003959 0.000000
# 4 0.000000 0.000000 0.000000 0.129444 0.000000 0.030670
# 5 -0.002261 -0.002440 -0.003959 0.000000 0.037990 0.000000
# 6 0.000000 0.000000 0.000000 0.030670 0.000000 0.041758
#
#
# Mechanical properties :
#
#
# Convention : Reuss Voigt Hill
#
# Bulk Modulus (GPa) = 56.09972 73.04523 64.57247
# Shear Modulus (GPa) = 19.90183 34.36186 27.13185
#
# Velocity S-wave (km/s) = 3.03062 3.98221 3.53855
# Velocity P-wave (km/s) = 6.17545 7.40637 6.81874
#
# Compressibility (1/GPa) = 0.01782540
#
# Stress axis : x y z
#
# Youngs Moduli (GPa) = 116.73519 88.61922 140.60656
#
# Poissons Ratio (x) = 0.01111 0.35545
# Poissons Ratio (y) = 0.01463 0.26931
# Poissons Ratio (z) = 0.29510 0.16974
#
# Static dielectric constant tensor:
#      x y z
#    x 1.833930 0.000000 -0.041700 
#    y 0.000000 1.873310 0.000000 
#    z -0.041700 0.000000 1.801480 
# 
# From -- ./inp_files/41065.got.cif
#   From: 2010.05.17/outbox.cif.g08.bks.cpg/sg5_21_cif.got.tgz:41065.got - 2010.06.03 18:56:24.
