data_PCOD9130567
_publ_section_title
;
Structure prediction by ZEFSAII (Michael W. Deem and Ramdas Pophale) SiO2 
 PCOD9130567
Probable space group: C 2
;
_chemical_formula_sum "Si O2"
_cell_formula_units_Z 20
_cell_length_a 15.995463
_cell_length_b 5.545801
_cell_length_c 15.770737
_cell_angle_alpha 90.000000
_cell_angle_beta 145.140120
_cell_angle_gamma 90.000000
_cell_volume 799.619926
_symmetry_space_group_name_H-M "C 2"
_symmetry_group_IT_number 5
_symmetry_cell_setting 'monoclinic'
loop_
_space_group_symop_operation_xyz
x,y,z
-x,y,-z
1/2+x,1/2+y,z
1/2-x,1/2+y,-z
loop_
_atom_site_type_symbol
_atom_site_label
_atom_site_fract_x
_atom_site_fract_y
_atom_site_fract_z
Si Si1 0.111649 0.586180 0.775792
Si Si2 0.500000 0.079205 0.500000
Si Si3 0.812863 0.405900 0.584214
Si Si4 0.095023 0.818167 0.939963
Si Si5 0.809064 0.120655 0.739605
Si Si6 0.500000 0.932316 0.000000
O O1 0.049467 0.688299 0.633672
O O2 0.127308 0.767907 0.867975
O O3 0.982428 0.409968 0.700597
O O4 0.260024 0.431680 0.898323
O O5 0.660133 0.965470 0.615216
O O6 0.758012 0.674223 0.519755
O O7 0.780316 0.343289 0.653626
O O8 0.047277 0.593191 0.959248
O O9 0.950575 0.982416 0.824154
O O10 0.864933 0.256499 0.869000
#
# Coordination Sequence:
#
# PCOD9130567 Si02
#       6
#     4   2   4   4   4   2
#     4  12  27  49  83 119 157 225 269 351 415 512
#     4  12  28  44  82 118 162 210 288 346 420 496
#     4  12  26  49  81 114 162 209 272 342 419 488
#     4  12  28  52  80 117 168 214 284 337 431 501
#     4  12  27  50  76 116 163 211 274 347 418 495
#     4  12  26  48  80 112 158 226 262 358 406 514
#
# _framework density 25.011882
#
# number of rings (size 3 to 8) (size 9 to 14) (size 15 to 20)
#    0.000    0.000    4.000    5.400    2.800    3.200 
#    0.000    1.000    0.000    0.000    0.000    0.000 
#    0.000    0.000    0.000    0.000    0.000    0.000 
#
# Total GULP energy -55807.655352 kJ/mol
# GULP energy per Si atom -5580.765535 kJ/mol
# Density = 2.495495 g / cm^3
# Si number density = 25.011882 Si / 1000 Ang^3
#
#
#
# Elastic Constant Matrix: (Units=GPa)
#
#
# Indices 1 2 3 4 5 6 
#
# 1 93.7639 25.1364 59.7245 0.0000 -10.4274 0.0000
# 2 25.1364 69.2723 48.4248 0.0000 2.3101 0.0000
# 3 59.7245 48.4248 203.5842 0.0000 19.7815 0.0000
# 4 0.0000 0.0000 0.0000 19.0159 0.0000 -24.4495
# 5 -10.4274 2.3101 19.7815 0.0000 86.4448 0.0000
# 6 0.0000 0.0000 0.0000 -24.4495 0.0000 20.7005
#
#
#
# Elastic Compliance Matrix: (Units=1/GPa)
#
#
# Indices 1 2 3 4 5 6 
#
# 1 0.014040 -0.002548 -0.003768 0.000000 0.002624 0.000000
# 2 -0.002548 0.017798 -0.003487 0.000000 0.000015 0.000000
# 3 -0.003768 -0.003487 0.007038 0.000000 -0.001972 0.000000
# 4 0.000000 0.000000 0.000000 -0.101404 0.000000 -0.119769
# 5 0.002624 0.000015 -0.001972 0.000000 0.012335 0.000000
# 6 0.000000 0.000000 0.000000 -0.119769 0.000000 -0.093151
#
#
# Mechanical properties :
#
#
# Convention : Reuss Voigt Hill
#
# Bulk Modulus (GPa) = 51.89523 70.35464 61.12493
# Shear Modulus (GPa) = -42.62063 40.78787 -0.91638
#
# Velocity S-wave (km/s) = -4.13245 4.04262 -0.60595
# Velocity P-wave (km/s) = 1.40579 7.06965 4.89917
#
# Compressibility (1/GPa) = 0.01926959
#
# Stress axis : x y z
#
# Youngs Moduli (GPa) = 71.22572 56.18685 142.07882
#
# Poissons Ratio (x) = 0.14318 0.53530
# Poissons Ratio (y) = 0.18151 0.49547
# Poissons Ratio (z) = 0.26835 0.19594
#
# Static dielectric constant tensor:
#      x y z
#    x 2.136120 0.000000 -0.027710 
#    y 0.000000 1.937670 0.000000 
#    z -0.027710 0.000000 2.020420 
# 
# From -- ./inp_files/28279.got.cif
#   From: 2010.05.17/outbox.cif.g08.bks.cpg/sg5_15_cif.got.tgz:28279.got - 2010.06.03 18:56:24.
