data_PCOD9130899
_publ_section_title
;
Structure prediction by ZEFSAII (Michael W. Deem and Ramdas Pophale) SiO2 
 PCOD9130899
Probable space group: P M
;
_chemical_formula_sum "Si O2"
_cell_formula_units_Z 14
_cell_length_a 11.355809
_cell_length_b 12.826760
_cell_length_c 7.812257
_cell_angle_alpha 90.000000
_cell_angle_beta 141.808761
_cell_angle_gamma 90.000000
_cell_volume 703.562276
_symmetry_space_group_name_H-M "P M"
_symmetry_group_IT_number 6
_symmetry_cell_setting 'monoclinic'
loop_
_space_group_symop_operation_xyz
x,y,z
x,-y,z
loop_
_atom_site_type_symbol
_atom_site_label
_atom_site_fract_x
_atom_site_fract_y
_atom_site_fract_z
Si Si1 0.854350 0.882948 0.740460
Si Si2 0.765396 0.677320 0.494608
Si Si3 0.606823 0.280313 0.979273
Si Si4 0.173504 0.754736 0.961965
Si Si5 0.509731 0.618948 0.506803
Si Si6 0.877336 0.885933 0.162561
Si Si7 0.298185 0.878736 0.763852
O O1 0.731135 0.801263 0.492627
O O2 0.069285 0.840579 0.962255
O O3 0.836208 0.000000 0.657750
O O4 0.807797 0.877907 0.887521
O O5 0.687462 0.624872 0.577238
O O6 0.993538 0.675434 0.726774
O O7 0.645944 0.649152 0.190700
O O8 0.565487 0.342293 0.759211
O O9 0.446624 0.194238 0.835244
O O10 0.795949 0.211238 0.170381
O O11 0.242043 0.817546 0.873733
O O12 0.346080 0.693778 0.244784
O O13 0.442588 0.500000 0.437193
O O14 0.103994 0.883420 0.432548
O O15 0.816647 0.000000 0.160877
O O16 0.356716 0.000000 0.860803
#
# Coordination Sequence:
#
# PCOD9130899 Si02
#       7
#     2   2   2   2   2   2   2
#     4   9  18  36  64  94 133 175 204 252 324 396
#     4  10  23  42  69  93 129 162 216 272 319 398
#     4  12  22  41  65  95 128 172 213 269 324 388
#     4  10  21  42  63  93 131 172 208 268 322 389
#     4  12  27  47  67  91 126 171 230 289 326 364
#     4  10  19  35  59  94 137 173 207 255 320 394
#     4  11  22  35  63 102 140 175 208 255 323 403
#
# _framework density 19.898734000000001
#
# number of rings (size 3 to 8) (size 9 to 14) (size 15 to 20)
#    0.857    0.571    4.286    1.714    0.000    2.286 
#    0.000    2.143    0.000    0.000    0.000    0.000 
#    0.000    0.000    0.000    0.000    0.000    0.000 
#
# Total GULP energy -78047.265915 kJ/mol
# GULP energy per Si atom -5574.804708 kJ/mol
# Density = 1.985344 g / cm^3
# Si number density = 19.898734 Si / 1000 Ang^3
#
#
#
# Elastic Constant Matrix: (Units=GPa)
#
#
# Indices 1 2 3 4 5 6 
#
# 1 85.9038 20.1719 25.1977 0.0000 -13.4893 0.0000
# 2 20.1719 60.2964 12.0748 0.0000 -11.2777 0.0000
# 3 25.1977 12.0748 75.8400 0.0000 -19.5941 0.0000
# 4 0.0000 0.0000 0.0000 7.7795 0.0000 9.7723
# 5 -13.4893 -11.2777 -19.5941 0.0000 36.9536 0.0000
# 6 0.0000 0.0000 0.0000 9.7723 0.0000 1.4074
#
#
#
# Elastic Compliance Matrix: (Units=1/GPa)
#
#
# Indices 1 2 3 4 5 6 
#
# 1 0.013825 -0.003531 -0.003483 0.000000 0.002122 0.000000
# 2 -0.003531 0.018668 -0.000765 0.000000 0.004003 0.000000
# 3 -0.003483 -0.000765 0.016310 0.000000 0.007143 0.000000
# 4 0.000000 0.000000 0.000000 -0.016645 0.000000 0.115581
# 5 0.002122 0.004003 0.007143 0.000000 0.032845 0.000000
# 6 0.000000 0.000000 0.000000 0.115581 0.000000 -0.092010
#
#
# Mechanical properties :
#
#
# Convention : Reuss Voigt Hill
#
# Bulk Modulus (GPa) = 30.07886 37.43655 33.75771
# Shear Modulus (GPa) = -13540.12258 20.20114 -6759.96072
#
# Velocity S-wave (km/s) = -82.57897 3.18967 -58.34858
# Velocity P-wave (km/s) = 95.27451 5.69383 67.24884
#
# Compressibility (1/GPa) = 0.03324594
#
# Stress axis : x y z
#
# Youngs Moduli (GPa) = 72.33348 53.56836 61.31125
#
# Poissons Ratio (x) = 0.18913 0.21354
# Poissons Ratio (y) = 0.25538 0.04690
# Poissons Ratio (z) = 0.25193 0.04098
#
# Static dielectric constant tensor:
#      x y z
#    x 1.735890 0.000000 0.000490 
#    y 0.000000 1.691790 0.000000 
#    z 0.000490 0.000000 1.697420 
# 
# From -- ./inp_files/4022.got.cif
#   From: 2010.05.17/outbox.cif.g08.bks.cpg/sg6_3_cif.got.tgz:4022.got - 2010.06.03 19:42:10.
