data_PCOD9130667
_publ_section_title
;
Structure prediction by ZEFSAII (Michael W. Deem and Ramdas Pophale) SiO2 
 PCOD9130667
Probable space group: C 2
;
_chemical_formula_sum "Si O2"
_cell_formula_units_Z 16
_cell_length_a 30.000000
_cell_length_b 12.000000
_cell_length_c 30.000000
_cell_angle_alpha 90.000000
_cell_angle_beta 170.000000
_cell_angle_gamma 90.000000
_cell_volume 1875.400319
_symmetry_space_group_name_H-M "C 2"
_symmetry_group_IT_number 5
_symmetry_cell_setting 'monoclinic'
loop_
_space_group_symop_operation_xyz
x,y,z
-x,y,-z
1/2+x,1/2+y,z
1/2-x,1/2+y,-z
loop_
_atom_site_type_symbol
_atom_site_label
_atom_site_fract_x
_atom_site_fract_y
_atom_site_fract_z
Si Si1 0.712628 0.399200 0.534922
Si Si2 0.797974 0.522496 0.944519
Si Si3 0.065866 0.657653 0.425658
Si Si4 0.989422 0.795625 0.540748
Si Si5 0.384905 0.339702 0.657810
Si Si6 0.015092 0.452132 0.963243
Si Si7 0.067434 0.052605 0.885888
Si Si8 0.372958 0.691424 0.146912
O O1 0.484936 0.467489 0.334755
O O2 0.639946 0.271691 0.472785
O O3 0.691222 0.411681 0.460715
O O4 0.991241 0.439284 0.825567
O O5 0.912145 0.534795 0.006458
O O6 0.747341 0.624738 0.928972
O O7 0.016594 0.700532 0.427464
O O8 0.831658 0.590514 0.171119
O O9 0.329754 0.590963 0.681955
O O10 0.000000 0.753866 0.500000
O O11 0.247986 0.866026 0.802933
O O12 0.743874 0.880371 0.301978
O O13 0.130480 0.261565 0.414366
O O14 0.494218 0.424368 0.802812
O O15 0.637951 0.266770 0.897903
O O16 0.000000 0.496292 0.000000
O O17 0.064148 0.114061 0.834097
#
# Coordination Sequence:
#
# PCOD9130667 Si02
#       8
#     4   4   4   4   4   4   4   4
#     4  12  21  33  58  78 115 143 193 228 267 330
#     4  12  22  35  55  84 109 157 185 221 280 341
#     4  12  21  36  55  83 111 152 185 223 280 339
#     4  10  20  33  54  82 115 144 176 224 280 339
#     4  12  25  39  51  80 115 149 192 240 267 321
#     4  10  19  33  53  82 115 144 177 225 279 337
#     4  12  24  36  56  79 108 152 194 228 276 332
#     4  12  24  37  55  78 111 152 195 229 277 331
#
# _framework density 8.5315119999999993
#
# number of rings (size 3 to 8) (size 9 to 14) (size 15 to 20)
#    0.000    0.500    6.250    3.750    1.750    0.000 
#    0.000    0.000    0.000    0.000    0.000    3.500 
#    0.000    0.000    0.000    0.000    0.000    0.000 
#
# Total GULP energy -89200.787959 kJ/mol
# GULP energy per Si atom -5575.049247 kJ/mol
# Density = 0.851209 g / cm^3
# Si number density = 8.531512 Si / 1000 Ang^3
#
#
#
# Elastic Constant Matrix: (Units=GPa)
#
#
# Indices 1 2 3 4 5 6 
#
# 1 111.5719 16.8152 12.2410 -0.1684 5.5771 -0.0549
# 2 16.8152 34.0273 22.3624 -0.0770 1.3321 0.0155
# 3 12.2410 22.3624 129.9185 0.1134 4.5947 0.0593
# 4 -0.1684 -0.0770 0.1134 28.3384 0.0232 -0.1288
# 5 5.5771 1.3321 4.5947 0.0232 30.7262 -0.0020
# 6 -0.0549 0.0155 0.0593 -0.1288 -0.0020 21.8913
#
#
#
# Elastic Compliance Matrix: (Units=1/GPa)
#
#
# Indices 1 2 3 4 5 6 
#
# 1 0.009759 -0.004728 -0.000051 0.000047 -0.001559 0.000028
# 2 -0.004728 0.035438 -0.005660 0.000091 0.000168 -0.000021
# 3 -0.000051 -0.005660 0.008713 -0.000050 -0.001048 -0.000020
# 4 0.000047 0.000091 -0.000050 0.035290 -0.000032 0.000208
# 5 -0.001559 0.000168 -0.001048 -0.000032 0.032978 0.000002
# 6 0.000028 -0.000021 -0.000020 0.000208 0.000002 0.045682
#
#
# Mechanical properties :
#
#
# Convention : Reuss Voigt Hill
#
# Bulk Modulus (GPa) = 30.27347 42.03944 36.15645
# Shear Modulus (GPa) = 25.03143 31.13110 28.08127
#
# Velocity S-wave (km/s) = 3.83430 4.27602 4.06117
# Velocity P-wave (km/s) = 6.11417 7.00503 6.57471
#
# Compressibility (1/GPa) = 0.03303222
#
# Stress axis : x y z
#
# Youngs Moduli (GPa) = 102.46964 28.21807 114.76664
#
# Poissons Ratio (x) = 0.13342 0.00580
# Poissons Ratio (y) = 0.48450 0.64962
# Poissons Ratio (z) = 0.00518 0.15973
#
# Static dielectric constant tensor:
#      x y z
#    x 1.622090 -0.000140 -0.002900 
#    y -0.000140 1.641020 -0.000520 
#    z -0.002900 -0.000520 1.576590 
# 
# From -- ./inp_files/72533.got.cif
#   From: 2010.05.17/outbox.ucp.g08.bks.cvg/sg5_37_cif.got.tgz:72533.got - 2010.06.11 12:53:14.
