data_PCOD9130801
_publ_section_title
;
Structure prediction by ZEFSAII (Michael W. Deem and Ramdas Pophale) SiO2 
 PCOD9130801
Probable space group: P M
;
_chemical_formula_sum "Si O2"
_cell_formula_units_Z 14
_cell_length_a 11.002109
_cell_length_b 12.958278
_cell_length_c 7.455737
_cell_angle_alpha 90.000000
_cell_angle_beta 42.504596
_cell_angle_gamma 90.000000
_cell_volume 718.183093
_symmetry_space_group_name_H-M "P M"
_symmetry_group_IT_number 6
_symmetry_cell_setting 'monoclinic'
loop_
_space_group_symop_operation_xyz
x,y,z
x,-y,z
loop_
_atom_site_type_symbol
_atom_site_label
_atom_site_fract_x
_atom_site_fract_y
_atom_site_fract_z
Si Si1 0.238580 0.884332 0.664850
Si Si2 0.460060 0.618033 0.946413
Si Si3 0.754690 0.115654 0.430005
Si Si4 0.349560 0.825089 0.925696
Si Si5 0.814458 0.273291 0.657929
Si Si6 0.176489 0.262376 0.436399
Si Si7 0.665303 0.882935 0.116755
O O1 0.241644 0.864899 0.873578
O O2 0.144621 0.793295 0.657987
O O3 0.449684 0.878233 0.378524
O O4 0.172173 0.000000 0.697945
O O5 0.430847 0.500000 0.932155
O O6 0.337247 0.655130 0.248397
O O7 0.397938 0.702105 0.864732
O O8 0.666508 0.642265 0.767975
O O9 0.543364 0.120424 0.719243
O O10 0.847927 0.203168 0.445948
O O11 0.749375 0.135185 0.222588
O O12 0.822704 0.000000 0.388395
O O13 0.243294 0.829066 0.227981
O O14 0.000026 0.310677 0.540225
O O15 0.727971 0.197394 0.900721
O O16 0.710797 0.000000 0.011899
#
# Coordination Sequence:
#
# PCOD9130801 Si02
#       7
#     2   2   2   2   2   2   2
#     4  10  18  33  57  83 115 154 182 213 266 327
#     4   9  20  41  61  77 104 144 186 235 285 318
#     4   9  17  31  53  78 110 151 184 216 262 321
#     4   8  18  35  55  79 110 140 187 227 268 318
#     4  11  20  34  56  80 111 141 180 227 275 323
#     4  10  22  35  54  85 113 143 180 228 269 331
#     4   9  17  31  52  78 111 149 183 216 261 324
#
# _framework density 19.493638000000001
#
# number of rings (size 3 to 8) (size 9 to 14) (size 15 to 20)
#    0.857    1.714    1.429    1.714    0.000    5.143 
#    0.000    2.143    0.000    0.000    0.000    0.000 
#    0.000    0.000    0.000    0.000    0.000    0.000 
#
# Total GULP energy -78038.596764 kJ/mol
# GULP energy per Si atom -5574.185483 kJ/mol
# Density = 1.944927 g / cm^3
# Si number density = 19.493638 Si / 1000 Ang^3
#
#
#
# Elastic Constant Matrix: (Units=GPa)
#
#
# Indices 1 2 3 4 5 6 
#
# 1 58.5759 10.6278 -6.5322 0.0000 -7.2880 0.0000
# 2 10.6278 87.9545 -4.0978 0.0000 -3.4983 0.0000
# 3 -6.5322 -4.0978 44.3495 0.0000 -8.3043 0.0000
# 4 0.0000 0.0000 0.0000 5.0870 0.0000 2.3812
# 5 -7.2880 -3.4983 -8.3043 0.0000 25.5174 0.0000
# 6 0.0000 0.0000 0.0000 2.3812 0.0000 11.7977
#
#
#
# Elastic Compliance Matrix: (Units=1/GPa)
#
#
# Indices 1 2 3 4 5 6 
#
# 1 0.018602 -0.001823 0.003748 0.000000 0.006283 0.000000
# 2 -0.001823 0.011697 0.001081 0.000000 0.001435 0.000000
# 3 0.003748 0.001081 0.024949 0.000000 0.009338 0.000000
# 4 0.000000 0.000000 0.000000 0.217088 0.000000 -0.043816
# 5 0.006283 0.001435 0.009338 0.000000 0.044219 0.000000
# 6 0.000000 0.000000 0.000000 -0.043816 0.000000 0.093606
#
#
# Mechanical properties :
#
#
# Convention : Reuss Voigt Hill
#
# Bulk Modulus (GPa) = 16.32408 21.20838 18.76623
# Shear Modulus (GPa) = 11.77662 21.20588 16.49125
#
# Velocity S-wave (km/s) = 2.46056 3.30181 2.91173
# Velocity P-wave (km/s) = 4.05768 5.04373 4.57733
#
# Compressibility (1/GPa) = 0.06125921
#
# Stress axis : x y z
#
# Youngs Moduli (GPa) = 53.75667 85.49024 40.08246
#
# Poissons Ratio (x) = 0.15587 -0.15023
# Poissons Ratio (y) = 0.09801 -0.04332
# Poissons Ratio (z) = -0.20148 -0.09240
#
# Static dielectric constant tensor:
#      x y z
#    x 1.711920 0.000000 -0.039740 
#    y 0.000000 1.630250 0.000000 
#    z -0.039740 0.000000 1.731360 
# 
# From -- ./inp_files/2840.got.cif
#   From: 2010.05.17/outbox.cif.g08.bks.cpg/sg6_2_cif.got.tgz:2840.got - 2010.06.03 19:42:10.
