data_PCOD9130121
_publ_section_title
;
Structure prediction by ZEFSAII (Michael W. Deem and Ramdas Pophale) SiO2 
 PCOD9130121
Probable space group: C 2
;
_chemical_formula_sum "Si O2"
_cell_formula_units_Z 26
_cell_length_a 14.143688
_cell_length_b 4.940282
_cell_length_c 21.189840
_cell_angle_alpha 90.000000
_cell_angle_beta 134.844094
_cell_angle_gamma 90.000000
_cell_volume 1049.797718
_symmetry_space_group_name_H-M "C 2"
_symmetry_group_IT_number 5
_symmetry_cell_setting 'monoclinic'
loop_
_space_group_symop_operation_xyz
x,y,z
-x,y,-z
1/2+x,1/2+y,z
1/2-x,1/2+y,-z
loop_
_atom_site_type_symbol
_atom_site_label
_atom_site_fract_x
_atom_site_fract_y
_atom_site_fract_z
Si Si1 0.133329 0.687120 0.888019
Si Si2 0.974882 0.040618 0.721555
Si Si3 0.000000 0.938327 0.500000
Si Si4 0.190712 0.687575 0.049950
Si Si5 0.829378 0.102590 0.532378
Si Si6 0.253091 0.288813 0.300609
Si Si7 0.240642 0.288128 0.785701
O O1 0.181139 0.380228 0.904650
O O2 0.027062 0.794739 0.788762
O O3 0.261163 0.877124 0.931238
O O4 0.100417 0.738685 0.945956
O O5 0.896907 0.950350 0.622859
O O6 0.873998 0.208179 0.717685
O O7 0.099217 0.201144 0.749687
O O8 0.922845 0.112295 0.515864
O O9 0.885409 0.779721 0.407001
O O10 0.159534 0.758118 0.107472
O O11 0.708382 0.898880 0.462203
O O12 0.235996 0.580829 0.260549
O O13 0.264683 0.081954 0.247535
#
# Coordination Sequence:
#
# PCOD9130121 Si02
#       7
#     4   4   2   4   4   4   4
#     4   9  19  36  66 101 128 177 220 272 323 407
#     4  11  25  45  72  98 138 176 227 277 336 392
#     4  12  28  48  68 100 138 176 228 280 334 402
#     4   9  18  37  66  97 135 172 222 263 341 389
#     4  12  29  45  70  99 135 178 225 279 340 396
#     4  12  28  42  69 102 134 176 232 272 335 404
#     4  11  25  44  68 100 137 179 218 282 333 393
#
# _framework density 24.766679
#
# number of rings (size 3 to 8) (size 9 to 14) (size 15 to 20)
#    0.000    1.231    3.077    1.846    4.308    6.154 
#    0.000    0.769    0.000    7.385    0.000    0.000 
#    0.000    0.000    0.000    0.000    0.000    0.000 
#
# Total GULP energy -72721.252922 kJ/mol
# GULP energy per Si atom -5593.942532 kJ/mol
# Density = 2.471031 g / cm^3
# Si number density = 24.766679 Si / 1000 Ang^3
#
#
#
# Elastic Constant Matrix: (Units=GPa)
#
#
# Indices 1 2 3 4 5 6 
#
# 1 156.3428 9.8122 7.9796 -0.0001 -5.7259 -0.0002
# 2 9.8122 69.7425 1.0396 -0.0001 5.6263 -0.0005
# 3 7.9796 1.0396 100.3800 0.0000 -55.7520 0.0000
# 4 -0.0001 -0.0001 0.0000 30.2342 0.0000 -16.6813
# 5 -5.7259 5.6263 -55.7520 0.0000 16.4545 0.0000
# 6 -0.0002 -0.0005 0.0000 -16.6813 0.0000 22.0058
#
#
#
# Elastic Compliance Matrix: (Units=1/GPa)
#
#
# Indices 1 2 3 4 5 6 
#
# 1 0.006466 -0.000820 -0.001020 0.000000 -0.000927 0.000000
# 2 -0.000820 0.013919 0.003267 0.000000 0.006024 0.000001
# 3 -0.001020 0.003267 -0.010423 0.000000 -0.036788 0.000000
# 4 0.000000 0.000000 0.000000 0.056854 0.000000 0.043098
# 5 -0.000927 0.006024 -0.036788 0.000000 -0.066257 0.000000
# 6 0.000000 0.000001 0.000000 0.043098 0.000000 0.078112
#
#
# Mechanical properties :
#
#
# Convention : Reuss Voigt Hill
#
# Bulk Modulus (GPa) = 78.03268 40.45869 59.24569
# Shear Modulus (GPa) = 62.42997 34.24782 48.33889
#
# Velocity S-wave (km/s) = 5.02613 3.72266 4.42268
# Velocity P-wave (km/s) = 8.07825 5.90330 7.07486
#
# Compressibility (1/GPa) = 0.01281514
#
# Stress axis : x y z
#
# Youngs Moduli (GPa) = 154.66049 71.84363 -95.94064
#
# Poissons Ratio (x) = 0.05889 -0.09789
# Poissons Ratio (y) = 0.12677 0.31341
# Poissons Ratio (z) = 0.15781 -0.23469
#
# Static dielectric constant tensor:
#      x y z
#    x 1.947720 0.000000 0.055750 
#    y 0.000000 1.891930 0.000000 
#    z 0.055750 0.000000 2.095450 
# 
# From -- ./inp_files/65706.got.cif
#   From: 2010.05.17/outbox.cif.g08.bks.cpg/sg5_33_cif.got.tgz:65706.got - 2010.06.03 18:56:24.
