data_PCOD9130482
_publ_section_title
;
Structure prediction by ZEFSAII (Michael W. Deem and Ramdas Pophale) SiO2 
 PCOD9130482
Probable space group: C 2
;
_chemical_formula_sum "Si O2"
_cell_formula_units_Z 20
_cell_length_a 20.197706
_cell_length_b 8.935994
_cell_length_c 14.809241
_cell_angle_alpha 90.000000
_cell_angle_beta 164.395385
_cell_angle_gamma 90.000000
_cell_volume 718.994879
_symmetry_space_group_name_H-M "C 2"
_symmetry_group_IT_number 5
_symmetry_cell_setting 'monoclinic'
loop_
_space_group_symop_operation_xyz
x,y,z
-x,y,-z
1/2+x,1/2+y,z
1/2-x,1/2+y,-z
loop_
_atom_site_type_symbol
_atom_site_label
_atom_site_fract_x
_atom_site_fract_y
_atom_site_fract_z
Si Si1 0.243098 0.847230 0.259350
Si Si2 0.024691 0.646421 0.394148
Si Si3 0.295034 0.888200 0.638507
Si Si4 0.217805 0.575803 0.113985
Si Si5 0.002329 0.181528 0.756324
O O1 0.208196 0.752523 0.123940
O O2 0.425569 0.744577 0.558199
O O3 0.337115 0.014062 0.373738
O O4 0.000000 0.855375 0.000000
O O5 0.209617 0.775937 0.605295
O O6 0.903391 0.566669 0.144689
O O7 0.792369 0.706124 0.144001
O O8 0.352021 0.775478 0.631627
O O9 0.078915 0.009722 0.342632
O O10 0.538543 0.994103 0.950792
O O11 0.500000 0.526548 0.500000
#
# Coordination Sequence:
#
# PCOD9130482 Si02
#       5
#     4   4   4   4   4
#     4  12  24  50  76 111 155 214 263 330 408 471
#     4  12  27  50  81 115 163 212 267 335 405 476
#     4  12  25  48  79 117 161 207 268 333 393 482
#     4  12  26  46  82 115 159 212 273 329 404 484
#     4  12  24  46  83 112 159 214 261 328 407 471
#
# _framework density 27.816609
#
# number of rings (size 3 to 8) (size 9 to 14) (size 15 to 20)
#    0.000    0.000    8.000    1.200    0.000    0.000 
#    7.200    0.000    0.000    0.000    0.000    0.000 
#    0.000    0.000    0.000    0.000    0.000    0.000 
#
# Total GULP energy -56183.747482 kJ/mol
# GULP energy per Si atom -5618.374748 kJ/mol
# Density = 2.775330 g / cm^3
# Si number density = 27.816609 Si / 1000 Ang^3
#
#
#
# Elastic Constant Matrix: (Units=GPa)
#
#
# Indices 1 2 3 4 5 6 
#
# 1 101.0963 49.4099 30.4019 0.0019 17.2153 0.0001
# 2 49.4099 201.1448 56.7662 0.0031 9.2986 0.0018
# 3 30.4019 56.7662 187.0636 0.0106 31.9059 0.0040
# 4 0.0019 0.0031 0.0106 56.0088 0.0034 -15.0203
# 5 17.2153 9.2986 31.9059 0.0034 48.6721 0.0008
# 6 0.0001 0.0018 0.0040 -15.0203 0.0008 34.4280
#
#
#
# Elastic Compliance Matrix: (Units=1/GPa)
#
#
# Indices 1 2 3 4 5 6 
#
# 1 0.011907 -0.002609 -0.000575 0.000000 -0.003337 0.000000
# 2 -0.002609 0.006009 -0.001532 0.000000 0.000779 0.000000
# 3 -0.000575 -0.001532 0.006552 -0.000001 -0.003799 -0.000001
# 4 0.000000 0.000000 -0.000001 0.020220 -0.000001 0.008822
# 5 -0.003337 0.000779 -0.003799 -0.000001 0.024067 0.000000
# 6 0.000000 0.000000 -0.000001 0.008822 0.000000 0.032895
#
#
# Mechanical properties :
#
#
# Convention : Reuss Voigt Hill
#
# Bulk Modulus (GPa) = 66.50075 84.71785 75.60930
# Shear Modulus (GPa) = 43.06844 51.33686 47.20265
#
# Velocity S-wave (km/s) = 3.93911 4.30064 4.12384
# Velocity P-wave (km/s) = 6.68188 7.42850 7.06506
#
# Compressibility (1/GPa) = 0.01503742
#
# Stress axis : x y z
#
# Youngs Moduli (GPa) = 83.98102 166.42353 152.62160
#
# Poissons Ratio (x) = 0.43413 0.08768
# Poissons Ratio (y) = 0.21907 0.23387
# Poissons Ratio (z) = 0.04825 0.25502
#
# Static dielectric constant tensor:
#      x y z
#    x 2.195190 0.000000 -0.064440 
#    y 0.000000 2.079230 0.000000 
#    z -0.064440 0.000000 2.176140 
# 
# From -- ./inp_files/70019.got.cif
#   From: 2010.05.17/outbox.cif.g08.bks.cpg/sg5_36_cif.got.tgz:70019.got - 2010.06.03 18:56:24.
