data_PCOD9130508
_publ_section_title
;
Structure prediction by ZEFSAII (Michael W. Deem and Ramdas Pophale) SiO2 
 PCOD9130508
Probable space group: C 2
;
_chemical_formula_sum "Si O2"
_cell_formula_units_Z 18
_cell_length_a 20.031525
_cell_length_b 7.403744
_cell_length_c 14.711014
_cell_angle_alpha 90.000000
_cell_angle_beta 161.473799
_cell_angle_gamma 90.000000
_cell_volume 693.230343
_symmetry_space_group_name_H-M "C 2"
_symmetry_group_IT_number 5
_symmetry_cell_setting 'monoclinic'
loop_
_space_group_symop_operation_xyz
x,y,z
-x,y,-z
1/2+x,1/2+y,z
1/2-x,1/2+y,-z
loop_
_atom_site_type_symbol
_atom_site_label
_atom_site_fract_x
_atom_site_fract_y
_atom_site_fract_z
Si Si1 0.103195 0.779010 0.390070
Si Si2 0.000000 0.110522 0.000000
Si Si3 0.594111 0.902413 0.813678
Si Si4 0.256864 0.091380 0.155612
Si Si5 0.216957 0.663443 0.335057
O O1 0.157701 0.745012 0.355759
O O2 0.947568 0.609224 0.211415
O O3 0.135241 0.990483 0.457012
O O4 0.305968 0.717663 0.710310
O O5 0.106021 0.037441 0.043640
O O6 0.378218 0.809836 0.502640
O O7 0.739782 0.927655 0.913222
O O8 0.683239 0.778058 0.010511
O O9 0.500000 0.116869 0.500000
O O10 0.000000 0.633022 0.000000
#
# Coordination Sequence:
#
# PCOD9130508 Si02
#       5
#     4   2   4   4   4
#     4  12  25  50  86 127 174 222 290 360 432 520
#     4  12  24  54  92 114 176 230 274 376 432 496
#     4  12  30  52  84 128 174 229 295 356 435 527
#     4  12  29  56  85 128 176 231 292 366 433 520
#     4  12  27  48  88 136 172 232 291 357 447 523
#
# _framework density 25.965395000000001
#
# number of rings (size 3 to 8) (size 9 to 14) (size 15 to 20)
#    0.000    0.000    7.778    0.000    4.667    1.778 
#    4.000    0.000    0.000    0.000    0.000    0.000 
#    0.000    0.000    0.000    0.000    0.000    0.000 
#
# Total GULP energy -50268.125425 kJ/mol
# GULP energy per Si atom -5585.347269 kJ/mol
# Density = 2.590630 g / cm^3
# Si number density = 25.965395 Si / 1000 Ang^3
#
#
#
# Elastic Constant Matrix: (Units=GPa)
#
#
# Indices 1 2 3 4 5 6 
#
# 1 174.0719 67.7331 11.8951 0.0009 15.1695 0.0007
# 2 67.7331 230.9536 75.3257 0.0009 -1.7423 0.0007
# 3 11.8951 75.3257 97.4152 0.0010 -32.4162 0.0016
# 4 0.0009 0.0009 0.0010 49.3310 0.0006 9.4151
# 5 15.1695 -1.7423 -32.4162 0.0006 47.1449 0.0006
# 6 0.0007 0.0007 0.0016 9.4151 0.0006 52.5796
#
#
#
# Elastic Compliance Matrix: (Units=1/GPa)
#
#
# Indices 1 2 3 4 5 6 
#
# 1 0.006712 -0.001969 -0.000052 0.000000 -0.002268 0.000000
# 2 -0.001969 0.006917 -0.006240 0.000000 -0.003401 0.000000
# 3 -0.000052 -0.006240 0.019483 0.000000 0.013183 -0.000001
# 4 0.000000 0.000000 0.000000 0.020989 0.000000 -0.003758
# 5 -0.002268 -0.003401 0.013183 0.000000 0.030880 -0.000001
# 6 0.000000 0.000000 -0.000001 -0.003758 -0.000001 0.019692
#
#
# Mechanical properties :
#
#
# Convention : Reuss Voigt Hill
#
# Bulk Modulus (GPa) = 60.27414 90.26093 75.26754
# Shear Modulus (GPa) = 39.45617 52.97690 46.21654
#
# Velocity S-wave (km/s) = 3.90239 4.52186 4.22350
# Velocity P-wave (km/s) = 6.60065 7.88038 7.26873
#
# Compressibility (1/GPa) = 0.01659086
#
# Stress axis : x y z
#
# Youngs Moduli (GPa) = 148.98750 144.57930 51.32620
#
# Poissons Ratio (x) = 0.28461 0.00268
# Poissons Ratio (y) = 0.29329 0.32026
# Poissons Ratio (z) = 0.00778 0.90213
#
# Static dielectric constant tensor:
#      x y z
#    x 2.128290 0.000000 0.237320 
#    y 0.000000 2.133630 0.000000 
#    z 0.237320 0.000000 2.397080 
# 
# From -- ./inp_files/56759.got.cif
#   From: 2010.05.17/outbox.cif.g08.bks.cpg/sg5_29_cif.got.tgz:56759.got - 2010.06.03 18:56:24.
