data_PCOD9130399
_publ_section_title
;
Structure prediction by ZEFSAII (Michael W. Deem and Ramdas Pophale) SiO2 
 PCOD9130399
Probable space group: C 2
;
_chemical_formula_sum "Si O2"
_cell_formula_units_Z 20
_cell_length_a 13.285429
_cell_length_b 4.824556
_cell_length_c 17.581427
_cell_angle_alpha 90.000000
_cell_angle_beta 50.462679
_cell_angle_gamma 90.000000
_cell_volume 869.080012
_symmetry_space_group_name_H-M "C 2"
_symmetry_group_IT_number 5
_symmetry_cell_setting 'monoclinic'
loop_
_space_group_symop_operation_xyz
x,y,z
-x,y,-z
1/2+x,1/2+y,z
1/2-x,1/2+y,-z
loop_
_atom_site_type_symbol
_atom_site_label
_atom_site_fract_x
_atom_site_fract_y
_atom_site_fract_z
Si Si1 0.087901 0.812520 0.895549
Si Si2 0.689627 0.444178 0.567523
Si Si3 0.324230 0.054232 0.999441
Si Si4 0.229911 0.630935 0.303925
Si Si5 0.562862 0.636582 0.385910
O O1 0.976342 0.627469 0.907721
O O2 0.165605 0.017720 0.805409
O O3 0.177718 0.627536 0.909170
O O4 0.000000 0.978672 0.000000
O O5 0.774896 0.629103 0.467809
O O6 0.728511 0.537840 0.632268
O O7 0.541317 0.518507 0.622271
O O8 0.226946 0.255813 0.999861
O O9 0.098214 0.453204 0.353451
O O10 0.193290 0.951843 0.319058
O O11 0.500000 0.608899 0.500000
#
# Coordination Sequence:
#
# PCOD9130399 Si02
#       5
#     4   4   4   4   4
#     4   8  24  42  64  95 127 163 208 260 300 375
#     4  12  23  40  64  90 126 165 206 258 308 366
#     4   9  20  40  65  86 128 160 202 256 309 351
#     4  12  24  43  64  95 125 168 207 252 319 365
#     4  12  24  41  67  89 129 163 208 261 310 366
#
# _framework density 23.012841999999999
#
# number of rings (size 3 to 8) (size 9 to 14) (size 15 to 20)
#    1.200    0.000    4.000    1.800    0.000    9.600 
#    0.000    0.000    0.000    0.000    0.000    0.000 
#    0.000    0.000    0.000    0.000    0.000    0.000 
#
# Total GULP energy -55899.041100 kJ/mol
# GULP energy per Si atom -5589.904110 kJ/mol
# Density = 2.296046 g / cm^3
# Si number density = 23.012842 Si / 1000 Ang^3
#
#
#
# Elastic Constant Matrix: (Units=GPa)
#
#
# Indices 1 2 3 4 5 6 
#
# 1 101.3105 6.4622 19.8515 0.0001 -13.0748 0.0011
# 2 6.4622 75.6833 0.3073 0.0015 1.4232 0.0054
# 3 19.8515 0.3073 61.5990 0.0009 8.1802 -0.0016
# 4 0.0001 0.0015 0.0009 16.6863 -0.0003 -13.0860
# 5 -13.0748 1.4232 8.1802 -0.0003 16.1187 -0.0016
# 6 0.0011 0.0054 -0.0016 -13.0860 -0.0016 76.8322
#
#
#
# Elastic Compliance Matrix: (Units=1/GPa)
#
#
# Indices 1 2 3 4 5 6 
#
# 1 0.012872 -0.001330 -0.005945 0.000001 0.013576 0.000000
# 2 -0.001330 0.013373 0.000710 -0.000002 -0.002620 -0.000001
# 3 -0.005945 0.000710 0.020153 -0.000001 -0.015112 0.000000
# 4 0.000001 -0.000002 -0.000001 0.069168 0.000004 0.011781
# 5 0.013576 -0.002620 -0.015112 0.000004 0.080953 0.000002
# 6 0.000000 -0.000001 0.000000 0.011781 0.000002 0.015022
#
#
# Mechanical properties :
#
#
# Convention : Reuss Voigt Hill
#
# Bulk Modulus (GPa) = 30.05838 32.42612 31.24225
# Shear Modulus (GPa) = 21.20794 36.05889 28.63341
#
# Velocity S-wave (km/s) = 3.03903 3.96271 3.53120
# Velocity P-wave (km/s) = 5.04026 5.92102 5.49830
#
# Compressibility (1/GPa) = 0.03326859
#
# Stress axis : x y z
#
# Youngs Moduli (GPa) = 77.68566 74.77793 49.62009
#
# Poissons Ratio (x) = 0.09948 0.29497
# Poissons Ratio (y) = 0.10334 -0.03523
# Poissons Ratio (z) = 0.46181 -0.05309
#
# Static dielectric constant tensor:
#      x y z
#    x 1.851830 0.000000 -0.027690 
#    y 0.000000 1.808440 0.000000 
#    z -0.027690 0.000000 1.856420 
# 
# From -- ./inp_files/60021.got.cif
#   From: 2010.05.17/outbox.cif.g08.bks.cpg/sg5_31_cif.got.tgz:60021.got - 2010.06.03 18:56:24.
