data_PCOD9130610
_publ_section_title
;
Structure prediction by ZEFSAII (Michael W. Deem and Ramdas Pophale) SiO2 
 PCOD9130610
Probable space group: C 2
;
_chemical_formula_sum "Si O2"
_cell_formula_units_Z 20
_cell_length_a 16.411523
_cell_length_b 4.857855
_cell_length_c 15.516353
_cell_angle_alpha 90.000000
_cell_angle_beta 34.227219
_cell_angle_gamma 90.000000
_cell_volume 695.804539
_symmetry_space_group_name_H-M "C 2"
_symmetry_group_IT_number 5
_symmetry_cell_setting 'monoclinic'
loop_
_space_group_symop_operation_xyz
x,y,z
-x,y,-z
1/2+x,1/2+y,z
1/2-x,1/2+y,-z
loop_
_atom_site_type_symbol
_atom_site_label
_atom_site_fract_x
_atom_site_fract_y
_atom_site_fract_z
Si Si1 0.535520 0.365250 0.881551
Si Si2 0.921138 0.257389 0.836870
Si Si3 0.339480 0.038942 0.633816
Si Si4 0.259386 0.956247 0.130106
Si Si5 0.338672 0.085089 0.445021
O O1 0.515299 0.552898 0.814941
O O2 0.707570 0.319116 0.743294
O O3 0.500000 0.539662 0.000000
O O4 0.413697 0.125462 0.996863
O O5 0.015385 0.527457 0.734678
O O6 0.867456 0.159398 0.790407
O O7 0.784724 0.286124 0.019436
O O8 0.500000 0.916373 0.500000
O O9 0.294027 0.255613 0.747823
O O10 0.350557 0.189444 0.531605
O O11 0.229861 0.283063 0.492174
#
# Coordination Sequence:
#
# PCOD9130610 Si02
#       5
#     4   4   4   4   4
#     4  12  27  52  83 127 179 239 303 383 458 565
#     4  12  27  51  89 125 174 245 313 374 461 564
#     4  12  31  55  87 139 184 243 305 400 472 551
#     4  12  29  53  87 130 180 242 316 381 470 560
#     4  12  30  57  89 131 185 243 309 390 477 555
#
# _framework density 28.743704000000001
#
# number of rings (size 3 to 8) (size 9 to 14) (size 15 to 20)
#    0.000    0.000    6.000    1.200   11.200    1.600 
#    0.000    0.000    0.000    0.000    0.000    0.000 
#    0.000    0.000    0.000    0.000    0.000    0.000 
#
# Total GULP energy -55976.948649 kJ/mol
# GULP energy per Si atom -5597.694865 kJ/mol
# Density = 2.867828 g / cm^3
# Si number density = 28.743704 Si / 1000 Ang^3
#
#
#
# Elastic Constant Matrix: (Units=GPa)
#
#
# Indices 1 2 3 4 5 6 
#
# 1 139.8184 41.7492 88.8378 -0.0018 5.8201 0.0007
# 2 41.7492 96.2727 55.8294 -0.0212 5.9003 0.0144
# 3 88.8378 55.8294 225.8670 -0.0071 6.6941 0.0050
# 4 -0.0018 -0.0212 -0.0071 56.5469 0.0032 -2.6779
# 5 5.8201 5.9003 6.6941 0.0032 93.6936 -0.0029
# 6 0.0007 0.0144 0.0050 -2.6779 -0.0029 44.2005
#
#
#
# Elastic Compliance Matrix: (Units=1/GPa)
#
#
# Indices 1 2 3 4 5 6 
#
# 1 0.009992 -0.002386 -0.003334 -0.000001 -0.000232 0.000001
# 2 -0.002386 0.012723 -0.002192 0.000004 -0.000496 -0.000004
# 3 -0.003334 -0.002192 0.006283 0.000000 -0.000104 0.000000
# 4 -0.000001 0.000004 0.000000 0.017735 -0.000001 0.001074
# 5 -0.000232 -0.000496 -0.000104 -0.000001 0.010726 0.000001
# 6 0.000001 -0.000004 0.000000 0.001074 0.000001 0.022689
#
#
# Mechanical properties :
#
#
# Convention : Reuss Voigt Hill
#
# Bulk Modulus (GPa) = 75.89231 92.75454 84.32343
# Shear Modulus (GPa) = 49.81854 57.25764 53.53809
#
# Velocity S-wave (km/s) = 4.16769 4.46803 4.32047
# Velocity P-wave (km/s) = 7.04414 7.67837 7.36808
#
# Compressibility (1/GPa) = 0.01317656
#
# Stress axis : x y z
#
# Youngs Moduli (GPa) = 100.07743 78.59617 159.15009
#
# Poissons Ratio (x) = 0.18752 0.53053
# Poissons Ratio (y) = 0.23877 0.34883
# Poissons Ratio (z) = 0.33361 0.17227
#
# Static dielectric constant tensor:
#      x y z
#    x 2.367620 0.000000 -0.013950 
#    y 0.000000 2.291490 0.000000 
#    z -0.013950 0.000000 2.251490 
# 
# From -- ./inp_files/62036.got.cif
#   From: 2010.05.17/outbox.cif.g08.bks.cpg/sg5_32_cif.got.tgz:62036.got - 2010.06.03 18:56:24.
