data_PCOD9130679
_publ_section_title
;
Structure prediction by ZEFSAII (Michael W. Deem and Ramdas Pophale) SiO2 
 PCOD9130679
Probable space group: C 2
;
_chemical_formula_sum "Si O2"
_cell_formula_units_Z 16
_cell_length_a 30.000000
_cell_length_b 12.000000
_cell_length_c 9.000000
_cell_angle_alpha 90.000000
_cell_angle_beta 30.000000
_cell_angle_gamma 90.000000
_cell_volume 1620.000000
_symmetry_space_group_name_H-M "C 2"
_symmetry_group_IT_number 5
_symmetry_cell_setting 'monoclinic'
loop_
_space_group_symop_operation_xyz
x,y,z
-x,y,-z
1/2+x,1/2+y,z
1/2-x,1/2+y,-z
loop_
_atom_site_type_symbol
_atom_site_label
_atom_site_fract_x
_atom_site_fract_y
_atom_site_fract_z
Si Si1 0.099763 0.021500 0.274286
Si Si2 0.293499 0.706714 0.203366
Si Si3 0.638904 0.938249 0.885097
Si Si4 0.774802 0.374725 0.686421
Si Si5 0.088877 0.975440 0.642012
Si Si6 0.404489 0.216378 0.361675
Si Si7 0.449482 0.978928 0.306957
Si Si8 0.235123 0.123100 0.384966
O O1 0.084847 0.031834 0.493232
O O2 0.000000 0.994999 0.500000
O O3 0.141389 0.134902 0.087891
O O4 0.180696 0.933593 0.001677
O O5 0.326178 0.834301 0.118775
O O6 0.188856 0.696860 0.457569
O O7 0.300109 0.656554 0.350004
O O8 0.689433 0.919732 0.578625
O O9 0.673467 0.055018 0.852475
O O10 0.531539 0.940253 0.174163
O O11 0.858381 0.406914 0.553303
O O12 0.760556 0.241279 0.713720
O O13 0.167869 0.035839 0.503234
O O14 0.104528 0.844221 0.560781
O O15 0.000000 0.984844 0.000000
O O16 0.417492 0.106872 0.426840
O O17 0.500000 0.218056 0.000000
O O18 0.500000 0.977221 0.000000
#
# Coordination Sequence:
#
# PCOD9130679 Si02
#       8
#     4   4   4   4   4   4   4   4
#     4  12  26  44  66  95 139 181 232 290 350 410
#     4  11  21  40  70  99 136 183 229 284 350 405
#     4  10  20  37  70 103 134 175 230 275 330 419
#     4  10  22  38  65  98 136 180 222 279 341 405
#     4  11  26  42  66 100 132 180 237 288 343 414
#     4  10  19  37  68  99 134 178 224 280 338 411
#     4   9  17  35  62 101 133 173 224 268 336 406
#     4  11  21  39  67 100 136 174 230 280 332 411
#
# _framework density 9.8765429999999999
#
# number of rings (size 3 to 8) (size 9 to 14) (size 15 to 20)
#    0.000    1.500    3.750    2.250    0.000    6.500 
#    0.000    0.000    0.000    0.000    0.000    0.000 
#    0.000    0.000    0.000    0.000    0.000    0.000 
#
# Total GULP energy -89259.489045 kJ/mol
# GULP energy per Si atom -5578.718065 kJ/mol
# Density = 0.985406 g / cm^3
# Si number density = 9.876543 Si / 1000 Ang^3
#
#
#
# Elastic Constant Matrix: (Units=GPa)
#
#
# Indices 1 2 3 4 5 6 
#
# 1 89.8309 35.1007 54.6893 0.0000 -29.9335 0.0000
# 2 35.1007 146.0645 41.8815 0.0000 -17.7615 0.0000
# 3 54.6893 41.8815 109.1438 0.0000 -29.3664 0.0000
# 4 0.0000 0.0000 0.0000 28.9958 0.0000 -12.5955
# 5 -29.9335 -17.7615 -29.3664 0.0000 46.7062 0.0000
# 6 0.0000 0.0000 0.0000 -12.5955 0.0000 27.4097
#
#
#
# Elastic Compliance Matrix: (Units=1/GPa)
#
#
# Indices 1 2 3 4 5 6 
#
# 1 0.018044 -0.001619 -0.006589 0.000000 0.006806 0.000000
# 2 -0.001619 0.007903 -0.002036 0.000000 0.000687 0.000000
# 3 -0.006589 -0.002036 0.014324 0.000000 0.004009 0.000000
# 4 0.000000 0.000000 0.000000 0.043089 0.000000 0.019800
# 5 0.006806 0.000687 0.004009 0.000000 0.028554 0.000000
# 6 0.000000 0.000000 0.000000 0.019800 0.000000 0.045582
#
#
# Mechanical properties :
#
#
# Convention : Reuss Voigt Hill
#
# Bulk Modulus (GPa) = 50.55182 67.59803 59.07493
# Shear Modulus (GPa) = 27.08878 34.84686 30.96782
#
# Velocity S-wave (km/s) = 3.70722 4.20470 3.96377
# Velocity P-wave (km/s) = 6.63114 7.60713 7.13584
#
# Compressibility (1/GPa) = 0.01978168
#
# Stress axis : x y z
#
# Youngs Moduli (GPa) = 55.42061 126.53662 69.81417
#
# Poissons Ratio (x) = 0.20490 0.45999
# Poissons Ratio (y) = 0.08974 0.14216
# Poissons Ratio (z) = 0.36516 0.25766
#
# Static dielectric constant tensor:
#      x y z
#    x 1.720570 0.000000 0.007010 
#    y 0.000000 1.717470 0.000000 
#    z 0.007010 0.000000 1.671170 
# 
# From -- ./inp_files/32636.got.cif
#   From: 2010.05.17/outbox.ucp.g08.bks.cvg/sg5_17_cif.got.tgz:32636.got - 2010.06.11 12:53:14.
