data_PCOD9130007
_publ_section_title
;
Structure prediction by ZEFSAII (Michael W. Deem and Ramdas Pophale) SiO2 
 PCOD9130007
Probable space group: C 2
;
_chemical_formula_sum "Si O2"
_cell_formula_units_Z 26
_cell_length_a 14.095222
_cell_length_b 7.013575
_cell_length_c 12.091572
_cell_angle_alpha 90.000000
_cell_angle_beta 99.938278
_cell_angle_gamma 90.000000
_cell_volume 1177.410284
_symmetry_space_group_name_H-M "C 2"
_symmetry_group_IT_number 5
_symmetry_cell_setting 'monoclinic'
loop_
_space_group_symop_operation_xyz
x,y,z
-x,y,-z
1/2+x,1/2+y,z
1/2-x,1/2+y,-z
loop_
_atom_site_type_symbol
_atom_site_label
_atom_site_fract_x
_atom_site_fract_y
_atom_site_fract_z
Si Si1 0.708772 0.438790 0.789762
Si Si2 0.339339 0.903101 0.404795
Si Si3 0.500000 0.620092 0.500000
Si Si4 0.888242 0.521517 0.970137
Si Si5 0.718844 0.011293 0.838102
Si Si6 0.334430 0.344646 0.464002
Si Si7 0.894427 0.977996 0.011529
O O1 0.818666 0.480941 0.851473
O O2 0.679897 0.217389 0.799279
O O3 0.692261 0.455431 0.655772
O O4 0.641476 0.528228 0.872374
O O5 0.290003 0.892038 0.274254
O O6 0.362283 0.124999 0.441564
O O7 0.433668 0.770602 0.420344
O O8 0.260238 0.839147 0.478948
O O9 0.421026 0.471420 0.534429
O O10 0.886567 0.749411 0.990174
O O11 0.835077 0.432505 0.065605
O O12 0.000000 0.466713 0.000000
O O13 0.824242 0.055278 0.903724
O O14 0.000000 0.037377 0.000000
#
# Coordination Sequence:
#
# PCOD9130007 Si02
#       7
#     4   4   2   4   4   4   4
#     4   9  20  37  57  88 127 161 205 271 320 386
#     4  11  24  45  68  98 138 179 229 283 338 398
#     4  12  26  44  72 100 128 188 224 280 344 400
#     4   9  18  34  58  88 121 162 206 251 324 397
#     4   9  20  37  57  88 127 161 205 271 320 386
#     4  11  24  45  68  98 138 179 229 283 338 398
#     4   9  18  34  58  88 121 162 206 251 324 397
#
# _framework density 22.082363999999998
#
# number of rings (size 3 to 8) (size 9 to 14) (size 15 to 20)
#    0.000    2.154    1.538    0.462    2.154    3.077 
#    0.000    3.077    0.000    0.000    0.000    0.000 
#    0.000    0.000    0.000    0.000    0.000    0.000 
#
# Total GULP energy -72433.045837 kJ/mol
# GULP energy per Si atom -5571.772757 kJ/mol
# Density = 2.203210 g / cm^3
# Si number density = 22.082364 Si / 1000 Ang^3
#
#
#
# Elastic Constant Matrix: (Units=GPa)
#
#
# Indices 1 2 3 4 5 6 
#
# 1 116.2750 0.4233 43.1409 0.0000 12.1080 0.0000
# 2 0.4233 101.4666 8.4523 0.0000 0.6399 0.0000
# 3 43.1409 8.4523 115.5834 0.0000 0.6887 0.0000
# 4 0.0000 0.0000 0.0000 7.0193 0.0000 8.4224
# 5 12.1080 0.6399 0.6887 0.0000 6.6492 0.0000
# 6 0.0000 0.0000 0.0000 8.4224 0.0000 24.8274
#
#
#
# Elastic Compliance Matrix: (Units=1/GPa)
#
#
# Indices 1 2 3 4 5 6 
#
# 1 0.012675 0.000476 -0.004631 0.000000 -0.022647 0.000000
# 2 0.000476 0.009939 -0.000894 0.000000 -0.001730 0.000000
# 3 -0.004631 -0.000894 0.010401 0.000000 0.007441 0.000000
# 4 0.000000 0.000000 0.000000 0.240262 0.000000 -0.081506
# 5 -0.022647 -0.001730 0.007441 0.000000 0.191028 0.000000
# 6 0.000000 0.000000 0.000000 -0.081506 0.000000 0.067928
#
#
# Mechanical properties :
#
#
# Convention : Reuss Voigt Hill
#
# Bulk Modulus (GPa) = 43.63602 48.59534 46.11568
# Shear Modulus (GPa) = 9.09142 26.45308 17.77225
#
# Velocity S-wave (km/s) = 2.03125 3.46486 2.84001
# Velocity P-wave (km/s) = 5.03039 6.16938 5.62877
#
# Compressibility (1/GPa) = 0.02291685
#
# Stress axis : x y z
#
# Youngs Moduli (GPa) = 78.89601 100.61513 96.14283
#
# Poissons Ratio (x) = -0.04786 0.44521
# Poissons Ratio (y) = -0.03753 0.08596
# Poissons Ratio (z) = 0.36534 0.08995
#
# Static dielectric constant tensor:
#      x y z
#    x 2.119490 0.000000 0.211570 
#    y 0.000000 1.932280 0.000000 
#    z 0.211570 0.000000 1.922150 
# 
# From -- ./inp_files/41560.got.cif
#   From: 2010.05.17/outbox.cif.g08.bks.cpg/sg5_21_cif.got.tgz:41560.got - 2010.06.03 18:56:24.
