data_PCOD9130874
_publ_section_title
;
Structure prediction by ZEFSAII (Michael W. Deem and Ramdas Pophale) SiO2 
 PCOD9130874
Probable space group: P M
;
_chemical_formula_sum "Si O2"
_cell_formula_units_Z 14
_cell_length_a 11.202678
_cell_length_b 14.991834
_cell_length_c 11.839726
_cell_angle_alpha 90.000000
_cell_angle_beta 153.808042
_cell_angle_gamma 90.000000
_cell_volume 877.669146
_symmetry_space_group_name_H-M "P M"
_symmetry_group_IT_number 6
_symmetry_cell_setting 'monoclinic'
loop_
_space_group_symop_operation_xyz
x,y,z
x,-y,z
loop_
_atom_site_type_symbol
_atom_site_label
_atom_site_fract_x
_atom_site_fract_y
_atom_site_fract_z
Si Si1 0.847440 0.104017 0.204900
Si Si2 0.448952 0.826956 0.673737
Si Si3 0.597777 0.105226 0.559434
Si Si4 0.324408 0.671130 0.719029
Si Si5 0.216546 0.105102 0.020580
Si Si6 0.493010 0.777085 0.064867
Si Si7 0.734764 0.599326 0.234372
O O1 0.161057 0.125503 0.450815
O O2 0.810699 0.000000 0.198430
O O3 0.676544 0.130412 0.948280
O O4 0.724403 0.164081 0.200852
O O5 0.530995 0.839472 0.614271
O O6 0.407110 0.725120 0.678464
O O7 0.899953 0.123070 0.771433
O O8 0.586761 0.000000 0.581549
O O9 0.382000 0.119573 0.276789
O O10 0.299206 0.746804 0.796532
O O11 0.047076 0.618659 0.475260
O O12 0.564012 0.611348 0.973796
O O13 0.342294 0.167129 0.031089
O O14 0.246143 0.000000 0.015424
O O15 0.620125 0.682065 0.210892
O O16 0.696292 0.500000 0.247431
#
# Coordination Sequence:
#
# PCOD9130874 Si02
#       7
#     2   2   2   2   2   2   2
#     4  11  20  30  50  74 104 142 164 210 257 294
#     4  11  19  35  49  73 106 135 173 217 240 297
#     4  10  21  33  48  71  99 144 186 206 235 281
#     4   9  19  33  52  79 103 124 163 210 265 312
#     4  10  21  34  49  70 106 144 174 209 240 286
#     4   9  21  33  51  76 107 126 175 203 254 316
#     4  10  19  34  54  79 105 125 158 209 270 322
#
# _framework density 15.95134
#
# number of rings (size 3 to 8) (size 9 to 14) (size 15 to 20)
#    0.857    1.143    1.429    3.000    2.000    1.143 
#    0.000    2.857    0.000    0.000    0.000    6.000 
#    0.000    0.000    0.000    0.000    0.000    0.000 
#
# Total GULP energy -77991.261728 kJ/mol
# GULP energy per Si atom -5570.804409 kJ/mol
# Density = 1.591503 g / cm^3
# Si number density = 15.951340 Si / 1000 Ang^3
#
#
#
# Elastic Constant Matrix: (Units=GPa)
#
#
# Indices 1 2 3 4 5 6 
#
# 1 58.4070 24.4022 -4.9843 0.0000 -0.0571 0.0000
# 2 24.4022 80.0793 3.9821 0.0000 4.1852 0.0000
# 3 -4.9843 3.9821 80.0198 0.0000 11.7319 0.0000
# 4 0.0000 0.0000 0.0000 0.2696 0.0000 -1.1465
# 5 -0.0571 4.1852 11.7319 0.0000 14.0367 0.0000
# 6 0.0000 0.0000 0.0000 -1.1465 0.0000 19.3072
#
#
#
# Elastic Compliance Matrix: (Units=1/GPa)
#
#
# Indices 1 2 3 4 5 6 
#
# 1 0.019812 -0.006146 0.001435 0.000000 0.000713 0.000000
# 2 -0.006146 0.014592 -0.000533 0.000000 -0.003931 0.000000
# 3 0.001435 -0.000533 0.014347 0.000000 -0.011826 0.000000
# 4 0.000000 0.000000 0.000000 4.963458 0.000000 0.294734
# 5 0.000713 -0.003931 -0.011826 0.000000 0.082302 0.000000
# 6 0.000000 0.000000 0.000000 0.294734 0.000000 0.069296
#
#
# Mechanical properties :
#
#
# Convention : Reuss Voigt Hill
#
# Bulk Modulus (GPa) = 26.13379 29.47844 27.80612
# Shear Modulus (GPa) = 0.96394 19.72976 10.34685
#
# Velocity S-wave (km/s) = 0.77821 3.52073 2.54963
# Velocity P-wave (km/s) = 4.15048 5.92012 5.11245
#
# Compressibility (1/GPa) = 0.03826463
#
# Stress axis : x y z
#
# Youngs Moduli (GPa) = 50.47404 68.52901 69.70231
#
# Poissons Ratio (x) = 0.42117 -0.10005
# Poissons Ratio (y) = 0.31021 0.03713
# Poissons Ratio (z) = -0.07245 0.03651
#
# Static dielectric constant tensor:
#      x y z
#    x 1.497570 0.000000 -0.003350 
#    y 0.000000 1.545480 0.000000 
#    z -0.003350 0.000000 1.552430 
# 
# From -- ./inp_files/1720.got.cif
#   From: 2010.05.17/outbox.cif.g08.bks.cpg/sg6_1_cif.got.tgz:1720.got - 2010.06.03 19:42:10.
