data_PCOD9130079
_publ_section_title
;
Structure prediction by ZEFSAII (Michael W. Deem and Ramdas Pophale) SiO2 
 PCOD9130079
Probable space group: C 2
;
_chemical_formula_sum "Si O2"
_cell_formula_units_Z 20
_cell_length_a 5.326792
_cell_length_b 17.486282
_cell_length_c 11.987994
_cell_angle_alpha 90.000000
_cell_angle_beta 125.484679
_cell_angle_gamma 90.000000
_cell_volume 909.240096
_symmetry_space_group_name_H-M "C 2"
_symmetry_group_IT_number 5
_symmetry_cell_setting 'monoclinic'
loop_
_space_group_symop_operation_xyz
x,y,z
-x,y,-z
1/2+x,1/2+y,z
1/2-x,1/2+y,-z
loop_
_atom_site_type_symbol
_atom_site_label
_atom_site_fract_x
_atom_site_fract_y
_atom_site_fract_z
Si Si1 0.296556 0.031480 0.142893
Si Si2 0.318546 0.563938 0.643833
Si Si3 0.834801 0.917028 0.338873
Si Si4 0.683257 0.169517 0.197425
Si Si5 0.364691 0.767455 0.844725
O O1 0.194063 0.075833 0.227344
O O2 0.478997 0.093737 0.115365
O O3 0.519174 0.966162 0.248663
O O4 0.000000 0.002265 0.000000
O O5 0.434089 0.477413 0.658744
O O6 0.556160 0.627368 0.661218
O O7 0.000000 0.573140 0.500000
O O8 0.751772 0.838814 0.257179
O O9 0.000000 0.903231 0.500000
O O10 0.443479 0.220868 0.203031
O O11 0.866697 0.220216 0.152597
O O12 0.500000 0.791603 0.000000
#
# Coordination Sequence:
#
# PCOD9130079 Si02
#       5
#     4   4   4   4   4
#     4  11  25  46  82 109 144 191 249 308 366 431
#     4  11  24  47  78 108 146 194 248 304 367 435
#     4  11  27  48  71 109 153 197 244 303 366 439
#     4  11  26  48  74 110 147 188 244 306 366 430
#     4  12  28  47  75 107 152 195 245 301 366 437
#
# _framework density 21.996388
#
# number of rings (size 3 to 8) (size 9 to 14) (size 15 to 20)
#    0.000    0.800    4.000    1.200    8.400    2.400 
#    3.600    0.000    0.000    0.000    0.000    0.000 
#    0.000    0.000    0.000    0.000    0.000    0.000 
#
# Total GULP energy -55799.885298 kJ/mol
# GULP energy per Si atom -5579.988530 kJ/mol
# Density = 2.194632 g / cm^3
# Si number density = 21.996388 Si / 1000 Ang^3
#
#
#
# Elastic Constant Matrix: (Units=GPa)
#
#
# Indices 1 2 3 4 5 6 
#
# 1 131.9760 61.2138 81.5648 0.0000 7.9626 0.0000
# 2 61.2138 131.5048 106.8627 0.0000 -2.0131 0.0000
# 3 81.5648 106.8627 151.3272 0.0000 16.2027 0.0000
# 4 0.0000 0.0000 0.0000 -231.1223 0.0000 -72.2381
# 5 7.9626 -2.0131 16.2027 0.0000 43.9652 0.0000
# 6 0.0000 0.0000 0.0000 -72.2381 0.0000 6.1251
#
#
#
# Elastic Compliance Matrix: (Units=1/GPa)
#
#
# Indices 1 2 3 4 5 6 
#
# 1 0.011392 -0.000742 -0.005614 0.000000 -0.000028 0.000000
# 2 -0.000742 0.019370 -0.013938 0.000000 0.006158 0.000000
# 3 -0.005614 -0.013938 0.020235 0.000000 -0.007079 0.000000
# 4 0.000000 0.000000 0.000000 -0.000923 0.000000 -0.010889
# 5 -0.000028 0.006158 -0.007079 0.000000 0.025641 0.000000
# 6 0.000000 0.000000 0.000000 -0.010889 0.000000 0.034839
#
#
# Mechanical properties :
#
#
# Convention : Reuss Voigt Hill
#
# Bulk Modulus (GPa) = 96.06135 101.56563 98.81349
# Shear Modulus (GPa) = 32.33926 -25.19528 3.57199
#
# Velocity S-wave (km/s) = 3.83849 -3.38809 1.27571
# Velocity P-wave (km/s) = 7.96314 5.56493 6.86950
#
# Compressibility (1/GPa) = 0.01041001
#
# Stress axis : x y z
#
# Youngs Moduli (GPa) = 87.77941 51.62566 49.42041
#
# Poissons Ratio (x) = 0.03829 0.27742
# Poissons Ratio (y) = 0.06511 0.68883
# Poissons Ratio (z) = 0.49275 0.71957
#
# Static dielectric constant tensor:
#      x y z
#    x 1.904830 0.000000 -0.031600 
#    y 0.000000 1.800180 0.000000 
#    z -0.031600 0.000000 1.838950 
# 
# From -- ./inp_files/33583.got.cif
#   From: 2010.05.17/outbox.cif.g08.bks.cpg/sg5_17_cif.got.tgz:33583.got - 2010.06.03 18:56:24.
