data_PCOD9130699
_publ_section_title
;
Structure prediction by ZEFSAII (Michael W. Deem and Ramdas Pophale) SiO2 
 PCOD9130699
Probable space group: C 2
;
_chemical_formula_sum "Si O2"
_cell_formula_units_Z 13
_cell_length_a 12.000000
_cell_length_b 9.000000
_cell_length_c 15.000000
_cell_angle_alpha 90.000000
_cell_angle_beta 60.000000
_cell_angle_gamma 90.000000
_cell_volume 1402.961154
_symmetry_space_group_name_H-M "C 2"
_symmetry_group_IT_number 5
_symmetry_cell_setting 'monoclinic'
loop_
_space_group_symop_operation_xyz
x,y,z
-x,y,-z
1/2+x,1/2+y,z
1/2-x,1/2+y,-z
loop_
_atom_site_type_symbol
_atom_site_label
_atom_site_fract_x
_atom_site_fract_y
_atom_site_fract_z
Si Si1 0.112312 0.016760 0.261722
Si Si2 0.355651 0.662075 0.455631
Si Si3 0.057173 0.782039 0.129402
Si Si4 0.235761 0.402901 0.627981
Si Si5 0.791648 0.782062 0.121934
Si Si6 0.942890 0.502249 0.730260
Si Si7 0.000000 0.417654 0.500000
O O1 0.215673 0.134287 0.182677
O O2 0.986345 0.097765 0.356483
O O3 0.073782 0.920457 0.190490
O O4 0.182876 0.923432 0.313316
O O5 0.290573 0.529846 0.538389
O O6 0.262209 0.740495 0.420110
O O7 0.392430 0.799834 0.506897
O O8 0.064172 0.646253 0.199878
O O9 0.919150 0.790876 0.133619
O O10 0.158984 0.779545 0.002995
O O11 0.082147 0.431500 0.701335
O O12 0.684563 0.908155 0.190417
O O13 0.955979 0.501058 0.612534
#
# Coordination Sequence:
#
# PCOD9130699 Si02
#       7
#     4   4   4   4   4   4   2
#     4  12  23  44  67  97 134 169 226 275 326 399
#     4  11  23  41  65  98 136 181 212 271 331 395
#     4  11  27  41  74  99 124 184 228 275 331 399
#     4  11  23  40  68  98 133 177 215 268 333 398
#     4  11  23  50  67  95 139 171 226 284 334 383
#     4  11  23  43  70 101 133 180 218 272 340 398
#     4  10  20  40  66  96 142 172 208 276 328 394
#
# _framework density 9.2661149999999992
#
# number of rings (size 3 to 8) (size 9 to 14) (size 15 to 20)
#    0.000    0.923    6.154    0.923    2.154    4.923 
#    0.000    0.000    0.000    0.000    0.000    0.000 
#    0.000    0.000    0.000    0.000    0.000    0.000 
#
# Total GULP energy -72432.753070 kJ/mol
# GULP energy per Si atom -5571.750236 kJ/mol
# Density = 0.924503 g / cm^3
# Si number density = 9.266115 Si / 1000 Ang^3
#
#
#
# Elastic Constant Matrix: (Units=GPa)
#
#
# Indices 1 2 3 4 5 6 
#
# 1 120.1660 56.6371 64.0917 0.0000 13.4705 0.0000
# 2 56.6371 72.7510 49.7908 0.0000 10.4904 0.0000
# 3 64.0917 49.7908 170.7666 0.0000 8.9074 0.0000
# 4 0.0000 0.0000 0.0000 41.2704 0.0000 7.2398
# 5 13.4705 10.4904 8.9074 0.0000 50.6685 0.0000
# 6 0.0000 0.0000 0.0000 7.2398 0.0000 41.2153
#
#
#
# Elastic Compliance Matrix: (Units=1/GPa)
#
#
# Indices 1 2 3 4 5 6 
#
# 1 0.014109 -0.009001 -0.002596 0.000000 -0.001431 0.000000
# 2 -0.009001 0.023288 -0.003316 0.000000 -0.001846 0.000000
# 3 -0.002596 -0.003316 0.007797 0.000000 0.000006 0.000000
# 4 0.000000 0.000000 0.000000 0.025001 0.000000 -0.004392
# 5 -0.001431 -0.001846 0.000006 0.000000 0.020498 0.000000
# 6 0.000000 0.000000 0.000000 -0.004392 0.000000 0.025034
#
#
# Mechanical properties :
#
#
# Convention : Reuss Voigt Hill
#
# Bulk Modulus (GPa) = 65.06873 78.30254 71.68563
# Shear Modulus (GPa) = 33.18372 39.50843 36.34608
#
# Velocity S-wave (km/s) = 4.23613 4.62223 4.43339
# Velocity P-wave (km/s) = 7.68855 8.41609 8.06053
#
# Compressibility (1/GPa) = 0.01536837
#
# Stress axis : x y z
#
# Youngs Moduli (GPa) = 70.87448 42.94018 128.25622
#
# Poissons Ratio (x) = 0.38650 0.33301
# Poissons Ratio (y) = 0.63794 0.42526
# Poissons Ratio (z) = 0.18402 0.14238
#
# Static dielectric constant tensor:
#      x y z
#    x 1.660840 0.000000 0.011520 
#    y 0.000000 1.691710 0.000000 
#    z 0.011520 0.000000 1.643630 
# 
# From -- ./inp_files/52200.got.cif
#   From: 2010.05.17/outbox.ucp.g08.bks.cvg/sg5_27_cif.got.tgz:52200.got - 2010.06.11 12:53:14.
