data_PCOD9130068
_publ_section_title
;
Structure prediction by ZEFSAII (Michael W. Deem and Ramdas Pophale) SiO2 
 PCOD9130068
Probable space group: C 2
;
_chemical_formula_sum "Si O2"
_cell_formula_units_Z 24
_cell_length_a 8.107533
_cell_length_b 13.917669
_cell_length_c 13.149808
_cell_angle_alpha 90.000000
_cell_angle_beta 43.318532
_cell_angle_gamma 90.000000
_cell_volume 1017.964794
_symmetry_space_group_name_H-M "C 2"
_symmetry_group_IT_number 5
_symmetry_cell_setting 'monoclinic'
loop_
_space_group_symop_operation_xyz
x,y,z
-x,y,-z
1/2+x,1/2+y,z
1/2-x,1/2+y,-z
loop_
_atom_site_type_symbol
_atom_site_label
_atom_site_fract_x
_atom_site_fract_y
_atom_site_fract_z
Si Si1 0.148779 0.685290 0.536871
Si Si2 0.426430 0.537001 0.912713
Si Si3 0.916549 0.369377 0.425149
Si Si4 0.039309 0.000485 0.637757
Si Si5 0.650120 0.737440 0.830814
Si Si6 0.545477 0.949406 0.796024
O O1 0.378751 0.755776 0.436619
O O2 0.266050 0.580768 0.478349
O O3 0.000000 0.699884 0.500000
O O4 0.931044 0.704642 0.714947
O O5 0.519893 0.485402 0.768157
O O6 0.504942 0.646482 0.848958
O O7 0.500000 0.527451 0.000000
O O8 0.155660 0.498159 0.044542
O O9 0.642981 0.404715 0.541751
O O10 0.046955 0.427404 0.277233
O O11 0.000000 0.395461 0.500000
O O12 0.778976 0.015762 0.705991
O O13 0.623988 0.840985 0.790760
O O14 0.500000 0.751843 0.000000
#
# Coordination Sequence:
#
# PCOD9130068 Si02
#       6
#     4   4   4   4   4   4
#     4  12  23  48  74 104 147 187 240 301 359 430
#     4  11  25  44  70 105 144 194 240 294 363 425
#     4  12  26  44  70 109 144 188 243 300 359 429
#     4  12  24  44  75 105 143 192 241 300 354 433
#     4  11  24  47  73  99 148 190 230 294 371 419
#     4  12  25  48  73 106 143 193 242 296 364 434
#
# _framework density 23.576454999999999
#
# number of rings (size 3 to 8) (size 9 to 14) (size 15 to 20)
#    0.000    0.333    5.000    3.500    4.667    1.333 
#    0.000    1.667    0.000    0.000    0.000    0.000 
#    0.000    0.000    0.000    0.000    0.000    0.000 
#
# Total GULP energy -66889.368368 kJ/mol
# GULP energy per Si atom -5574.114031 kJ/mol
# Density = 2.352279 g / cm^3
# Si number density = 23.576455 Si / 1000 Ang^3
#
#
#
# Elastic Constant Matrix: (Units=GPa)
#
#
# Indices 1 2 3 4 5 6 
#
# 1 80.8865 13.7899 31.2233 -0.0019 9.7346 0.0008
# 2 13.7899 67.7183 35.4513 -0.0013 -15.7013 0.0014
# 3 31.2233 35.4513 133.5530 -0.0017 -2.3321 0.0015
# 4 -0.0019 -0.0013 -0.0017 43.9866 0.0017 -6.2945
# 5 9.7346 -15.7013 -2.3321 0.0017 42.0143 -0.0013
# 6 0.0008 0.0014 0.0015 -6.2945 -0.0013 19.8201
#
#
#
# Elastic Compliance Matrix: (Units=1/GPa)
#
#
# Indices 1 2 3 4 5 6 
#
# 1 0.014395 -0.002503 -0.002778 0.000001 -0.004425 0.000000
# 2 -0.002503 0.019343 -0.004417 0.000000 0.007563 0.000000
# 3 -0.002778 -0.004417 0.009301 0.000000 -0.000491 0.000000
# 4 0.000001 0.000000 0.000000 0.023817 -0.000001 0.007564
# 5 -0.004425 0.007563 -0.000491 -0.000001 0.027626 0.000001
# 6 0.000000 0.000000 0.000000 0.007564 0.000001 0.052856
#
#
# Mechanical properties :
#
#
# Convention : Reuss Voigt Hill
#
# Bulk Modulus (GPa) = 42.29750 49.23187 45.76468
# Shear Modulus (GPa) = 28.63452 34.61041 31.62246
#
# Velocity S-wave (km/s) = 3.48880 3.83561 3.66631
# Velocity P-wave (km/s) = 5.84881 6.36734 6.11357
#
# Compressibility (1/GPa) = 0.02364206
#
# Stress axis : x y z
#
# Youngs Moduli (GPa) = 69.47037 51.69864 107.51327
#
# Poissons Ratio (x) = 0.12939 0.29870
# Poissons Ratio (y) = 0.17387 0.47492
# Poissons Ratio (z) = 0.19300 0.22837
#
# Static dielectric constant tensor:
#      x y z
#    x 1.975380 0.000000 0.058140 
#    y 0.000000 1.872580 0.000000 
#    z 0.058140 0.000000 1.948560 
# 
# From -- ./inp_files/50811.got.cif
#   From: 2010.05.17/outbox.cif.g08.bks.cpg/sg5_26_cif.got.tgz:50811.got - 2010.06.03 18:56:24.
