data_PCOD9130025
_publ_section_title
;
Structure prediction by ZEFSAII (Michael W. Deem and Ramdas Pophale) SiO2 
 PCOD9130025
Probable space group: C 2
;
_chemical_formula_sum "Si O2"
_cell_formula_units_Z 24
_cell_length_a 17.623824
_cell_length_b 10.526326
_cell_length_c 15.661511
_cell_angle_alpha 90.000000
_cell_angle_beta 22.322575
_cell_angle_gamma 90.000000
_cell_volume 1103.542894
_symmetry_space_group_name_H-M "C 2"
_symmetry_group_IT_number 5
_symmetry_cell_setting 'monoclinic'
loop_
_space_group_symop_operation_xyz
x,y,z
-x,y,-z
1/2+x,1/2+y,z
1/2-x,1/2+y,-z
loop_
_atom_site_type_symbol
_atom_site_label
_atom_site_fract_x
_atom_site_fract_y
_atom_site_fract_z
Si Si1 0.000000 0.204370 0.000000
Si Si2 0.829518 0.253275 0.789862
Si Si3 0.680064 0.891391 0.524317
Si Si4 0.594560 0.487464 0.028776
Si Si5 0.645756 0.326812 0.472198
Si Si6 0.110504 0.627182 0.170593
Si Si7 0.500000 0.543801 0.500000
O O1 0.179469 0.281292 0.772112
O O2 0.914398 0.110444 0.018888
O O3 0.846987 0.141840 0.703264
O O4 0.034986 0.293763 0.624719
O O5 0.744474 0.381683 0.837150
O O6 0.671744 0.211510 0.026393
O O7 0.754610 0.842961 0.538429
O O8 0.559382 0.021992 0.666015
O O9 0.877140 0.928733 0.266849
O O10 0.695073 0.541753 0.010133
O O11 0.472125 0.222261 0.669960
O O12 0.565658 0.453371 0.509819
#
# Coordination Sequence:
#
# PCOD9130025 Si02
#       7
#     2   4   4   4   4   4   2
#     4  12  26  44  72 106 142 182 244 300 366 424
#     4  11  27  45  73 104 149 188 241 301 363 433
#     4  11  25  48  74 102 138 202 250 286 355 450
#     4  11  24  45  74 102 138 189 242 302 357 423
#     4  12  26  46  73 105 148 191 239 300 369 433
#     4  11  24  46  75 101 139 193 252 290 350 446
#     4  12  30  44  68 114 156 178 230 318 380 402
#
# _framework density 21.748134
#
# number of rings (size 3 to 8) (size 9 to 14) (size 15 to 20)
#    0.000    0.667    3.333    3.000    9.333    0.000 
#    0.000    0.000    0.000    0.000    0.000    0.000 
#    0.000    0.000    0.000    0.000    0.000    0.000 
#
# Total GULP energy -67068.411797 kJ/mol
# GULP energy per Si atom -5589.034316 kJ/mol
# Density = 2.169863 g / cm^3
# Si number density = 21.748134 Si / 1000 Ang^3
#
#
#
# Elastic Constant Matrix: (Units=GPa)
#
#
# Indices 1 2 3 4 5 6 
#
# 1 119.0825 67.5471 -28.5296 0.0022 -7.7803 0.0040
# 2 67.5471 146.2786 -14.7226 0.0020 -1.6627 0.0043
# 3 -28.5296 -14.7226 109.3233 -0.0015 2.5856 0.0003
# 4 0.0022 0.0020 -0.0015 50.3567 0.0004 24.2784
# 5 -7.7803 -1.6627 2.5856 0.0004 33.7991 -0.0003
# 6 0.0040 0.0043 0.0003 24.2784 -0.0003 51.5764
#
#
#
# Elastic Compliance Matrix: (Units=1/GPa)
#
#
# Indices 1 2 3 4 5 6 
#
# 1 0.012158 -0.005346 0.002397 0.000000 0.002352 0.000000
# 2 -0.005346 0.009284 -0.000127 0.000000 -0.000764 0.000000
# 3 0.002397 -0.000127 0.009760 0.000000 -0.000201 0.000000
# 4 0.000000 0.000000 0.000000 0.025688 0.000000 -0.012092
# 5 0.002352 -0.000764 -0.000201 0.000000 0.030106 0.000000
# 6 0.000000 0.000000 0.000000 -0.012092 0.000000 0.025081
#
#
# Mechanical properties :
#
#
# Convention : Reuss Voigt Hill
#
# Bulk Modulus (GPa) = 39.91969 47.03047 43.47508
# Shear Modulus (GPa) = 39.50104 50.50576 45.00340
#
# Velocity S-wave (km/s) = 4.26643 4.82426 4.55389
# Velocity P-wave (km/s) = 6.53186 7.25970 6.90538
#
# Compressibility (1/GPa) = 0.02505030
#
# Stress axis : x y z
#
# Youngs Moduli (GPa) = 82.24970 107.71747 102.45436
#
# Poissons Ratio (x) = 0.57588 -0.24561
# Poissons Ratio (y) = 0.43973 0.01300
# Poissons Ratio (z) = -0.19717 0.01367
#
# Static dielectric constant tensor:
#      x y z
#    x 1.587690 0.000000 0.034720 
#    y 0.000000 1.752220 0.000000 
#    z 0.034720 0.000000 1.760870 
# 
# From -- ./inp_files/62828.got.cif
#   From: 2010.05.17/outbox.cif.g08.bks.cpg/sg5_32_cif.got.tgz:62828.got - 2010.06.03 18:56:24.
