data_PCOD9130750
_publ_section_title
;
Structure prediction by ZEFSAII (Michael W. Deem and Ramdas Pophale) SiO2 
 PCOD9130750
Probable space group: C 2
;
_chemical_formula_sum "Si O2"
_cell_formula_units_Z 13
_cell_length_a 18.000000
_cell_length_b 12.000000
_cell_length_c 12.000000
_cell_angle_alpha 90.000000
_cell_angle_beta 150.000000
_cell_angle_gamma 90.000000
_cell_volume 1296.000000
_symmetry_space_group_name_H-M "C 2"
_symmetry_group_IT_number 5
_symmetry_cell_setting 'monoclinic'
loop_
_space_group_symop_operation_xyz
x,y,z
-x,y,-z
1/2+x,1/2+y,z
1/2-x,1/2+y,-z
loop_
_atom_site_type_symbol
_atom_site_label
_atom_site_fract_x
_atom_site_fract_y
_atom_site_fract_z
Si Si1 0.577667 0.735590 0.305475
Si Si2 0.597149 0.064797 0.934378
Si Si3 0.354329 0.979826 0.247291
Si Si4 0.124170 0.224892 0.741195
Si Si5 0.022437 0.000514 0.896051
Si Si6 0.500000 0.901722 0.000000
Si Si7 0.913506 0.761560 0.770958
O O1 0.447034 0.741073 0.228533
O O2 0.574490 0.605354 0.268664
O O3 0.560558 0.816537 0.174907
O O4 0.737883 0.766095 0.563627
O O5 0.734236 0.148548 0.093840
O O6 0.595265 0.986676 0.043124
O O7 0.457129 0.149409 0.760786
O O8 0.607717 0.994692 0.834053
O O9 0.500000 0.025910 0.500000
O O10 0.342452 0.848859 0.257834
O O11 0.192819 0.023488 0.077589
O O12 0.000000 0.173853 0.500000
O O13 0.967950 0.877817 0.785752
O O14 0.000000 0.996522 0.000000
O O15 0.000000 0.751173 0.000000
#
# Coordination Sequence:
#
# PCOD9130750 Si02
#       7
#     4   4   4   4   4   2   4
#     4  12  26  45  72 101 146 183 237 294 366 421
#     4  12  24  45  69 100 148 177 237 295 357 420
#     4  11  25  43  70 102 139 188 238 291 352 425
#     4  11  24  43  69  98 133 189 236 290 345 424
#     4  11  25  44  69 102 140 182 241 292 354 433
#     4  12  28  44  70 108 144 186 230 300 374 414
#     4  11  26  42  70 103 135 187 240 289 349 421
#
# _framework density 10.030863999999999
#
# number of rings (size 3 to 8) (size 9 to 14) (size 15 to 20)
#    0.000    0.615    6.154    0.923   10.769    0.000 
#    0.000    0.000    0.000    0.000    0.000    0.000 
#    0.000    0.000    0.000    0.000    0.000    0.000 
#
# Total GULP energy -72489.541100 kJ/mol
# GULP energy per Si atom -5576.118546 kJ/mol
# Density = 1.000803 g / cm^3
# Si number density = 10.030864 Si / 1000 Ang^3
#
#
#
# Elastic Constant Matrix: (Units=GPa)
#
#
# Indices 1 2 3 4 5 6 
#
# 1 140.8712 18.5512 37.8171 0.0000 3.7519 0.0000
# 2 18.5512 100.0297 24.8686 0.0000 7.6905 0.0000
# 3 37.8171 24.8686 82.8940 0.0000 12.9455 0.0000
# 4 0.0000 0.0000 0.0000 12.8740 0.0000 4.2458
# 5 3.7519 7.6905 12.9455 0.0000 32.4723 0.0000
# 6 0.0000 0.0000 0.0000 4.2458 0.0000 37.8777
#
#
#
# Elastic Compliance Matrix: (Units=1/GPa)
#
#
# Indices 1 2 3 4 5 6 
#
# 1 0.008139 -0.000661 -0.003618 0.000000 0.000658 0.000000
# 2 -0.000661 0.010912 -0.002752 0.000000 -0.001411 0.000000
# 3 -0.003618 -0.002752 0.015327 0.000000 -0.005040 0.000000
# 4 0.000000 0.000000 0.000000 0.080657 0.000000 -0.009041
# 5 0.000658 -0.001411 -0.005040 0.000000 0.033063 0.000000
# 6 0.000000 0.000000 0.000000 -0.009041 0.000000 0.027414
#
#
# Mechanical properties :
#
#
# Convention : Reuss Voigt Hill
#
# Bulk Modulus (GPa) = 49.21880 54.02985 51.62432
# Shear Modulus (GPa) = 25.46520 32.81536 29.14028
#
# Velocity S-wave (km/s) = 3.56665 4.04879 3.81534
# Velocity P-wave (km/s) = 6.44579 6.98908 6.72293
#
# Compressibility (1/GPa) = 0.02031744
#
# Stress axis : x y z
#
# Youngs Moduli (GPa) = 122.85955 91.64048 65.24489
#
# Poissons Ratio (x) = 0.06054 0.23605
# Poissons Ratio (y) = 0.08117 0.17955
# Poissons Ratio (z) = 0.44449 0.25219
#
# Static dielectric constant tensor:
#      x y z
#    x 1.719130 0.000000 0.006890 
#    y 0.000000 1.748290 0.000000 
#    z 0.006890 0.000000 1.786090 
# 
# From -- ./inp_files/44667.got.cif
#   From: 2010.05.17/outbox.ucp.g08.bks.cvg/sg5_23_cif.got.tgz:44667.got - 2010.06.11 12:53:14.
