data_PCOD9130938
_publ_section_title
;
Structure prediction by ZEFSAII (Michael W. Deem and Ramdas Pophale) SiO2 
 PCOD9130938
Probable space group: P M
;
_chemical_formula_sum "Si O2"
_cell_formula_units_Z 16
_cell_length_a 16.957235
_cell_length_b 9.665977
_cell_length_c 5.425312
_cell_angle_alpha 90.000000
_cell_angle_beta 119.901955
_cell_angle_gamma 90.000000
_cell_volume 770.875721
_symmetry_space_group_name_H-M "P M"
_symmetry_group_IT_number 6
_symmetry_cell_setting 'monoclinic'
loop_
_space_group_symop_operation_xyz
x,y,z
x,-y,z
loop_
_atom_site_type_symbol
_atom_site_label
_atom_site_fract_x
_atom_site_fract_y
_atom_site_fract_z
Si Si1 0.190440 0.344914 0.260430
Si Si2 0.333722 0.832466 0.227376
Si Si3 0.001891 0.347591 0.696916
Si Si4 0.098154 0.153804 0.456275
Si Si5 0.913273 0.847552 0.887120
Si Si6 0.745549 0.166389 0.941659
Si Si7 0.648638 0.830680 0.287085
Si Si8 0.440859 0.833200 0.896887
O O1 0.227179 0.500000 0.364776
O O2 0.244931 0.260122 0.138810
O O3 0.181507 0.240406 0.475934
O O4 0.086009 0.364575 0.016887
O O5 0.383264 0.794592 0.049639
O O6 0.316912 0.000000 0.204885
O O7 0.396014 0.797987 0.564439
O O8 0.981104 0.500000 0.562793
O O9 0.045707 0.242748 0.574135
O O10 0.917249 0.273839 0.695699
O O11 0.125580 0.000000 0.580816
O O12 0.017730 0.136075 0.130251
O O13 0.849380 0.810058 0.017653
O O14 0.882333 0.000000 0.744170
O O15 0.686727 0.213770 0.612776
O O16 0.735651 0.000000 0.937828
O O17 0.709753 0.216257 0.149662
O O18 0.544858 0.785153 0.083387
O O19 0.649259 0.000000 0.291313
O O20 0.443807 0.000000 0.905952
#
# Coordination Sequence:
#
# PCOD9130938 Si02
#       8
#     2   2   2   2   2   2   2   2
#     4  10  22  38  53  76 107 142 187 230 273 330
#     4  10  20  34  54  81 110 143 183 230 277 331
#     4  10  21  36  54  75 106 146 185 226 272 328
#     4  10  20  34  55  78 108 144 181 226 277 327
#     4   9  19  33  50  78 109 142 182 228 273 321
#     4   9  17  27  47  77 111 142 177 221 275 330
#     4   9  16  28  47  75 110 145 173 218 279 332
#     4   9  18  32  51  78 113 144 178 223 280 337
#
# _framework density 20.755614000000001
#
# number of rings (size 3 to 8) (size 9 to 14) (size 15 to 20)
#    0.000    2.500    0.000    1.875    3.500    5.000 
#    0.000    0.000    0.000    0.000    0.000    5.250 
#    0.000    0.000    0.000    0.000    0.000    0.000 
#
# Total GULP energy -89164.955346 kJ/mol
# GULP energy per Si atom -5572.809709 kJ/mol
# Density = 2.070837 g / cm^3
# Si number density = 20.755614 Si / 1000 Ang^3
#
#
#
# Elastic Constant Matrix: (Units=GPa)
#
#
# Indices 1 2 3 4 5 6 
#
# 1 116.7086 35.6215 25.6887 0.0000 -14.1112 0.0000
# 2 35.6215 107.5193 8.9830 0.0000 -18.5234 0.0000
# 3 25.6887 8.9830 72.2418 0.0000 -5.2029 0.0000
# 4 0.0000 0.0000 0.0000 7.4131 0.0000 4.4894
# 5 -14.1112 -18.5234 -5.2029 0.0000 36.8941 0.0000
# 6 0.0000 0.0000 0.0000 4.4894 0.0000 -29.0641
#
#
#
# Elastic Compliance Matrix: (Units=1/GPa)
#
#
# Indices 1 2 3 4 5 6 
#
# 1 0.010384 -0.002810 -0.003191 0.000000 0.002111 0.000000
# 2 -0.002810 0.011001 -0.000049 0.000000 0.004442 0.000000
# 3 -0.003191 -0.000049 0.015046 0.000000 0.000877 0.000000
# 4 0.000000 0.000000 0.000000 0.123357 0.000000 0.019054
# 5 0.002111 0.004442 0.000877 0.000000 0.030266 0.000000
# 6 0.000000 0.000000 0.000000 0.019054 0.000000 -0.031464
#
#
# Mechanical properties :
#
#
# Convention : Reuss Voigt Hill
#
# Bulk Modulus (GPa) = 41.09914 48.56179 44.83047
# Shear Modulus (GPa) = 27.96423 18.12705 23.04564
#
# Velocity S-wave (km/s) = 3.67455 2.95847 3.33578
# Velocity P-wave (km/s) = 6.15204 5.92602 6.04009
#
# Compressibility (1/GPa) = 0.02433141
#
# Stress axis : x y z
#
# Youngs Moduli (GPa) = 96.30641 90.90203 66.46158
#
# Poissons Ratio (x) = 0.25542 0.21207
# Poissons Ratio (y) = 0.27061 0.00325
# Poissons Ratio (z) = 0.30730 0.00444
#
# Static dielectric constant tensor:
#      x y z
#    x 1.743840 0.000000 0.021460 
#    y 0.000000 1.803660 0.000000 
#    z 0.021460 0.000000 1.845800 
# 
# From -- ./inp_files/1859.got.cif
#   From: 2010.05.17/outbox.cif.g08.bks.cpg/sg6_1_cif.got.tgz:1859.got - 2010.06.03 19:42:10.
