data_PCOD9130992
_publ_section_title
;
Structure prediction by ZEFSAII (Michael W. Deem and Ramdas Pophale) SiO2 
 PCOD9130992
Probable space group: P M
;
_chemical_formula_sum "Si O2"
_cell_formula_units_Z 16
_cell_length_a 12.269568
_cell_length_b 7.605656
_cell_length_c 9.907708
_cell_angle_alpha 90.000000
_cell_angle_beta 126.387126
_cell_angle_gamma 90.000000
_cell_volume 744.302808
_symmetry_space_group_name_H-M "P M"
_symmetry_group_IT_number 6
_symmetry_cell_setting 'monoclinic'
loop_
_space_group_symop_operation_xyz
x,y,z
x,-y,z
loop_
_atom_site_type_symbol
_atom_site_label
_atom_site_fract_x
_atom_site_fract_y
_atom_site_fract_z
Si Si1 0.355790 0.702843 0.064880
Si Si2 0.902124 0.788092 0.097080
Si Si3 0.185701 0.704755 0.697589
Si Si4 0.890327 0.711006 0.405452
Si Si5 0.364370 0.212374 0.576956
Si Si6 0.658400 0.789024 0.731799
Si Si7 0.636936 0.712019 0.397973
Si Si8 0.190557 0.787588 0.195214
O O1 0.389365 0.500000 0.056385
O O2 0.493506 0.778449 0.231537
O O3 0.238016 0.710072 0.089583
O O4 0.287483 0.785676 0.882531
O O5 0.879334 0.745602 0.237385
O O6 0.047674 0.726610 0.149760
O O7 0.904658 0.000000 0.091045
O O8 0.785556 0.722184 0.910733
O O9 0.166865 0.500000 0.722183
O O10 0.264361 0.713772 0.614802
O O11 0.035110 0.780245 0.566570
O O12 0.893013 0.500000 0.421987
O O13 0.762516 0.775539 0.398531
O O14 0.518280 0.275071 0.694644
O O15 0.305377 0.257473 0.387754
O O16 0.361058 0.000000 0.587297
O O17 0.657546 0.754071 0.571007
O O18 0.658125 0.000000 0.744948
O O19 0.633919 0.500000 0.388701
O O20 0.186281 0.000000 0.178478
#
# Coordination Sequence:
#
# PCOD9130992 Si02
#       8
#     2   2   2   2   2   2   2   2
#     4  10  22  38  57  83 113 146 185 228 274 326
#     4  10  22  39  58  83 113 145 184 229 276 327
#     4  10  22  38  57  83 113 146 185 228 274 326
#     4  10  22  39  57  81 114 148 184 227 274 327
#     4  10  20  37  59  82 110 143 184 232 276 324
#     4  10  22  39  58  83 113 145 184 229 276 327
#     4  10  22  39  57  81 114 148 184 227 274 327
#     4  10  20  37  59  82 110 143 184 232 276 324
#
# _framework density 21.496627
#
# number of rings (size 3 to 8) (size 9 to 14) (size 15 to 20)
#    0.000    2.000    2.500    0.000    3.500    3.000 
#    0.000    0.000    0.000    0.000    0.000    0.000 
#    0.000    0.000    0.000    0.000    0.000    0.000 
#
# Total GULP energy -89340.808277 kJ/mol
# GULP energy per Si atom -5583.800517 kJ/mol
# Density = 2.144770 g / cm^3
# Si number density = 21.496627 Si / 1000 Ang^3
#
#
#
# Elastic Constant Matrix: (Units=GPa)
#
#
# Indices 1 2 3 4 5 6 
#
# 1 115.8634 -4.1298 26.4360 0.0000 18.3081 0.0000
# 2 -4.1298 42.8874 1.7446 0.0000 8.3311 0.0000
# 3 26.4360 1.7446 114.8437 0.0000 19.4831 0.0000
# 4 0.0000 0.0000 0.0000 10.0308 0.0000 -16.3532
# 5 18.3081 8.3311 19.4831 0.0000 36.4388 0.0000
# 6 0.0000 0.0000 0.0000 -16.3532 0.0000 18.9031
#
#
#
# Elastic Compliance Matrix: (Units=1/GPa)
#
#
# Indices 1 2 3 4 5 6 
#
# 1 0.009757 0.001880 -0.001507 0.000000 -0.004526 0.000000
# 2 0.001880 0.024805 0.000344 0.000000 -0.006800 0.000000
# 3 -0.001507 0.000344 0.009825 0.000000 -0.004575 0.000000
# 4 0.000000 0.000000 0.000000 -0.242929 0.000000 -0.210160
# 5 -0.004526 -0.006800 -0.004575 0.000000 0.033718 0.000000
# 6 0.000000 0.000000 0.000000 -0.210160 0.000000 -0.128909
#
#
# Mechanical properties :
#
#
# Convention : Reuss Voigt Hill
#
# Bulk Modulus (GPa) = 21.82363 35.74402 28.78382
# Shear Modulus (GPa) = -17.86389 29.71079 5.92345
#
# Velocity S-wave (km/s) = -2.88585 3.72171 1.66178
# Velocity P-wave (km/s) = 0.96437 5.92723 4.13534
#
# Compressibility (1/GPa) = 0.04582189
#
# Stress axis : x y z
#
# Youngs Moduli (GPa) = 102.49183 40.31473 101.77899
#
# Poissons Ratio (x) = -0.07580 0.15334
# Poissons Ratio (y) = -0.19270 -0.03501
# Poissons Ratio (z) = 0.15441 -0.01387
#
# Static dielectric constant tensor:
#      x y z
#    x 1.743000 0.000000 0.039230 
#    y 0.000000 1.819090 0.000000 
#    z 0.039230 0.000000 1.768530 
# 
# From -- ./inp_files/2947.got.cif
#   From: 2010.05.17/outbox.cif.g08.bks.cpg/sg6_2_cif.got.tgz:2947.got - 2010.06.03 19:42:10.
