data_PCOD9130035
_publ_section_title
;
Structure prediction by ZEFSAII (Michael W. Deem and Ramdas Pophale) SiO2 
 PCOD9130035
Probable space group: C 2
;
_chemical_formula_sum "Si O2"
_cell_formula_units_Z 24
_cell_length_a 19.485583
_cell_length_b 10.913126
_cell_length_c 5.372926
_cell_angle_alpha 90.000000
_cell_angle_beta 66.533163
_cell_angle_gamma 90.000000
_cell_volume 1048.046210
_symmetry_space_group_name_H-M "C 2"
_symmetry_group_IT_number 5
_symmetry_cell_setting 'monoclinic'
loop_
_space_group_symop_operation_xyz
x,y,z
-x,y,-z
1/2+x,1/2+y,z
1/2-x,1/2+y,-z
loop_
_atom_site_type_symbol
_atom_site_label
_atom_site_fract_x
_atom_site_fract_y
_atom_site_fract_z
Si Si1 0.678571 0.338310 0.015525
Si Si2 0.587675 0.567300 0.376377
Si Si3 0.915809 0.600634 0.692089
Si Si4 0.137385 0.477797 0.747090
Si Si5 0.797039 0.022088 0.401251
Si Si6 0.324005 0.746090 0.060337
O O1 0.630787 0.451843 0.191578
O O2 0.632608 0.218599 0.157031
O O3 0.762055 0.322206 0.999275
O O4 0.690640 0.383671 0.714217
O O5 0.500000 0.548485 0.500000
O O6 0.626243 0.566392 0.588659
O O7 0.610456 0.691979 0.204716
O O8 0.886238 0.528163 0.489274
O O9 0.000000 0.638186 0.500000
O O10 0.913112 0.519608 0.947620
O O11 0.222248 0.527251 0.671342
O O12 0.145316 0.331949 0.764916
O O13 0.782678 0.123561 0.212788
#
# Coordination Sequence:
#
# PCOD9130035 Si02
#       6
#     4   4   4   4   4   4
#     4  11  24  45  76 109 149 197 258 320 384 470
#     4  11  26  47  71 111 151 198 261 324 398 453
#     4  12  28  49  73 113 156 201 252 324 395 469
#     4  12  26  48  75 109 151 200 262 310 392 472
#     4  11  25  45  78 106 147 204 263 324 389 464
#     4  11  25  45  75 106 148 201 260 319 377 478
#
# _framework density 22.899753
#
# number of rings (size 3 to 8) (size 9 to 14) (size 15 to 20)
#    0.000    0.667    3.333    3.000    9.333    3.333 
#    6.000    0.000    0.000    0.000    0.000    0.000 
#    0.000    0.000    0.000    0.000    0.000    0.000 
#
# Total GULP energy -67023.062291 kJ/mol
# GULP energy per Si atom -5585.255191 kJ/mol
# Density = 2.284763 g / cm^3
# Si number density = 22.899753 Si / 1000 Ang^3
#
#
#
# Elastic Constant Matrix: (Units=GPa)
#
#
# Indices 1 2 3 4 5 6 
#
# 1 80.8608 26.2856 22.0817 0.0000 -0.0391 0.0000
# 2 26.2856 116.0693 44.1559 0.0000 2.5506 0.0000
# 3 22.0817 44.1559 99.8348 0.0000 0.5813 0.0000
# 4 0.0000 0.0000 0.0000 51.8985 0.0000 1.8838
# 5 -0.0391 2.5506 0.5813 0.0000 32.7907 0.0000
# 6 0.0000 0.0000 0.0000 1.8838 0.0000 21.8105
#
#
#
# Elastic Compliance Matrix: (Units=1/GPa)
#
#
# Indices 1 2 3 4 5 6 
#
# 1 0.013672 -0.002345 -0.001988 0.000000 0.000234 0.000000
# 2 -0.002345 0.010778 -0.004244 0.000000 -0.000766 0.000000
# 3 -0.001988 -0.004244 0.012333 0.000000 0.000109 0.000000
# 4 0.000000 0.000000 0.000000 0.019329 0.000000 -0.001669
# 5 0.000234 -0.000766 0.000109 0.000000 0.030554 0.000000
# 6 0.000000 0.000000 0.000000 -0.001669 0.000000 0.045994
#
#
# Mechanical properties :
#
#
# Convention : Reuss Voigt Hill
#
# Bulk Modulus (GPa) = 50.94591 53.53460 52.24025
# Shear Modulus (GPa) = 31.97809 34.91604 33.44706
#
# Velocity S-wave (km/s) = 3.74095 3.90902 3.82591
# Velocity P-wave (km/s) = 6.39963 6.61834 6.50991
#
# Compressibility (1/GPa) = 0.01962866
#
# Stress axis : x y z
#
# Youngs Moduli (GPa) = 73.14050 92.78238 81.08542
#
# Poissons Ratio (x) = 0.21758 0.16122
# Poissons Ratio (y) = 0.17152 0.34411
# Poissons Ratio (z) = 0.14542 0.39375
#
# Static dielectric constant tensor:
#      x y z
#    x 1.859650 0.000000 0.095630 
#    y 0.000000 1.846260 0.000000 
#    z 0.095630 0.000000 1.958430 
# 
# From -- ./inp_files/9408.got.cif
#   From: 2010.05.17/outbox.cif.g08.bks.cpg/sg5_5_cif.got.tgz:9408.got - 2010.06.03 18:56:24.
