data_PCOD9130152
_publ_section_title
;
Structure prediction by ZEFSAII (Michael W. Deem and Ramdas Pophale) SiO2 
 PCOD9130152
Probable space group: C 2
;
_chemical_formula_sum "Si O2"
_cell_formula_units_Z 26
_cell_length_a 5.232891
_cell_length_b 19.766435
_cell_length_c 11.001393
_cell_angle_alpha 90.000000
_cell_angle_beta 68.467139
_cell_angle_gamma 90.000000
_cell_volume 1058.515983
_symmetry_space_group_name_H-M "C 2"
_symmetry_group_IT_number 5
_symmetry_cell_setting 'monoclinic'
loop_
_space_group_symop_operation_xyz
x,y,z
-x,y,-z
1/2+x,1/2+y,z
1/2-x,1/2+y,-z
loop_
_atom_site_type_symbol
_atom_site_label
_atom_site_fract_x
_atom_site_fract_y
_atom_site_fract_z
Si Si1 0.783899 0.682880 0.391115
Si Si2 0.000000 0.300354 0.000000
Si Si3 0.174868 0.829324 0.578052
Si Si4 0.658259 0.988659 0.215207
Si Si5 0.214550 0.185203 0.119237
Si Si6 0.000000 0.067971 0.000000
Si Si7 0.658071 0.409379 0.177464
Si Si8 0.000000 0.555639 0.500000
O O1 0.500000 0.703199 0.500000
O O2 0.947327 0.752864 0.384096
O O3 0.759400 0.677866 0.252927
O O4 0.841296 0.611759 0.445657
O O5 0.242047 0.352833 0.932916
O O6 0.955977 0.251604 0.892554
O O7 0.500000 0.835395 0.500000
O O8 0.000000 0.860551 0.500000
O O9 0.084517 0.872570 0.707657
O O10 0.413184 0.938276 0.213362
O O11 0.983608 0.968279 0.146394
O O12 0.617528 0.011358 0.364860
O O13 0.693101 0.042104 0.099073
O O14 0.061358 0.119172 0.101002
O O15 0.500000 0.193343 0.000000
#
# Coordination Sequence:
#
# PCOD9130152 Si02
#       8
#     4   2   4   4   4   2   4   2
#     4  11  25  45  78 109 153 195 248 329 400 456
#     4  11  28  48  80 116 158 193 276 326 404 457
#     4  11  25  46  77 110 149 193 249 311 392 462
#     4  12  30  48  81 107 159 212 265 313 391 463
#     4  11  25  45  81 115 149 202 258 333 393 470
#     4  11  26  50  74 112 150 209 264 322 384 471
#     4  12  29  50  76 111 155 209 260 319 381 470
#     4  12  28  50  72 118 150 204 260 332 380 480
#
# _framework density 24.562691999999998
#
# number of rings (size 3 to 8) (size 9 to 14) (size 15 to 20)
#    0.000    0.615    0.769    4.615   18.308    2.462 
#    0.000    0.000    0.000    0.000    0.000    0.000 
#    0.000    0.000    0.000    0.000    0.000    0.000 
#
# Total GULP energy -72464.135473 kJ/mol
# GULP energy per Si atom -5574.164267 kJ/mol
# Density = 2.450679 g / cm^3
# Si number density = 24.562692 Si / 1000 Ang^3
#
#
#
# Elastic Constant Matrix: (Units=GPa)
#
#
# Indices 1 2 3 4 5 6 
#
# 1 103.1866 8.7699 33.8310 0.0000 1.4119 0.0000
# 2 8.7699 51.6616 7.3026 0.0000 -16.4096 0.0000
# 3 33.8310 7.3026 156.2576 0.0000 4.8179 0.0000
# 4 0.0000 0.0000 0.0000 -114.0020 0.0000 -252.5908
# 5 1.4119 -16.4096 4.8179 0.0000 47.2536 0.0000
# 6 0.0000 0.0000 0.0000 -252.5908 0.0000 -282.2462
#
#
#
# Elastic Compliance Matrix: (Units=1/GPa)
#
#
# Indices 1 2 3 4 5 6 
#
# 1 0.010562 -0.001701 -0.002186 0.000000 -0.000683 0.000000
# 2 -0.001701 0.022278 -0.000916 0.000000 0.007881 0.000000
# 3 -0.002186 -0.000916 0.006945 0.000000 -0.000961 0.000000
# 4 0.000000 0.000000 0.000000 0.008925 0.000000 -0.007987
# 5 -0.000683 0.007881 -0.000961 0.000000 0.024017 0.000000
# 6 0.000000 0.000000 0.000000 -0.007987 0.000000 0.003605
#
#
# Mechanical properties :
#
#
# Convention : Reuss Voigt Hill
#
# Bulk Modulus (GPa) = 33.13517 45.65697 39.39607
# Shear Modulus (GPa) = 52.08437 -52.38542 -0.15053
#
# Velocity S-wave (km/s) = 4.60985 -4.62315 -0.24782
# Velocity P-wave (km/s) = 6.46944 3.14162 3.99899
#
# Compressibility (1/GPa) = 0.03017941
#
# Stress axis : x y z
#
# Youngs Moduli (GPa) = 94.68029 44.88708 143.97941
#
# Poissons Ratio (x) = 0.07635 0.31476
# Poissons Ratio (y) = 0.16105 0.13186
# Poissons Ratio (z) = 0.20699 0.04111
#
# Static dielectric constant tensor:
#      x y z
#    x 3.583650 0.000000 1.635190 
#    y 0.000000 2.094270 0.000000 
#    z 1.635190 0.000000 3.657280 
# 
# From -- ./inp_files/33903.got.cif
#   From: 2010.05.17/outbox.cif.g08.bks.cpg/sg5_17_cif.got.tgz:33903.got - 2010.06.03 18:56:24.
