data_PCOD9130199
_publ_section_title
;
Structure prediction by ZEFSAII (Michael W. Deem and Ramdas Pophale) SiO2 
 PCOD9130199
Probable space group: C 2
;
_chemical_formula_sum "Si O2"
_cell_formula_units_Z 28
_cell_length_a 20.665540
_cell_length_b 10.701479
_cell_length_c 5.451483
_cell_angle_alpha 90.000000
_cell_angle_beta 108.404784
_cell_angle_gamma 90.000000
_cell_volume 1143.938368
_symmetry_space_group_name_H-M "C 2"
_symmetry_group_IT_number 5
_symmetry_cell_setting 'monoclinic'
loop_
_space_group_symop_operation_xyz
x,y,z
-x,y,-z
1/2+x,1/2+y,z
1/2-x,1/2+y,-z
loop_
_atom_site_type_symbol
_atom_site_label
_atom_site_fract_x
_atom_site_fract_y
_atom_site_fract_z
Si Si1 0.042058 0.807440 0.336696
Si Si2 0.664325 0.474446 0.646696
Si Si3 0.744276 0.258254 0.927175
Si Si4 0.896908 0.191314 0.099842
Si Si5 0.431180 0.041015 0.779903
Si Si6 0.500000 0.528162 0.000000
Si Si7 0.716298 0.109387 0.400304
Si Si8 0.000000 0.371977 0.500000
O O1 0.110592 0.877098 0.481967
O O2 0.062493 0.691891 0.193249
O O3 0.000000 0.741603 0.500000
O O4 0.994382 0.924301 0.205452
O O5 0.711676 0.395607 0.888939
O O6 0.624638 0.587040 0.727426
O O7 0.716220 0.524937 0.506440
O O8 0.712268 0.181271 0.656618
O O9 0.825361 0.258998 0.968067
O O10 0.729357 0.194801 0.173196
O O11 0.956054 0.280772 0.272808
O O12 0.933489 0.114561 0.924004
O O13 0.351217 0.028115 0.737508
O O14 0.443536 0.964773 0.545904
O O15 0.500000 0.996361 0.000000
#
# Coordination Sequence:
#
# PCOD9130199 Si02
#       8
#     4   4   4   4   4   2   4   2
#     4  12  23  44  76 112 148 193 257 317 392 457
#     4  11  25  48  77 108 152 198 256 328 388 463
#     4  11  27  49  77 111 156 199 259 326 387 474
#     4  11  27  48  74 113 151 204 260 323 399 468
#     4  12  29  47  78 109 157 209 260 327 389 474
#     4  12  24  42  80 108 152 188 256 326 390 460
#     4  11  28  48  78 114 154 200 262 316 402 460
#     4  12  30  52  72 108 162 206 266 314 408 474
#
# _framework density 24.476842999999999
#
# number of rings (size 3 to 8) (size 9 to 14) (size 15 to 20)
#    0.000    0.571    4.286    1.714    9.000    6.857 
#    0.000    0.000    0.000    0.000    0.000    0.000 
#    0.000    0.000    0.000    0.000    0.000    0.000 
#
# Total GULP energy -78129.014730 kJ/mol
# GULP energy per Si atom -5580.643909 kJ/mol
# Density = 2.442113 g / cm^3
# Si number density = 24.476843 Si / 1000 Ang^3
#
#
#
# Elastic Constant Matrix: (Units=GPa)
#
#
# Indices 1 2 3 4 5 6 
#
# 1 114.9549 45.0828 4.5000 0.0000 5.4637 0.0000
# 2 45.0828 119.6708 23.0751 0.0000 7.4538 0.0000
# 3 4.5000 23.0751 62.7052 0.0000 1.9789 0.0000
# 4 0.0000 0.0000 0.0000 17.7874 0.0000 -18.5651
# 5 5.4637 7.4538 1.9789 0.0000 32.1780 0.0000
# 6 0.0000 0.0000 0.0000 -18.5651 0.0000 -0.8789
#
#
#
# Elastic Compliance Matrix: (Units=1/GPa)
#
#
# Indices 1 2 3 4 5 6 
#
# 1 0.010263 -0.003956 0.000747 0.000000 -0.000872 0.000000
# 2 -0.003956 0.010635 -0.003580 0.000000 -0.001572 0.000000
# 3 0.000747 -0.003580 0.017223 0.000000 -0.000357 0.000000
# 4 0.000000 0.000000 0.000000 0.002439 0.000000 -0.051527
# 5 -0.000872 -0.001572 -0.000357 0.000000 0.031611 0.000000
# 6 0.000000 0.000000 0.000000 -0.051527 0.000000 -0.049369
#
#
# Mechanical properties :
#
#
# Convention : Reuss Voigt Hill
#
# Bulk Modulus (GPa) = 40.74665 49.18296 44.96481
# Shear Modulus (GPa) = 112.20619 24.79548 68.50084
#
# Velocity S-wave (km/s) = 6.77800 3.18625 5.29592
# Velocity P-wave (km/s) = 8.82826 5.80289 7.47033
#
# Compressibility (1/GPa) = 0.02454189
#
# Stress axis : x y z
#
# Youngs Moduli (GPa) = 97.44036 94.03169 58.06281
#
# Poissons Ratio (x) = 0.37198 -0.04336
# Poissons Ratio (y) = 0.38546 0.20787
# Poissons Ratio (z) = -0.07276 0.33663
#
# Static dielectric constant tensor:
#      x y z
#    x 1.911670 0.000000 0.005780 
#    y 0.000000 1.922690 0.000000 
#    z 0.005780 0.000000 2.193560 
# 
# From -- ./inp_files/9611.got.cif
#   From: 2010.05.17/outbox.cif.g08.bks.cpg/sg5_5_cif.got.tgz:9611.got - 2010.06.03 18:56:24.
