data_PCOD9130034
_publ_section_title
;
Structure prediction by ZEFSAII (Michael W. Deem and Ramdas Pophale) SiO2 
 PCOD9130034
Probable space group: C 2
;
_chemical_formula_sum "Si O2"
_cell_formula_units_Z 24
_cell_length_a 12.701345
_cell_length_b 14.783025
_cell_length_c 5.829039
_cell_angle_alpha 90.000000
_cell_angle_beta 57.035721
_cell_angle_gamma 90.000000
_cell_volume 918.284178
_symmetry_space_group_name_H-M "C 2"
_symmetry_group_IT_number 5
_symmetry_cell_setting 'monoclinic'
loop_
_space_group_symop_operation_xyz
x,y,z
-x,y,-z
1/2+x,1/2+y,z
1/2-x,1/2+y,-z
loop_
_atom_site_type_symbol
_atom_site_label
_atom_site_fract_x
_atom_site_fract_y
_atom_site_fract_z
Si Si1 0.131805 0.139960 0.326636
Si Si2 0.308991 0.210747 0.472569
Si Si3 0.124094 0.304140 0.015202
Si Si4 0.436335 0.021922 0.329259
Si Si5 0.671403 0.410819 0.664297
Si Si6 0.692555 0.460263 0.129586
O O1 0.190583 0.161476 0.498022
O O2 0.099944 0.232619 0.240507
O O3 0.000000 0.090790 0.500000
O O4 0.222363 0.067416 0.100574
O O5 0.406206 0.130141 0.377074
O O6 0.340217 0.301760 0.294514
O O7 0.247943 0.255942 0.764521
O O8 0.182336 0.398289 0.027546
O O9 0.000000 0.309864 0.000000
O O10 0.500000 0.002457 0.500000
O O11 0.312240 0.956453 0.479709
O O12 0.500000 0.010765 0.000000
O O13 0.631418 0.433560 0.449184
O O14 0.623282 0.446063 0.968340
#
# Coordination Sequence:
#
# PCOD9130034 Si02
#       6
#     4   4   4   4   4   4
#     4  12  24  45  73 110 142 197 246 303 370 436
#     4  11  25  47  72 107 150 189 247 311 356 437
#     4  11  24  45  76 109 144 196 250 303 361 437
#     4  12  28  48  76 110 146 198 247 302 373 435
#     4  11  24  46  74 103 145 190 240 302 360 428
#     4  11  25  43  73 109 151 184 240 314 362 425
#
# _framework density 26.135702999999999
#
# number of rings (size 3 to 8) (size 9 to 14) (size 15 to 20)
#    0.000    0.667    5.000    2.000    2.333    6.000 
#    0.000    6.667    0.000    0.000    0.000    0.000 
#    0.000    0.000    0.000    0.000    0.000    0.000 
#
# Total GULP energy -66925.343007 kJ/mol
# GULP energy per Si atom -5577.111917 kJ/mol
# Density = 2.607622 g / cm^3
# Si number density = 26.135703 Si / 1000 Ang^3
#
#
#
# Elastic Constant Matrix: (Units=GPa)
#
#
# Indices 1 2 3 4 5 6 
#
# 1 128.5579 50.4739 41.3424 0.0000 33.5629 0.0000
# 2 50.4739 168.3090 38.4110 0.0000 -4.9946 0.0000
# 3 41.3424 38.4110 170.5336 0.0000 28.4848 0.0000
# 4 0.0000 0.0000 0.0000 56.0374 0.0000 -19.2490
# 5 33.5629 -4.9946 28.4848 0.0000 28.4666 0.0000
# 6 0.0000 0.0000 0.0000 -19.2490 0.0000 70.9438
#
#
#
# Elastic Compliance Matrix: (Units=1/GPa)
#
#
# Indices 1 2 3 4 5 6 
#
# 1 0.014357 -0.005028 0.000752 0.000000 -0.018562 0.000000
# 2 -0.005028 0.008247 -0.002246 0.000000 0.009623 0.000000
# 3 0.000752 -0.002246 0.007686 0.000000 -0.008972 0.000000
# 4 0.000000 0.000000 0.000000 0.019679 0.000000 0.005340
# 5 -0.018562 0.009623 -0.008972 0.000000 0.067680 0.000000
# 6 0.000000 0.000000 0.000000 0.005340 0.000000 0.015544
#
#
# Mechanical properties :
#
#
# Convention : Reuss Voigt Hill
#
# Bulk Modulus (GPa) = 57.98032 80.87279 69.42656
# Shear Modulus (GPa) = 32.89767 53.56779 43.23273
#
# Velocity S-wave (km/s) = 3.55170 4.53216 4.07155
# Velocity P-wave (km/s) = 6.24915 7.64185 6.98033
#
# Compressibility (1/GPa) = 0.01724723
#
# Stress axis : x y z
#
# Youngs Moduli (GPa) = 69.65378 121.25014 130.10537
#
# Poissons Ratio (x) = 0.60964 -0.09790
# Poissons Ratio (y) = 0.35022 0.29222
# Poissons Ratio (z) = -0.05241 0.27233
#
# Static dielectric constant tensor:
#      x y z
#    x 2.091730 0.000000 -0.102670 
#    y 0.000000 2.085180 0.000000 
#    z -0.102670 0.000000 2.143750 
# 
# From -- ./inp_files/6797.got.cif
#   From: 2010.05.17/outbox.cif.g08.bks.cpg/sg5_4_cif.got.tgz:6797.got - 2010.06.03 18:56:24.
