data_PCOD9130617
_publ_section_title
;
Structure prediction by ZEFSAII (Michael W. Deem and Ramdas Pophale) SiO2 
 PCOD9130617
Probable space group: C 2
;
_chemical_formula_sum "Si O2"
_cell_formula_units_Z 24
_cell_length_a 13.819564
_cell_length_b 4.821673
_cell_length_c 28.006909
_cell_angle_alpha 90.000000
_cell_angle_beta 150.439015
_cell_angle_gamma 90.000000
_cell_volume 920.687241
_symmetry_space_group_name_H-M "C 2"
_symmetry_group_IT_number 5
_symmetry_cell_setting 'monoclinic'
loop_
_space_group_symop_operation_xyz
x,y,z
-x,y,-z
1/2+x,1/2+y,z
1/2-x,1/2+y,-z
loop_
_atom_site_type_symbol
_atom_site_label
_atom_site_fract_x
_atom_site_fract_y
_atom_site_fract_z
Si Si1 0.891007 0.448310 0.744154
Si Si2 0.453667 0.421439 0.134067
Si Si3 0.108944 0.812510 0.755828
Si Si4 0.474933 0.581844 0.540764
Si Si5 0.525014 0.679385 0.959206
Si Si6 0.953639 0.339482 0.634065
O O1 0.670157 0.400460 0.632520
O O2 0.007886 0.088657 0.693046
O O3 0.906359 0.661789 0.794855
O O4 1.000000 0.630383 0.750001
O O5 0.508041 0.672046 0.193137
O O6 0.465824 0.492609 0.083728
O O7 0.229095 0.340068 0.047478
O O8 0.329745 0.860696 0.867449
O O9 0.093777 0.598938 0.705219
O O10 0.500000 0.725794 0.500000
O O11 0.270853 0.421163 0.452467
O O12 0.465716 0.768551 0.583681
O O13 0.500000 0.535491 0.000000
#
# Coordination Sequence:
#
# PCOD9130617 Si02
#       6
#     4   4   4   4   4   4
#     4  12  27  54  81 115 161 214 259 329 401 469
#     4  12  28  54  77 120 160 206 269 323 400 472
#     4  12  27  54  81 115 161 214 259 329 401 469
#     4  12  28  52  84 118 160 211 266 331 395 472
#     4  12  28  52  84 118 160 211 266 331 395 472
#     4  12  28  54  77 120 160 206 269 323 400 472
#
# _framework density 26.067481999999998
#
# number of rings (size 3 to 8) (size 9 to 14) (size 15 to 20)
#    0.000    0.000    3.333    5.000    0.000    5.333 
#    0.000    0.000    0.000    0.000    0.000    0.000 
#    0.000    0.000    0.000    0.000    0.000    0.000 
#
# Total GULP energy -67345.846393 kJ/mol
# GULP energy per Si atom -5612.153866 kJ/mol
# Density = 2.600815 g / cm^3
# Si number density = 26.067482 Si / 1000 Ang^3
#
#
#
# Elastic Constant Matrix: (Units=GPa)
#
#
# Indices 1 2 3 4 5 6 
#
# 1 134.1564 -6.3854 54.7586 -0.0146 -21.1890 -0.0016
# 2 -6.3854 97.4762 41.0221 -0.0265 -1.9359 0.0099
# 3 54.7586 41.0221 182.9342 -0.0227 7.6786 0.0068
# 4 -0.0146 -0.0265 -0.0227 35.7111 0.0008 -7.6006
# 5 -21.1890 -1.9359 7.6786 0.0008 66.3723 0.0051
# 6 -0.0016 0.0099 0.0068 -7.6006 0.0051 29.7491
#
#
#
# Elastic Compliance Matrix: (Units=1/GPa)
#
#
# Indices 1 2 3 4 5 6 
#
# 1 0.009534 0.002161 -0.003486 0.000003 0.003510 0.000001
# 2 0.002161 0.011844 -0.003363 0.000007 0.001424 -0.000001
# 3 -0.003486 -0.003363 0.007350 0.000001 -0.002061 0.000000
# 4 0.000003 0.000007 0.000001 0.029613 0.000000 0.007566
# 5 0.003510 0.001424 -0.002061 0.000000 0.016467 -0.000003
# 6 0.000001 -0.000001 0.000000 0.007566 -0.000003 0.035547
#
#
# Mechanical properties :
#
#
# Convention : Reuss Voigt Hill
#
# Bulk Modulus (GPa) = 51.66914 65.92863 58.79889
# Shear Modulus (GPa) = 39.62539 48.04457 43.83498
#
# Velocity S-wave (km/s) = 3.90309 4.29777 4.10518
# Velocity P-wave (km/s) = 6.33849 7.06925 6.71382
#
# Compressibility (1/GPa) = 0.01935391
#
# Stress axis : x y z
#
# Youngs Moduli (GPa) = 104.88712 84.43131 136.04565
#
# Poissons Ratio (x) = -0.18248 0.47424
# Poissons Ratio (y) = -0.22669 0.45748
# Poissons Ratio (z) = 0.36562 0.28392
#
# Static dielectric constant tensor:
#      x y z
#    x 2.126170 0.000000 -0.021360 
#    y 0.000000 2.025770 0.000000 
#    z -0.021360 0.000000 2.003960 
# 
# From -- ./inp_files/65073.got.cif
#   From: 2010.05.17/outbox.cif.g08.bks.cpg/sg5_33_cif.got.tgz:65073.got - 2010.06.03 18:56:24.
