data_PCOD9130487
_publ_section_title
;
Structure prediction by ZEFSAII (Michael W. Deem and Ramdas Pophale) SiO2 
 PCOD9130487
Probable space group: C 2
;
_chemical_formula_sum "Si O2"
_cell_formula_units_Z 22
_cell_length_a 16.691701
_cell_length_b 8.898835
_cell_length_c 10.990710
_cell_angle_alpha 90.000000
_cell_angle_beta 147.744499
_cell_angle_gamma 90.000000
_cell_volume 871.270908
_symmetry_space_group_name_H-M "C 2"
_symmetry_group_IT_number 5
_symmetry_cell_setting 'monoclinic'
loop_
_space_group_symop_operation_xyz
x,y,z
-x,y,-z
1/2+x,1/2+y,z
1/2-x,1/2+y,-z
loop_
_atom_site_type_symbol
_atom_site_label
_atom_site_fract_x
_atom_site_fract_y
_atom_site_fract_z
Si Si1 0.330958 0.311210 0.835724
Si Si2 0.500000 0.867148 0.000000
Si Si3 0.941845 0.122573 0.563304
Si Si4 0.556164 0.078018 0.842008
Si Si5 0.737045 0.588049 0.095964
Si Si6 0.326184 0.280135 0.406254
O O1 0.196384 0.235769 0.586623
O O2 0.291108 0.475838 0.829035
O O3 0.500000 0.306577 0.000000
O O4 0.340101 0.207081 0.966708
O O5 0.349477 0.775531 0.789071
O O6 0.518948 0.970043 0.905064
O O7 0.000000 0.150221 0.500000
O O8 0.881625 0.950850 0.492201
O O9 0.080609 0.132580 0.833839
O O10 0.655050 0.006988 0.862436
O O11 0.417126 0.165031 0.605644
O O12 0.827889 0.728912 0.267262
#
# Coordination Sequence:
#
# PCOD9130487 Si02
#       6
#     4   2   4   4   4   4
#     4  12  27  51  75 114 159 200 252 322 382 452
#     4  12  28  50  76 116 160 208 244 320 398 446
#     4  12  24  48  82 110 153 201 255 314 382 455
#     4  12  25  51  79 112 155 202 258 318 378 461
#     4  12  29  49  80 112 153 202 263 313 384 454
#     4  12  28  48  79 115 156 202 259 318 379 463
#
# _framework density 25.25047
#
# number of rings (size 3 to 8) (size 9 to 14) (size 15 to 20)
#    0.000    0.000    6.364    1.636    3.818    7.273 
#    0.000    0.000    0.000    0.000    0.000    0.000 
#    0.000    0.000    0.000    0.000    0.000    0.000 
#
# Total GULP energy -61717.652966 kJ/mol
# GULP energy per Si atom -5610.695724 kJ/mol
# Density = 2.519300 g / cm^3
# Si number density = 25.250470 Si / 1000 Ang^3
#
#
#
# Elastic Constant Matrix: (Units=GPa)
#
#
# Indices 1 2 3 4 5 6 
#
# 1 114.8464 50.5475 63.9296 0.0000 23.5509 0.0000
# 2 50.5475 110.8793 72.6852 0.0000 3.0378 0.0000
# 3 63.9296 72.6852 219.1626 0.0000 9.4527 0.0000
# 4 0.0000 0.0000 0.0000 30.7529 0.0000 9.7888
# 5 23.5509 3.0378 9.4527 0.0000 44.7629 0.0000
# 6 0.0000 0.0000 0.0000 9.7888 0.0000 26.4500
#
#
#
# Elastic Compliance Matrix: (Units=1/GPa)
#
#
# Indices 1 2 3 4 5 6 
#
# 1 0.013073 -0.004428 -0.002080 0.000000 -0.006138 0.000000
# 2 -0.004428 0.013024 -0.003119 0.000000 0.002104 0.000000
# 3 -0.002080 -0.003119 0.006204 0.000000 -0.000004 0.000000
# 4 0.000000 0.000000 0.000000 0.036859 0.000000 -0.013641
# 5 -0.006138 0.002104 -0.000004 0.000000 0.025427 0.000000
# 6 0.000000 0.000000 0.000000 -0.013641 0.000000 0.042856
#
#
# Mechanical properties :
#
#
# Convention : Reuss Voigt Hill
#
# Bulk Modulus (GPa) = 76.64122 91.02364 83.83243
# Shear Modulus (GPa) = 31.04716 37.57489 34.31103
#
# Velocity S-wave (km/s) = 3.51032 3.86176 3.69023
# Velocity P-wave (km/s) = 6.84457 7.48404 7.17143
#
# Compressibility (1/GPa) = 0.01304781
#
# Stress axis : x y z
#
# Youngs Moduli (GPa) = 76.49529 76.78088 161.18553
#
# Poissons Ratio (x) = 0.33997 0.33528
# Poissons Ratio (y) = 0.33871 0.50267
# Poissons Ratio (z) = 0.15911 0.23945
#
# Static dielectric constant tensor:
#      x y z
#    x 2.033910 0.000000 0.001190 
#    y 0.000000 1.979420 0.000000 
#    z 0.001190 0.000000 1.951250 
# 
# From -- ./inp_files/44362.got.cif
#   From: 2010.05.17/outbox.cif.g08.bks.cpg/sg5_23_cif.got.tgz:44362.got - 2010.06.03 18:56:24.
