data_PCOD9130726
_publ_section_title
;
Structure prediction by ZEFSAII (Michael W. Deem and Ramdas Pophale) SiO2 
 PCOD9130726
Probable space group: C 2
;
_chemical_formula_sum "Si O2"
_cell_formula_units_Z 12
_cell_length_a 15.000000
_cell_length_b 12.000000
_cell_length_c 21.000000
_cell_angle_alpha 90.000000
_cell_angle_beta 160.000000
_cell_angle_gamma 90.000000
_cell_volume 1292.836142
_symmetry_space_group_name_H-M "C 2"
_symmetry_group_IT_number 5
_symmetry_cell_setting 'monoclinic'
loop_
_space_group_symop_operation_xyz
x,y,z
-x,y,-z
1/2+x,1/2+y,z
1/2-x,1/2+y,-z
loop_
_atom_site_type_symbol
_atom_site_label
_atom_site_fract_x
_atom_site_fract_y
_atom_site_fract_z
Si Si1 0.577622 0.408310 0.898246
Si Si2 0.066432 0.801580 0.618655
Si Si3 0.927638 0.460303 0.681757
Si Si4 0.189534 0.664185 0.299381
Si Si5 0.522601 0.981908 0.938798
Si Si6 0.754587 0.054150 0.786759
O O1 0.453952 0.285694 0.799882
O O2 0.371791 0.486854 0.802282
O O3 0.703287 0.455307 0.915319
O O4 0.834112 0.406216 0.116836
O O5 0.326291 0.877660 0.796646
O O6 0.133819 0.677053 0.690132
O O7 0.000000 0.788020 0.500000
O O8 0.824079 0.876355 0.485157
O O9 0.863312 0.579093 0.675471
O O10 0.041597 0.486800 0.687363
O O11 0.500000 0.680668 0.500000
O O12 0.088579 0.589817 0.172416
O O13 0.500000 0.000489 0.000000
O O14 0.000000 0.069068 0.000000
#
# Coordination Sequence:
#
# PCOD9130726 Si02
#       6
#     4   4   4   4   4   4
#     4  10  24  43  68  94 134 175 219 276 334 389
#     4  12  22  44  68  98 134 175 224 281 327 399
#     4  10  22  45  66  99 132 178 222 271 336 394
#     4  11  22  45  67  96 134 175 220 282 328 396
#     4  11  24  42  67  98 126 178 228 267 333 395
#     4  10  25  44  68  98 135 176 223 275 338 395
#
# _framework density 9.2819190000000003
#
# number of rings (size 3 to 8) (size 9 to 14) (size 15 to 20)
#    0.000    1.333    5.000    0.500    9.333    4.000 
#    6.000    0.000    0.000    0.000    0.000    0.000 
#    0.000    0.000    0.000    0.000    0.000    0.000 
#
# Total GULP energy -66895.809801 kJ/mol
# GULP energy per Si atom -5574.650817 kJ/mol
# Density = 0.926079 g / cm^3
# Si number density = 9.281919 Si / 1000 Ang^3
#
#
#
# Elastic Constant Matrix: (Units=GPa)
#
#
# Indices 1 2 3 4 5 6 
#
# 1 177.1645 61.2893 45.1123 0.0073 21.3533 0.0021
# 2 61.2893 155.0411 56.0607 -0.0085 19.6955 0.0062
# 3 45.1123 56.0607 74.9042 -0.0047 28.1397 0.0104
# 4 0.0073 -0.0085 -0.0047 52.9164 -0.0019 2.7658
# 5 21.3533 19.6955 28.1397 -0.0019 39.2554 0.0020
# 6 0.0021 0.0062 0.0104 2.7658 0.0020 38.2063
#
#
#
# Elastic Compliance Matrix: (Units=1/GPa)
#
#
# Indices 1 2 3 4 5 6 
#
# 1 0.007017 -0.001722 -0.002502 -0.000002 -0.001160 0.000001
# 2 -0.001722 0.009271 -0.006166 0.000001 0.000706 0.000000
# 3 -0.002502 -0.006166 0.024358 0.000001 -0.013006 -0.000005
# 4 -0.000002 0.000001 0.000001 0.018969 0.000000 -0.001373
# 5 -0.001160 0.000706 -0.013006 0.000000 0.035074 0.000002
# 6 0.000001 0.000000 -0.000005 -0.001373 0.000002 0.026273
#
#
# Mechanical properties :
#
#
# Convention : Reuss Voigt Hill
#
# Bulk Modulus (GPa) = 50.33767 81.33716 65.83741
# Shear Modulus (GPa) = 33.70064 42.38547 38.04306
#
# Velocity S-wave (km/s) = 4.26536 4.78350 4.53184
# Velocity P-wave (km/s) = 7.17165 8.62665 7.93258
#
# Compressibility (1/GPa) = 0.01986584
#
# Stress axis : x y z
#
# Youngs Moduli (GPa) = 142.51175 107.86679 41.05366
#
# Poissons Ratio (x) = 0.18575 0.10270
# Poissons Ratio (y) = 0.24541 0.25316
# Poissons Ratio (z) = 0.35651 0.66516
#
# Static dielectric constant tensor:
#      x y z
#    x 1.683250 0.000000 -0.000150 
#    y 0.000000 1.635080 -0.000010 
#    z -0.000150 -0.000010 1.668230 
# 
# From -- ./inp_files/42393.got.cif
#   From: 2010.05.17/outbox.ucp.g08.bks.cvg/sg5_22_cif.got.tgz:42393.got - 2010.06.11 12:53:14.
