data_PCOD9130271
_publ_section_title
;
Structure prediction by ZEFSAII (Michael W. Deem and Ramdas Pophale) SiO2 
 PCOD9130271
Probable space group: C 2
;
_chemical_formula_sum "Si O2"
_cell_formula_units_Z 22
_cell_length_a 13.701047
_cell_length_b 13.913538
_cell_length_c 12.855840
_cell_angle_alpha 90.000000
_cell_angle_beta 158.971959
_cell_angle_gamma 90.000000
_cell_volume 879.375283
_symmetry_space_group_name_H-M "C 2"
_symmetry_group_IT_number 5
_symmetry_cell_setting 'monoclinic'
loop_
_space_group_symop_operation_xyz
x,y,z
-x,y,-z
1/2+x,1/2+y,z
1/2-x,1/2+y,-z
loop_
_atom_site_type_symbol
_atom_site_label
_atom_site_fract_x
_atom_site_fract_y
_atom_site_fract_z
Si Si1 0.307796 0.247740 0.616594
Si Si2 0.500000 0.893309 0.000000
Si Si3 0.325538 0.843501 0.225205
Si Si4 0.839769 0.725884 0.238292
Si Si5 0.646823 0.534381 0.961615
Si Si6 0.169040 0.530818 0.342618
O O1 0.033577 0.309522 0.342297
O O2 0.446570 0.242202 0.641746
O O3 0.241909 0.140358 0.590449
O O4 0.542062 0.290797 0.923365
O O5 0.313234 0.822824 0.882426
O O6 0.327686 0.961292 0.752022
O O7 0.500000 0.819427 0.500000
O O8 0.256938 0.955713 0.151101
O O9 0.865018 0.000352 0.631959
O O10 0.641367 0.640005 0.005015
O O11 0.000000 0.692474 0.500000
O O12 0.863621 0.536496 0.083067
#
# Coordination Sequence:
#
# PCOD9130271 Si02
#       6
#     4   2   4   4   4   4
#     4  11  26  50  75 112 161 200 261 319 397 448
#     4  12  30  46  82 114 158 204 276 308 394 460
#     4  12  26  46  80 110 148 209 259 319 381 477
#     4  11  28  48  78 115 157 208 257 329 382 470
#     4  11  26  49  74 108 156 196 254 317 396 447
#     4  11  27  48  74 110 155 202 246 326 382 461
#
# _framework density 25.017762000000001
#
# number of rings (size 3 to 8) (size 9 to 14) (size 15 to 20)
#    0.000    0.727    0.000    5.455   17.818    0.000 
#    3.273    0.000    0.000    0.000    0.000    0.000 
#    0.000    0.000    0.000    0.000    0.000    0.000 
#
# Total GULP energy -61731.605264 kJ/mol
# GULP energy per Si atom -5611.964115 kJ/mol
# Density = 2.496082 g / cm^3
# Si number density = 25.017762 Si / 1000 Ang^3
#
#
#
# Elastic Constant Matrix: (Units=GPa)
#
#
# Indices 1 2 3 4 5 6 
#
# 1 86.2421 44.7183 35.9948 0.0047 -4.2979 0.0031
# 2 44.7183 137.7816 46.2031 0.0021 -3.7072 0.0032
# 3 35.9948 46.2031 136.6201 0.0043 -5.3244 0.0053
# 4 0.0047 0.0021 0.0043 42.1547 0.0042 -7.7225
# 5 -4.2979 -3.7072 -5.3244 0.0042 47.9173 0.0038
# 6 0.0031 0.0032 0.0053 -7.7225 0.0038 39.7788
#
#
#
# Elastic Compliance Matrix: (Units=1/GPa)
#
#
# Indices 1 2 3 4 5 6 
#
# 1 0.014713 -0.003908 -0.002526 -0.000001 0.000737 -0.000001
# 2 -0.003908 0.009230 -0.002086 0.000000 0.000132 0.000000
# 3 -0.002526 -0.002086 0.008713 -0.000001 0.000580 -0.000001
# 4 -0.000001 0.000000 -0.000001 0.024597 -0.000003 0.004775
# 5 0.000737 0.000132 0.000580 -0.000003 0.021010 -0.000003
# 6 -0.000001 0.000000 -0.000001 0.004775 -0.000003 0.026066
#
#
# Mechanical properties :
#
#
# Convention : Reuss Voigt Hill
#
# Bulk Modulus (GPa) = 64.04402 68.27513 66.15958
# Shear Modulus (GPa) = 39.50238 41.55200 40.52719
#
# Velocity S-wave (km/s) = 3.97794 4.07984 4.02921
# Velocity P-wave (km/s) = 6.83767 7.03870 6.93891
#
# Compressibility (1/GPa) = 0.01561426
#
# Stress axis : x y z
#
# Youngs Moduli (GPa) = 67.96830 108.34758 114.76740
#
# Poissons Ratio (x) = 0.42346 0.28989
# Poissons Ratio (y) = 0.26564 0.23946
# Poissons Ratio (z) = 0.17168 0.22606
#
# Static dielectric constant tensor:
#      x y z
#    x 2.001830 0.000000 -0.032670 
#    y 0.000000 1.954130 0.000000 
#    z -0.032670 0.000000 1.932860 
# 
# From -- ./inp_files/42731.got.cif
#   From: 2010.05.17/outbox.cif.g08.bks.cpg/sg5_22_cif.got.tgz:42731.got - 2010.06.03 18:56:24.
