data_PCOD9130803
_publ_section_title
;
Structure prediction by ZEFSAII (Michael W. Deem and Ramdas Pophale) SiO2 
 PCOD9130803
Probable space group: P M
;
_chemical_formula_sum "Si O2"
_cell_formula_units_Z 14
_cell_length_a 14.916084
_cell_length_b 9.263437
_cell_length_c 5.290117
_cell_angle_alpha 90.000000
_cell_angle_beta 110.574527
_cell_angle_gamma 90.000000
_cell_volume 684.334205
_symmetry_space_group_name_H-M "P M"
_symmetry_group_IT_number 6
_symmetry_cell_setting 'monoclinic'
loop_
_space_group_symop_operation_xyz
x,y,z
x,-y,z
loop_
_atom_site_type_symbol
_atom_site_label
_atom_site_fract_x
_atom_site_fract_y
_atom_site_fract_z
Si Si1 0.183630 0.823852 0.652030
Si Si2 0.925953 0.844031 0.708900
Si Si3 0.834991 0.650289 0.269293
Si Si4 0.738113 0.734049 0.670450
Si Si5 0.518688 0.825270 0.448456
Si Si6 0.409285 0.825154 0.839842
Si Si7 0.095415 0.674136 0.066793
O O1 0.133458 0.749161 0.360539
O O2 0.171096 0.000000 0.639754
O O3 0.297126 0.792877 0.741625
O O4 0.146462 0.749834 0.874076
O O5 0.904794 0.783019 0.406507
O O6 0.820787 0.854438 0.725415
O O7 0.973332 0.000000 0.757322
O O8 0.985427 0.722478 0.913123
O O9 0.891170 0.500000 0.320025
O O10 0.763753 0.650307 0.439656
O O11 0.770122 0.661072 0.960374
O O12 0.629219 0.780999 0.567598
O O13 0.466443 0.773760 0.142759
O O14 0.515952 0.000000 0.445151
O O15 0.460485 0.773597 0.635680
O O16 0.416081 0.000000 0.845459
O O17 0.106132 0.500000 0.080058
#
# Coordination Sequence:
#
# PCOD9130803 Si02
#       7
#     2   2   2   2   2   2   2
#     4  11  23  44  70  98 128 164 217 276 323 378
#     4  10  24  41  63  95 128 163 211 263 308 365
#     4  10  22  39  59  81 121 169 208 250 303 365
#     4  10  22  36  61  87 127 163 208 248 302 364
#     4  10  18  33  57  93 126 157 199 253 316 370
#     4   9  19  34  61  91 123 157 200 261 321 367
#     4  12  26  43  67  95 131 175 213 259 331 395
#
# _framework density 20.457840999999998
#
# number of rings (size 3 to 8) (size 9 to 14) (size 15 to 20)
#    0.857    0.857    0.000    4.714    2.000    3.429 
#    0.000    0.000    0.000   17.143    0.000    0.000 
#    0.000    0.000    0.000    0.000    0.000    0.000 
#
# Total GULP energy -78010.860897 kJ/mol
# GULP energy per Si atom -5572.204350 kJ/mol
# Density = 2.041128 g / cm^3
# Si number density = 20.457841 Si / 1000 Ang^3
#
#
#
# Elastic Constant Matrix: (Units=GPa)
#
#
# Indices 1 2 3 4 5 6 
#
# 1 104.7623 22.2940 33.9944 0.0000 9.2131 0.0000
# 2 22.2940 113.4316 35.3351 0.0000 -0.5424 0.0000
# 3 33.9944 35.3351 145.4962 0.0000 -6.2290 0.0000
# 4 0.0000 0.0000 0.0000 0.7675 0.0000 -2.0142
# 5 9.2131 -0.5424 -6.2290 0.0000 38.5093 0.0000
# 6 0.0000 0.0000 0.0000 -2.0142 0.0000 12.0791
#
#
#
# Elastic Compliance Matrix: (Units=1/GPa)
#
#
# Indices 1 2 3 4 5 6 
#
# 1 0.010865 -0.001427 -0.002320 0.000000 -0.002995 0.000000
# 2 -0.001427 0.009727 -0.002022 0.000000 0.000151 0.000000
# 3 -0.002320 -0.002022 0.007984 0.000000 0.001818 0.000000
# 4 0.000000 0.000000 0.000000 2.316889 0.000000 0.386345
# 5 -0.002995 0.000151 0.001818 0.000000 0.026980 0.000000
# 6 0.000000 0.000000 0.000000 0.386345 0.000000 0.147211
#
#
# Mechanical properties :
#
#
# Convention : Reuss Voigt Hill
#
# Bulk Modulus (GPa) = 58.69524 60.77079 59.73301
# Shear Modulus (GPa) = 1.97093 28.40895 15.18994
#
# Velocity S-wave (km/s) = 0.98260 3.73051 2.72784
# Velocity P-wave (km/s) = 5.48092 6.95166 6.25963
#
# Compressibility (1/GPa) = 0.01703716
#
# Stress axis : x y z
#
# Youngs Moduli (GPa) = 92.03540 102.80581 125.24812
#
# Poissons Ratio (x) = 0.14671 0.29061
# Poissons Ratio (y) = 0.13134 0.25330
# Poissons Ratio (z) = 0.21355 0.20792
#
# Static dielectric constant tensor:
#      x y z
#    x 1.744910 0.000000 -0.033240 
#    y 0.000000 1.773600 0.000000 
#    z -0.033240 0.000000 1.728770 
# 
# From -- ./inp_files/1881.got.cif
#   From: 2010.05.17/outbox.cif.g08.bks.cpg/sg6_1_cif.got.tgz:1881.got - 2010.06.03 19:42:10.
