data_PCOD9130914
_publ_section_title
;
Structure prediction by ZEFSAII (Michael W. Deem and Ramdas Pophale) SiO2 
 PCOD9130914
Probable space group: P M
;
_chemical_formula_sum "Si O2"
_cell_formula_units_Z 16
_cell_length_a 12.697986
_cell_length_b 9.123083
_cell_length_c 12.419585
_cell_angle_alpha 90.000000
_cell_angle_beta 144.959959
_cell_angle_gamma 90.000000
_cell_volume 826.053136
_symmetry_space_group_name_H-M "P M"
_symmetry_group_IT_number 6
_symmetry_cell_setting 'monoclinic'
loop_
_space_group_symop_operation_xyz
x,y,z
x,-y,z
loop_
_atom_site_type_symbol
_atom_site_label
_atom_site_fract_x
_atom_site_fract_y
_atom_site_fract_z
Si Si1 0.925780 0.171727 0.525560
Si Si2 0.802549 0.173794 0.663806
Si Si3 0.446496 0.673948 0.463739
Si Si4 0.038838 0.325152 0.034578
Si Si5 0.895847 0.170388 0.122870
Si Si6 0.343906 0.827479 0.836669
Si Si7 0.312816 0.168744 0.557330
Si Si8 0.704101 0.673027 0.155798
O O1 0.829549 0.195760 0.559182
O O2 0.841791 0.271585 0.362737
O O3 0.143115 0.197242 0.716804
O O4 0.902971 0.000000 0.474651
O O5 0.613599 0.242923 0.547795
O O6 0.805773 0.000000 0.687911
O O7 0.967369 0.251162 0.866304
O O8 0.477781 0.500000 0.487738
O O9 0.251850 0.705177 0.241561
O O10 0.419979 0.728923 0.564054
O O11 0.014324 0.500000 0.011217
O O12 0.918224 0.255385 0.029806
O O13 0.713432 0.500000 0.150124
O O14 0.758480 0.246642 0.090313
O O15 0.097571 0.176764 0.346649
O O16 0.332453 0.796170 0.699110
O O17 0.390054 0.000000 0.888189
O O18 0.501845 0.727829 0.017350
O O19 0.371317 0.000000 0.589343
O O20 0.848294 0.000000 0.066181
#
# Coordination Sequence:
#
# PCOD9130914 Si02
#       8
#     2   2   2   2   2   2   2   2
#     4  10  23  46  67  87 118 161 213 260 300 352
#     4  11  24  41  66  92 119 161 211 256 301 360
#     4  10  22  39  60  89 128 164 198 248 306 365
#     4  10  22  40  61  90 126 162 201 250 308 364
#     4  10  19  37  63  90 124 161 203 252 302 359
#     4  10  21  40  64  89 119 159 208 256 303 357
#     4   9  18  35  62  90 120 158 203 252 301 356
#     4  12  25  38  59  93 128 162 199 246 311 373
#
# _framework density 19.369213999999999
#
# number of rings (size 3 to 8) (size 9 to 14) (size 15 to 20)
#    0.000    1.750    1.250    2.625    1.750    5.000 
#    0.000    3.750    0.000    0.000    0.000    0.000 
#    0.000    0.000    0.000    0.000    0.000    0.000 
#
# Total GULP energy -89451.608073 kJ/mol
# GULP energy per Si atom -5590.725505 kJ/mol
# Density = 1.932513 g / cm^3
# Si number density = 19.369214 Si / 1000 Ang^3
#
#
#
# Elastic Constant Matrix: (Units=GPa)
#
#
# Indices 1 2 3 4 5 6 
#
# 1 81.5987 42.3988 4.2086 0.0000 15.7134 0.0000
# 2 42.3988 81.1475 19.9489 0.0000 9.0456 0.0000
# 3 4.2086 19.9489 24.2574 0.0000 7.4524 0.0000
# 4 0.0000 0.0000 0.0000 27.5090 0.0000 4.7644
# 5 15.7134 9.0456 7.4524 0.0000 20.7949 0.0000
# 6 0.0000 0.0000 0.0000 4.7644 0.0000 6.8867
#
#
#
# Elastic Compliance Matrix: (Units=1/GPa)
#
#
# Indices 1 2 3 4 5 6 
#
# 1 0.020526 -0.011707 0.010414 0.000000 -0.014150 0.000000
# 2 -0.011707 0.022234 -0.017980 0.000000 0.005618 0.000000
# 3 0.010414 -0.017980 0.060927 0.000000 -0.021883 0.000000
# 4 0.000000 0.000000 0.000000 0.041300 0.000000 -0.028572
# 5 -0.014150 0.005618 -0.021883 0.000000 0.064179 0.000000
# 6 0.000000 0.000000 0.000000 -0.028572 0.000000 0.164975
#
#
# Mechanical properties :
#
#
# Convention : Reuss Voigt Hill
#
# Bulk Modulus (GPa) = 15.35150 35.56846 25.45998
# Shear Modulus (GPa) = 11.51009 19.06794 15.28902
#
# Velocity S-wave (km/s) = 2.44036 3.14099 2.81258
# Velocity P-wave (km/s) = 3.98540 5.61762 4.87038
#
# Compressibility (1/GPa) = 0.06514021
#
# Stress axis : x y z
#
# Youngs Moduli (GPa) = 48.71876 44.97610 16.41309
#
# Poissons Ratio (x) = 0.52655 -0.17092
# Poissons Ratio (y) = 0.57037 0.29511
# Poissons Ratio (z) = -0.50735 0.80866
#
# Static dielectric constant tensor:
#      x y z
#    x 1.648720 0.000000 0.015010 
#    y 0.000000 1.646760 0.000000 
#    z 0.015010 0.000000 1.691120 
# 
# From -- ./inp_files/4187.got.cif
#   From: 2010.05.17/outbox.cif.g08.bks.cpg/sg6_3_cif.got.tgz:4187.got - 2010.06.03 19:42:10.
