data_PCOD9130212
_publ_section_title
;
Structure prediction by ZEFSAII (Michael W. Deem and Ramdas Pophale) SiO2 
 PCOD9130212
Probable space group: C 2
;
_chemical_formula_sum "Si O2"
_cell_formula_units_Z 30
_cell_length_a 8.851616
_cell_length_b 13.933397
_cell_length_c 11.169703
_cell_angle_alpha 90.000000
_cell_angle_beta 88.374655
_cell_angle_gamma 90.000000
_cell_volume 1377.039619
_symmetry_space_group_name_H-M "C 2"
_symmetry_group_IT_number 5
_symmetry_cell_setting 'monoclinic'
loop_
_space_group_symop_operation_xyz
x,y,z
-x,y,-z
1/2+x,1/2+y,z
1/2-x,1/2+y,-z
loop_
_atom_site_type_symbol
_atom_site_label
_atom_site_fract_x
_atom_site_fract_y
_atom_site_fract_z
Si Si1 0.481722 0.507940 0.638951
Si Si2 0.476766 0.741404 0.641098
Si Si3 0.500000 0.577118 0.000000
Si Si4 0.785167 0.207573 0.169623
Si Si5 0.250044 0.517417 0.823591
Si Si6 0.840521 0.368999 0.012411
Si Si7 0.293476 0.367496 0.234884
Si Si8 0.470583 0.186620 0.143026
O O1 0.500000 0.485595 0.500000
O O2 0.466513 0.624187 0.651957
O O3 0.323725 0.475984 0.702399
O O4 0.621853 0.454406 0.700110
O O5 0.500000 0.762268 0.500000
O O6 0.621209 0.755457 0.725023
O O7 0.336101 0.805828 0.691825
O O8 0.608406 0.636959 0.908649
O O9 0.389597 0.520548 0.914068
O O10 0.626796 0.159070 0.206051
O O11 0.735169 0.291854 0.078927
O O12 0.170053 0.619362 0.816845
O O13 0.130787 0.451819 0.893532
O O14 0.781814 0.401921 0.886983
O O15 0.000000 0.315978 0.000000
O O16 0.419021 0.291055 0.188623
O O17 0.500000 0.173552 0.000000
#
# Coordination Sequence:
#
# PCOD9130212 Si02
#       8
#     4   4   2   4   4   4   4   4
#     4  11  26  47  74 103 147 197 259 301 357 452
#     4  11  25  49  77 101 145 204 253 303 371 440
#     4  12  20  38  66  92 136 190 220 292 382 432
#     4  12  22  42  66  99 143 186 232 301 371 441
#     4  12  24  41  67 105 145 186 238 305 375 448
#     4  12  24  38  66 108 143 173 234 305 380 447
#     4  12  24  47  73 108 144 199 244 305 380 454
#     4  12  23  39  68 106 147 182 237 298 385 458
#
# _framework density 21.785864
#
# number of rings (size 3 to 8) (size 9 to 14) (size 15 to 20)
#    0.000    0.267    7.333    2.000    0.000    2.133 
#    0.000    0.000    0.000    0.000    0.000    0.000 
#    0.000    0.000    0.000    0.000    0.000    0.000 
#
# Total GULP energy -83722.663833 kJ/mol
# GULP energy per Si atom -5581.510922 kJ/mol
# Density = 2.173628 g / cm^3
# Si number density = 21.785864 Si / 1000 Ang^3
#
#
#
# Elastic Constant Matrix: (Units=GPa)
#
#
# Indices 1 2 3 4 5 6 
#
# 1 129.0094 18.7091 60.0999 0.0000 -9.1604 0.0000
# 2 18.7091 62.9975 31.7756 0.0000 -6.7790 0.0000
# 3 60.0999 31.7756 154.9114 0.0000 -12.9516 0.0000
# 4 0.0000 0.0000 0.0000 25.7824 0.0000 -0.1662
# 5 -9.1604 -6.7790 -12.9516 0.0000 29.2283 0.0000
# 6 0.0000 0.0000 0.0000 -0.1662 0.0000 32.3628
#
#
#
# Elastic Compliance Matrix: (Units=1/GPa)
#
#
# Indices 1 2 3 4 5 6 
#
# 1 0.009570 -0.000989 -0.003405 0.000000 0.001261 0.000000
# 2 -0.000989 0.017999 -0.003100 0.000000 0.002491 0.000000
# 3 -0.003405 -0.003100 0.008581 0.000000 0.002016 0.000000
# 4 0.000000 0.000000 0.000000 0.038787 0.000000 0.000199
# 5 0.001261 0.002491 0.002016 0.000000 0.036080 0.000000
# 6 0.000000 0.000000 0.000000 0.000199 0.000000 0.030901
#
#
# Mechanical properties :
#
#
# Convention : Reuss Voigt Hill
#
# Bulk Modulus (GPa) = 47.25337 63.12084 55.18711
# Shear Modulus (GPa) = 30.49525 33.23027 31.86276
#
# Velocity S-wave (km/s) = 3.74541 3.90976 3.82847
# Velocity P-wave (km/s) = 6.35934 7.02978 6.70295
#
# Compressibility (1/GPa) = 0.02116251
#
# Stress axis : x y z
#
# Youngs Moduli (GPa) = 104.48817 55.55844 116.54201
#
# Poissons Ratio (x) = 0.05496 0.39678
# Poissons Ratio (y) = 0.10336 0.36127
# Poissons Ratio (z) = 0.35574 0.17223
#
# Static dielectric constant tensor:
#      x y z
#    x 1.828560 0.000000 -0.010310 
#    y 0.000000 1.853410 0.000000 
#    z -0.010310 0.000000 1.783610 
# 
# From -- ./inp_files/36147.got.cif
#   From: 2010.05.17/outbox.cif.g08.bks.cpg/sg5_19_cif.got.tgz:36147.got - 2010.06.03 18:56:24.
