data_PCOD9130099
_publ_section_title
;
Structure prediction by ZEFSAII (Michael W. Deem and Ramdas Pophale) SiO2 
 PCOD9130099
Probable space group: C 2
;
_chemical_formula_sum "Si O2"
_cell_formula_units_Z 16
_cell_length_a 7.199540
_cell_length_b 17.976101
_cell_length_c 7.648930
_cell_angle_alpha 90.000000
_cell_angle_beta 136.656936
_cell_angle_gamma 90.000000
_cell_volume 679.447907
_symmetry_space_group_name_H-M "C 2"
_symmetry_group_IT_number 5
_symmetry_cell_setting 'monoclinic'
loop_
_space_group_symop_operation_xyz
x,y,z
-x,y,-z
1/2+x,1/2+y,z
1/2-x,1/2+y,-z
loop_
_atom_site_type_symbol
_atom_site_label
_atom_site_fract_x
_atom_site_fract_y
_atom_site_fract_z
Si Si1 0.815511 0.145530 0.041034
Si Si2 0.500000 0.404149 0.000000
Si Si3 0.491716 0.018118 0.301570
Si Si4 0.823957 0.806661 0.197015
Si Si5 0.500000 0.560609 0.500000
O O1 0.965417 0.119357 0.317176
O O2 0.579774 0.086018 0.871218
O O3 0.710665 0.227763 0.929655
O O4 0.000000 0.127794 0.000000
O O5 0.766509 0.455155 0.161688
O O6 0.487768 0.356745 0.169974
O O7 0.500000 0.050235 0.500000
O O8 0.783068 0.000770 0.426727
O O9 0.000000 0.799734 0.500000
O O10 0.500000 0.829646 0.000000
#
# Coordination Sequence:
#
# PCOD9130099 Si02
#       5
#     4   2   4   4   2
#     4  11  24  49  79 119 157 206 275 338 391 484
#     4  12  30  52  80 116 168 216 264 336 412 496
#     4  12  25  49  75 118 161 206 274 329 400 483
#     4  11  30  53  83 120 166 214 272 336 414 483
#     4  12  26  44  84 120 160 212 266 346 408 462
#
# _framework density 23.548531000000001
#
# number of rings (size 3 to 8) (size 9 to 14) (size 15 to 20)
#    0.000    0.500    3.750    1.500   10.500    4.000 
#    2.250    0.000    0.000    0.000    0.000    0.000 
#    0.000    0.000    0.000    0.000    0.000    0.000 
#
# Total GULP energy -44593.262820 kJ/mol
# GULP energy per Si atom -5574.157853 kJ/mol
# Density = 2.349493 g / cm^3
# Si number density = 23.548531 Si / 1000 Ang^3
#
#
#
# Elastic Constant Matrix: (Units=GPa)
#
#
# Indices 1 2 3 4 5 6 
#
# 1 215.3439 70.3984 78.4230 0.0000 13.6716 0.0000
# 2 70.3984 96.0463 46.0698 0.0000 -5.0219 0.0000
# 3 78.4230 46.0698 135.6298 0.0000 -20.4525 0.0000
# 4 0.0000 0.0000 0.0000 61.0688 0.0000 67.8252
# 5 13.6716 -5.0219 -20.4525 0.0000 36.5726 0.0000
# 6 0.0000 0.0000 0.0000 67.8252 0.0000 122.0537
#
#
#
# Elastic Compliance Matrix: (Units=1/GPa)
#
#
# Indices 1 2 3 4 5 6 
#
# 1 0.007794 -0.004106 -0.003971 0.000000 -0.005698 0.000000
# 2 -0.004106 0.014618 -0.002247 0.000000 0.002286 0.000000
# 3 -0.003971 -0.002247 0.011587 0.000000 0.007656 0.000000
# 4 0.000000 0.000000 0.000000 0.042775 0.000000 -0.023770
# 5 -0.005698 0.002286 0.007656 0.000000 0.034068 0.000000
# 6 0.000000 0.000000 0.000000 -0.023770 0.000000 0.021402
#
#
# Mechanical properties :
#
#
# Convention : Reuss Voigt Hill
#
# Bulk Modulus (GPa) = 74.89759 92.97802 83.93781
# Shear Modulus (GPa) = 31.77802 60.74760 46.26281
#
# Velocity S-wave (km/s) = 3.67750 5.08456 4.43716
# Velocity P-wave (km/s) = 7.06446 8.60463 7.87230
#
# Compressibility (1/GPa) = 0.01335156
#
# Stress axis : x y z
#
# Youngs Moduli (GPa) = 128.30504 68.40787 86.30499
#
# Poissons Ratio (x) = 0.28087 0.34273
# Poissons Ratio (y) = 0.52679 0.19390
# Poissons Ratio (z) = 0.50952 0.15369
#
# Static dielectric constant tensor:
#      x y z
#    x 1.620140 0.000000 -0.448530 
#    y 0.000000 1.999420 0.000000 
#    z -0.448530 0.000000 0.960510 
# 
# From -- ./inp_files/16258.got.cif
#   From: 2010.05.17/outbox.cif.g08.bks.cpg/sg5_9_cif.got.tgz:16258.got - 2010.06.03 18:56:24.
