data_PCOD9130478
_publ_section_title
;
Structure prediction by ZEFSAII (Michael W. Deem and Ramdas Pophale) SiO2 
 PCOD9130478
Probable space group: C 2
;
_chemical_formula_sum "Si O2"
_cell_formula_units_Z 16
_cell_length_a 13.482854
_cell_length_b 5.809995
_cell_length_c 9.069973
_cell_angle_alpha 90.000000
_cell_angle_beta 108.352010
_cell_angle_gamma 90.000000
_cell_volume 674.363241
_symmetry_space_group_name_H-M "C 2"
_symmetry_group_IT_number 5
_symmetry_cell_setting 'monoclinic'
loop_
_space_group_symop_operation_xyz
x,y,z
-x,y,-z
1/2+x,1/2+y,z
1/2-x,1/2+y,-z
loop_
_atom_site_type_symbol
_atom_site_label
_atom_site_fract_x
_atom_site_fract_y
_atom_site_fract_z
Si Si1 0.500000 0.355021 0.000000
Si Si2 0.500000 0.585855 0.500000
Si Si3 0.055612 0.696040 0.323239
Si Si4 0.711171 0.550777 0.043787
Si Si5 0.349975 0.975255 0.370555
O O1 0.444275 0.198795 0.850924
O O2 0.411856 0.513282 0.029988
O O3 0.551383 0.447569 0.390459
O O4 0.400348 0.724254 0.392374
O O5 0.142776 0.559613 0.456780
O O6 0.942505 0.606458 0.325318
O O7 0.746973 0.524372 0.231497
O O8 0.741989 0.810267 0.005706
#
# Coordination Sequence:
#
# PCOD9130478 Si02
#       5
#     2   2   4   4   4
#     4  12  24  46  74 112 142 192 250 294 364 436
#     4   8  16  36  68  90 136 190 230 286 364 416
#     4   9  19  39  66 101 139 184 240 293 354 434
#     4  12  27  48  75 108 150 192 238 306 362 426
#     4   9  19  40  67  97 141 191 227 301 360 418
#
# _framework density 23.726085000000001
#
# number of rings (size 3 to 8) (size 9 to 14) (size 15 to 20)
#    0.000    2.500    2.500    1.500    3.500    1.000 
#   13.500    0.000    0.000    0.000    0.000    0.000 
#    0.000    0.000    0.000    0.000    0.000    0.000 
#
# Total GULP energy -44592.096648 kJ/mol
# GULP energy per Si atom -5574.012081 kJ/mol
# Density = 2.367208 g / cm^3
# Si number density = 23.726085 Si / 1000 Ang^3
#
#
#
# Elastic Constant Matrix: (Units=GPa)
#
#
# Indices 1 2 3 4 5 6 
#
# 1 58.7232 13.5827 -5.9344 0.0000 7.1861 0.0000
# 2 13.5827 83.7970 19.3359 0.0000 -8.2359 0.0000
# 3 -5.9344 19.3359 150.3556 0.0000 3.0463 0.0000
# 4 0.0000 0.0000 0.0000 -14.1050 0.0000 -4.1223
# 5 7.1861 -8.2359 3.0463 0.0000 30.3048 0.0000
# 6 0.0000 0.0000 0.0000 -4.1223 0.0000 -7.1971
#
#
#
# Elastic Compliance Matrix: (Units=1/GPa)
#
#
# Indices 1 2 3 4 5 6 
#
# 1 0.018762 -0.003909 0.001358 0.000000 -0.005648 0.000000
# 2 -0.003909 0.013497 -0.001987 0.000000 0.004795 0.000000
# 3 0.001358 -0.001987 0.006992 0.000000 -0.001565 0.000000
# 4 0.000000 0.000000 0.000000 -0.085151 0.000000 0.048772
# 5 -0.005648 0.004795 -0.001565 0.000000 0.035798 0.000000
# 6 0.000000 0.000000 0.000000 0.048772 0.000000 -0.166880
#
#
# Mechanical properties :
#
#
# Convention : Reuss Voigt Hill
#
# Bulk Modulus (GPa) = 33.14269 38.53824 35.84046
# Shear Modulus (GPa) = -31.67616 19.52665 -6.07475
#
# Velocity S-wave (km/s) = -3.65783 2.87192 -1.60185
# Velocity P-wave (km/s) = 1.95971 5.22259 3.42308
#
# Compressibility (1/GPa) = 0.03017257
#
# Stress axis : x y z
#
# Youngs Moduli (GPa) = 53.30024 74.09002 143.02574
#
# Poissons Ratio (x) = 0.28965 -0.19419
# Poissons Ratio (y) = 0.20838 0.28422
# Poissons Ratio (z) = -0.07237 0.14723
#
# Static dielectric constant tensor:
#      x y z
#    x 1.910050 0.000000 -0.005910 
#    y 0.000000 2.021250 0.000000 
#    z -0.005910 0.000000 1.950190 
# 
# From -- ./inp_files/22361.got.cif
#   From: 2010.05.17/outbox.cif.g08.bks.cpg/sg5_12_cif.got.tgz:22361.got - 2010.06.03 18:56:24.
