data_PCOD9130973
_publ_section_title
;
Structure prediction by ZEFSAII (Michael W. Deem and Ramdas Pophale) SiO2 
 PCOD9130973
Probable space group: P M
;
_chemical_formula_sum "Si O2"
_cell_formula_units_Z 16
_cell_length_a 5.069418
_cell_length_b 21.585981
_cell_length_c 5.021567
_cell_angle_alpha 90.000000
_cell_angle_beta 82.679335
_cell_angle_gamma 90.000000
_cell_volume 545.022607
_symmetry_space_group_name_H-M "P M"
_symmetry_group_IT_number 6
_symmetry_cell_setting 'monoclinic'
loop_
_space_group_symop_operation_xyz
x,y,z
x,-y,z
loop_
_atom_site_type_symbol
_atom_site_label
_atom_site_fract_x
_atom_site_fract_y
_atom_site_fract_z
Si Si1 0.005940 0.433433 0.972380
Si Si2 0.899306 0.169342 0.896571
Si Si3 0.222536 0.930321 0.735266
Si Si4 0.651110 0.929957 0.158235
Si Si5 0.461854 0.566812 0.327411
Si Si6 0.841643 0.302891 0.797536
Si Si7 0.511902 0.700289 0.336565
Si Si8 0.468490 0.832739 0.482910
O O1 0.953931 0.500000 0.842305
O O2 0.963361 0.370190 0.823934
O O3 0.288920 0.435092 0.079849
O O4 0.774736 0.430745 0.226193
O O5 0.977907 0.242599 0.915565
O O6 0.671035 0.173315 0.701822
O O7 0.931149 0.085970 0.944010
O O8 0.700682 0.154391 0.197035
O O9 0.177643 0.851384 0.687552
O O10 0.148696 0.000000 0.651577
O O11 0.429418 0.934150 0.954118
O O12 0.445365 0.913198 0.445335
O O13 0.730324 0.000000 0.237312
O O14 0.412535 0.500000 0.468483
O O15 0.395537 0.634729 0.445655
O O16 0.768113 0.293826 0.498972
O O17 0.578082 0.305755 0.017767
O O18 0.369309 0.765700 0.392936
#
# Coordination Sequence:
#
# PCOD9130973 Si02
#       8
#     2   2   2   2   2   2   2   2
#     4   9  19  39  66  98 137 180 226 278 336 399
#     4  10  21  39  59  84 119 160 207 262 321 388
#     4  10  22  38  57  87 119 156 210 266 325 387
#     4  10  20  36  58  82 116 157 201 259 323 387
#     4   9  19  39  66  98 137 180 226 278 336 399
#     4  10  21  41  65  96 129 171 224 274 332 400
#     4  10  21  41  66  95 130 172 222 274 332 400
#     4  10  21  39  59  84 119 160 206 263 321 388
#
# _framework density 29.356574999999999
#
# number of rings (size 3 to 8) (size 9 to 14) (size 15 to 20)
#    0.000    2.250    1.250    0.750    0.000    4.000 
#   13.500    0.000    0.000   13.500    0.000    0.000 
#    0.000    0.000    0.000    0.000    0.000    0.000 
#
# Total GULP energy -89360.836763 kJ/mol
# GULP energy per Si atom -5585.052298 kJ/mol
# Density = 2.928976 g / cm^3
# Si number density = 29.356575 Si / 1000 Ang^3
#
#
#
# Elastic Constant Matrix: (Units=GPa)
#
#
# Indices 1 2 3 4 5 6 
#
# 1 143.2476 67.4799 64.1199 0.0000 -46.8208 0.0000
# 2 67.4799 347.9479 34.6334 0.0000 -41.9299 0.0000
# 3 64.1199 34.6334 153.4841 0.0000 -18.8902 0.0000
# 4 0.0000 0.0000 0.0000 21.2963 0.0000 -95.7071
# 5 -46.8208 -41.9299 -18.8902 0.0000 54.3999 0.0000
# 6 0.0000 0.0000 0.0000 -95.7071 0.0000 600.6202
#
#
#
# Elastic Compliance Matrix: (Units=1/GPa)
#
#
# Indices 1 2 3 4 5 6 
#
# 1 0.011712 -0.000930 -0.003688 0.000000 0.008082 0.000000
# 2 -0.000930 0.003270 -0.000144 0.000000 0.001670 0.000000
# 3 -0.003688 -0.000144 0.008027 0.000000 -0.000498 0.000000
# 4 0.000000 0.000000 0.000000 0.165408 0.000000 0.026357
# 5 0.008082 0.001670 -0.000498 0.000000 0.026453 0.000000
# 6 0.000000 0.000000 0.000000 0.026357 0.000000 0.005865
#
#
# Mechanical properties :
#
#
# Convention : Reuss Voigt Hill
#
# Bulk Modulus (GPa) = 74.15746 108.57177 91.36461
# Shear Modulus (GPa) = 21.29895 167.15971 94.22933
#
# Velocity S-wave (km/s) = 2.69648 7.55412 5.67167
# Velocity P-wave (km/s) = 5.91696 10.63722 8.60700
#
# Compressibility (1/GPa) = 0.01348482
#
# Stress axis : x y z
#
# Youngs Moduli (GPa) = 85.38476 305.81667 124.57561
#
# Poissons Ratio (x) = 0.28449 0.45944
# Poissons Ratio (y) = 0.07943 0.01790
# Poissons Ratio (z) = 0.31490 0.04395
#
# Static dielectric constant tensor:
#      x y z
#    x 2.235720 0.000000 -0.269070 
#    y 0.000000 1.245030 0.000000 
#    z -0.269070 0.000000 2.422160 
# 
# From -- ./inp_files/637.got.cif
#   From: 2010.05.17/outbox.cif.g08.bks.cpg/sg6_1_cif.got.tgz:637.got - 2010.06.03 19:42:10.
