data_PCOD9130636
_publ_section_title
;
Structure prediction by ZEFSAII (Michael W. Deem and Ramdas Pophale) SiO2 
 PCOD9130636
Probable space group: C 2
;
_chemical_formula_sum "Si O2"
_cell_formula_units_Z 16
_cell_length_a 18.175409
_cell_length_b 5.124558
_cell_length_c 7.896020
_cell_angle_alpha 90.000000
_cell_angle_beta 66.939480
_cell_angle_gamma 90.000000
_cell_volume 676.674672
_symmetry_space_group_name_H-M "C 2"
_symmetry_group_IT_number 5
_symmetry_cell_setting 'monoclinic'
loop_
_space_group_symop_operation_xyz
x,y,z
-x,y,-z
1/2+x,1/2+y,z
1/2-x,1/2+y,-z
loop_
_atom_site_type_symbol
_atom_site_label
_atom_site_fract_x
_atom_site_fract_y
_atom_site_fract_z
Si Si1 0.164326 0.353620 0.743903
Si Si2 0.153904 0.694798 0.410183
Si Si3 0.429419 0.011525 0.843683
Si Si4 0.540868 0.505885 0.711488
O O1 0.154152 0.514828 0.578352
O O2 0.257745 0.308246 0.687669
O O3 0.123364 0.484738 0.941524
O O4 0.115586 0.083597 0.763827
O O5 0.126492 0.543017 0.269203
O O6 0.087338 0.918732 0.499990
O O7 0.485808 0.760972 0.764123
O O8 0.486588 0.261768 0.809030
#
# Coordination Sequence:
#
# PCOD9130636 Si02
#       4
#     4   4   4   4
#     4  12  29  52  81 118 165 213 265 331 406 477
#     4  12  29  52  81 118 165 213 265 331 406 477
#     4  12  32  50  82 120 160 214 268 332 398 480
#     4  12  28  52  82 118 160 210 272 326 398 480
#
# _framework density 23.645042
#
# number of rings (size 3 to 8) (size 9 to 14) (size 15 to 20)
#    0.000    0.000    5.000    1.500   14.000    4.000 
#    0.000    0.000    0.000    0.000    0.000    0.000 
#    0.000    0.000    0.000    0.000    0.000    0.000 
#
# Total GULP energy -44871.803059 kJ/mol
# GULP energy per Si atom -5608.975382 kJ/mol
# Density = 2.359123 g / cm^3
# Si number density = 23.645042 Si / 1000 Ang^3
#
#
#
# Elastic Constant Matrix: (Units=GPa)
#
#
# Indices 1 2 3 4 5 6 
#
# 1 161.9520 62.1011 78.9615 0.0000 -24.1506 0.0000
# 2 62.1011 155.4445 53.4177 0.0000 -17.1752 0.0000
# 3 78.9615 53.4177 148.4595 0.0000 -6.9934 0.0000
# 4 0.0000 0.0000 0.0000 27.2747 0.0000 5.7117
# 5 -24.1506 -17.1752 -6.9934 0.0000 36.5608 0.0000
# 6 0.0000 0.0000 0.0000 5.7117 0.0000 22.2566
#
#
#
# Elastic Compliance Matrix: (Units=1/GPa)
#
#
# Indices 1 2 3 4 5 6 
#
# 1 0.009664 -0.001886 -0.004241 0.000000 0.004687 0.000000
# 2 -0.001886 0.008043 -0.001788 0.000000 0.002191 0.000000
# 3 -0.004241 -0.001788 0.009549 0.000000 -0.001815 0.000000
# 4 0.000000 0.000000 0.000000 0.038746 0.000000 -0.009943
# 5 0.004687 0.002191 -0.001815 0.000000 0.031130 0.000000
# 6 0.000000 0.000000 0.000000 -0.009943 0.000000 0.047482
#
#
# Mechanical properties :
#
#
# Convention : Reuss Voigt Hill
#
# Bulk Modulus (GPa) = 87.50685 94.97963 91.24324
# Shear Modulus (GPa) = 30.44084 35.31012 32.87548
#
# Velocity S-wave (km/s) = 3.59194 3.86857 3.73282
# Velocity P-wave (km/s) = 7.36828 7.75955 7.56645
#
# Compressibility (1/GPa) = 0.01142768
#
# Stress axis : x y z
#
# Youngs Moduli (GPa) = 103.47263 124.33239 104.72017
#
# Poissons Ratio (x) = 0.23446 0.44411
# Poissons Ratio (y) = 0.19513 0.18722
# Poissons Ratio (z) = 0.43882 0.22228
#
# Static dielectric constant tensor:
#      x y z
#    x 1.851900 0.000000 0.032030 
#    y 0.000000 1.936280 0.000000 
#    z 0.032030 0.000000 1.897680 
# 
# From -- ./inp_files/25815.got.cif
#   From: 2010.05.17/outbox.cif.g08.bks.cpg/sg5_13_cif.got.tgz:25815.got - 2010.06.03 18:56:24.
