data_PCOD9130430
_publ_section_title
;
Structure prediction by ZEFSAII (Michael W. Deem and Ramdas Pophale) SiO2 
 PCOD9130430
Probable space group: C 2
;
_chemical_formula_sum "Si O2"
_cell_formula_units_Z 32
_cell_length_a 8.103127
_cell_length_b 5.324365
_cell_length_c 30.796766
_cell_angle_alpha 90.000000
_cell_angle_beta 105.371366
_cell_angle_gamma 90.000000
_cell_volume 1281.165739
_symmetry_space_group_name_H-M "C 2"
_symmetry_group_IT_number 5
_symmetry_cell_setting 'monoclinic'
loop_
_space_group_symop_operation_xyz
x,y,z
-x,y,-z
1/2+x,1/2+y,z
1/2-x,1/2+y,-z
loop_
_atom_site_type_symbol
_atom_site_label
_atom_site_fract_x
_atom_site_fract_y
_atom_site_fract_z
Si Si1 0.797692 0.127060 0.831341
Si Si2 0.321148 0.634668 0.705532
Si Si3 0.029197 0.578871 0.576267
Si Si4 0.891939 0.127304 0.200079
Si Si5 0.345036 0.576787 0.455401
Si Si6 0.333276 0.129138 0.079587
Si Si7 0.643300 0.129103 0.047255
Si Si8 0.058067 0.630513 0.328644
O O1 0.720323 0.378189 0.804844
O O2 0.730767 0.129118 0.875673
O O3 0.001054 0.129469 0.837700
O O4 0.725216 0.871379 0.805859
O O5 0.462461 0.630827 0.753004
O O6 0.126748 0.608722 0.707156
O O7 0.362155 0.398423 0.677465
O O8 0.331872 0.899397 0.681351
O O9 0.845730 0.587328 0.538509
O O10 0.123912 0.321140 0.572038
O O11 0.979348 0.599789 0.623096
O O12 0.138269 0.818141 0.569740
O O13 0.500000 0.579562 0.500000
O O14 0.535835 0.128959 0.085023
O O15 0.256322 0.380473 0.053221
O O16 0.256014 0.878034 0.053190
O O17 0.500000 0.128903 0.000000
#
# Coordination Sequence:
#
# PCOD9130430 Si02
#       8
#     4   4   4   4   4   4   4   4
#     4  12  25  43  66  94 127 168 211 262 318 379
#     4  12  24  42  64  92 124 162 208 260 316 378
#     4  12  24  43  65  94 129 168 213 262 317 379
#     4  12  24  42  64  92 124 162 208 260 316 378
#     4  12  24  42  66  96 130 170 214 264 318 378
#     4  12  24  43  65  94 129 168 213 262 317 379
#     4  12  24  42  66  96 130 170 214 264 318 378
#     4  12  25  43  66  94 127 168 211 262 318 379
#
# _framework density 24.977252
#
# number of rings (size 3 to 8) (size 9 to 14) (size 15 to 20)
#    0.000    0.000    0.000   12.000    0.000    0.000 
#    0.000    0.000    0.000    0.000    0.000    0.000 
#    0.000    0.000    0.000    0.000    0.000    0.000 
#
# Total GULP energy -89867.332024 kJ/mol
# GULP energy per Si atom -5616.708252 kJ/mol
# Density = 2.492040 g / cm^3
# Si number density = 24.977252 Si / 1000 Ang^3
#
#
#
# Elastic Constant Matrix: (Units=GPa)
#
#
# Indices 1 2 3 4 5 6 
#
# 1 105.7094 46.9271 -32.0596 0.0000 -4.7546 0.0000
# 2 46.9271 184.8425 16.0700 0.0000 1.1502 0.0000
# 3 -32.0596 16.0700 62.9101 0.0000 1.1913 0.0000
# 4 0.0000 0.0000 0.0000 1321.0500 0.0000-1627.4677
# 5 -4.7546 1.1502 1.1913 0.0000 45.8472 0.0000
# 6 0.0000 0.0000 0.0000-1627.4677 0.0000 2052.4367
#
#
#
# Elastic Compliance Matrix: (Units=1/GPa)
#
#
# Indices 1 2 3 4 5 6 
#
# 1 0.013862 -0.004233 0.008120 0.000000 0.001333 0.000000
# 2 -0.004233 0.006826 -0.003892 0.000000 -0.000509 0.000000
# 3 0.008120 -0.003892 0.021021 0.000000 0.000394 0.000000
# 4 0.000000 0.000000 0.000000 0.032724 0.000000 0.025948
# 5 0.001333 -0.000509 0.000394 0.000000 0.021952 0.000000
# 6 0.000000 0.000000 0.000000 0.025948 0.000000 0.021063
#
#
# Mechanical properties :
#
#
# Convention : Reuss Voigt Hill
#
# Bulk Modulus (GPa) = 23.98113 46.14856 35.06484
# Shear Modulus (GPa) = 38.06438 705.36841 371.71639
#
# Velocity S-wave (km/s) = 3.90803 16.82312 12.21250
# Velocity P-wave (km/s) = 5.47591 19.89655 14.59210
#
# Compressibility (1/GPa) = 0.04169946
#
# Stress axis : x y z
#
# Youngs Moduli (GPa) = 72.13993 146.49251 47.57257
#
# Poissons Ratio (x) = 0.62017 -0.38631
# Poissons Ratio (y) = 0.30540 0.18513
# Poissons Ratio (z) = -0.58580 0.57008
#
# Static dielectric constant tensor:
#      x y z
#    x 1.888130 0.000000 0.026380 
#    y 0.000000 1.898280 0.000000 
#    z 0.026380 0.000000 2.060530 
# 
# From -- ./inp_files/71514.got.cif
#   From: 2010.05.17/outbox.cif.g08.bks.cpg/sg5_36_cif.got.tgz:71514.got - 2010.06.03 18:56:24.
