data_PCOD9130541
_publ_section_title
;
Structure prediction by ZEFSAII (Michael W. Deem and Ramdas Pophale) SiO2 
 PCOD9130541
Probable space group: C 2
;
_chemical_formula_sum "Si O2"
_cell_formula_units_Z 14
_cell_length_a 17.891013
_cell_length_b 4.761230
_cell_length_c 10.900684
_cell_angle_alpha 90.000000
_cell_angle_beta 143.375946
_cell_angle_gamma 90.000000
_cell_volume 553.940768
_symmetry_space_group_name_H-M "C 2"
_symmetry_group_IT_number 5
_symmetry_cell_setting 'monoclinic'
loop_
_space_group_symop_operation_xyz
x,y,z
-x,y,-z
1/2+x,1/2+y,z
1/2-x,1/2+y,-z
loop_
_atom_site_type_symbol
_atom_site_label
_atom_site_fract_x
_atom_site_fract_y
_atom_site_fract_z
Si Si1 0.179833 0.800390 0.357854
Si Si2 0.781920 0.100182 0.850094
Si Si3 0.576882 0.114037 0.867185
Si Si4 0.000000 0.603080 0.500000
O O1 0.248564 0.503489 0.453756
O O2 0.194624 0.939693 0.245587
O O3 0.039482 0.758333 0.218394
O O4 0.640273 0.222226 0.665878
O O5 0.816323 0.858486 0.997138
O O6 0.873623 0.357208 0.989417
O O7 0.526759 0.985550 0.672100
#
# Coordination Sequence:
#
# PCOD9130541 Si02
#       4
#     4   4   4   2
#     4  12  25  50  81 118 158 204 259 328 391 456
#     4  12  28  50  81 115 156 207 261 320 391 463
#     4  12  28  50  81 115 156 207 261 320 391 463
#     4  12  28  54  80 108 172 196 268 310 400 468
#
# _framework density 25.273461999999999
#
# number of rings (size 3 to 8) (size 9 to 14) (size 15 to 20)
#    0.000    0.000    2.857    6.000    0.000    4.571 
#    0.000    0.000    0.000    0.000    0.000    0.000 
#    0.000    0.000    0.000    0.000    0.000    0.000 
#
# Total GULP energy -39143.370922 kJ/mol
# GULP energy per Si atom -5591.910132 kJ/mol
# Density = 2.521594 g / cm^3
# Si number density = 25.273462 Si / 1000 Ang^3
#
#
#
# Elastic Constant Matrix: (Units=GPa)
#
#
# Indices 1 2 3 4 5 6 
#
# 1 104.4298 -20.1746 37.4482 0.0000 5.1052 -0.0001
# 2 -20.1746 75.2074 7.4859 0.0021 11.0497 0.0003
# 3 37.4482 7.4859 135.1755 -0.0001 8.0852 0.0000
# 4 0.0000 0.0021 -0.0001 60.9587 0.0005 -0.4441
# 5 5.1052 11.0497 8.0852 0.0005 53.1003 -0.0001
# 6 -0.0001 0.0003 0.0000 -0.4441 -0.0001 9.6327
#
#
#
# Elastic Compliance Matrix: (Units=1/GPa)
#
#
# Indices 1 2 3 4 5 6 
#
# 1 0.011530 0.003622 -0.003314 0.000000 -0.001358 0.000000
# 2 0.003622 0.014901 -0.001637 0.000000 -0.003200 -0.000001
# 3 -0.003314 -0.001637 0.008444 0.000000 -0.000626 0.000000
# 4 0.000000 0.000000 0.000000 0.016410 0.000000 0.000757
# 5 -0.001358 -0.003200 -0.000626 0.000000 0.019724 0.000000
# 6 0.000000 -0.000001 0.000000 0.000757 0.000000 0.103848
#
#
# Mechanical properties :
#
#
# Convention : Reuss Voigt Hill
#
# Bulk Modulus (GPa) = 31.03833 40.48130 35.75982
# Shear Modulus (GPa) = 26.55984 44.07522 35.31753
#
# Velocity S-wave (km/s) = 3.24527 4.18057 3.74226
# Velocity P-wave (km/s) = 5.13323 6.27336 5.73171
#
# Compressibility (1/GPa) = 0.03221822
#
# Stress axis : x y z
#
# Youngs Moduli (GPa) = 86.72841 67.10788 118.42831
#
# Poissons Ratio (x) = -0.24309 0.39243
# Poissons Ratio (y) = -0.31416 0.19391
# Poissons Ratio (z) = 0.28739 0.10988
#
# Static dielectric constant tensor:
#      x y z
#    x 2.046430 0.000000 -0.050260 
#    y 0.000000 1.948460 0.000000 
#    z -0.050260 0.000000 1.998980 
# 
# From -- ./inp_files/37647.got.cif
#   From: 2010.05.17/outbox.cif.g08.bks.cpg/sg5_19_cif.got.tgz:37647.got - 2010.06.03 18:56:24.
