data_PCOD9130631
_publ_section_title
;
Structure prediction by ZEFSAII (Michael W. Deem and Ramdas Pophale) SiO2 
 PCOD9130631
Probable space group: C 2
;
_chemical_formula_sum "Si O2"
_cell_formula_units_Z 20
_cell_length_a 20.174641
_cell_length_b 8.514502
_cell_length_c 4.762029
_cell_angle_alpha 90.000000
_cell_angle_beta 114.686112
_cell_angle_gamma 90.000000
_cell_volume 743.249023
_symmetry_space_group_name_H-M "C 2"
_symmetry_group_IT_number 5
_symmetry_cell_setting 'monoclinic'
loop_
_space_group_symop_operation_xyz
x,y,z
-x,y,-z
1/2+x,1/2+y,z
1/2-x,1/2+y,-z
loop_
_atom_site_type_symbol
_atom_site_label
_atom_site_fract_x
_atom_site_fract_y
_atom_site_fract_z
Si Si1 0.648895 0.873920 0.041459
Si Si2 0.000000 0.773958 0.000000
Si Si3 0.000000 0.954127 0.500000
Si Si4 0.228270 0.974916 0.122502
Si Si5 0.155510 0.690906 0.330143
Si Si6 0.617118 0.675863 0.541549
O O1 0.724035 0.868432 0.001107
O O2 0.643696 0.765129 0.309697
O O3 0.639930 0.057135 0.071707
O O4 0.591889 0.806886 0.718831
O O5 0.927666 0.709955 0.707619
O O6 0.040635 0.856411 0.809787
O O7 0.050793 0.059013 0.389504
O O8 0.284576 0.092412 0.381030
O O9 0.174301 0.070368 0.822244
O O10 0.190093 0.853687 0.274008
#
# Coordination Sequence:
#
# PCOD9130631 Si02
#       6
#     4   2   2   4   4   4
#     4  12  28  50  79 126 168 223 287 366 429 510
#     4  12  30  54  86 126 174 234 282 362 438 522
#     4  12  28  56  84 120 170 228 294 352 442 526
#     4  12  28  52  88 129 174 230 292 363 435 518
#     4  12  29  55  87 127 183 229 294 361 436 527
#     4  12  28  52  84 121 169 225 292 360 435 519
#
# _framework density 26.908884
#
# number of rings (size 3 to 8) (size 9 to 14) (size 15 to 20)
#    0.000    0.000    4.000    3.600    5.600    4.800 
#    0.000    0.000    0.000    0.000    0.000    0.000 
#    0.000    0.000    0.000    0.000    0.000    0.000 
#
# Total GULP energy -55828.766163 kJ/mol
# GULP energy per Si atom -5582.876616 kJ/mol
# Density = 2.684764 g / cm^3
# Si number density = 26.908884 Si / 1000 Ang^3
#
#
#
# Elastic Constant Matrix: (Units=GPa)
#
#
# Indices 1 2 3 4 5 6 
#
# 1 135.0772 64.2468 65.8329 0.0000 9.4065 0.0000
# 2 64.2468 123.3992 58.3501 0.0000 0.8542 0.0000
# 3 65.8329 58.3501 151.5531 0.0000 -14.4503 0.0000
# 4 0.0000 0.0000 0.0000 55.4544 0.0000 -11.2285
# 5 9.4065 0.8542 -14.4503 0.0000 42.9427 0.0000
# 6 0.0000 0.0000 0.0000 -11.2285 0.0000 41.2227
#
#
#
# Elastic Compliance Matrix: (Units=1/GPa)
#
#
# Indices 1 2 3 4 5 6 
#
# 1 0.011462 -0.004183 -0.003719 0.000000 -0.003679 0.000000
# 2 -0.004183 0.011533 -0.002642 0.000000 -0.000202 0.000000
# 3 -0.003719 -0.002642 0.009623 0.000000 0.004105 0.000000
# 4 0.000000 0.000000 0.000000 0.019085 0.000000 0.005199
# 5 -0.003679 -0.000202 0.004105 0.000000 0.025478 0.000000
# 6 0.000000 0.000000 0.000000 0.005199 0.000000 0.025675
#
#
# Mechanical properties :
#
#
# Convention : Reuss Voigt Hill
#
# Bulk Modulus (GPa) = 86.74822 87.43210 87.09016
# Shear Modulus (GPa) = 39.12774 42.69728 40.91251
#
# Velocity S-wave (km/s) = 3.81738 3.98771 3.90347
# Velocity P-wave (km/s) = 7.19289 7.33245 7.26300
#
# Compressibility (1/GPa) = 0.01152761
#
# Stress axis : x y z
#
# Youngs Moduli (GPa) = 87.24788 86.71017 103.92291
#
# Poissons Ratio (x) = 0.36275 0.38648
# Poissons Ratio (y) = 0.36500 0.27459
# Poissons Ratio (z) = 0.32446 0.22911
#
# Static dielectric constant tensor:
#      x y z
#    x 2.225730 0.000000 0.033380 
#    y 0.000000 2.306570 0.000000 
#    z 0.033380 0.000000 2.125060 
# 
# From -- ./inp_files/9164.got.cif
#   From: 2010.05.17/outbox.cif.g08.bks.cpg/sg5_5_cif.got.tgz:9164.got - 2010.06.03 18:56:24.
