data_PCOD9130015
_publ_section_title
;
Structure prediction by ZEFSAII (Michael W. Deem and Ramdas Pophale) SiO2 
 PCOD9130015
Probable space group: C 2
;
_chemical_formula_sum "Si O2"
_cell_formula_units_Z 18
_cell_length_a 5.549138
_cell_length_b 29.366129
_cell_length_c 6.559744
_cell_angle_alpha 90.000000
_cell_angle_beta 130.170041
_cell_angle_gamma 90.000000
_cell_volume 816.823671
_symmetry_space_group_name_H-M "C 2"
_symmetry_group_IT_number 5
_symmetry_cell_setting 'monoclinic'
loop_
_space_group_symop_operation_xyz
x,y,z
-x,y,-z
1/2+x,1/2+y,z
1/2-x,1/2+y,-z
loop_
_atom_site_type_symbol
_atom_site_label
_atom_site_fract_x
_atom_site_fract_y
_atom_site_fract_z
Si Si1 0.000000 0.034320 0.500000
Si Si2 0.500000 0.694073 0.500000
Si Si3 0.500000 0.417358 0.000000
Si Si4 0.000000 0.477641 0.500000
Si Si5 0.500000 0.257041 0.000000
Si Si6 0.359301 0.618457 0.147287
Si Si7 0.649016 0.338810 0.798039
O O1 0.134983 0.069919 0.738660
O O2 0.255557 0.005677 0.510512
O O3 0.581927 0.657555 0.368370
O O4 0.762677 0.726756 0.739022
O O5 0.533929 0.380600 0.201686
O O6 0.791938 0.449730 0.219848
O O7 0.661606 0.292431 0.933645
O O8 0.500000 0.612809 0.000000
O O9 0.000000 0.634718 0.000000
O O10 0.500000 0.328779 0.500000
O O11 0.000000 0.357308 0.000000
#
# Coordination Sequence:
#
# PCOD9130015 Si02
#       7
#     2   2   2   2   2   4   4
#     4  11  28  46  74 113 146 199 242 310 366 437
#     4  11  24  45  70 106 150 188 250 299 362 433
#     4  11  28  46  70 108 146 190 246 304 368 433
#     4  12  28  47  78 107 154 187 254 303 366 438
#     4  11  24  46  66 112 138 190 244 296 362 433
#     4  11  25  49  76 106 152 195 244 301 372 433
#     4  11  24  45  73 101 146 192 236 300 369 433
#
# _framework density 22.036580000000001
#
# number of rings (size 3 to 8) (size 9 to 14) (size 15 to 20)
#    0.000    0.889    1.111    4.000    9.333    8.889 
#    4.000    0.000    0.000    0.000    0.000    0.000 
#    0.000    0.000    0.000    0.000    0.000    0.000 
#
# Total GULP energy -50152.138885 kJ/mol
# GULP energy per Si atom -5572.459876 kJ/mol
# Density = 2.198642 g / cm^3
# Si number density = 22.036580 Si / 1000 Ang^3
#
#
#
# Elastic Constant Matrix: (Units=GPa)
#
#
# Indices 1 2 3 4 5 6 
#
# 1 103.2187 52.2649 45.3139 0.0000 -15.8151 0.0000
# 2 52.2649 145.3113 43.4933 0.0000 5.7956 0.0000
# 3 45.3139 43.4933 125.3940 0.0000 1.4724 0.0000
# 4 0.0000 0.0000 0.0000 2.3304 0.0000 56.1039
# 5 -15.8151 5.7956 1.4724 0.0000 42.3859 0.0000
# 6 0.0000 0.0000 0.0000 56.1039 0.0000 -17.3376
#
#
#
# Elastic Compliance Matrix: (Units=1/GPa)
#
#
# Indices 1 2 3 4 5 6 
#
# 1 0.014483 -0.004313 -0.003810 0.000000 0.006126 0.000000
# 2 -0.004313 0.009003 -0.001531 0.000000 -0.002787 0.000000
# 3 -0.003810 -0.001531 0.009901 0.000000 -0.001556 0.000000
# 4 0.000000 0.000000 0.000000 0.005438 0.000000 0.017598
# 5 0.006126 -0.002787 -0.001556 0.000000 0.026314 0.000000
# 6 0.000000 0.000000 0.000000 0.017598 0.000000 -0.000731
#
#
# Mechanical properties :
#
#
# Convention : Reuss Voigt Hill
#
# Bulk Modulus (GPa) = 71.03019 72.89648 71.96334
# Shear Modulus (GPa) = 56.55507 20.99918 38.77713
#
# Velocity S-wave (km/s) = 5.07148 3.09030 4.19939
# Velocity P-wave (km/s) = 8.16064 6.77383 7.49936
#
# Compressibility (1/GPa) = 0.01407852
#
# Stress axis : x y z
#
# Youngs Moduli (GPa) = 69.04451 111.07847 101.00048
#
# Poissons Ratio (x) = 0.47912 0.38478
# Poissons Ratio (y) = 0.29781 0.15465
# Poissons Ratio (z) = 0.26304 0.17008
#
# Static dielectric constant tensor:
#      x y z
#    x 1.853990 0.000000 -0.016230 
#    y 0.000000 1.779350 0.000000 
#    z -0.016230 0.000000 1.846540 
# 
# From -- ./inp_files/1060.got.cif
#   From: 2010.05.17/outbox.cif.g08.bks.cpg/sg5_1_cif.got.tgz:1060.got - 2010.06.03 18:56:24.
