data_PCOD9130160
_publ_section_title
;
Structure prediction by ZEFSAII (Michael W. Deem and Ramdas Pophale) SiO2 
 PCOD9130160
Probable space group: C 2
;
_chemical_formula_sum "Si O2"
_cell_formula_units_Z 22
_cell_length_a 14.203055
_cell_length_b 6.786917
_cell_length_c 9.772473
_cell_angle_alpha 90.000000
_cell_angle_beta 82.999488
_cell_angle_gamma 90.000000
_cell_volume 934.994421
_symmetry_space_group_name_H-M "C 2"
_symmetry_group_IT_number 5
_symmetry_cell_setting 'monoclinic'
loop_
_space_group_symop_operation_xyz
x,y,z
-x,y,-z
1/2+x,1/2+y,z
1/2-x,1/2+y,-z
loop_
_atom_site_type_symbol
_atom_site_label
_atom_site_fract_x
_atom_site_fract_y
_atom_site_fract_z
Si Si1 0.500000 0.217310 0.000000
Si Si2 0.236385 0.317898 0.332984
Si Si3 0.955906 0.013194 0.785521
Si Si4 0.146892 0.395183 0.077154
Si Si5 0.868988 0.137998 0.407005
Si Si6 0.748790 0.897898 0.783884
O O1 0.515760 0.365656 0.870583
O O2 0.417144 0.070671 0.968257
O O3 0.195657 0.442238 0.213455
O O4 0.152649 0.249302 0.448776
O O5 0.311342 0.432949 0.411603
O O6 0.277028 0.122195 0.254997
O O7 0.024857 0.095549 0.657499
O O8 0.914523 0.197981 0.880250
O O9 0.862793 0.898861 0.748082
O O10 0.276363 0.856253 0.054101
O O11 0.816984 0.264988 0.298766
#
# Coordination Sequence:
#
# PCOD9130160 Si02
#       6
#     2   4   4   4   4   4
#     4  12  22  44  70 114 138 188 244 300 376 434
#     4  11  26  45  76 101 146 199 234 310 366 438
#     4  11  27  41  76 109 144 195 242 307 363 452
#     4  11  26  45  72 110 147 188 243 305 372 435
#     4  12  24  50  72 104 147 197 250 291 380 434
#     4  11  25  46  71 107 151 190 241 307 365 441
#
# _framework density 23.529551000000001
#
# number of rings (size 3 to 8) (size 9 to 14) (size 15 to 20)
#    0.000    0.727    1.818    4.909   12.727    2.909 
#    0.000    0.000    8.000    0.000    0.000    0.000 
#    0.000    0.000    0.000    0.000    0.000    0.000 
#
# Total GULP energy -61581.003072 kJ/mol
# GULP energy per Si atom -5598.273007 kJ/mol
# Density = 2.347600 g / cm^3
# Si number density = 23.529551 Si / 1000 Ang^3
#
#
#
# Elastic Constant Matrix: (Units=GPa)
#
#
# Indices 1 2 3 4 5 6 
#
# 1 117.0803 36.0834 66.5788 0.0000 -24.5898 0.0000
# 2 36.0834 72.2408 11.5973 0.0000 -5.3476 0.0000
# 3 66.5788 11.5973 164.1236 0.0000 -20.0845 0.0000
# 4 0.0000 0.0000 0.0000 33.4179 0.0000 2.4839
# 5 -24.5898 -5.3476 -20.0845 0.0000 46.8389 0.0000
# 6 0.0000 0.0000 0.0000 2.4839 0.0000 42.6085
#
#
#
# Elastic Compliance Matrix: (Units=1/GPa)
#
#
# Indices 1 2 3 4 5 6 
#
# 1 0.014009 -0.005898 -0.004695 0.000000 0.004668 0.000000
# 2 -0.005898 0.016553 0.001135 0.000000 -0.000720 0.000000
# 3 -0.004695 0.001135 0.008054 0.000000 0.001118 0.000000
# 4 0.000000 0.000000 0.000000 0.030054 0.000000 -0.001752
# 5 0.004668 -0.000720 0.001118 0.000000 0.024198 0.000000
# 6 0.000000 0.000000 0.000000 -0.001752 0.000000 0.023572
#
#
# Mechanical properties :
#
#
# Convention : Reuss Voigt Hill
#
# Bulk Modulus (GPa) = 50.76126 64.66264 57.71195
# Shear Modulus (GPa) = 35.23027 40.51874 37.87451
#
# Velocity S-wave (km/s) = 3.87366 4.15424 4.01641
# Velocity P-wave (km/s) = 6.45192 7.10995 6.78891
#
# Compressibility (1/GPa) = 0.01970006
#
# Stress axis : x y z
#
# Youngs Moduli (GPa) = 71.38197 60.41146 124.15868
#
# Poissons Ratio (x) = 0.35631 0.58292
# Poissons Ratio (y) = 0.42102 -0.14090
# Poissons Ratio (z) = 0.33514 -0.06856
#
# Static dielectric constant tensor:
#      x y z
#    x 1.884070 0.000000 0.019610 
#    y 0.000000 1.934950 0.000000 
#    z 0.019610 0.000000 1.883000 
# 
# From -- ./inp_files/41084.got.cif
#   From: 2010.05.17/outbox.cif.g08.bks.cpg/sg5_21_cif.got.tgz:41084.got - 2010.06.03 18:56:24.
