data_PCOD9130136
_publ_section_title
;
Structure prediction by ZEFSAII (Michael W. Deem and Ramdas Pophale) SiO2 
 PCOD9130136
Probable space group: C 2
;
_chemical_formula_sum "Si O2"
_cell_formula_units_Z 26
_cell_length_a 24.248251
_cell_length_b 7.778125
_cell_length_c 5.553171
_cell_angle_alpha 90.000000
_cell_angle_beta 98.864352
_cell_angle_gamma 90.000000
_cell_volume 1034.851215
_symmetry_space_group_name_H-M "C 2"
_symmetry_group_IT_number 5
_symmetry_cell_setting 'monoclinic'
loop_
_space_group_symop_operation_xyz
x,y,z
-x,y,-z
1/2+x,1/2+y,z
1/2-x,1/2+y,-z
loop_
_atom_site_type_symbol
_atom_site_label
_atom_site_fract_x
_atom_site_fract_y
_atom_site_fract_z
Si Si1 0.399879 0.827660 0.622737
Si Si2 0.441766 0.220442 0.089088
Si Si3 0.069112 0.977433 0.575324
Si Si4 0.860566 0.675587 0.640243
Si Si5 0.500000 0.989309 0.500000
Si Si6 0.302285 0.709853 0.830419
Si Si7 0.256790 0.575098 0.304448
O O1 0.407303 0.664093 0.455520
O O2 0.464377 0.887184 0.672035
O O3 0.366738 0.761634 0.832097
O O4 0.363841 0.991776 0.501490
O O5 0.420167 0.405928 0.151874
O O6 0.457718 0.109581 0.330121
O O7 0.500000 0.245820 0.000000
O O8 0.397207 0.129224 0.897395
O O9 0.106085 0.839118 0.444358
O O10 0.000000 0.971077 0.500000
O O11 0.797972 0.693904 0.687329
O O12 0.287978 0.594484 0.582916
O O13 0.265520 0.883484 0.767239
O O14 0.288456 0.635116 0.083522
#
# Coordination Sequence:
#
# PCOD9130136 Si02
#       7
#     4   4   4   4   2   4   4
#     4  11  25  45  69 105 143 188 237 299 366 443
#     4  12  21  42  72  99 145 196 238 290 366 442
#     4  12  23  42  69 100 143 179 235 288 362 432
#     4  11  26  46  70  99 143 195 238 297 370 439
#     4  12  22  44  70 102 154 190 236 292 366 454
#     4  11  27  50  76 109 147 194 254 313 377 446
#     4  11  27  49  78 107 148 195 252 316 377 436
#
# _framework density 25.124388
#
# number of rings (size 3 to 8) (size 9 to 14) (size 15 to 20)
#    0.000    0.615    6.154    0.923    6.462    2.462 
#    2.769    2.308    0.000    0.000    0.000    0.000 
#    0.000    0.000    0.000    0.000    0.000    0.000 
#
# Total GULP energy -72560.728915 kJ/mol
# GULP energy per Si atom -5581.594532 kJ/mol
# Density = 2.506720 g / cm^3
# Si number density = 25.124388 Si / 1000 Ang^3
#
#
#
# Elastic Constant Matrix: (Units=GPa)
#
#
# Indices 1 2 3 4 5 6 
#
# 1 129.0432 29.0369 49.3086 0.0000 -41.4168 0.0000
# 2 29.0369 130.4339 41.5548 0.0000 -14.9820 0.0000
# 3 49.3086 41.5548 104.3957 0.0000 -25.5720 0.0000
# 4 0.0000 0.0000 0.0000 26.5922 0.0000 -11.9892
# 5 -41.4168 -14.9820 -25.5720 0.0000 45.5370 0.0000
# 6 0.0000 0.0000 0.0000 -11.9892 0.0000 37.0663
#
#
#
# Elastic Compliance Matrix: (Units=1/GPa)
#
#
# Indices 1 2 3 4 5 6 
#
# 1 0.011971 -0.000615 -0.003237 0.000000 0.008867 0.000000
# 2 -0.000615 0.008857 -0.003082 0.000000 0.000624 0.000000
# 3 -0.003237 -0.003082 0.013178 0.000000 0.003442 0.000000
# 4 0.000000 0.000000 0.000000 0.044025 0.000000 0.014240
# 5 0.008867 0.000624 0.003442 0.000000 0.032163 0.000000
# 6 0.000000 0.000000 0.000000 0.014240 0.000000 0.031585
#
#
# Mechanical properties :
#
#
# Convention : Reuss Voigt Hill
#
# Bulk Modulus (GPa) = 49.66012 67.07480 58.36746
# Shear Modulus (GPa) = 30.79567 38.10393 34.44980
#
# Velocity S-wave (km/s) = 3.50484 3.89859 3.70695
# Velocity P-wave (km/s) = 6.01557 6.85714 6.45010
#
# Compressibility (1/GPa) = 0.02013688
#
# Stress axis : x y z
#
# Youngs Moduli (GPa) = 83.53735 112.90134 75.88424
#
# Poissons Ratio (x) = 0.06944 0.24565
# Poissons Ratio (y) = 0.05138 0.23390
# Poissons Ratio (z) = 0.27042 0.34800
#
# Static dielectric constant tensor:
#      x y z
#    x 2.047630 0.000000 -0.026080 
#    y 0.000000 2.097130 0.000000 
#    z -0.026080 0.000000 2.021800 
# 
# From -- ./inp_files/10788.got.cif
#   From: 2010.05.17/outbox.cif.g08.bks.cpg/sg5_6_cif.got.tgz:10788.got - 2010.06.03 18:56:24.
