data_PCOD9130356
_publ_section_title
;
Structure prediction by ZEFSAII (Michael W. Deem and Ramdas Pophale) SiO2 
 PCOD9130356
Probable space group: C 2
;
_chemical_formula_sum "Si O2"
_cell_formula_units_Z 28
_cell_length_a 18.993402
_cell_length_b 6.515372
_cell_length_c 13.347966
_cell_angle_alpha 90.000000
_cell_angle_beta 118.640037
_cell_angle_gamma 90.000000
_cell_volume 1449.698089
_symmetry_space_group_name_H-M "C 2"
_symmetry_group_IT_number 5
_symmetry_cell_setting 'monoclinic'
loop_
_space_group_symop_operation_xyz
x,y,z
-x,y,-z
1/2+x,1/2+y,z
1/2-x,1/2+y,-z
loop_
_atom_site_type_symbol
_atom_site_label
_atom_site_fract_x
_atom_site_fract_y
_atom_site_fract_z
Si Si1 0.957046 0.913300 0.602616
Si Si2 0.748040 0.796486 0.155378
Si Si3 0.500000 0.791049 0.500000
Si Si4 0.893172 0.668054 0.379013
Si Si5 0.000000 0.307856 0.000000
Si Si6 0.628394 0.114543 0.092803
Si Si7 0.157053 0.953166 0.965649
Si Si8 0.536912 0.449574 0.165550
O O1 0.897069 0.795319 0.486018
O O2 0.932623 0.932968 0.700691
O O3 0.039579 0.782967 0.643939
O O4 0.974721 0.138752 0.571460
O O5 0.807928 0.674490 0.268150
O O6 0.693806 0.957298 0.179926
O O7 0.803228 0.921296 0.114506
O O8 0.693272 0.645336 0.050671
O O9 0.427568 0.941625 0.420993
O O10 0.064013 0.463676 0.995884
O O11 0.046230 0.160888 0.109494
O O12 0.579381 0.267239 0.132060
O O13 0.674001 0.254417 0.044710
O O14 0.060264 0.947076 0.894300
#
# Coordination Sequence:
#
# PCOD9130356 Si02
#       8
#     4   4   2   4   2   4   4   4
#     4   9  20  37  64  94 121 171 219 268 318 386
#     4  12  24  38  64  97 133 167 211 273 333 384
#     4   8  18  36  58  94 124 160 214 278 326 362
#     4   9  20  38  60  95 130 160 220 268 330 377
#     4  12  22  38  62  86 124 170 214 260 322 394
#     4  12  24  41  60  90 133 166 211 268 318 393
#     4  12  23  37  60 100 127 166 208 261 337 383
#     4  12  22  40  64  93 127 167 228 256 321 406
#
# _framework density 19.314364999999999
#
# number of rings (size 3 to 8) (size 9 to 14) (size 15 to 20)
#    0.000    1.429    7.143    0.000    0.000    6.857 
#    0.000    0.000    6.286    0.000    0.000    0.000 
#    0.000    0.000    0.000    0.000    0.000    0.000 
#
# Total GULP energy -78023.493680 kJ/mol
# GULP energy per Si atom -5573.106691 kJ/mol
# Density = 1.927040 g / cm^3
# Si number density = 19.314365 Si / 1000 Ang^3
#
#
#
# Elastic Constant Matrix: (Units=GPa)
#
#
# Indices 1 2 3 4 5 6 
#
# 1 78.3744 40.3466 28.2636 0.0000 -1.3241 0.0000
# 2 40.3466 112.1535 21.7633 0.0000 -5.9197 0.0000
# 3 28.2636 21.7633 78.6058 0.0000 -13.3000 0.0000
# 4 0.0000 0.0000 0.0000 7.1665 0.0000 -1.0090
# 5 -1.3241 -5.9197 -13.3000 0.0000 34.7103 0.0000
# 6 0.0000 0.0000 0.0000 -1.0090 0.0000 17.9430
#
#
#
# Elastic Compliance Matrix: (Units=1/GPa)
#
#
# Indices 1 2 3 4 5 6 
#
# 1 0.017326 -0.005356 -0.005122 0.000000 -0.002215 0.000000
# 2 -0.005356 0.011092 -0.000919 0.000000 0.001335 0.000000
# 3 -0.005122 -0.000919 0.015781 0.000000 0.005695 0.000000
# 4 0.000000 0.000000 0.000000 0.140651 0.000000 0.007910
# 5 -0.002215 0.001335 0.005695 0.000000 0.031135 0.000000
# 6 0.000000 0.000000 0.000000 0.007910 0.000000 0.056177
#
#
# Mechanical properties :
#
#
# Convention : Reuss Voigt Hill
#
# Bulk Modulus (GPa) = 46.71697 49.98674 48.35186
# Shear Modulus (GPa) = 16.55125 23.88131 20.21628
#
# Velocity S-wave (km/s) = 2.93053 3.52014 3.23878
# Velocity P-wave (km/s) = 5.97418 6.51603 6.25098
#
# Compressibility (1/GPa) = 0.02140550
#
# Stress axis : x y z
#
# Youngs Moduli (GPa) = 57.71650 90.15504 63.36609
#
# Poissons Ratio (x) = 0.48287 0.32454
# Poissons Ratio (y) = 0.30913 0.05825
# Poissons Ratio (z) = 0.29560 0.08288
#
# Static dielectric constant tensor:
#      x y z
#    x 1.704920 0.000000 0.009750 
#    y 0.000000 1.688300 0.000000 
#    z 0.009750 0.000000 1.688520 
# 
# From -- ./inp_files/55382.got.cif
#   From: 2010.05.17/outbox.cif.g08.bks.cpg/sg5_28_cif.got.tgz:55382.got - 2010.06.03 18:56:24.
