data_PCOD9130834
_publ_section_title
;
Structure prediction by ZEFSAII (Michael W. Deem and Ramdas Pophale) SiO2 
 PCOD9130834
Probable space group: P M
;
_chemical_formula_sum "Si O2"
_cell_formula_units_Z 16
_cell_length_a 11.539689
_cell_length_b 9.427668
_cell_length_c 7.199571
_cell_angle_alpha 90.000000
_cell_angle_beta 114.921835
_cell_angle_gamma 90.000000
_cell_volume 710.324021
_symmetry_space_group_name_H-M "P M"
_symmetry_group_IT_number 6
_symmetry_cell_setting 'monoclinic'
loop_
_space_group_symop_operation_xyz
x,y,z
x,-y,z
loop_
_atom_site_type_symbol
_atom_site_label
_atom_site_fract_x
_atom_site_fract_y
_atom_site_fract_z
Si Si1 0.987450 0.340047 0.137810
Si Si2 0.191989 0.839218 0.772089
Si Si3 0.419439 0.656084 0.863604
Si Si4 0.950274 0.661767 0.661635
Si Si5 0.227014 0.838797 0.247966
Si Si6 0.708103 0.666965 0.927706
Si Si7 0.456159 0.657792 0.318961
Si Si8 0.705459 0.831987 0.547460
O O1 0.028109 0.500000 0.215967
O O2 0.097823 0.226290 0.245120
O O3 0.968522 0.339887 0.899268
O O4 0.845038 0.312227 0.120937
O O5 0.318946 0.780468 0.757994
O O6 0.077022 0.729936 0.663205
O O7 0.161688 0.000000 0.696484
O O8 0.210046 0.842924 0.010179
O O9 0.386643 0.500000 0.761953
O O10 0.569462 0.683077 0.927259
O O11 0.407263 0.642360 0.077335
O O12 0.928941 0.500000 0.588981
O O13 0.829493 0.760627 0.541917
O O14 0.346001 0.734150 0.360676
O O15 0.251551 0.000000 0.322723
O O16 0.714374 0.500000 0.870320
O O17 0.708642 0.779628 0.762566
O O18 0.489861 0.500000 0.410937
O O19 0.577498 0.759162 0.388581
O O20 0.704952 0.000000 0.528885
#
# Coordination Sequence:
#
# PCOD9130834 Si02
#       8
#     2   2   2   2   2   2   2   2
#     4   8  14  25  43  66  91 119 152 193 237 278
#     4   9  16  26  43  69  98 124 154 197 243 282
#     4   9  18  32  51  73  97 128 164 199 236 283
#     4   9  16  28  46  67  92 123 160 200 238 279
#     4   9  16  26  42  66  94 121 153 195 238 280
#     4   9  18  33  51  72  98 128 163 199 236 284
#     4  10  19  32  50  71  96 127 161 197 238 285
#     4  11  21  32  48  72 100 128 159 198 244 289
#
# _framework density 22.524933000000001
#
# number of rings (size 3 to 8) (size 9 to 14) (size 15 to 20)
#    0.000    2.750    0.000    3.375    0.000    7.000 
#    0.000    0.000    0.000    1.500    0.000    3.500 
#    0.000    0.000    0.000    0.000    0.000    0.000 
#
# Total GULP energy -89326.208348 kJ/mol
# GULP energy per Si atom -5582.888022 kJ/mol
# Density = 2.247367 g / cm^3
# Si number density = 22.524933 Si / 1000 Ang^3
#
#
#
# Elastic Constant Matrix: (Units=GPa)
#
#
# Indices 1 2 3 4 5 6 
#
# 1 136.1573 76.7808 9.8775 0.0000 21.7686 0.0000
# 2 76.7808 198.3600 20.0498 0.0000 26.8085 0.0000
# 3 9.8775 20.0498 21.7164 0.0000 -11.6593 0.0000
# 4 0.0000 0.0000 0.0000 19.0149 0.0000 22.9161
# 5 21.7686 26.8085 -11.6593 0.0000 40.3249 0.0000
# 6 0.0000 0.0000 0.0000 22.9161 0.0000 -123.6394
#
#
#
# Elastic Compliance Matrix: (Units=1/GPa)
#
#
# Indices 1 2 3 4 5 6 
#
# 1 0.010017 -0.002736 -0.004684 0.000000 -0.004943 0.000000
# 2 -0.002736 0.007972 -0.009670 0.000000 -0.006619 0.000000
# 3 -0.004684 -0.009670 0.073293 0.000000 0.030149 0.000000
# 4 0.000000 0.000000 0.000000 0.042988 0.000000 0.007968
# 5 -0.004943 -0.006619 0.030149 0.000000 0.040585 0.000000
# 6 0.000000 0.000000 0.000000 0.007968 0.000000 -0.006611
#
#
# Mechanical properties :
#
#
# Convention : Reuss Voigt Hill
#
# Bulk Modulus (GPa) = 17.51232 63.29441 40.40337
# Shear Modulus (GPa) = 22.57766 3.77512 13.17639
#
# Velocity S-wave (km/s) = 3.16941 1.29600 2.42124
# Velocity P-wave (km/s) = 4.60272 5.51364 5.07864
#
# Compressibility (1/GPa) = 0.05710267
#
# Stress axis : x y z
#
# Youngs Moduli (GPa) = 99.82613 125.43375 13.64390
#
# Poissons Ratio (x) = 0.34318 0.06391
# Poissons Ratio (y) = 0.27312 0.13193
# Poissons Ratio (z) = 0.46761 1.21291
#
# Static dielectric constant tensor:
#      x y z
#    x 1.834950 0.000000 -0.023030 
#    y 0.000000 1.786780 0.000000 
#    z -0.023030 0.000000 1.932240 
# 
# From -- ./inp_files/3657.got.cif
#   From: 2010.05.17/outbox.cif.g08.bks.cpg/sg6_2_cif.got.tgz:3657.got - 2010.06.03 19:42:10.
