data_PCOD9130782
_publ_section_title
;
Structure prediction by ZEFSAII (Michael W. Deem and Ramdas Pophale) SiO2 
 PCOD9130782
Probable space group: P M
;
_chemical_formula_sum "Si O2"
_cell_formula_units_Z 16
_cell_length_a 9.711660
_cell_length_b 15.743618
_cell_length_c 5.477910
_cell_angle_alpha 90.000000
_cell_angle_beta 105.271899
_cell_angle_gamma 90.000000
_cell_volume 807.977386
_symmetry_space_group_name_H-M "P M"
_symmetry_group_IT_number 6
_symmetry_cell_setting 'monoclinic'
loop_
_space_group_symop_operation_xyz
x,y,z
x,-y,z
loop_
_atom_site_type_symbol
_atom_site_label
_atom_site_fract_x
_atom_site_fract_y
_atom_site_fract_z
Si Si1 0.257180 0.399471 0.917150
Si Si2 0.808307 0.898629 0.113958
Si Si3 0.302163 0.683018 0.439660
Si Si4 0.170596 0.902970 0.871830
Si Si5 0.673205 0.904871 0.547380
Si Si6 0.988586 0.275316 0.793870
Si Si7 0.349177 0.127369 0.455468
Si Si8 0.972344 0.251216 0.286628
O O1 0.238256 0.500000 0.906758
O O2 0.329648 0.368449 0.699833
O O3 0.107818 0.348322 0.844579
O O4 0.326544 0.369176 0.203893
O O5 0.704531 0.872195 0.289271
O O6 0.953891 0.850151 0.251118
O O7 0.823646 0.000000 0.112914
O O8 0.749749 0.868553 0.823750
O O9 0.380578 0.772100 0.472109
O O10 0.135373 0.716176 0.364444
O O11 0.264178 0.894802 0.165347
O O12 0.107914 0.000000 0.842717
O O13 0.068972 0.818143 0.823577
O O14 0.265437 0.895417 0.667162
O O15 0.506206 0.910722 0.519895
O O16 0.733580 0.000000 0.562615
O O17 0.903401 0.279760 0.504845
O O18 0.907804 0.286106 0.008292
#
# Coordination Sequence:
#
# PCOD9130782 Si02
#       8
#     2   2   2   2   2   2   2   2
#     4  10  18  32  52  74 108 140 160 198 262 326
#     4  10  21  35  49  68  95 134 183 220 251 291
#     4  10  19  34  51  79 107 129 162 219 256 317
#     4  12  21  31  48  72 104 142 174 203 254 301
#     4  10  21  35  49  68  95 134 183 223 247 288
#     4  10  19  33  46  76 106 133 162 211 242 310
#     4  12  20  37  51  71 107 137 175 222 256 291
#     4  10  18  33  51  66 102 133 157 210 262 292
#
# _framework density 19.802534999999999
#
# number of rings (size 3 to 8) (size 9 to 14) (size 15 to 20)
#    0.000    1.500    5.000    3.000    0.000    2.000 
#    0.000    0.000    0.000    0.000    0.000    0.000 
#    0.000   80.000    0.000    0.000    0.000    0.000 
#
# Total GULP energy -89092.679677 kJ/mol
# GULP energy per Si atom -5568.292480 kJ/mol
# Density = 1.975746 g / cm^3
# Si number density = 19.802535 Si / 1000 Ang^3
#
#
#
# Elastic Constant Matrix: (Units=GPa)
#
#
# Indices 1 2 3 4 5 6 
#
# 1 33.6991 -1.2003 22.2293 0.0000 -5.1785 0.0000
# 2 -1.2003 126.1569 36.2629 0.0000 -4.7124 0.0000
# 3 22.2293 36.2629 196.0535 0.0000 -15.9916 0.0000
# 4 0.0000 0.0000 0.0000 21.4314 0.0000 -0.4209
# 5 -5.1785 -4.7124 -15.9916 0.0000 17.7941 0.0000
# 6 0.0000 0.0000 0.0000 -0.4209 0.0000 10.8122
#
#
#
# Elastic Compliance Matrix: (Units=1/GPa)
#
#
# Indices 1 2 3 4 5 6 
#
# 1 0.033088 0.001573 -0.003478 0.000000 0.006920 0.000000
# 2 0.001573 0.008460 -0.001643 0.000000 0.001221 0.000000
# 3 -0.003478 -0.001643 0.006130 0.000000 0.004062 0.000000
# 4 0.000000 0.000000 0.000000 0.046696 0.000000 0.001818
# 5 0.006920 0.001221 0.004062 0.000000 0.062186 0.000000
# 6 0.000000 0.000000 0.000000 0.001818 0.000000 0.092559
#
#
# Mechanical properties :
#
#
# Convention : Reuss Voigt Hill
#
# Bulk Modulus (GPa) = 24.64206 52.27701 38.45954
# Shear Modulus (GPa) = 18.53612 29.91539 24.22576
#
# Velocity S-wave (km/s) = 3.06281 3.89097 3.50146
# Velocity P-wave (km/s) = 4.99786 6.82954 5.98420
#
# Compressibility (1/GPa) = 0.04058102
#
# Stress axis : x y z
#
# Youngs Moduli (GPa) = 30.22225 118.20854 163.12376
#
# Poissons Ratio (x) = -0.18595 0.56737
# Poissons Ratio (y) = -0.04754 0.26809
# Poissons Ratio (z) = 0.10512 0.19427
#
# Static dielectric constant tensor:
#      x y z
#    x 1.694480 0.000000 -0.023940 
#    y 0.000000 1.710430 0.000000 
#    z -0.023940 0.000000 1.814740 
# 
# From -- ./inp_files/1732.got.cif
#   From: 2010.05.17/outbox.cif.g08.bks.cpg/sg6_1_cif.got.tgz:1732.got - 2010.06.03 19:42:10.
