data_PCOD9130208
_publ_section_title
;
Structure prediction by ZEFSAII (Michael W. Deem and Ramdas Pophale) SiO2 
 PCOD9130208
Probable space group: C 2
;
_chemical_formula_sum "Si O2"
_cell_formula_units_Z 20
_cell_length_a 19.011798
_cell_length_b 8.469357
_cell_length_c 13.563588
_cell_angle_alpha 90.000000
_cell_angle_beta 19.541754
_cell_angle_gamma 90.000000
_cell_volume 730.526851
_symmetry_space_group_name_H-M "C 2"
_symmetry_group_IT_number 5
_symmetry_cell_setting 'monoclinic'
loop_
_space_group_symop_operation_xyz
x,y,z
-x,y,-z
1/2+x,1/2+y,z
1/2-x,1/2+y,-z
loop_
_atom_site_type_symbol
_atom_site_label
_atom_site_fract_x
_atom_site_fract_y
_atom_site_fract_z
Si Si1 0.720591 0.859770 0.250043
Si Si2 0.737211 0.488639 0.168963
Si Si3 0.468594 0.392534 0.737300
Si Si4 0.266699 0.612350 0.345787
Si Si5 0.135285 0.572033 0.736901
O O1 0.500000 0.920941 0.500000
O O2 0.723065 0.675518 0.211292
O O3 0.738015 0.938502 0.334966
O O4 0.909529 0.915075 0.930074
O O5 0.500000 0.424557 0.500000
O O6 0.734470 0.442719 0.057162
O O7 0.959730 0.448822 0.925598
O O8 0.572181 0.225336 0.571039
O O9 0.668384 0.506773 0.461800
O O10 0.234485 0.635183 0.505683
O O11 0.500000 0.659212 0.000000
O O12 0.000000 0.662598 0.000000
#
# Coordination Sequence:
#
# PCOD9130208 Si02
#       5
#     4   4   4   4   4
#     4  11  26  50  78 117 165 219 278 337 419 491
#     4  11  25  49  75 113 162 223 273 335 415 489
#     4  12  26  51  78 123 169 218 282 344 415 495
#     4  12  27  51  82 125 164 221 281 346 416 498
#     4  12  25  50  79 116 166 223 272 341 412 494
#
# _framework density 27.377500999999999
#
# number of rings (size 3 to 8) (size 9 to 14) (size 15 to 20)
#    0.000    0.400    6.000    1.800    0.000    3.200 
#    3.600    0.000    0.000    0.000    0.000    0.000 
#    0.000    0.000    0.000    0.000    0.000    0.000 
#
# Total GULP energy -55686.287699 kJ/mol
# GULP energy per Si atom -5568.628770 kJ/mol
# Density = 2.731519 g / cm^3
# Si number density = 27.377501 Si / 1000 Ang^3
#
#
#
# Elastic Constant Matrix: (Units=GPa)
#
#
# Indices 1 2 3 4 5 6 
#
# 1 138.6757 40.7053 34.8198 -0.0003 1.3010 0.0000
# 2 40.7053 105.5906 25.8657 -0.0002 10.6051 0.0001
# 3 34.8198 25.8657 193.1075 -0.0007 28.3426 0.0004
# 4 -0.0003 -0.0002 -0.0007 37.5320 0.0004 -3.8478
# 5 1.3010 10.6051 28.3426 0.0004 73.9544 -0.0001
# 6 0.0000 0.0001 0.0004 -3.8478 -0.0001 35.0470
#
#
#
# Elastic Compliance Matrix: (Units=1/GPa)
#
#
# Indices 1 2 3 4 5 6 
#
# 1 0.008395 -0.003013 -0.001221 0.000000 0.000752 0.000000
# 2 -0.003013 0.010937 -0.000741 0.000000 -0.001231 0.000000
# 3 -0.001221 -0.000741 0.005806 0.000000 -0.002097 0.000000
# 4 0.000000 0.000000 0.000000 0.026947 0.000000 0.002959
# 5 0.000752 -0.001231 -0.002097 0.000000 0.014489 0.000000
# 6 0.000000 0.000000 0.000000 0.002959 0.000000 0.028858
#
#
# Mechanical properties :
#
#
# Convention : Reuss Voigt Hill
#
# Bulk Modulus (GPa) = 65.83721 71.12836 68.48279
# Shear Modulus (GPa) = 45.27211 51.70555 48.48883
#
# Velocity S-wave (km/s) = 4.07089 4.35053 4.21303
# Velocity P-wave (km/s) = 6.79679 7.16053 6.98103
#
# Compressibility (1/GPa) = 0.01518898
#
# Stress axis : x y z
#
# Youngs Moduli (GPa) = 119.12126 91.43144 172.24725
#
# Poissons Ratio (x) = 0.27546 0.21023
# Poissons Ratio (y) = 0.35888 0.12764
# Poissons Ratio (z) = 0.14539 0.06775
#
# Static dielectric constant tensor:
#      x y z
#    x 2.434800 0.000000 0.115750 
#    y 0.000000 2.201590 0.000000 
#    z 0.115750 0.000000 2.185750 
# 
# From -- ./inp_files/56766.got.cif
#   From: 2010.05.17/outbox.cif.g08.bks.cpg/sg5_29_cif.got.tgz:56766.got - 2010.06.03 18:56:24.
