data_PCOD9130598
_publ_section_title
;
Structure prediction by ZEFSAII (Michael W. Deem and Ramdas Pophale) SiO2 
 PCOD9130598
Probable space group: C 2
;
_chemical_formula_sum "Si O2"
_cell_formula_units_Z 18
_cell_length_a 9.198668
_cell_length_b 17.065194
_cell_length_c 4.704657
_cell_angle_alpha 90.000000
_cell_angle_beta 63.043552
_cell_angle_gamma 90.000000
_cell_volume 658.283652
_symmetry_space_group_name_H-M "C 2"
_symmetry_group_IT_number 5
_symmetry_cell_setting 'monoclinic'
loop_
_space_group_symop_operation_xyz
x,y,z
-x,y,-z
1/2+x,1/2+y,z
1/2-x,1/2+y,-z
loop_
_atom_site_type_symbol
_atom_site_label
_atom_site_fract_x
_atom_site_fract_y
_atom_site_fract_z
Si Si1 0.794002 0.226520 0.837212
Si Si2 0.347713 0.500119 0.560680
Si Si3 0.500000 0.591363 0.000000
Si Si4 0.679234 0.837576 0.703150
Si Si5 0.867642 0.601985 0.376064
O O1 0.660407 0.178063 0.780523
O O2 0.845251 0.291186 0.564712
O O3 0.919973 0.161214 0.844946
O O4 0.736483 0.275688 0.158020
O O5 0.294992 0.411524 0.546972
O O6 0.313045 0.575345 0.335698
O O7 0.457898 0.511254 0.758180
O O8 0.165675 0.533165 0.819835
O O9 0.500000 0.854480 0.000000
O O10 0.000000 0.602574 0.500000
#
# Coordination Sequence:
#
# PCOD9130598 Si02
#       5
#     4   4   2   4   4
#     4  12  27  51  84 121 160 223 280 331 421 492
#     4  12  29  51  84 119 167 222 281 338 419 491
#     4  12  26  54  90 118 158 228 284 334 398 520
#     4  12  29  49  83 125 171 213 276 350 420 488
#     4  12  27  50  80 118 163 215 281 340 402 504
#
# _framework density 27.343834999999999
#
# number of rings (size 3 to 8) (size 9 to 14) (size 15 to 20)
#    0.000    0.000    3.333    5.333    6.222    4.444 
#    0.000    0.000    0.000    0.000    0.000    0.000 
#    0.000    0.000    0.000    0.000    0.000    0.000 
#
# Total GULP energy -50133.289606 kJ/mol
# GULP energy per Si atom -5570.365512 kJ/mol
# Density = 2.728160 g / cm^3
# Si number density = 27.343835 Si / 1000 Ang^3
#
#
#
# Elastic Constant Matrix: (Units=GPa)
#
#
# Indices 1 2 3 4 5 6 
#
# 1 304.2191 103.6661 69.5963 0.0000 50.5966 0.0000
# 2 103.6661 220.9263 60.5828 0.0000 19.1510 0.0000
# 3 69.5963 60.5828 194.0166 0.0000 21.0351 0.0000
# 4 0.0000 0.0000 0.0000 -4.8435 0.0000 17.2283
# 5 50.5966 19.1510 21.0351 0.0000 61.6312 0.0000
# 6 0.0000 0.0000 0.0000 17.2283 0.0000 -6.9193
#
#
#
# Elastic Compliance Matrix: (Units=1/GPa)
#
#
# Indices 1 2 3 4 5 6 
#
# 1 0.004516 -0.001649 -0.000788 0.000000 -0.002926 0.000000
# 2 -0.001649 0.005619 -0.001163 0.000000 0.000005 0.000000
# 3 -0.000788 -0.001163 0.005909 0.000000 -0.001009 0.000000
# 4 0.000000 0.000000 0.000000 0.026279 0.000000 0.065432
# 5 -0.002926 0.000005 -0.001009 0.000000 0.018970 0.000000
# 6 0.000000 0.000000 0.000000 0.065432 0.000000 0.018395
#
#
# Mechanical properties :
#
#
# Convention : Reuss Voigt Hill
#
# Bulk Modulus (GPa) = 113.07991 131.87247 122.47619
# Shear Modulus (GPa) = 55.65573 42.32813 48.99193
#
# Velocity S-wave (km/s) = 4.51644 3.93873 4.23744
# Velocity P-wave (km/s) = 8.28506 8.30764 8.29636
#
# Compressibility (1/GPa) = 0.00884330
#
# Stress axis : x y z
#
# Youngs Moduli (GPa) = 221.43414 177.96915 169.22174
#
# Poissons Ratio (x) = 0.29355 0.13329
# Poissons Ratio (y) = 0.36524 0.19688
# Poissons Ratio (z) = 0.17442 0.20706
#
# Static dielectric constant tensor:
#      x y z
#    x 2.206700 0.000000 -0.107980 
#    y 0.000000 2.169290 0.000000 
#    z -0.107980 0.000000 2.444590 
# 
# From -- ./inp_files/2417.got.cif
#   From: 2010.05.17/outbox.cif.g08.bks.cpg/sg5_2_cif.got.tgz:2417.got - 2010.06.03 18:56:24.
