data_PCOD9130403
_publ_section_title
;
Structure prediction by ZEFSAII (Michael W. Deem and Ramdas Pophale) SiO2 
 PCOD9130403
Probable space group: C 2
;
_chemical_formula_sum "Si O2"
_cell_formula_units_Z 24
_cell_length_a 25.334794
_cell_length_b 4.967171
_cell_length_c 15.180412
_cell_angle_alpha 90.000000
_cell_angle_beta 144.428971
_cell_angle_gamma 90.000000
_cell_volume 1111.265652
_symmetry_space_group_name_H-M "C 2"
_symmetry_group_IT_number 5
_symmetry_cell_setting 'monoclinic'
loop_
_space_group_symop_operation_xyz
x,y,z
-x,y,-z
1/2+x,1/2+y,z
1/2-x,1/2+y,-z
loop_
_atom_site_type_symbol
_atom_site_label
_atom_site_fract_x
_atom_site_fract_y
_atom_site_fract_z
Si Si1 0.396675 0.309410 0.876493
Si Si2 0.496022 0.792599 0.595769
Si Si3 0.187434 0.294620 0.146508
Si Si4 0.806586 0.256542 0.050456
Si Si5 0.882860 0.785658 0.494517
Si Si6 0.192294 0.998352 0.424374
O O1 0.380657 0.551893 0.923118
O O2 0.359606 0.420818 0.734140
O O3 0.341530 0.055621 0.837612
O O4 0.500000 0.233445 0.000000
O O5 0.500000 0.886733 0.500000
O O6 0.595861 0.750361 0.770592
O O7 0.439074 0.517280 0.521426
O O8 0.442981 0.018528 0.579048
O O9 0.288831 0.221411 0.316634
O O10 0.185497 0.346003 0.040153
O O11 0.740998 0.466899 0.010184
O O12 0.858759 0.905082 0.557380
O O13 0.282721 0.812259 0.542606
#
# Coordination Sequence:
#
# PCOD9130403 Si02
#       6
#     4   4   4   4   4   4
#     4  12  26  43  66  99 139 176 220 271 323 397
#     4  12  26  44  70 100 127 169 222 276 327 391
#     4  12  25  45  67  98 134 180 215 272 338 383
#     4  12  26  47  70  97 135 172 218 274 334 397
#     4  12  24  43  70  96 132 170 222 269 327 390
#     4  12  23  44  67  99 133 178 221 263 326 387
#
# _framework density 21.596996000000001
#
# number of rings (size 3 to 8) (size 9 to 14) (size 15 to 20)
#    0.000    0.000    3.333    7.000    4.667    0.000 
#    0.000    0.000    0.000    0.000    0.000    0.000 
#    0.000    0.000    0.000    0.000    0.000    0.000 
#
# Total GULP energy -67238.335620 kJ/mol
# GULP energy per Si atom -5603.194635 kJ/mol
# Density = 2.154784 g / cm^3
# Si number density = 21.596996 Si / 1000 Ang^3
#
#
#
# Elastic Constant Matrix: (Units=GPa)
#
#
# Indices 1 2 3 4 5 6 
#
# 1 82.2746 -10.7366 35.7565 0.0000 -1.4060 0.0000
# 2 -10.7366 67.4853 -22.8595 -0.0002 14.9365 0.0001
# 3 35.7565 -22.8595 58.2493 0.0000 1.9558 0.0001
# 4 0.0000 -0.0002 0.0000 32.1773 0.0000 8.0444
# 5 -1.4060 14.9365 1.9558 0.0000 27.1768 0.0001
# 6 0.0000 0.0001 0.0001 8.0444 0.0001 30.8647
#
#
#
# Elastic Compliance Matrix: (Units=1/GPa)
#
#
# Indices 1 2 3 4 5 6 
#
# 1 0.016776 -0.001631 -0.011024 0.000000 0.002558 0.000000
# 2 -0.001631 0.020394 0.009407 0.000000 -0.011970 0.000000
# 3 -0.011024 0.009407 0.027887 0.000000 -0.007747 0.000000
# 4 0.000000 0.000000 0.000000 0.033244 0.000000 -0.008664
# 5 0.002558 -0.011970 -0.007747 0.000000 0.044065 0.000000
# 6 0.000000 0.000000 0.000000 -0.008664 0.000000 0.034658
#
#
# Mechanical properties :
#
#
# Convention : Reuss Voigt Hill
#
# Bulk Modulus (GPa) = 17.07656 23.59221 20.33439
# Shear Modulus (GPa) = 24.62548 31.76700 28.19624
#
# Velocity S-wave (km/s) = 3.38039 3.83939 3.61718
# Velocity P-wave (km/s) = 4.81250 5.53192 5.18470
#
# Compressibility (1/GPa) = 0.05855981
#
# Stress axis : x y z
#
# Youngs Moduli (GPa) = 59.60740 49.03329 35.85931
#
# Poissons Ratio (x) = 0.07999 0.39533
# Poissons Ratio (y) = 0.09724 -0.33733
# Poissons Ratio (z) = 0.65714 -0.46125
#
# Static dielectric constant tensor:
#      x y z
#    x 1.765900 0.000000 -0.003170 
#    y 0.000000 1.744650 0.000000 
#    z -0.003170 0.000000 1.656710 
# 
# From -- ./inp_files/56601.got.cif
#   From: 2010.05.17/outbox.cif.g08.bks.cpg/sg5_29_cif.got.tgz:56601.got - 2010.06.03 18:56:24.
