data_PCOD9130425
_publ_section_title
;
Structure prediction by ZEFSAII (Michael W. Deem and Ramdas Pophale) SiO2 
 PCOD9130425
Probable space group: C 2
;
_chemical_formula_sum "Si O2"
_cell_formula_units_Z 26
_cell_length_a 5.866074
_cell_length_b 14.596753
_cell_length_c 16.249604
_cell_angle_alpha 90.000000
_cell_angle_beta 128.330736
_cell_angle_gamma 90.000000
_cell_volume 1091.461453
_symmetry_space_group_name_H-M "C 2"
_symmetry_group_IT_number 5
_symmetry_cell_setting 'monoclinic'
loop_
_space_group_symop_operation_xyz
x,y,z
-x,y,-z
1/2+x,1/2+y,z
1/2-x,1/2+y,-z
loop_
_atom_site_type_symbol
_atom_site_label
_atom_site_fract_x
_atom_site_fract_y
_atom_site_fract_z
Si Si1 0.414890 0.303280 0.703770
Si Si2 0.292845 0.505425 0.692929
Si Si3 0.984834 0.362895 0.084693
Si Si4 0.500000 0.217894 0.000000
Si Si5 0.228433 0.649901 0.218857
Si Si6 0.152990 0.652112 0.444197
Si Si7 0.711022 0.524565 0.122968
O O1 0.293880 0.403897 0.656999
O O2 0.720232 0.319911 0.817178
O O3 0.218422 0.246237 0.724718
O O4 0.452663 0.238084 0.634153
O O5 0.524798 0.576175 0.706903
O O6 0.397614 0.498125 0.811337
O O7 0.986067 0.556287 0.617719
O O8 0.743758 0.284683 0.017378
O O9 0.880809 0.435872 0.127960
O O10 0.000000 0.411599 0.000000
O O11 0.665963 0.162913 0.108086
O O12 0.926829 0.608939 0.183925
O O13 0.500000 0.649812 0.500000
O O14 0.000000 0.663464 0.500000
O O15 0.500000 0.548002 0.000000
#
# Coordination Sequence:
#
# PCOD9130425 Si02
#       7
#     4   4   4   2   4   4   4
#     4  12  26  52  80 115 156 211 262 327 407 481
#     4  12  27  53  79 113 157 210 258 330 410 484
#     4  12  24  43  66 113 160 210 267 307 378 476
#     4  12  24  36  66 102 162 224 266 312 366 456
#     4  12  25  44  69 110 162 213 264 322 378 469
#     4  12  30  58  88 120 157 200 275 355 422 494
#     4  12  25  41  70 114 161 210 265 313 377 473
#
# _framework density 23.821270999999999
#
# number of rings (size 3 to 8) (size 9 to 14) (size 15 to 20)
#    0.000    0.000    5.385    4.615    3.231    1.846 
#    0.000    4.615    0.000    0.000    0.000    0.000 
#    0.000    0.000    0.000    0.000    0.000    0.000 
#
# Total GULP energy -72755.829696 kJ/mol
# GULP energy per Si atom -5596.602284 kJ/mol
# Density = 2.376705 g / cm^3
# Si number density = 23.821271 Si / 1000 Ang^3
#
#
#
# Elastic Constant Matrix: (Units=GPa)
#
#
# Indices 1 2 3 4 5 6 
#
# 1 90.7144 42.3412 52.7020 0.0000 0.9399 0.0000
# 2 42.3412 164.2674 44.1214 0.0000 8.4759 0.0000
# 3 52.7020 44.1214 97.4325 0.0000 -9.0228 0.0000
# 4 0.0000 0.0000 0.0000 25.8769 0.0000 -6.7425
# 5 0.9399 8.4759 -9.0228 0.0000 45.1595 0.0000
# 6 0.0000 0.0000 0.0000 -6.7425 0.0000 41.3953
#
#
#
# Elastic Compliance Matrix: (Units=1/GPa)
#
#
# Indices 1 2 3 4 5 6 
#
# 1 0.016826 -0.002012 -0.008342 0.000000 -0.001639 0.000000
# 2 -0.002012 0.007346 -0.002407 0.000000 -0.001818 0.000000
# 3 -0.008342 -0.002407 0.016224 0.000000 0.003867 0.000000
# 4 0.000000 0.000000 0.000000 0.040357 0.000000 0.006573
# 5 -0.001639 -0.001818 0.003867 0.000000 0.023292 0.000000
# 6 0.000000 0.000000 0.000000 0.006573 0.000000 0.025228
#
#
# Mechanical properties :
#
#
# Convention : Reuss Voigt Hill
#
# Bulk Modulus (GPa) = 67.22819 70.08259 68.65539
# Shear Modulus (GPa) = 31.29824 36.70302 34.00063
#
# Velocity S-wave (km/s) = 3.62868 3.92952 3.78209
# Velocity P-wave (km/s) = 6.77049 7.07617 6.92502
#
# Compressibility (1/GPa) = 0.01487471
#
# Stress axis : x y z
#
# Youngs Moduli (GPa) = 59.43140 136.11959 61.63742
#
# Poissons Ratio (x) = 0.27385 0.51419
# Poissons Ratio (y) = 0.11956 0.14836
# Poissons Ratio (z) = 0.49579 0.32763
#
# Static dielectric constant tensor:
#      x y z
#    x 1.969540 0.000000 -0.021890 
#    y 0.000000 1.892650 0.000000 
#    z -0.021890 0.000000 1.940350 
# 
# From -- ./inp_files/58817.got.cif
#   From: 2010.05.17/outbox.cif.g08.bks.cpg/sg5_30_cif.got.tgz:58817.got - 2010.06.03 18:56:24.
