data_PCOD9130542
_publ_section_title
;
Structure prediction by ZEFSAII (Michael W. Deem and Ramdas Pophale) SiO2 
 PCOD9130542
Probable space group: C 2
;
_chemical_formula_sum "Si O2"
_cell_formula_units_Z 24
_cell_length_a 22.892998
_cell_length_b 6.732936
_cell_length_c 17.483915
_cell_angle_alpha 90.000000
_cell_angle_beta 157.366717
_cell_angle_gamma 90.000000
_cell_volume 1037.090155
_symmetry_space_group_name_H-M "C 2"
_symmetry_group_IT_number 5
_symmetry_cell_setting 'monoclinic'
loop_
_space_group_symop_operation_xyz
x,y,z
-x,y,-z
1/2+x,1/2+y,z
1/2-x,1/2+y,-z
loop_
_atom_site_type_symbol
_atom_site_label
_atom_site_fract_x
_atom_site_fract_y
_atom_site_fract_z
Si Si1 0.967230 0.322010 0.246650
Si Si2 0.500000 0.689488 0.000000
Si Si3 0.000000 0.905354 0.500000
Si Si4 0.523412 0.147717 0.217999
Si Si5 0.183558 0.555719 0.163778
Si Si6 0.792198 0.859534 0.674794
Si Si7 0.893727 0.875399 0.203657
O O1 0.024190 0.410718 0.233751
O O2 0.113674 0.397733 0.471901
O O3 0.957995 0.091725 0.258615
O O4 0.788339 0.380514 0.030790
O O5 0.335735 0.179283 0.782948
O O6 0.389305 0.838903 0.911838
O O7 0.936238 0.812468 0.342422
O O8 0.858222 0.032154 0.355976
O O9 0.666234 0.266176 0.357693
O O10 0.470149 0.233383 0.234107
O O11 0.394230 0.175422 0.998611
O O12 0.895148 0.047717 0.820732
#
# Coordination Sequence:
#
# PCOD9130542 Si02
#       7
#     4   2   2   4   4   4   4
#     4  12  27  46  76 110 156 201 253 317 385 452
#     4  12  26  48  80 112 150 212 256 310 388 452
#     4  12  26  50  80 106 152 210 252 318 390 450
#     4  12  27  48  73 117 158 198 260 319 382 459
#     4  12  25  51  79 112 158 197 259 323 376 473
#     4  12  28  48  78 118 156 207 252 319 388 462
#     4  12  27  50  74 111 158 202 257 323 381 455
#
# _framework density 23.141673999999998
#
# number of rings (size 3 to 8) (size 9 to 14) (size 15 to 20)
#    0.000    0.000    8.333    0.000    7.000    0.000 
#    0.000    1.667    0.000    0.000    0.000    0.000 
#    0.000    0.000    0.000    0.000    0.000    0.000 
#
# Total GULP energy -66899.843633 kJ/mol
# GULP energy per Si atom -5574.986969 kJ/mol
# Density = 2.308900 g / cm^3
# Si number density = 23.141674 Si / 1000 Ang^3
#
#
#
# Elastic Constant Matrix: (Units=GPa)
#
#
# Indices 1 2 3 4 5 6 
#
# 1 138.7143 53.8647 58.5300 0.0000 -6.1294 0.0000
# 2 53.8647 111.4081 56.1681 0.0000 9.1527 0.0000
# 3 58.5300 56.1681 171.0608 0.0000 19.6852 0.0000
# 4 0.0000 0.0000 0.0000 15.8938 0.0000 -1.9934
# 5 -6.1294 9.1527 19.6852 0.0000 38.3560 0.0000
# 6 0.0000 0.0000 0.0000 -1.9934 0.0000 36.8996
#
#
#
# Elastic Compliance Matrix: (Units=1/GPa)
#
#
# Indices 1 2 3 4 5 6 
#
# 1 0.009957 -0.003822 -0.002593 0.000000 0.003834 0.000000
# 2 -0.003822 0.012247 -0.002452 0.000000 -0.002275 0.000000
# 3 -0.002593 -0.002452 0.007990 0.000000 -0.003930 0.000000
# 4 0.000000 0.000000 0.000000 0.063347 0.000000 0.003422
# 5 0.003834 -0.002275 -0.003930 0.000000 0.029244 0.000000
# 6 0.000000 0.000000 0.000000 0.003422 0.000000 0.027285
#
#
# Mechanical properties :
#
#
# Convention : Reuss Voigt Hill
#
# Bulk Modulus (GPa) = 80.25218 84.25653 82.25436
# Shear Modulus (GPa) = 29.07710 35.07125 32.07417
#
# Velocity S-wave (km/s) = 3.54853 3.89717 3.72693
# Velocity P-wave (km/s) = 7.17937 7.53250 7.35806
#
# Compressibility (1/GPa) = 0.01246072
#
# Stress axis : x y z
#
# Youngs Moduli (GPa) = 100.43623 81.65457 125.14869
#
# Poissons Ratio (x) = 0.31204 0.32452
# Poissons Ratio (y) = 0.38382 0.30685
# Poissons Ratio (z) = 0.26044 0.20021
#
# Static dielectric constant tensor:
#      x y z
#    x 1.867270 0.000000 -0.056780 
#    y 0.000000 1.918560 0.000000 
#    z -0.056780 0.000000 1.956280 
# 
# From -- ./inp_files/63281.got.cif
#   From: 2010.05.17/outbox.cif.g08.bks.cpg/sg5_32_cif.got.tgz:63281.got - 2010.06.03 18:56:24.
