data_PCOD9130322
_publ_section_title
;
Structure prediction by ZEFSAII (Michael W. Deem and Ramdas Pophale) SiO2 
 PCOD9130322
Probable space group: C 2
;
_chemical_formula_sum "Si O2"
_cell_formula_units_Z 20
_cell_length_a 18.875275
_cell_length_b 4.962568
_cell_length_c 10.618074
_cell_angle_alpha 90.000000
_cell_angle_beta 103.920662
_cell_angle_gamma 90.000000
_cell_volume 965.381832
_symmetry_space_group_name_H-M "C 2"
_symmetry_group_IT_number 5
_symmetry_cell_setting 'monoclinic'
loop_
_space_group_symop_operation_xyz
x,y,z
-x,y,-z
1/2+x,1/2+y,z
1/2-x,1/2+y,-z
loop_
_atom_site_type_symbol
_atom_site_label
_atom_site_fract_x
_atom_site_fract_y
_atom_site_fract_z
Si Si1 0.091513 0.049470 0.782592
Si Si2 0.746713 0.396977 0.902591
Si Si3 0.000238 0.551784 0.352078
Si Si4 0.117716 0.503099 0.211223
Si Si5 0.924597 0.020827 0.939294
O O1 0.053001 0.299026 0.698540
O O2 0.174625 0.966901 0.789305
O O3 0.037133 0.801128 0.735863
O O4 0.103017 0.101591 0.936121
O O5 0.810174 0.374198 0.823252
O O6 0.764759 0.631953 0.014115
O O7 0.000000 0.605554 0.500000
O O8 0.083734 0.518118 0.336759
O O9 0.059440 0.292079 0.128839
O O10 0.119900 0.805236 0.159020
O O11 0.000000 0.871530 0.000000
#
# Coordination Sequence:
#
# PCOD9130322 Si02
#       5
#     4   4   4   4   4
#     4  12  23  40  63  92 125 154 200 254 304 359
#     4  12  23  37  60  98 129 150 184 247 326 375
#     4  12  26  43  62  85 120 171 216 244 278 348
#     4  12  22  38  60  91 126 152 194 249 304 364
#     4  12  20  33  63  95 118 148 193 255 315 354
#
# _framework density 20.717192000000001
#
# number of rings (size 3 to 8) (size 9 to 14) (size 15 to 20)
#    0.000    0.000    8.000    3.600    0.000    0.000 
#    0.000    2.000    0.000    0.000    0.000    0.000 
#    0.000    0.000    0.000    0.000    0.000    0.000 
#
# Total GULP energy -55672.370945 kJ/mol
# GULP energy per Si atom -5567.237095 kJ/mol
# Density = 2.067004 g / cm^3
# Si number density = 20.717192 Si / 1000 Ang^3
#
#
#
# Elastic Constant Matrix: (Units=GPa)
#
#
# Indices 1 2 3 4 5 6 
#
# 1 83.8222 -20.1533 34.7031 0.0000 -25.3199 0.0000
# 2 -20.1533 106.2366 0.8911 0.0000 3.2720 0.0000
# 3 34.7031 0.8911 80.8207 0.0000 -32.2333 0.0000
# 4 0.0000 0.0000 0.0000 15.5521 0.0000 -0.0454
# 5 -25.3199 3.2720 -32.2333 0.0000 33.0450 0.0000
# 6 0.0000 0.0000 0.0000 -0.0454 0.0000 19.5844
#
#
#
# Elastic Compliance Matrix: (Units=1/GPa)
#
#
# Indices 1 2 3 4 5 6 
#
# 1 0.016903 0.002958 -0.003669 0.000000 0.009079 0.000000
# 2 0.002958 0.009989 -0.001425 0.000000 -0.000113 0.000000
# 3 -0.003669 -0.001425 0.021113 0.000000 0.017924 0.000000
# 4 0.000000 0.000000 0.000000 0.064300 0.000000 0.000149
# 5 0.009079 -0.000113 0.017924 0.000000 0.054713 0.000000
# 6 0.000000 0.000000 0.000000 0.000149 0.000000 0.051061
#
#
# Mechanical properties :
#
#
# Convention : Reuss Voigt Hill
#
# Bulk Modulus (GPa) = 22.86699 33.52902 28.19801
# Shear Modulus (GPa) = 21.10319 30.66555 25.88437
#
# Velocity S-wave (km/s) = 3.19506 3.85151 3.53854
# Velocity P-wave (km/s) = 4.96718 5.99984 5.50777
#
# Compressibility (1/GPa) = 0.04373116
#
# Stress axis : x y z
#
# Youngs Moduli (GPa) = 59.16186 100.10552 47.36462
#
# Poissons Ratio (x) = -0.29608 0.17380
# Poissons Ratio (y) = -0.17498 0.06750
# Poissons Ratio (z) = 0.21709 0.14267
#
# Static dielectric constant tensor:
#      x y z
#    x 1.942420 0.000000 -0.022210 
#    y 0.000000 1.764720 0.000000 
#    z -0.022210 0.000000 1.708150 
# 
# From -- ./inp_files/28352.got.cif
#   From: 2010.05.17/outbox.cif.g08.bks.cpg/sg5_15_cif.got.tgz:28352.got - 2010.06.03 18:56:24.
