data_PCOD9130672
_publ_section_title
;
Structure prediction by ZEFSAII (Michael W. Deem and Ramdas Pophale) SiO2 
 PCOD9130672
Probable space group: C 2
;
_chemical_formula_sum "Si O2"
_cell_formula_units_Z 16
_cell_length_a 15.000000
_cell_length_b 15.000000
_cell_length_c 21.000000
_cell_angle_alpha 90.000000
_cell_angle_beta 160.000000
_cell_angle_gamma 90.000000
_cell_volume 1616.045177
_symmetry_space_group_name_H-M "C 2"
_symmetry_group_IT_number 5
_symmetry_cell_setting 'monoclinic'
loop_
_space_group_symop_operation_xyz
x,y,z
-x,y,-z
1/2+x,1/2+y,z
1/2-x,1/2+y,-z
loop_
_atom_site_type_symbol
_atom_site_label
_atom_site_fract_x
_atom_site_fract_y
_atom_site_fract_z
Si Si1 0.280196 0.415750 0.603225
Si Si2 0.821498 0.566603 0.816203
Si Si3 0.160054 0.272005 0.711204
Si Si4 0.788986 0.960322 0.462065
Si Si5 0.289228 0.604048 0.671368
Si Si6 0.928418 0.789419 0.124450
Si Si7 0.880332 0.588240 0.113575
Si Si8 0.037377 0.276117 0.278616
O O1 0.276118 0.453759 0.529697
O O2 0.236371 0.503002 0.615053
O O3 0.537753 0.367408 0.801939
O O4 0.079036 0.332955 0.473445
O O5 0.685343 0.664817 0.723881
O O6 0.576997 0.499902 0.641379
O O7 0.021969 0.563415 0.891870
O O8 0.000000 0.556449 0.000000
O O9 0.386833 0.302013 0.814088
O O10 0.131223 0.285762 0.768851
O O11 0.744987 0.856336 0.414524
O O12 0.550352 0.021630 0.273288
O O13 0.362532 0.674783 0.664334
O O14 0.000000 0.636196 0.500000
O O15 0.559323 0.593703 0.895884
O O16 0.972723 0.691260 0.184352
O O17 0.644809 0.790220 0.904227
#
# Coordination Sequence:
#
# PCOD9130672 Si02
#       8
#     4   4   4   4   4   4   4   4
#     4  11  22  35  58  88 124 162 203 253 307 366
#     4  11  21  38  66  95 123 156 201 259 316 363
#     4  10  19  35  60  92 120 152 201 262 315 356
#     4  11  23  38  59  91 126 160 201 255 309 366
#     4  11  23  41  61  85 121 168 208 248 305 372
#     4  10  19  36  62  91 117 155 207 258 311 360
#     4  10  22  40  65  90 119 159 206 260 311 363
#     4  10  22  37  58  86 124 164 202 249 302 370
#
# _framework density 9.9007129999999997
#
# number of rings (size 3 to 8) (size 9 to 14) (size 15 to 20)
#    0.000    1.500    0.000    7.125    0.000    4.000 
#    0.000    3.125    0.000    0.000    0.000    0.000 
#    0.000    0.000    0.000    0.000    0.000    0.000 
#
# Total GULP energy -89075.046415 kJ/mol
# GULP energy per Si atom -5567.190401 kJ/mol
# Density = 0.987818 g / cm^3
# Si number density = 9.900713 Si / 1000 Ang^3
#
#
#
# Elastic Constant Matrix: (Units=GPa)
#
#
# Indices 1 2 3 4 5 6 
#
# 1 65.3026 21.6212 34.1847 -0.0387 -11.2962 -0.0407
# 2 21.6212 103.1907 38.9512 0.1103 -14.9427 -0.0284
# 3 34.1847 38.9512 94.8690 0.1094 1.5215 -0.0273
# 4 -0.0387 0.1103 0.1094 36.1056 -0.0239 -9.0948
# 5 -11.2962 -14.9427 1.5215 -0.0239 30.4994 -0.0263
# 6 -0.0407 -0.0284 -0.0273 -9.0948 -0.0263 29.0623
#
#
#
# Elastic Compliance Matrix: (Units=1/GPa)
#
#
# Indices 1 2 3 4 5 6 
#
# 1 0.020682 -0.000401 -0.007414 0.000063 0.007834 0.000049
# 2 -0.000401 0.012627 -0.005141 -0.000017 0.006294 0.000007
# 3 -0.007414 -0.005141 0.015420 -0.000048 -0.006034 -0.000022
# 4 0.000063 -0.000017 -0.000048 0.030067 0.000049 0.009409
# 5 0.007834 0.006294 -0.006034 0.000049 0.039074 0.000062
# 6 0.000049 0.000007 -0.000022 0.009409 0.000062 0.037354
#
#
# Mechanical properties :
#
#
# Convention : Reuss Voigt Hill
#
# Bulk Modulus (GPa) = 43.82460 50.31960 47.07210
# Shear Modulus (GPa) = 26.49156 30.37381 28.43269
#
# Velocity S-wave (km/s) = 3.66165 3.92078 3.79343
# Velocity P-wave (km/s) = 6.32906 6.77967 6.55824
#
# Compressibility (1/GPa) = 0.02281823
#
# Stress axis : x y z
#
# Youngs Moduli (GPa) = 48.35106 79.19707 64.85171
#
# Poissons Ratio (x) = 0.03173 0.48079
# Poissons Ratio (y) = 0.01937 0.33339
# Poissons Ratio (z) = 0.35846 0.40714
#
# Static dielectric constant tensor:
#      x y z
#    x 1.713980 -0.000010 -0.000750 
#    y -0.000010 1.709510 -0.000050 
#    z -0.000750 -0.000050 1.751730 
# 
# From -- ./inp_files/66275.got.cif
#   From: 2010.05.17/outbox.ucp.g08.bks.cvg/sg5_34_cif.got.tgz:66275.got - 2010.06.11 12:53:14.
