data_PCOD9130357
_publ_section_title
;
Structure prediction by ZEFSAII (Michael W. Deem and Ramdas Pophale) SiO2 
 PCOD9130357
Probable space group: C 2
;
_chemical_formula_sum "Si O2"
_cell_formula_units_Z 26
_cell_length_a 21.223774
_cell_length_b 9.066453
_cell_length_c 9.264931
_cell_angle_alpha 90.000000
_cell_angle_beta 34.478017
_cell_angle_gamma 90.000000
_cell_volume 1009.224298
_symmetry_space_group_name_H-M "C 2"
_symmetry_group_IT_number 5
_symmetry_cell_setting 'monoclinic'
loop_
_space_group_symop_operation_xyz
x,y,z
-x,y,-z
1/2+x,1/2+y,z
1/2-x,1/2+y,-z
loop_
_atom_site_type_symbol
_atom_site_label
_atom_site_fract_x
_atom_site_fract_y
_atom_site_fract_z
Si Si1 0.608443 0.091080 0.017582
Si Si2 0.061138 0.838358 0.692349
Si Si3 0.000000 0.428065 0.500000
Si Si4 0.209480 0.306507 0.219172
Si Si5 0.500000 0.443847 0.500000
Si Si6 0.182188 0.306011 0.728092
Si Si7 0.500000 0.603680 0.000000
Si Si8 0.194508 0.120559 0.984325
O O1 0.509739 0.192959 0.148617
O O2 0.571972 0.022066 0.244920
O O3 0.718581 0.194796 0.821437
O O4 0.634485 0.965228 0.853761
O O5 0.050841 0.855195 0.538744
O O6 0.184047 0.822072 0.528435
O O7 0.001694 0.983773 0.867367
O O8 0.077477 0.322826 0.451816
O O9 0.245995 0.243387 0.993150
O O10 0.237573 0.477467 0.195129
O O11 0.598347 0.543551 0.255401
O O12 0.104660 0.211888 0.767920
O O13 0.159218 0.210846 0.914106
#
# Coordination Sequence:
#
# PCOD9130357 Si02
#       8
#     4   4   2   4   2   4   2   4
#     4  12  26  44  72 114 153 202 254 319 390 464
#     4  12  28  51  85 112 158 208 259 324 399 463
#     4  12  24  38  68 110 166 194 244 302 398 464
#     4  12  22  39  63 103 164 194 243 305 391 450
#     4  12  22  44  80 120 160 198 252 328 402 458
#     4  12  28  51  77 112 154 207 266 321 382 467
#     4  12  30  58  78 110 156 214 270 320 384 474
#     4  12  22  41  68 112 156 200 248 311 384 457
#
# _framework density 25.762359
#
# number of rings (size 3 to 8) (size 9 to 14) (size 15 to 20)
#    0.000    0.000    6.154    3.692    0.000    4.308 
#    0.000    1.538    0.000    0.000    0.000    0.000 
#    0.000    0.000    0.000    0.000    0.000    0.000 
#
# Total GULP energy -72679.759918 kJ/mol
# GULP energy per Si atom -5590.750763 kJ/mol
# Density = 2.570372 g / cm^3
# Si number density = 25.762359 Si / 1000 Ang^3
#
#
#
# Elastic Constant Matrix: (Units=GPa)
#
#
# Indices 1 2 3 4 5 6 
#
# 1 54.6662 31.7826 26.8813 0.0000 -3.0961 0.0000
# 2 31.7826 164.8192 47.0223 0.0000 -26.9751 0.0000
# 3 26.8813 47.0223 118.1154 0.0000 -28.8221 0.0000
# 4 0.0000 0.0000 0.0000 -53.0322 0.0000 -12.5501
# 5 -3.0961 -26.9751 -28.8221 0.0000 30.4202 0.0000
# 6 0.0000 0.0000 0.0000 -12.5501 0.0000 39.9924
#
#
#
# Elastic Compliance Matrix: (Units=1/GPa)
#
#
# Indices 1 2 3 4 5 6 
#
# 1 0.022721 -0.003910 -0.005068 0.000000 -0.005957 0.000000
# 2 -0.003910 0.008035 -0.000868 0.000000 0.005905 0.000000
# 3 -0.005068 -0.000868 0.012554 0.000000 0.010609 0.000000
# 4 0.000000 0.000000 0.000000 -0.017553 0.000000 -0.005508
# 5 -0.005957 0.005905 0.010609 0.000000 0.047554 0.000000
# 6 0.000000 0.000000 0.000000 -0.005508 0.000000 0.023276
#
#
# Mechanical properties :
#
#
# Convention : Reuss Voigt Hill
#
# Bulk Modulus (GPa) = 42.34074 60.99703 51.66888
# Shear Modulus (GPa) = 40.27290 18.93706 29.60498
#
# Velocity S-wave (km/s) = 3.95808 2.71415 3.39360
# Velocity P-wave (km/s) = 6.11223 5.79227 5.95440
#
# Compressibility (1/GPa) = 0.02361791
#
# Stress axis : x y z
#
# Youngs Moduli (GPa) = 44.01224 124.44927 79.65624
#
# Poissons Ratio (x) = 0.48665 0.40367
# Poissons Ratio (y) = 0.17211 0.06915
# Poissons Ratio (z) = 0.22304 0.10803
#
# Static dielectric constant tensor:
#      x y z
#    x 2.204890 0.000000 -0.099640 
#    y 0.000000 1.989810 0.000000 
#    z -0.099640 0.000000 2.145280 
# 
# From -- ./inp_files/38405.got.cif
#   From: 2010.05.17/outbox.cif.g08.bks.cpg/sg5_20_cif.got.tgz:38405.got - 2010.06.03 18:56:24.
