data_PCOD9130332
_publ_section_title
;
Structure prediction by ZEFSAII (Michael W. Deem and Ramdas Pophale) SiO2 
 PCOD9130332
Probable space group: C 2
;
_chemical_formula_sum "Si O2"
_cell_formula_units_Z 24
_cell_length_a 31.588724
_cell_length_b 4.915233
_cell_length_c 15.094277
_cell_angle_alpha 90.000000
_cell_angle_beta 154.670643
_cell_angle_gamma 90.000000
_cell_volume 1002.652972
_symmetry_space_group_name_H-M "C 2"
_symmetry_group_IT_number 5
_symmetry_cell_setting 'monoclinic'
loop_
_space_group_symop_operation_xyz
x,y,z
-x,y,-z
1/2+x,1/2+y,z
1/2-x,1/2+y,-z
loop_
_atom_site_type_symbol
_atom_site_label
_atom_site_fract_x
_atom_site_fract_y
_atom_site_fract_z
Si Si1 0.141350 0.099920 0.869369
Si Si2 0.831838 0.339065 0.264191
Si Si3 0.955539 0.834514 0.746896
Si Si4 0.986614 0.315552 0.691092
Si Si5 0.000000 0.476203 0.000000
Si Si6 0.188387 0.121121 0.403873
Si Si7 0.500000 0.221060 0.500000
O O1 0.187939 0.161520 0.860867
O O2 0.083171 0.335716 0.810977
O O3 0.228922 0.977482 0.092813
O O4 0.052317 0.903843 0.672796
O O5 0.890778 0.204572 0.455839
O O6 0.914223 0.547238 0.383027
O O7 0.953032 0.599008 0.669091
O O8 0.999452 0.675771 0.914522
O O9 0.012510 0.092712 0.814535
O O10 0.853227 0.968912 0.587744
O O11 0.905001 0.278959 0.814958
O O12 0.264784 0.370334 0.562541
#
# Coordination Sequence:
#
# PCOD9130332 Si02
#       7
#     4   4   4   4   2   4   2
#     4  12  25  43  74 103 145 211 256 307 386 460
#     4  12  25  43  73 104 145 210 261 305 382 460
#     4  12  27  50  78 113 160 195 256 323 395 459
#     4  12  26  48  69 113 163 193 247 343 379 441
#     4  12  26  54  82 112 152 214 252 322 388 494
#     4  12  25  49  83 114 148 201 261 314 387 481
#     4  12  20  44  72  98 144 192 262 316 358 450
#
# _framework density 23.936499000000001
#
# number of rings (size 3 to 8) (size 9 to 14) (size 15 to 20)
#    0.000    0.000    8.333    1.500    0.000    0.000 
#    9.000    0.000    0.000    0.000    0.000    0.000 
#    0.000    0.000    0.000    0.000    0.000    0.000 
#
# Total GULP energy -67081.792322 kJ/mol
# GULP energy per Si atom -5590.149360 kJ/mol
# Density = 2.388202 g / cm^3
# Si number density = 23.936499 Si / 1000 Ang^3
#
#
#
# Elastic Constant Matrix: (Units=GPa)
#
#
# Indices 1 2 3 4 5 6 
#
# 1 90.4309 39.0696 29.5628 0.0000 -6.2318 0.0000
# 2 39.0696 142.3478 31.6326 0.0000 4.2421 -0.0001
# 3 29.5628 31.6326 112.0657 0.0000 13.7549 0.0000
# 4 0.0000 0.0000 0.0000 45.0152 0.0000 19.6383
# 5 -6.2318 4.2421 13.7549 0.0000 22.5469 0.0001
# 6 0.0000 -0.0001 0.0000 19.6383 0.0001 52.2580
#
#
#
# Elastic Compliance Matrix: (Units=1/GPa)
#
#
# Indices 1 2 3 4 5 6 
#
# 1 0.014121 -0.003270 -0.003628 0.000000 0.006732 0.000000
# 2 -0.003270 0.008253 -0.001260 0.000000 -0.001688 0.000000
# 3 -0.003628 -0.001260 0.011166 0.000000 -0.007578 0.000000
# 4 0.000000 0.000000 0.000000 0.026571 0.000000 -0.009985
# 5 0.006732 -0.001688 -0.007578 0.000000 0.051153 0.000000
# 6 0.000000 0.000000 0.000000 -0.009985 0.000000 0.022888
#
#
# Mechanical properties :
#
#
# Convention : Reuss Voigt Hill
#
# Bulk Modulus (GPa) = 58.05899 60.59715 59.32807
# Shear Modulus (GPa) = 32.00830 40.26931 36.13881
#
# Velocity S-wave (km/s) = 3.66077 4.10608 3.88980
# Velocity P-wave (km/s) = 6.49433 6.91742 6.70921
#
# Compressibility (1/GPa) = 0.01722386
#
# Stress axis : x y z
#
# Youngs Moduli (GPa) = 70.81655 121.17108 89.55643
#
# Poissons Ratio (x) = 0.39624 0.32494
# Poissons Ratio (y) = 0.23157 0.11281
# Poissons Ratio (z) = 0.25694 0.15264
#
# Static dielectric constant tensor:
#      x y z
#    x 2.008870 0.000000 -0.035940 
#    y 0.000000 1.953050 0.000000 
#    z -0.035940 0.000000 1.915510 
# 
# From -- ./inp_files/58269.got.cif
#   From: 2010.05.17/outbox.cif.g08.bks.cpg/sg5_30_cif.got.tgz:58269.got - 2010.06.03 18:56:24.
