data_PCOD9130463
_publ_section_title
;
Structure prediction by ZEFSAII (Michael W. Deem and Ramdas Pophale) SiO2 
 PCOD9130463
Probable space group: C 2
;
_chemical_formula_sum "Si O2"
_cell_formula_units_Z 18
_cell_length_a 8.436745
_cell_length_b 13.468367
_cell_length_c 6.745847
_cell_angle_alpha 90.000000
_cell_angle_beta 87.412365
_cell_angle_gamma 90.000000
_cell_volume 765.743451
_symmetry_space_group_name_H-M "C 2"
_symmetry_group_IT_number 5
_symmetry_cell_setting 'monoclinic'
loop_
_space_group_symop_operation_xyz
x,y,z
-x,y,-z
1/2+x,1/2+y,z
1/2-x,1/2+y,-z
loop_
_atom_site_type_symbol
_atom_site_label
_atom_site_fract_x
_atom_site_fract_y
_atom_site_fract_z
Si Si1 0.678913 0.419440 0.030326
Si Si2 0.678761 0.118080 0.034380
Si Si3 0.109952 0.350178 0.339850
Si Si4 0.834962 0.748560 0.625988
Si Si5 0.000000 0.233227 0.000000
O O1 0.663427 0.332876 0.196891
O O2 0.500000 0.455794 0.000000
O O3 0.795612 0.511503 0.068477
O O4 0.752977 0.389706 0.812788
O O5 0.686804 0.140876 0.269770
O O6 0.500000 0.153962 0.000000
O O7 0.839181 0.174902 0.964544
O O8 0.200081 0.271813 0.473616
O O9 0.000000 0.411991 0.500000
O O10 0.988730 0.303000 0.190053
O O11 0.000000 0.753269 0.500000
#
# Coordination Sequence:
#
# PCOD9130463 Si02
#       5
#     4   4   4   4   2
#     4  12  26  48  75 114 161 200 258 328 380 458
#     4  12  27  47  75 110 158 200 253 320 384 451
#     4  12  24  44  79 106 149 199 260 311 392 458
#     4  12  25  49  78 112 149 208 258 315 389 464
#     4  12  24  50  74 106 148 202 250 324 386 450
#
# _framework density 23.506568000000001
#
# number of rings (size 3 to 8) (size 9 to 14) (size 15 to 20)
#    0.000    0.000    7.778    2.000    4.667    0.889 
#    4.000    3.333    0.000    0.000    0.000    0.000 
#    0.000    0.000    0.000    0.000    0.000    0.000 
#
# Total GULP energy -50111.948385 kJ/mol
# GULP energy per Si atom -5567.994265 kJ/mol
# Density = 2.345307 g / cm^3
# Si number density = 23.506568 Si / 1000 Ang^3
#
#
#
# Elastic Constant Matrix: (Units=GPa)
#
#
# Indices 1 2 3 4 5 6 
#
# 1 148.2614 21.0377 32.8031 0.0000 -27.6898 0.0000
# 2 21.0377 66.5322 27.0617 0.0000 -16.1605 0.0000
# 3 32.8031 27.0617 132.6204 0.0000 -37.2465 0.0000
# 4 0.0000 0.0000 0.0000 20.3719 0.0000 -8.2054
# 5 -27.6898 -16.1605 -37.2465 0.0000 63.7479 0.0000
# 6 0.0000 0.0000 0.0000 -8.2054 0.0000 29.0918
#
#
#
# Elastic Compliance Matrix: (Units=1/GPa)
#
#
# Indices 1 2 3 4 5 6 
#
# 1 0.007600 -0.001450 -0.000909 0.000000 0.002403 0.000000
# 2 -0.001450 0.017045 -0.002492 0.000000 0.002235 0.000000
# 3 -0.000909 -0.002492 0.009553 0.000000 0.004555 0.000000
# 4 0.000000 0.000000 0.000000 0.055379 0.000000 0.015620
# 5 0.002403 0.002235 0.004555 0.000000 0.019958 0.000000
# 6 0.000000 0.000000 0.000000 0.015620 0.000000 0.038779
#
#
# Mechanical properties :
#
#
# Convention : Reuss Voigt Hill
#
# Bulk Modulus (GPa) = 40.82162 56.57989 48.70075
# Shear Modulus (GPa) = 30.08741 40.40976 35.24859
#
# Velocity S-wave (km/s) = 3.58153 4.15068 3.87657
# Velocity P-wave (km/s) = 5.87426 6.86243 6.38748
#
# Compressibility (1/GPa) = 0.02449682
#
# Stress axis : x y z
#
# Youngs Moduli (GPa) = 131.57091 58.66739 104.67991
#
# Poissons Ratio (x) = 0.08506 0.09519
# Poissons Ratio (y) = 0.19076 0.26083
# Poissons Ratio (z) = 0.11964 0.14618
#
# Static dielectric constant tensor:
#      x y z
#    x 2.090390 0.000000 -0.110410 
#    y 0.000000 1.977910 0.000000 
#    z -0.110410 0.000000 1.984380 
# 
# From -- ./inp_files/2185.got.cif
#   From: 2010.05.17/outbox.cif.g08.bks.cpg/sg5_2_cif.got.tgz:2185.got - 2010.06.03 18:56:24.
