data_PCOD9130010
_publ_section_title
;
Structure prediction by ZEFSAII (Michael W. Deem and Ramdas Pophale) SiO2 
 PCOD9130010
Probable space group: C 2
;
_chemical_formula_sum "Si O2"
_cell_formula_units_Z 24
_cell_length_a 8.686796
_cell_length_b 24.870024
_cell_length_c 8.348972
_cell_angle_alpha 90.000000
_cell_angle_beta 32.479438
_cell_angle_gamma 90.000000
_cell_volume 968.591407
_symmetry_space_group_name_H-M "C 2"
_symmetry_group_IT_number 5
_symmetry_cell_setting 'monoclinic'
loop_
_space_group_symop_operation_xyz
x,y,z
-x,y,-z
1/2+x,1/2+y,z
1/2-x,1/2+y,-z
loop_
_atom_site_type_symbol
_atom_site_label
_atom_site_fract_x
_atom_site_fract_y
_atom_site_fract_z
Si Si1 0.981001 0.636640 0.330433
Si Si2 0.278251 0.975576 0.545190
Si Si3 0.539216 0.576844 0.282019
Si Si4 0.077738 0.760827 0.604883
Si Si5 0.871991 0.309119 0.787096
Si Si6 0.678005 0.919415 0.001061
O O1 0.000000 0.620061 0.500000
O O2 0.659410 0.629301 0.553302
O O3 0.035964 0.700182 0.280555
O O4 0.168470 0.598461 0.051175
O O5 0.500000 0.967595 0.500000
O O6 0.502569 0.972690 0.203076
O O7 0.111024 0.031683 0.696544
O O8 0.016089 0.933970 0.727818
O O9 0.500000 0.557055 0.500000
O O10 0.416921 0.768551 0.305747
O O11 0.000000 0.784603 0.500000
O O12 0.938179 0.792929 0.874561
O O13 0.891581 0.371618 0.815649
O O14 0.000000 0.303651 0.500000
O O15 0.500000 0.901631 0.000000
#
# Coordination Sequence:
#
# PCOD9130010 Si02
#       6
#     4   4   4   4   4   4
#     4  11  25  44  69 101 140 186 238 294 360 433
#     4  12  27  47  72 104 144 191 246 304 365 435
#     4  12  25  44  70 103 141 186 239 297 361 431
#     4  11  24  45  70 100 139 186 236 292 360 433
#     4  12  26  44  70 104 141 181 234 297 364 432
#     4  12  25  46  73 104 143 192 246 300 365 438
#
# _framework density 24.778251999999998
#
# number of rings (size 3 to 8) (size 9 to 14) (size 15 to 20)
#    0.000    0.333    0.000    9.000    0.000    9.333 
#    0.000    0.833    0.000    0.000    0.000    0.000 
#    0.000    0.000    0.000    0.000    0.000    0.000 
#
# Total GULP energy -66933.067532 kJ/mol
# GULP energy per Si atom -5577.755628 kJ/mol
# Density = 2.472186 g / cm^3
# Si number density = 24.778252 Si / 1000 Ang^3
#
#
#
# Elastic Constant Matrix: (Units=GPa)
#
#
# Indices 1 2 3 4 5 6 
#
# 1 118.4580 10.1171 29.2508 0.0000 -10.9911 0.0000
# 2 10.1171 74.0528 23.4847 0.0000 -2.4159 0.0000
# 3 29.2508 23.4847 117.2871 0.0000 -23.1863 0.0000
# 4 0.0000 0.0000 0.0000 19.6488 0.0000 -13.0903
# 5 -10.9911 -2.4159 -23.1863 0.0000 43.0736 0.0000
# 6 0.0000 0.0000 0.0000 -13.0903 0.0000 14.2807
#
#
#
# Elastic Compliance Matrix: (Units=1/GPa)
#
#
# Indices 1 2 3 4 5 6 
#
# 1 0.009078 -0.000598 -0.001895 0.000000 0.001263 0.000000
# 2 -0.000598 0.014486 -0.002933 0.000000 -0.000919 0.000000
# 3 -0.001895 -0.002933 0.010584 0.000000 0.005049 0.000000
# 4 0.000000 0.000000 0.000000 0.130725 0.000000 0.119829
# 5 0.001263 -0.000919 0.005049 0.000000 0.026205 0.000000
# 6 0.000000 0.000000 0.000000 0.119829 0.000000 0.179864
#
#
# Mechanical properties :
#
#
# Convention : Reuss Voigt Hill
#
# Bulk Modulus (GPa) = 42.92526 48.38922 45.65724
# Shear Modulus (GPa) = 12.83502 31.86365 22.34934
#
# Velocity S-wave (km/s) = 2.27842 3.58991 3.00655
# Velocity P-wave (km/s) = 4.92778 6.06255 5.52438
#
# Compressibility (1/GPa) = 0.02329630
#
# Stress axis : x y z
#
# Youngs Moduli (GPa) = 110.15752 69.03325 94.48169
#
# Poissons Ratio (x) = 0.04130 0.17900
# Poissons Ratio (y) = 0.06590 0.27712
# Poissons Ratio (z) = 0.20870 0.20247
#
# Static dielectric constant tensor:
#      x y z
#    x 2.091800 0.000000 0.030870 
#    y 0.000000 1.906230 0.000000 
#    z 0.030870 0.000000 1.959270 
# 
# From -- ./inp_files/17608.got.cif
#   From: 2010.05.17/outbox.cif.g08.bks.cpg/sg5_9_cif.got.tgz:17608.got - 2010.06.03 18:56:24.
