data_PCOD9130435
_publ_section_title
;
Structure prediction by ZEFSAII (Michael W. Deem and Ramdas Pophale) SiO2 
 PCOD9130435
Probable space group: C 2
;
_chemical_formula_sum "Si O2"
_cell_formula_units_Z 18
_cell_length_a 5.671443
_cell_length_b 7.798557
_cell_length_c 17.891033
_cell_angle_alpha 90.000000
_cell_angle_beta 61.086283
_cell_angle_gamma 90.000000
_cell_volume 692.666813
_symmetry_space_group_name_H-M "C 2"
_symmetry_group_IT_number 5
_symmetry_cell_setting 'monoclinic'
loop_
_space_group_symop_operation_xyz
x,y,z
-x,y,-z
1/2+x,1/2+y,z
1/2-x,1/2+y,-z
loop_
_atom_site_type_symbol
_atom_site_label
_atom_site_fract_x
_atom_site_fract_y
_atom_site_fract_z
Si Si1 0.240761 0.632000 0.781339
Si Si2 0.500000 0.696985 0.000000
Si Si3 0.782325 0.350609 0.336056
Si Si4 0.823636 0.628568 0.450490
Si Si5 0.075657 0.939388 0.109181
O O1 0.149078 0.490013 0.737387
O O2 0.537456 0.685644 0.708351
O O3 0.240651 0.547344 0.862775
O O4 0.087006 0.810857 0.813270
O O5 0.750068 0.822525 0.973268
O O6 0.571484 0.579558 0.918492
O O7 0.847708 0.448658 0.402669
O O8 0.475739 0.283210 0.383859
O O9 0.500000 0.656715 0.500000
O O10 0.000000 0.619411 0.500000
#
# Coordination Sequence:
#
# PCOD9130435 Si02
#       5
#     4   2   4   4   4
#     4  12  25  45  70 102 142 188 240 298 362 436
#     4  12  24  42  68 100 138 184 236 294 358 428
#     4  12  27  47  74 106 145 192 246 304 371 442
#     4  12  29  51  78 112 151 197 252 313 377 448
#     4  12  24  43  68 100 140 184 238 296 360 430
#
# _framework density 25.986519000000001
#
# number of rings (size 3 to 8) (size 9 to 14) (size 15 to 20)
#    0.000    0.000    0.000   10.000    0.000   10.667 
#    0.000    0.000    0.000    0.000    0.000    0.000 
#    0.000    0.000    0.000    0.000    0.000    0.000 
#
# Total GULP energy -50444.609441 kJ/mol
# GULP energy per Si atom -5604.956605 kJ/mol
# Density = 2.592737 g / cm^3
# Si number density = 25.986519 Si / 1000 Ang^3
#
#
#
# Elastic Constant Matrix: (Units=GPa)
#
#
# Indices 1 2 3 4 5 6 
#
# 1 92.1533 38.3976 18.4467 -0.0001 -2.7146 0.0000
# 2 38.3976 124.3754 24.1794 0.0001 2.6449 0.0001
# 3 18.4467 24.1794 61.9381 -0.0001 -4.5537 0.0002
# 4 -0.0001 0.0001 -0.0001 31.6804 0.0001 -5.1419
# 5 -2.7146 2.6449 -4.5537 0.0001 46.6805 -0.0002
# 6 0.0000 0.0001 0.0002 -5.1419 -0.0002 57.4940
#
#
#
# Elastic Compliance Matrix: (Units=1/GPa)
#
#
# Indices 1 2 3 4 5 6 
#
# 1 0.012812 -0.003505 -0.002395 0.000000 0.000710 0.000000
# 2 -0.003505 0.009691 -0.002815 0.000000 -0.001028 0.000000
# 3 -0.002395 -0.002815 0.018089 0.000000 0.001785 0.000000
# 4 0.000000 0.000000 0.000000 0.032030 0.000000 0.002865
# 5 0.000710 -0.001028 0.001785 0.000000 0.021696 0.000000
# 6 0.000000 0.000000 0.000000 0.002865 0.000000 0.017649
#
#
# Mechanical properties :
#
#
# Convention : Reuss Voigt Hill
#
# Bulk Modulus (GPa) = 43.17459 48.94603 46.06031
# Shear Modulus (GPa) = 36.46475 40.33386 38.39930
#
# Velocity S-wave (km/s) = 3.75002 3.94395 3.84821
# Velocity P-wave (km/s) = 5.94983 6.29410 6.12439
#
# Compressibility (1/GPa) = 0.02316177
#
# Stress axis : x y z
#
# Youngs Moduli (GPa) = 78.05022 103.18517 55.28315
#
# Poissons Ratio (x) = 0.36165 0.13242
# Poissons Ratio (y) = 0.27356 0.15562
# Poissons Ratio (z) = 0.18696 0.29047
#
# Static dielectric constant tensor:
#      x y z
#    x 1.997580 0.000000 -0.036040 
#    y 0.000000 1.934050 0.000000 
#    z -0.036040 0.000000 2.111870 
# 
# From -- ./inp_files/58453.got.cif
#   From: 2010.05.17/outbox.cif.g08.bks.cpg/sg5_30_cif.got.tgz:58453.got - 2010.06.03 18:56:24.
