data_PCOD9130606
_publ_section_title
;
Structure prediction by ZEFSAII (Michael W. Deem and Ramdas Pophale) SiO2 
 PCOD9130606
Probable space group: C 2
;
_chemical_formula_sum "Si O2"
_cell_formula_units_Z 16
_cell_length_a 13.947016
_cell_length_b 4.923413
_cell_length_c 23.326541
_cell_angle_alpha 90.000000
_cell_angle_beta 157.518952
_cell_angle_gamma 90.000000
_cell_volume 612.478148
_symmetry_space_group_name_H-M "C 2"
_symmetry_group_IT_number 5
_symmetry_cell_setting 'monoclinic'
loop_
_space_group_symop_operation_xyz
x,y,z
-x,y,-z
1/2+x,1/2+y,z
1/2-x,1/2+y,-z
loop_
_atom_site_type_symbol
_atom_site_label
_atom_site_fract_x
_atom_site_fract_y
_atom_site_fract_z
Si Si1 0.775388 0.480310 0.155160
Si Si2 0.354009 0.326934 0.091528
Si Si3 0.908661 0.334223 0.355089
Si Si4 0.169539 0.846973 0.541241
O O1 0.765335 0.737645 0.106146
O O2 0.825671 0.485995 0.250824
O O3 0.038982 0.348454 0.282397
O O4 0.500000 0.348220 0.000000
O O5 0.651375 0.298983 0.247603
O O6 0.267247 0.619190 0.021584
O O7 0.091575 0.542585 0.486335
O O8 0.068348 0.056093 0.436399
O O9 0.000000 0.943709 0.500000
#
# Coordination Sequence:
#
# PCOD9130606 Si02
#       4
#     4   4   4   4
#     4  12  28  50  82 121 158 218 264 338 402 486
#     4  12  27  51  79 121 164 210 267 339 406 472
#     4  12  27  52  77 114 160 212 268 328 397 484
#     4  12  27  51  79 115 161 212 266 331 402 475
#
# _framework density 26.123384000000001
#
# number of rings (size 3 to 8) (size 9 to 14) (size 15 to 20)
#    0.000    0.000    5.000    3.750    0.000    2.000 
#    0.000    0.000    0.000    0.000    0.000    0.000 
#    0.000    0.000    0.000    0.000    0.000    0.000 
#
# Total GULP energy -44769.013349 kJ/mol
# GULP energy per Si atom -5596.126669 kJ/mol
# Density = 2.606393 g / cm^3
# Si number density = 26.123384 Si / 1000 Ang^3
#
#
#
# Elastic Constant Matrix: (Units=GPa)
#
#
# Indices 1 2 3 4 5 6 
#
# 1 143.1733 2.9609 50.4850 0.0020 7.9417 -0.0037
# 2 2.9609 77.9599 36.4258 0.0024 11.1970 0.0018
# 3 50.4850 36.4258 186.2826 -0.0033 50.5726 -0.0003
# 4 0.0020 0.0024 -0.0033 41.2263 0.0018 7.4071
# 5 7.9417 11.1970 50.5726 0.0018 64.7429 0.0026
# 6 -0.0037 0.0018 -0.0003 7.4071 0.0026 6.6901
#
#
#
# Elastic Compliance Matrix: (Units=1/GPa)
#
#
# Indices 1 2 3 4 5 6 
#
# 1 0.007801 0.000745 -0.002494 -0.000002 0.000862 0.000005
# 2 0.000745 0.014195 -0.002902 -0.000001 -0.000280 -0.000003
# 3 -0.002494 -0.002902 0.008113 0.000001 -0.005529 0.000001
# 4 -0.000002 -0.000001 0.000001 0.030280 0.000000 -0.033525
# 5 0.000862 -0.000280 -0.005529 0.000000 0.019707 -0.000007
# 6 0.000005 -0.000003 0.000001 -0.033525 -0.000007 0.186593
#
#
# Mechanical properties :
#
#
# Convention : Reuss Voigt Hill
#
# Bulk Modulus (GPa) = 48.06040 65.23991 56.65016
# Shear Modulus (GPa) = 17.67254 43.70147 30.68700
#
# Velocity S-wave (km/s) = 2.60379 4.09453 3.43110
# Velocity P-wave (km/s) = 5.24185 6.88343 6.11795
#
# Compressibility (1/GPa) = 0.02080715
#
# Stress axis : x y z
#
# Youngs Moduli (GPa) = 128.19383 70.44865 123.26598
#
# Poissons Ratio (x) = -0.05249 0.30741
# Poissons Ratio (y) = -0.09552 0.35767
# Poissons Ratio (z) = 0.31970 0.20442
#
# Static dielectric constant tensor:
#      x y z
#    x 2.150300 0.000000 -0.047460 
#    y 0.000000 2.005090 0.000000 
#    z -0.047460 0.000000 1.975570 
# 
# From -- ./inp_files/41046.got.cif
#   From: 2010.05.17/outbox.cif.g08.bks.cpg/sg5_21_cif.got.tgz:41046.got - 2010.06.03 18:56:24.
