data_PCOD9130211
_publ_section_title
;
Structure prediction by ZEFSAII (Michael W. Deem and Ramdas Pophale) SiO2 
 PCOD9130211
Probable space group: C 2
;
_chemical_formula_sum "Si O2"
_cell_formula_units_Z 22
_cell_length_a 18.542733
_cell_length_b 5.473819
_cell_length_c 9.239095
_cell_angle_alpha 90.000000
_cell_angle_beta 70.289972
_cell_angle_gamma 90.000000
_cell_volume 882.821953
_symmetry_space_group_name_H-M "C 2"
_symmetry_group_IT_number 5
_symmetry_cell_setting 'monoclinic'
loop_
_space_group_symop_operation_xyz
x,y,z
-x,y,-z
1/2+x,1/2+y,z
1/2-x,1/2+y,-z
loop_
_atom_site_type_symbol
_atom_site_label
_atom_site_fract_x
_atom_site_fract_y
_atom_site_fract_z
Si Si1 0.753944 0.220600 0.088300
Si Si2 0.000000 0.238681 0.500000
Si Si3 0.205859 0.777524 0.567157
Si Si4 0.378231 0.431261 0.115525
Si Si5 0.889454 0.618236 0.607284
Si Si6 0.023139 0.878401 0.224826
O O1 0.835454 0.187802 0.115436
O O2 0.685629 0.158187 0.245333
O O3 0.747288 0.487569 0.021491
O O4 0.917678 0.365940 0.522054
O O5 0.976056 0.097747 0.662127
O O6 0.247028 0.523300 0.499340
O O7 0.129987 0.786326 0.516845
O O8 0.183707 0.778397 0.750981
O O9 0.450827 0.421038 0.171361
O O10 0.408734 0.350694 0.938756
O O11 0.960131 0.664562 0.670481
#
# Coordination Sequence:
#
# PCOD9130211 Si02
#       6
#     4   2   4   4   4   4
#     4  12  27  49  81 115 157 204 262 322 390 462
#     4  12  26  48  76 108 154 212 256 320 392 470
#     4  12  29  47  79 118 158 202 259 322 389 461
#     4  11  25  49  76 116 151 207 259 328 380 472
#     4  12  27  47  77 112 153 211 256 324 391 469
#     4  11  26  50  76 107 160 199 267 316 399 456
#
# _framework density 24.920086999999999
#
# number of rings (size 3 to 8) (size 9 to 14) (size 15 to 20)
#    0.000    0.364    3.636    3.818    7.636    0.000 
#    6.545    1.818    0.000    0.000    0.000    0.000 
#    0.000    0.000    0.000    0.000    0.000    0.000 
#
# Total GULP energy -61355.911448 kJ/mol
# GULP energy per Si atom -5577.810132 kJ/mol
# Density = 2.486337 g / cm^3
# Si number density = 24.920087 Si / 1000 Ang^3
#
#
#
# Elastic Constant Matrix: (Units=GPa)
#
#
# Indices 1 2 3 4 5 6 
#
# 1 84.6469 15.5297 21.2761 0.0000 27.7726 0.0000
# 2 15.5297 105.0176 48.5148 0.0000 -2.3148 0.0000
# 3 21.2761 48.5148 209.7189 0.0000 -5.8421 0.0000
# 4 0.0000 0.0000 0.0000 10.7487 0.0000 9.3784
# 5 27.7726 -2.3148 -5.8421 0.0000 44.0213 0.0000
# 6 0.0000 0.0000 0.0000 9.3784 0.0000 32.5574
#
#
#
# Elastic Compliance Matrix: (Units=1/GPa)
#
#
# Indices 1 2 3 4 5 6 
#
# 1 0.015924 -0.001907 -0.001462 0.000000 -0.010341 0.000000
# 2 -0.001907 0.010892 -0.002285 0.000000 0.001473 0.000000
# 3 -0.001462 -0.002285 0.005488 0.000000 0.001531 0.000000
# 4 0.000000 0.000000 0.000000 0.124267 0.000000 -0.035796
# 5 -0.010341 0.001473 0.001531 0.000000 0.029521 0.000000
# 6 0.000000 0.000000 0.000000 -0.035796 0.000000 0.041026
#
#
# Mechanical properties :
#
#
# Convention : Reuss Voigt Hill
#
# Bulk Modulus (GPa) = 47.63088 63.33608 55.48348
# Shear Modulus (GPa) = 20.37275 38.40299 29.38787
#
# Velocity S-wave (km/s) = 2.86234 3.92987 3.43780
# Velocity P-wave (km/s) = 5.48442 6.78695 6.17016
#
# Compressibility (1/GPa) = 0.02099479
#
# Stress axis : x y z
#
# Youngs Moduli (GPa) = 62.79820 91.80690 182.21764
#
# Poissons Ratio (x) = 0.17509 0.26647
# Poissons Ratio (y) = 0.11977 0.41642
# Poissons Ratio (z) = 0.09183 0.20980
#
# Static dielectric constant tensor:
#      x y z
#    x 2.181520 0.000000 -0.046460 
#    y 0.000000 2.008450 0.000000 
#    z -0.046460 0.000000 1.963600 
# 
# From -- ./inp_files/28293.got.cif
#   From: 2010.05.17/outbox.cif.g08.bks.cpg/sg5_15_cif.got.tgz:28293.got - 2010.06.03 18:56:24.
