data_PCOD9130064
_publ_section_title
;
Structure prediction by ZEFSAII (Michael W. Deem and Ramdas Pophale) SiO2 
 PCOD9130064
Probable space group: C 2
;
_chemical_formula_sum "Si O2"
_cell_formula_units_Z 32
_cell_length_a 28.343884
_cell_length_b 11.410530
_cell_length_c 8.606408
_cell_angle_alpha 90.000000
_cell_angle_beta 147.650388
_cell_angle_gamma 90.000000
_cell_volume 1489.392352
_symmetry_space_group_name_H-M "C 2"
_symmetry_group_IT_number 5
_symmetry_cell_setting 'monoclinic'
loop_
_space_group_symop_operation_xyz
x,y,z
-x,y,-z
1/2+x,1/2+y,z
1/2-x,1/2+y,-z
loop_
_atom_site_type_symbol
_atom_site_label
_atom_site_fract_x
_atom_site_fract_y
_atom_site_fract_z
Si Si1 0.029644 0.211760 0.751937
Si Si2 0.766904 0.660110 0.741967
Si Si3 0.029307 0.432981 0.247422
Si Si4 0.074654 0.636284 0.599755
Si Si5 0.733117 0.902785 0.782357
Si Si6 0.232361 0.145168 0.293448
Si Si7 0.419804 0.562886 0.661391
Si Si8 0.334526 0.323454 0.366238
O O1 0.000000 0.254005 0.500000
O O2 0.028187 0.321500 0.864582
O O3 0.957088 0.116307 0.604982
O O4 0.127719 0.161445 0.020312
O O5 0.772453 0.800370 0.783388
O O6 0.772800 0.629060 0.577692
O O7 0.671509 0.621971 0.540927
O O8 0.843037 0.604424 0.060437
O O9 0.032191 0.527282 0.392211
O O10 0.128753 0.388001 0.504232
O O11 0.000000 0.483383 0.000000
O O12 0.110862 0.723763 0.570903
O O13 0.000000 0.692615 0.500000
O O14 0.750755 0.031172 0.764414
O O15 0.773861 0.883330 0.065604
O O16 0.275966 0.258131 0.332193
O O17 0.398594 0.425296 0.602640
O O18 0.500000 0.589116 0.000000
#
# Coordination Sequence:
#
# PCOD9130064 Si02
#       8
#     4   4   4   4   4   4   4   4
#     4  12  25  43  74 110 144 189 255 296 366 441
#     4  11  26  47  74 106 150 186 253 306 369 442
#     4  12  24  44  73 105 144 185 244 307 368 434
#     4  11  27  47  70 103 145 198 240 310 369 438
#     4  11  24  47  73 102 146 191 236 310 376 424
#     4  12  26  46  75 112 142 201 244 304 376 441
#     4  12  25  47  71 104 149 193 240 304 366 438
#     4  11  27  46  72 102 151 188 248 299 377 436
#
# _framework density 21.485271999999998
#
# number of rings (size 3 to 8) (size 9 to 14) (size 15 to 20)
#    0.000    0.500    3.750    3.750    7.000    5.000 
#    0.000    0.000    0.000    0.000    0.000    0.000 
#    0.000    0.000    0.000    0.000    0.000    0.000 
#
# Total GULP energy -89556.302964 kJ/mol
# GULP energy per Si atom -5597.268935 kJ/mol
# Density = 2.143637 g / cm^3
# Si number density = 21.485272 Si / 1000 Ang^3
#
#
#
# Elastic Constant Matrix: (Units=GPa)
#
#
# Indices 1 2 3 4 5 6 
#
# 1 111.0035 36.3105 19.6741 0.0000 8.3681 0.0000
# 2 36.3105 90.6828 10.5233 0.0000 -5.5462 0.0000
# 3 19.6741 10.5233 70.1657 0.0000 1.6531 0.0000
# 4 0.0000 0.0000 0.0000 22.9621 0.0000 0.5238
# 5 8.3681 -5.5462 1.6531 0.0000 29.6764 0.0000
# 6 0.0000 0.0000 0.0000 0.5238 0.0000 23.4942
#
#
#
# Elastic Compliance Matrix: (Units=1/GPa)
#
#
# Indices 1 2 3 4 5 6 
#
# 1 0.011170 -0.004432 -0.002377 0.000000 -0.003845 0.000000
# 2 -0.004432 0.013126 -0.000814 0.000000 0.003748 0.000000
# 3 -0.002377 -0.000814 0.015048 0.000000 -0.000320 0.000000
# 4 0.000000 0.000000 0.000000 0.043572 0.000000 -0.000971
# 5 -0.003845 0.003748 -0.000320 0.000000 0.035499 0.000000
# 6 0.000000 0.000000 0.000000 -0.000971 0.000000 0.042585
#
#
# Mechanical properties :
#
#
# Convention : Reuss Voigt Hill
#
# Bulk Modulus (GPa) = 41.49721 44.98533 43.24127
# Shear Modulus (GPa) = 27.13288 28.91614 28.02451
#
# Velocity S-wave (km/s) = 3.55753 3.67257 3.61551
# Velocity P-wave (km/s) = 6.01921 6.24235 6.13179
#
# Compressibility (1/GPa) = 0.02409801
#
# Stress axis : x y z
#
# Youngs Moduli (GPa) = 89.52916 76.18625 66.45387
#
# Poissons Ratio (x) = 0.33764 0.15793
# Poissons Ratio (y) = 0.39678 0.05411
# Poissons Ratio (z) = 0.21278 0.06203
#
# Static dielectric constant tensor:
#      x y z
#    x 1.796720 0.000000 -0.040570 
#    y 0.000000 1.770640 0.000000 
#    z -0.040570 0.000000 1.774860 
# 
# From -- ./inp_files/32639.got.cif
#   From: 2010.05.17/outbox.cif.g08.bks.cpg/sg5_17_cif.got.tgz:32639.got - 2010.06.03 18:56:24.
