data_PCOD9130771
_publ_section_title
;
Structure prediction by ZEFSAII (Michael W. Deem and Ramdas Pophale) SiO2 
 PCOD9130771
Probable space group: P M
;
_chemical_formula_sum "Si O2"
_cell_formula_units_Z 16
_cell_length_a 11.811153
_cell_length_b 8.867143
_cell_length_c 12.402645
_cell_angle_alpha 90.000000
_cell_angle_beta 132.483082
_cell_angle_gamma 90.000000
_cell_volume 957.940814
_symmetry_space_group_name_H-M "P M"
_symmetry_group_IT_number 6
_symmetry_cell_setting 'monoclinic'
loop_
_space_group_symop_operation_xyz
x,y,z
x,-y,z
loop_
_atom_site_type_symbol
_atom_site_label
_atom_site_fract_x
_atom_site_fract_y
_atom_site_fract_z
Si Si1 0.426140 0.679885 0.733700
Si Si2 0.097690 0.677142 0.608789
Si Si3 0.591927 0.672936 0.511668
Si Si4 0.313878 0.820420 0.437484
Si Si5 0.000541 0.679655 0.299441
Si Si6 0.749553 0.820758 0.996855
Si Si7 0.850162 0.672749 0.846710
Si Si8 0.895919 0.821792 0.661089
O O1 0.433516 0.500000 0.715092
O O2 0.280336 0.702954 0.718486
O O3 0.383931 0.769437 0.597778
O O4 0.584975 0.739715 0.883098
O O5 0.071349 0.500000 0.615332
O O6 0.033646 0.707012 0.447183
O O7 0.011060 0.773947 0.641843
O O8 0.571214 0.500000 0.464554
O O9 0.432439 0.757682 0.424905
O O10 0.678244 0.670128 0.684158
O O11 0.724154 0.756088 0.528083
O O12 0.146688 0.744586 0.328381
O O13 0.302405 0.000000 0.424363
O O14 0.990508 0.500000 0.276697
O O15 0.848587 0.760893 0.160243
O O16 0.841802 0.769433 0.948714
O O17 0.731549 0.000000 0.986965
O O18 0.895358 0.500000 0.896937
O O19 0.941038 0.745849 0.805023
O O20 0.886581 0.000000 0.668145
#
# Coordination Sequence:
#
# PCOD9130771 Si02
#       8
#     2   2   2   2   2   2   2   2
#     4  10  19  32  51  72  99 136 175 209 249 304
#     4   9  19  35  53  74  99 134 176 212 246 300
#     4   9  17  29  48  72  99 131 166 203 245 298
#     4  11  19  30  49  77 106 129 166 216 261 297
#     4  10  22  37  53  72 104 144 175 204 251 314
#     4  12  22  33  51  79 109 134 168 214 264 306
#     4   9  18  31  50  73 100 133 169 205 246 301
#     4  10  18  29  49  77 104 129 165 215 262 296
#
# _framework density 16.702494000000002
#
# number of rings (size 3 to 8) (size 9 to 14) (size 15 to 20)
#    0.750    1.250    1.250    5.250    0.000    3.000 
#    0.000    0.000    0.000    1.500    0.000    5.250 
#    0.000    0.000    0.000    0.000    0.000    0.000 
#
# Total GULP energy -89142.701041 kJ/mol
# GULP energy per Si atom -5571.418815 kJ/mol
# Density = 1.666448 g / cm^3
# Si number density = 16.702494 Si / 1000 Ang^3
#
#
#
# Elastic Constant Matrix: (Units=GPa)
#
#
# Indices 1 2 3 4 5 6 
#
# 1 82.8765 42.2172 13.8676 0.0000 1.3745 0.0000
# 2 42.2172 107.8205 16.0653 0.0000 -3.0384 0.0000
# 3 13.8676 16.0653 47.1114 0.0000 12.5950 0.0000
# 4 0.0000 0.0000 0.0000 18.5872 0.0000 -9.5525
# 5 1.3745 -3.0384 12.5950 0.0000 16.4039 0.0000
# 6 0.0000 0.0000 0.0000 -9.5525 0.0000 -4.7110
#
#
#
# Elastic Compliance Matrix: (Units=1/GPa)
#
#
# Indices 1 2 3 4 5 6 
#
# 1 0.015372 -0.005662 -0.002478 0.000000 -0.000434 0.000000
# 2 -0.005662 0.012267 -0.004090 0.000000 0.005887 0.000000
# 3 -0.002478 -0.004090 0.029567 0.000000 -0.023251 0.000000
# 4 0.000000 0.000000 0.000000 0.026346 0.000000 -0.053421
# 5 -0.000434 0.005887 -0.023251 0.000000 0.079940 0.000000
# 6 0.000000 0.000000 0.000000 -0.053421 0.000000 -0.103946
#
#
# Mechanical properties :
#
#
# Convention : Reuss Voigt Hill
#
# Bulk Modulus (GPa) = 30.53906 42.45651 36.49779
# Shear Modulus (GPa) = 52.67501 17.09989 34.88745
#
# Velocity S-wave (km/s) = 5.62189 3.20315 4.57525
# Velocity P-wave (km/s) = 7.77591 6.25737 7.05760
#
# Compressibility (1/GPa) = 0.03274495
#
# Stress axis : x y z
#
# Youngs Moduli (GPa) = 65.05239 81.51947 33.82185
#
# Poissons Ratio (x) = 0.46156 0.08381
# Poissons Ratio (y) = 0.36833 0.13834
# Poissons Ratio (z) = 0.16121 0.33345
#
# Static dielectric constant tensor:
#      x y z
#    x 1.571370 0.000000 0.007420 
#    y 0.000000 1.554130 0.000000 
#    z 0.007420 0.000000 1.556980 
# 
# From -- ./inp_files/5056.got.cif
#   From: 2010.05.17/outbox.cif.g08.bks.cpg/sg6_3_cif.got.tgz:5056.got - 2010.06.03 19:42:10.
