data_PCOD9130091
_publ_section_title
;
Structure prediction by ZEFSAII (Michael W. Deem and Ramdas Pophale) SiO2 
 PCOD9130091
Probable space group: C 2
;
_chemical_formula_sum "Si O2"
_cell_formula_units_Z 28
_cell_length_a 5.279103
_cell_length_b 13.365013
_cell_length_c 15.940985
_cell_angle_alpha 90.000000
_cell_angle_beta 107.391915
_cell_angle_gamma 90.000000
_cell_volume 1073.301265
_symmetry_space_group_name_H-M "C 2"
_symmetry_group_IT_number 5
_symmetry_cell_setting 'monoclinic'
loop_
_space_group_symop_operation_xyz
x,y,z
-x,y,-z
1/2+x,1/2+y,z
1/2-x,1/2+y,-z
loop_
_atom_site_type_symbol
_atom_site_label
_atom_site_fract_x
_atom_site_fract_y
_atom_site_fract_z
Si Si1 0.661764 0.095410 0.695102
Si Si2 0.802728 0.396130 0.907854
Si Si3 0.151516 0.883166 0.256078
Si Si4 0.091919 0.109711 0.592607
Si Si5 0.790236 0.829860 0.555042
Si Si6 0.787332 0.125791 0.054201
Si Si7 0.540842 0.766657 0.213796
O O1 0.356504 0.064762 0.658655
O O2 0.840308 0.113209 0.629399
O O3 0.694495 0.202607 0.743894
O O4 0.795118 0.000513 0.752656
O O5 0.523887 0.353564 0.844132
O O6 0.755154 0.509921 0.926804
O O7 0.952651 0.369801 0.837343
O O8 0.000000 0.354528 0.000000
O O9 0.078320 0.879259 0.348373
O O10 0.394434 0.804986 0.280695
O O11 0.214987 0.214906 0.571026
O O12 0.000000 0.053328 0.500000
O O13 0.500000 0.875516 0.500000
O O14 0.000000 0.828067 0.500000
O O15 0.882199 0.187283 0.143109
O O16 0.500000 0.166541 0.000000
O O17 0.000000 0.130941 0.000000
#
# Coordination Sequence:
#
# PCOD9130091 Si02
#       7
#     4   4   4   4   4   4   4
#     4  12  27  47  77 115 156 211 267 328 406 481
#     4  11  28  49  81 116 163 216 273 335 404 485
#     4  12  29  48  80 119 164 215 277 337 405 494
#     4  11  24  48  78 109 155 206 266 332 405 486
#     4  11  25  47  78 113 156 208 266 333 405 480
#     4  11  28  53  80 118 162 211 275 338 402 488
#     4  12  28  50  81 115 164 221 263 346 402 487
#
# _framework density 26.087737000000001
#
# number of rings (size 3 to 8) (size 9 to 14) (size 15 to 20)
#    0.000    0.571    2.857    3.429   12.000    1.714 
#    0.000    0.000    0.000    0.000    0.000    0.000 
#    0.000    0.000    0.000    0.000    0.000    0.000 
#
# Total GULP energy -78141.208805 kJ/mol
# GULP energy per Si atom -5581.514915 kJ/mol
# Density = 2.602836 g / cm^3
# Si number density = 26.087737 Si / 1000 Ang^3
#
#
#
# Elastic Constant Matrix: (Units=GPa)
#
#
# Indices 1 2 3 4 5 6 
#
# 1 121.4074 29.8099 34.6306 0.0000 -3.2030 0.0000
# 2 29.8099 104.4498 24.9328 0.0000 -19.6649 0.0000
# 3 34.6306 24.9328 111.2574 0.0000 21.6220 0.0000
# 4 0.0000 0.0000 0.0000 34.7384 0.0000 -8.9214
# 5 -3.2030 -19.6649 21.6220 0.0000 50.5780 0.0000
# 6 0.0000 0.0000 0.0000 -8.9214 0.0000 -14.1931
#
#
#
# Elastic Compliance Matrix: (Units=1/GPa)
#
#
# Indices 1 2 3 4 5 6 
#
# 1 0.009504 -0.001859 -0.002747 0.000000 0.001053 0.000000
# 2 -0.001859 0.012004 -0.003267 0.000000 0.005946 0.000000
# 3 -0.002747 -0.003267 0.011840 0.000000 -0.006506 0.000000
# 4 0.000000 0.000000 0.000000 0.024785 0.000000 -0.015580
# 5 0.001053 0.005946 -0.006506 0.000000 0.024931 0.000000
# 6 0.000000 0.000000 0.000000 -0.015580 0.000000 -0.060664
#
#
# Mechanical properties :
#
#
# Convention : Reuss Voigt Hill
#
# Bulk Modulus (GPa) = 56.80819 57.31792 57.06305
# Shear Modulus (GPa) = 113.60392 30.74075 72.17233
#
# Velocity S-wave (km/s) = 6.60616 3.43645 5.26548
# Velocity P-wave (km/s) = 8.94492 6.14528 7.67386
#
# Compressibility (1/GPa) = 0.01760310
#
# Stress axis : x y z
#
# Youngs Moduli (GPa) = 105.21540 83.30723 84.46269
#
# Poissons Ratio (x) = 0.15483 0.23198
# Poissons Ratio (y) = 0.19555 0.27595
# Poissons Ratio (z) = 0.28898 0.27217
#
# Static dielectric constant tensor:
#      x y z
#    x 2.348630 0.000000 0.022790 
#    y 0.000000 2.019710 0.000000 
#    z 0.022790 0.000000 1.905570 
# 
# From -- ./inp_files/58919.got.cif
#   From: 2010.05.17/outbox.cif.g08.bks.cpg/sg5_30_cif.got.tgz:58919.got - 2010.06.03 18:56:24.
