data_PCOD9130886
_publ_section_title
;
Structure prediction by ZEFSAII (Michael W. Deem and Ramdas Pophale) SiO2 
 PCOD9130886
Probable space group: P M
;
_chemical_formula_sum "Si O2"
_cell_formula_units_Z 14
_cell_length_a 12.630046
_cell_length_b 15.368958
_cell_length_c 10.050978
_cell_angle_alpha 90.000000
_cell_angle_beta 23.048802
_cell_angle_gamma 90.000000
_cell_volume 763.846547
_symmetry_space_group_name_H-M "P M"
_symmetry_group_IT_number 6
_symmetry_cell_setting 'monoclinic'
loop_
_space_group_symop_operation_xyz
x,y,z
x,-y,z
loop_
_atom_site_type_symbol
_atom_site_label
_atom_site_fract_x
_atom_site_fract_y
_atom_site_fract_z
Si Si1 0.207560 0.596374 0.622840
Si Si2 0.950108 0.826466 0.256138
Si Si3 0.130016 0.602343 0.405230
Si Si4 0.508033 0.901981 0.584069
Si Si5 0.715005 0.331692 0.672663
Si Si6 0.697591 0.595123 0.410157
Si Si7 0.386482 0.732698 0.602953
O O1 0.340956 0.500000 0.472555
O O2 0.103010 0.611090 0.595167
O O3 0.391870 0.674441 0.465261
O O4 0.954298 0.594082 0.015811
O O5 0.736516 0.886285 0.428901
O O6 0.812747 0.765576 0.524251
O O7 0.216765 0.880114 0.987072
O O8 0.081877 0.761268 0.993330
O O9 0.180806 0.500000 0.318814
O O10 0.874240 0.632754 0.615842
O O11 0.394769 0.657183 0.059692
O O12 0.536906 0.825620 0.439585
O O13 0.512406 0.000000 0.527733
O O14 0.782099 0.388590 0.464045
O O15 0.563172 0.500000 0.554710
O O16 0.499445 0.671273 0.589855
#
# Coordination Sequence:
#
# PCOD9130886 Si02
#       7
#     2   2   2   2   2   2   2
#     4  10  22  37  54  81 121 167 201 239 280 336
#     4  10  20  35  57  85 118 139 190 235 295 344
#     4  11  25  38  53  80 121 163 206 238 282 335
#     4  10  19  34  58  91 121 142 177 246 310 347
#     4  12  21  40  56  82 116 156 195 249 284 341
#     4  11  20  33  57  81 114 160 202 245 285 331
#     4  10  19  35  56  86 119 143 196 240 285 346
#
# _framework density 18.328289000000002
#
# number of rings (size 3 to 8) (size 9 to 14) (size 15 to 20)
#    0.857    0.571    2.857    3.857    2.000    0.000 
#    0.000    0.000    0.000    0.000    0.000    6.000 
#    0.000    0.000    0.000    0.000    0.000    0.000 
#
# Total GULP energy -78040.895683 kJ/mol
# GULP energy per Si atom -5574.349692 kJ/mol
# Density = 1.828657 g / cm^3
# Si number density = 18.328289 Si / 1000 Ang^3
#
#
#
# Elastic Constant Matrix: (Units=GPa)
#
#
# Indices 1 2 3 4 5 6 
#
# 1 75.2370 35.1264 -5.1150 0.0000 1.7535 0.0000
# 2 35.1264 131.8582 -1.4349 0.0000 -2.8393 0.0000
# 3 -5.1150 -1.4349 18.2791 0.0000 -2.6830 0.0000
# 4 0.0000 0.0000 0.0000 11.5141 0.0000 -2.2803
# 5 1.7535 -2.8393 -2.6830 0.0000 34.5853 0.0000
# 6 0.0000 0.0000 0.0000 -2.2803 0.0000 21.3963
#
#
#
# Elastic Compliance Matrix: (Units=1/GPa)
#
#
# Indices 1 2 3 4 5 6 
#
# 1 0.015490 -0.004102 0.003892 0.000000 -0.000820 0.000000
# 2 -0.004102 0.008692 -0.000334 0.000000 0.000896 0.000000
# 3 0.003892 -0.000334 0.056379 0.000000 0.004149 0.000000
# 4 0.000000 0.000000 0.000000 0.088722 0.000000 0.009456
# 5 -0.000820 0.000896 0.004149 0.000000 0.029351 0.000000
# 6 0.000000 0.000000 0.000000 0.009456 0.000000 0.047745
#
#
# Mechanical properties :
#
#
# Convention : Reuss Voigt Hill
#
# Bulk Modulus (GPa) = 12.58265 31.39190 21.98728
# Shear Modulus (GPa) = 18.25093 26.61900 22.43497
#
# Velocity S-wave (km/s) = 3.15902 3.81510 3.50246
# Velocity P-wave (km/s) = 4.49288 6.04743 5.32716
#
# Compressibility (1/GPa) = 0.07947453
#
# Stress axis : x y z
#
# Youngs Moduli (GPa) = 64.55744 115.04501 17.73699
#
# Poissons Ratio (x) = 0.47189 -0.06904
# Poissons Ratio (y) = 0.26480 0.00592
# Poissons Ratio (z) = -0.25127 0.03842
#
# Static dielectric constant tensor:
#      x y z
#    x 1.630590 0.000000 -0.023970 
#    y 0.000000 1.662650 0.000000 
#    z -0.023970 0.000000 1.654980 
# 
# From -- ./inp_files/4041.got.cif
#   From: 2010.05.17/outbox.cif.g08.bks.cpg/sg6_3_cif.got.tgz:4041.got - 2010.06.03 19:42:10.
