data_PCOD9130975
_publ_section_title
;
Structure prediction by ZEFSAII (Michael W. Deem and Ramdas Pophale) SiO2 
 PCOD9130975
Probable space group: P M
;
_chemical_formula_sum "Si O2"
_cell_formula_units_Z 14
_cell_length_a 19.136492
_cell_length_b 8.422974
_cell_length_c 5.876247
_cell_angle_alpha 90.000000
_cell_angle_beta 37.883675
_cell_angle_gamma 90.000000
_cell_volume 581.619399
_symmetry_space_group_name_H-M "P M"
_symmetry_group_IT_number 6
_symmetry_cell_setting 'monoclinic'
loop_
_space_group_symop_operation_xyz
x,y,z
x,-y,z
loop_
_atom_site_type_symbol
_atom_site_label
_atom_site_fract_x
_atom_site_fract_y
_atom_site_fract_z
Si Si1 0.546870 0.827635 0.221360
Si Si2 0.869756 0.174256 0.029796
Si Si3 0.317171 0.186629 0.085534
Si Si4 0.071982 0.500000 0.164501
Si Si5 0.942437 0.500000 0.006185
Si Si6 0.708224 0.326161 0.090473
Si Si7 0.130337 0.179097 0.198708
Si Si8 0.481595 0.328866 0.975625
O O1 0.424856 0.785930 0.641636
O O2 0.658593 0.724756 0.976507
O O3 0.517561 0.817636 0.035132
O O4 0.575595 0.000000 0.239080
O O5 0.788391 0.210115 0.024432
O O6 0.841312 0.000000 0.204662
O O7 0.873051 0.334093 0.173214
O O8 0.998899 0.163415 0.606754
O O9 0.315018 0.000000 0.153087
O O10 0.204475 0.219763 0.232187
O O11 0.359192 0.294706 0.183317
O O12 0.135649 0.329705 0.017617
O O13 0.007567 0.500000 0.585794
O O14 0.009483 0.500000 0.076771
O O15 0.762106 0.500000 0.950075
O O16 0.586120 0.336333 0.531821
O O17 0.167286 0.000000 0.025497
O O18 0.479949 0.500000 0.102547
#
# Coordination Sequence:
#
# PCOD9130975 Si02
#       8
#     2   2   2   1   1   2   2   2
#     4  10  20  36  58  85 116 156 205 253 310 373
#     4  10  20  39  65  91 124 167 212 261 323 387
#     4   9  19  38  60  82 118 157 198 254 307 367
#     4  10  22  42  68  91 130 173 220 262 329 378
#     4  10  22  44  64  95 128 173 216 274 315 388
#     4  10  20  38  60  83 121 158 202 259 310 369
#     4   9  20  40  63  92 126 165 211 263 320 388
#     4  10  21  36  56  86 117 156 202 254 313 370
#
# _framework density 24.070726000000001
#
# number of rings (size 3 to 8) (size 9 to 14) (size 15 to 20)
#    0.000    2.286    0.714    1.286    1.000    2.857 
#   10.286    0.000    0.000    0.000    0.000    0.000 
#    0.000    0.000    0.000    0.000    0.000    0.000 
#
# Total GULP energy -77998.186218 kJ/mol
# GULP energy per Si atom -5571.299016 kJ/mol
# Density = 2.401594 g / cm^3
# Si number density = 24.070726 Si / 1000 Ang^3
#
#
#
# Elastic Constant Matrix: (Units=GPa)
#
#
# Indices 1 2 3 4 5 6 
#
# 1 159.3720 71.0931 23.7406 0.0000 -27.1278 0.0000
# 2 71.0931 141.2507 3.7606 0.0000 -13.8532 0.0000
# 3 23.7406 3.7606 81.3904 0.0000 -16.1468 0.0000
# 4 0.0000 0.0000 0.0000 4.5249 0.0000 -9.6983
# 5 -27.1278 -13.8532 -16.1468 0.0000 30.4257 0.0000
# 6 0.0000 0.0000 0.0000 -9.6983 0.0000 41.3032
#
#
#
# Elastic Compliance Matrix: (Units=1/GPa)
#
#
# Indices 1 2 3 4 5 6 
#
# 1 0.009261 -0.004068 -0.001389 0.000000 0.005668 0.000000
# 2 -0.004068 0.009207 0.000976 0.000000 0.001083 0.000000
# 3 -0.001389 0.000976 0.013959 0.000000 0.006614 0.000000
# 4 0.000000 0.000000 0.000000 0.444907 0.000000 0.104468
# 5 0.005668 0.001083 0.006614 0.000000 0.041923 0.000000
# 6 0.000000 0.000000 0.000000 0.104468 0.000000 0.048741
#
#
# Mechanical properties :
#
#
# Convention : Reuss Voigt Hill
#
# Bulk Modulus (GPa) = 42.61713 64.35574 53.48644
# Shear Modulus (GPa) = 8.55019 34.14535 21.34777
#
# Velocity S-wave (km/s) = 1.88675 3.77044 2.98128
# Velocity P-wave (km/s) = 4.74234 6.76381 5.84119
#
# Compressibility (1/GPa) = 0.02346474
#
# Stress axis : x y z
#
# Youngs Moduli (GPa) = 107.97830 108.60719 71.64043
#
# Poissons Ratio (x) = 0.44185 0.09951
# Poissons Ratio (y) = 0.43930 -0.06993
# Poissons Ratio (z) = 0.14998 -0.10601
#
# Static dielectric constant tensor:
#      x y z
#    x 1.975540 0.000000 0.099720 
#    y 0.000000 1.980090 0.000000 
#    z 0.099720 0.000000 1.966700 
# 
# From -- ./inp_files/1482.got.cif
#   From: 2010.05.17/outbox.cif.g08.bks.cpg/sg6_1_cif.got.tgz:1482.got - 2010.06.03 19:42:10.
