data_PCOD9130553
_publ_section_title
;
Structure prediction by ZEFSAII (Michael W. Deem and Ramdas Pophale) SiO2 
 PCOD9130553
Probable space group: C 2
;
_chemical_formula_sum "Si O2"
_cell_formula_units_Z 24
_cell_length_a 22.115812
_cell_length_b 8.472647
_cell_length_c 10.629730
_cell_angle_alpha 90.000000
_cell_angle_beta 148.830206
_cell_angle_gamma 90.000000
_cell_volume 1030.904322
_symmetry_space_group_name_H-M "C 2"
_symmetry_group_IT_number 5
_symmetry_cell_setting 'monoclinic'
loop_
_space_group_symop_operation_xyz
x,y,z
-x,y,-z
1/2+x,1/2+y,z
1/2-x,1/2+y,-z
loop_
_atom_site_type_symbol
_atom_site_label
_atom_site_fract_x
_atom_site_fract_y
_atom_site_fract_z
Si Si1 0.227200 0.579440 0.625900
Si Si2 0.788974 0.520252 0.905324
Si Si3 0.379989 0.309384 0.222357
Si Si4 0.467843 0.888015 0.588173
Si Si5 0.817526 0.925358 0.542169
Si Si6 0.032367 0.069264 0.818655
O O1 0.144476 0.491100 0.577540
O O2 0.175937 0.741055 0.479953
O O3 0.254268 0.460563 0.560035
O O4 0.348420 0.626604 0.906829
O O5 0.702061 0.400857 0.824412
O O6 0.748114 0.516055 0.688719
O O7 0.801248 0.682433 0.006946
O O8 0.921745 0.460935 0.143813
O O9 0.500000 0.242876 0.500000
O O10 0.430037 0.436786 0.213789
O O11 0.500000 0.886612 0.500000
O O12 0.463324 0.708389 0.626267
O O13 0.947131 0.994825 0.769204
#
# Coordination Sequence:
#
# PCOD9130553 Si02
#       6
#     4   4   4   4   4   4
#     4  12  29  54  74 111 156 199 259 314 379 457
#     4  12  27  46  76 114 151 200 252 314 382 452
#     4  12  26  46  75 112 160 195 253 312 380 454
#     4  12  27  48  81 113 153 199 246 315 389 449
#     4  12  28  52  78 109 151 204 256 315 381 455
#     4  12  26  49  77 112 149 199 254 313 376 453
#
# _framework density 23.280529999999999
#
# number of rings (size 3 to 8) (size 9 to 14) (size 15 to 20)
#    0.000    0.000    3.333    5.500    9.333    0.667 
#    3.000    0.000    0.000    0.000    0.000    0.000 
#    0.000    0.000    0.000    0.000    0.000    0.000 
#
# Total GULP energy -67274.740088 kJ/mol
# GULP energy per Si atom -5606.228341 kJ/mol
# Density = 2.322754 g / cm^3
# Si number density = 23.280530 Si / 1000 Ang^3
#
#
#
# Elastic Constant Matrix: (Units=GPa)
#
#
# Indices 1 2 3 4 5 6 
#
# 1 120.1701 37.5994 18.0229 0.0000 4.8272 0.0000
# 2 37.5994 128.2973 14.9650 0.0000 5.5394 0.0000
# 3 18.0229 14.9650 79.1648 0.0000 13.1227 0.0000
# 4 0.0000 0.0000 0.0000 26.0919 0.0000 7.4863
# 5 4.8272 5.5394 13.1227 0.0000 40.3649 0.0000
# 6 0.0000 0.0000 0.0000 7.4863 0.0000 37.8374
#
#
#
# Elastic Compliance Matrix: (Units=1/GPa)
#
#
# Indices 1 2 3 4 5 6 
#
# 1 0.009370 -0.002547 -0.001611 0.000000 -0.000247 0.000000
# 2 -0.002547 0.008678 -0.000966 0.000000 -0.000572 0.000000
# 3 -0.001611 -0.000966 0.013875 0.000000 -0.004186 0.000000
# 4 0.000000 0.000000 0.000000 0.040633 0.000000 -0.008039
# 5 -0.000247 -0.000572 -0.004186 0.000000 0.026243 0.000000
# 6 0.000000 0.000000 0.000000 -0.008039 0.000000 0.028019
#
#
# Mechanical properties :
#
#
# Convention : Reuss Voigt Hill
#
# Bulk Modulus (GPa) = 46.13455 52.08965 49.11210
# Shear Modulus (GPa) = 34.65209 37.99516 36.32362
#
# Velocity S-wave (km/s) = 3.86224 4.04426 3.95429
# Velocity P-wave (km/s) = 6.30468 6.65067 6.47998
#
# Compressibility (1/GPa) = 0.02167573
#
# Stress axis : x y z
#
# Youngs Moduli (GPa) = 106.72230 115.22955 72.07237
#
# Poissons Ratio (x) = 0.29355 0.11608
# Poissons Ratio (y) = 0.27187 0.06960
# Poissons Ratio (z) = 0.17189 0.11127
#
# Static dielectric constant tensor:
#      x y z
#    x 1.848510 0.000000 -0.016800 
#    y 0.000000 1.912930 0.000000 
#    z -0.016800 0.000000 1.882080 
# 
# From -- ./inp_files/47356.got.cif
#   From: 2010.05.17/outbox.cif.g08.bks.cpg/sg5_24_cif.got.tgz:47356.got - 2010.06.03 18:56:24.
