data_PCOD9130440
_publ_section_title
;
Structure prediction by ZEFSAII (Michael W. Deem and Ramdas Pophale) SiO2 
 PCOD9130440
Probable space group: C 2
;
_chemical_formula_sum "Si O2"
_cell_formula_units_Z 24
_cell_length_a 8.998867
_cell_length_b 4.841168
_cell_length_c 23.757801
_cell_angle_alpha 90.000000
_cell_angle_beta 98.047350
_cell_angle_gamma 90.000000
_cell_volume 1024.817211
_symmetry_space_group_name_H-M "C 2"
_symmetry_group_IT_number 5
_symmetry_cell_setting 'monoclinic'
loop_
_space_group_symop_operation_xyz
x,y,z
-x,y,-z
1/2+x,1/2+y,z
1/2-x,1/2+y,-z
loop_
_atom_site_type_symbol
_atom_site_label
_atom_site_fract_x
_atom_site_fract_y
_atom_site_fract_z
Si Si1 0.828482 0.333110 0.479338
Si Si2 0.689587 0.136188 0.640973
Si Si3 0.968286 0.132904 0.316464
Si Si4 0.670265 0.616373 0.021748
Si Si5 0.282027 0.371276 0.852097
Si Si6 0.410392 0.371177 0.191709
O O1 0.772480 0.560379 0.521591
O O2 0.816312 0.489786 0.419655
O O3 0.000000 0.255032 0.500000
O O4 0.859750 0.212800 0.664538
O O5 0.631648 0.903179 0.680887
O O6 0.584685 0.403379 0.641151
O O7 0.944377 0.993761 0.254795
O O8 0.685403 0.491795 0.084669
O O9 0.500000 0.701189 0.000000
O O10 0.778088 0.875529 0.017831
O O11 0.435759 0.284017 0.830168
O O12 0.202908 0.615935 0.813158
O O13 0.168902 0.115507 0.847346
#
# Coordination Sequence:
#
# PCOD9130440 Si02
#       6
#     4   4   4   4   4   4
#     4  12  24  43  67  96 129 169 214 264 318 378
#     4  12  25  43  66  96 130 169 213 264 318 378
#     4  12  24  43  65  94 129 169 212 262 318 378
#     4  12  25  44  67  96 129 168 211 262 318 378
#     4  12  25  44  67  96 129 168 213 262 316 378
#     4  12  25  43  66  94 128 169 213 262 316 378
#
# _framework density 23.418807999999999
#
# number of rings (size 3 to 8) (size 9 to 14) (size 15 to 20)
#    0.000    0.000    0.000   12.000    0.000    0.000 
#    0.000    0.000    0.000    0.000    0.000    0.000 
#    0.000    0.000    0.000    0.000    0.000    0.000 
#
# Total GULP energy -67355.958622 kJ/mol
# GULP energy per Si atom -5612.996552 kJ/mol
# Density = 2.336551 g / cm^3
# Si number density = 23.418808 Si / 1000 Ang^3
#
#
#
# Elastic Constant Matrix: (Units=GPa)
#
#
# Indices 1 2 3 4 5 6 
#
# 1 101.6728 -5.4761 8.5742 0.0000 -5.5317 0.0000
# 2 -5.4761 72.4230 -23.9476 0.0000 -9.5343 0.0000
# 3 8.5742 -23.9476 79.7501 0.0000 2.4417 0.0000
# 4 0.0000 0.0000 0.0000 28.0921 0.0000 7.1742
# 5 -5.5317 -9.5343 2.4417 0.0000 26.6421 0.0000
# 6 0.0000 0.0000 0.0000 7.1742 0.0000 -34.2882
#
#
#
# Elastic Compliance Matrix: (Units=1/GPa)
#
#
# Indices 1 2 3 4 5 6 
#
# 1 0.010089 0.000781 -0.000926 0.000000 0.002459 0.000000
# 2 0.000781 0.016108 0.004584 0.000000 0.005506 0.000000
# 3 -0.000926 0.004584 0.014010 0.000000 0.000164 0.000000
# 4 0.000000 0.000000 0.000000 0.033792 0.000000 0.007070
# 5 0.002459 0.005506 0.000164 0.000000 0.040001 0.000000
# 6 0.000000 0.000000 0.000000 0.007070 0.000000 -0.027685
#
#
# Mechanical properties :
#
#
# Convention : Reuss Voigt Hill
#
# Bulk Modulus (GPa) = 20.37259 23.57187 21.97223
# Shear Modulus (GPa) = 53.30633 22.40223 37.85428
#
# Velocity S-wave (km/s) = 4.77615 3.09624 4.02482
# Velocity P-wave (km/s) = 6.25569 4.78220 5.56790
#
# Compressibility (1/GPa) = 0.04908555
#
# Stress axis : x y z
#
# Youngs Moduli (GPa) = 99.11433 62.08273 71.37625
#
# Poissons Ratio (x) = -0.04846 0.06607
# Poissons Ratio (y) = -0.07736 -0.32721
# Poissons Ratio (z) = 0.09175 -0.28461
#
# Static dielectric constant tensor:
#      x y z
#    x 1.796860 0.000000 -0.024700 
#    y 0.000000 1.832450 0.000000 
#    z -0.024700 0.000000 1.894280 
# 
# From -- ./inp_files/67845.got.cif
#   From: 2010.05.17/outbox.cif.g08.bks.cpg/sg5_34_cif.got.tgz:67845.got - 2010.06.03 18:56:24.
