data_PCOD9130544
_publ_section_title
;
Structure prediction by ZEFSAII (Michael W. Deem and Ramdas Pophale) SiO2 
 PCOD9130544
Probable space group: C 2
;
_chemical_formula_sum "Si O2"
_cell_formula_units_Z 32
_cell_length_a 11.846604
_cell_length_b 9.010363
_cell_length_c 14.677273
_cell_angle_alpha 90.000000
_cell_angle_beta 70.652951
_cell_angle_gamma 90.000000
_cell_volume 1478.212565
_symmetry_space_group_name_H-M "C 2"
_symmetry_group_IT_number 5
_symmetry_cell_setting 'monoclinic'
loop_
_space_group_symop_operation_xyz
x,y,z
-x,y,-z
1/2+x,1/2+y,z
1/2-x,1/2+y,-z
loop_
_atom_site_type_symbol
_atom_site_label
_atom_site_fract_x
_atom_site_fract_y
_atom_site_fract_z
Si Si1 0.151911 0.770650 0.091675
Si Si2 0.206647 0.704251 0.598059
Si Si3 0.695913 0.611083 0.102419
Si Si4 0.579744 0.913807 0.391786
Si Si5 0.586663 0.104706 0.813985
Si Si6 0.529244 0.783943 0.757859
Si Si7 0.634459 0.424796 0.461372
Si Si8 0.206819 0.707920 0.286825
O O1 0.189035 0.732555 0.185023
O O2 0.020042 0.701286 0.115026
O O3 0.157992 0.947234 0.081723
O O4 0.243774 0.697517 0.997074
O O5 0.313706 0.804835 0.608052
O O6 0.119392 0.667844 0.705232
O O7 0.267721 0.551941 0.547936
O O8 0.145650 0.795467 0.533441
O O9 0.796204 0.605145 0.154655
O O10 0.580970 0.694092 0.172495
O O11 0.500000 0.949970 0.500000
O O12 0.500259 0.833079 0.336805
O O13 0.635902 0.062739 0.336027
O O14 0.546423 0.935221 0.810440
O O15 0.652707 0.694414 0.728697
O O16 0.500000 0.486778 0.500000
O O17 0.661349 0.349380 0.356856
#
# Coordination Sequence:
#
# PCOD9130544 Si02
#       8
#     4   4   4   4   4   4   4   4
#     4  12  27  49  79 109 148 194 250 309 378 447
#     4  12  26  46  72 106 150 195 253 305 377 438
#     4  12  28  51  77 112 147 197 250 313 378 446
#     4  12  27  47  74 109 151 200 253 309 372 449
#     4  12  25  52  73 107 151 193 244 315 372 445
#     4  12  26  49  78 104 157 195 242 311 377 447
#     4  12  26  46  70 107 149 199 249 307 368 446
#     4  12  26  46  74 109 149 195 248 303 378 441
#
# _framework density 21.647766000000001
#
# number of rings (size 3 to 8) (size 9 to 14) (size 15 to 20)
#    0.000    0.000    5.000    4.125    3.500    1.500 
#    2.250    0.000    0.000    0.000    0.000    0.000 
#    0.000    0.000    0.000    0.000    0.000    0.000 
#
# Total GULP energy -89756.328345 kJ/mol
# GULP energy per Si atom -5609.770522 kJ/mol
# Density = 2.159850 g / cm^3
# Si number density = 21.647766 Si / 1000 Ang^3
#
#
#
# Elastic Constant Matrix: (Units=GPa)
#
#
# Indices 1 2 3 4 5 6 
#
# 1 90.7394 16.6159 17.1782 0.0000 -17.0722 0.0000
# 2 16.6159 96.4423 51.0001 0.0000 0.3405 0.0000
# 3 17.1782 51.0001 98.1216 0.0000 -10.5423 0.0000
# 4 0.0000 0.0000 0.0000 37.5373 0.0000 -6.0555
# 5 -17.0722 0.3405 -10.5423 0.0000 27.6990 0.0000
# 6 0.0000 0.0000 0.0000 -6.0555 0.0000 30.7072
#
#
#
# Elastic Compliance Matrix: (Units=1/GPa)
#
#
# Indices 1 2 3 4 5 6 
#
# 1 0.012947 -0.002079 -0.000340 0.000000 0.007876 0.000000
# 2 -0.002079 0.014898 -0.007858 0.000000 -0.004455 0.000000
# 3 -0.000340 -0.007858 0.014934 0.000000 0.005571 0.000000
# 4 0.000000 0.000000 0.000000 0.027516 0.000000 0.005426
# 5 0.007876 -0.004455 0.005571 0.000000 0.043132 0.000000
# 6 0.000000 0.000000 0.000000 0.005426 0.000000 0.033636
#
#
# Mechanical properties :
#
#
# Convention : Reuss Voigt Hill
#
# Bulk Modulus (GPa) = 44.99318 50.54352 47.76835
# Shear Modulus (GPa) = 28.56720 32.55598 30.56159
#
# Velocity S-wave (km/s) = 3.63662 3.88222 3.76142
# Velocity P-wave (km/s) = 6.20183 6.59502 6.40145
#
# Compressibility (1/GPa) = 0.02222559
#
# Stress axis : x y z
#
# Youngs Moduli (GPa) = 77.23517 67.12130 66.96110
#
# Poissons Ratio (x) = 0.13952 0.02277
# Poissons Ratio (y) = 0.16055 0.52621
# Poissons Ratio (z) = 0.02627 0.52747
#
# Static dielectric constant tensor:
#      x y z
#    x 1.773880 0.000000 0.009070 
#    y 0.000000 1.763820 0.000000 
#    z 0.009070 0.000000 1.749020 
# 
# From -- ./inp_files/52427.got.cif
#   From: 2010.05.17/outbox.cif.g08.bks.cpg/sg5_27_cif.got.tgz:52427.got - 2010.06.03 18:56:24.
