data_PCOD9130038
_publ_section_title
;
Structure prediction by ZEFSAII (Michael W. Deem and Ramdas Pophale) SiO2 
 PCOD9130038
Probable space group: C 2
;
_chemical_formula_sum "Si O2"
_cell_formula_units_Z 20
_cell_length_a 19.623124
_cell_length_b 5.239822
_cell_length_c 7.896736
_cell_angle_alpha 90.000000
_cell_angle_beta 112.826370
_cell_angle_gamma 90.000000
_cell_volume 748.367090
_symmetry_space_group_name_H-M "C 2"
_symmetry_group_IT_number 5
_symmetry_cell_setting 'monoclinic'
loop_
_space_group_symop_operation_xyz
x,y,z
-x,y,-z
1/2+x,1/2+y,z
1/2-x,1/2+y,-z
loop_
_atom_site_type_symbol
_atom_site_label
_atom_site_fract_x
_atom_site_fract_y
_atom_site_fract_z
Si Si1 0.867918 0.832520 0.682967
Si Si2 0.159881 0.961742 0.896111
Si Si3 0.772231 0.274830 0.293947
Si Si4 0.418617 0.097660 0.407119
Si Si5 0.912344 0.328013 0.923142
O O1 0.779614 0.788488 0.593399
O O2 0.914407 0.794751 0.559393
O O3 0.891339 0.609284 0.838302
O O4 0.882351 0.114523 0.764747
O O5 0.205821 0.006059 0.767669
O O6 0.099861 0.750859 0.783208
O O7 0.119475 0.215266 0.930005
O O8 0.220797 0.891999 0.094800
O O9 0.849849 0.415843 0.382423
O O10 0.500000 0.978370 0.500000
O O11 0.000000 0.311562 0.000000
#
# Coordination Sequence:
#
# PCOD9130038 Si02
#       5
#     4   4   4   4   4
#     4  11  28  46  75 116 155 206 260 328 390 469
#     4  11  24  45  77 107 148 212 260 315 378 489
#     4  11  25  45  78 102 150 206 263 307 382 484
#     4  12  29  47  76 118 163 196 261 337 403 446
#     4  11  25  47  78 108 160 205 266 314 396 467
#
# _framework density 26.724851999999998
#
# number of rings (size 3 to 8) (size 9 to 14) (size 15 to 20)
#    0.000    0.800    2.000    3.000   14.000    0.800 
#    0.000    0.000    0.000    0.000    0.000    0.000 
#    0.000    0.000    0.000    0.000    0.000    0.000 
#
# Total GULP energy -56003.910900 kJ/mol
# GULP energy per Si atom -5600.391090 kJ/mol
# Density = 2.666403 g / cm^3
# Si number density = 26.724852 Si / 1000 Ang^3
#
#
#
# Elastic Constant Matrix: (Units=GPa)
#
#
# Indices 1 2 3 4 5 6 
#
# 1 151.7962 15.9737 53.4537 0.0000 38.1085 0.0000
# 2 15.9737 79.1585 39.3331 0.0000 11.1343 0.0000
# 3 53.4537 39.3331 84.5599 0.0000 11.9816 0.0000
# 4 0.0000 0.0000 0.0000 50.8180 0.0000 3.2701
# 5 38.1085 11.1343 11.9816 0.0000 60.8313 0.0000
# 6 0.0000 0.0000 0.0000 3.2701 0.0000 43.9475
#
#
#
# Elastic Compliance Matrix: (Units=1/GPa)
#
#
# Indices 1 2 3 4 5 6 
#
# 1 0.010005 0.001950 -0.006474 0.000000 -0.005350 0.000000
# 2 0.001950 0.016953 -0.008750 0.000000 -0.002601 0.000000
# 3 -0.006474 -0.008750 0.019738 0.000000 0.001770 0.000000
# 4 0.000000 0.000000 0.000000 0.019773 0.000000 -0.001471
# 5 -0.005350 -0.002601 0.001770 0.000000 0.019918 0.000000
# 6 0.000000 0.000000 0.000000 -0.001471 0.000000 0.022864
#
#
# Mechanical properties :
#
#
# Convention : Reuss Voigt Hill
#
# Bulk Modulus (GPa) = 49.63063 59.22617 54.42840
# Shear Modulus (GPa) = 35.08426 44.90297 39.99361
#
# Velocity S-wave (km/s) = 3.62718 4.10347 3.87265
# Velocity P-wave (km/s) = 6.01275 6.68287 6.35665
#
# Compressibility (1/GPa) = 0.02014885
#
# Stress axis : x y z
#
# Youngs Moduli (GPa) = 99.94650 58.98663 50.66455
#
# Poissons Ratio (x) = -0.11504 0.32800
# Poissons Ratio (y) = -0.19493 0.44331
# Poissons Ratio (z) = 0.64705 0.51613
#
# Static dielectric constant tensor:
#      x y z
#    x 2.078560 0.000000 -0.074980 
#    y 0.000000 2.162530 0.000000 
#    z -0.074980 0.000000 2.206350 
# 
# From -- ./inp_files/28255.got.cif
#   From: 2010.05.17/outbox.cif.g08.bks.cpg/sg5_15_cif.got.tgz:28255.got - 2010.06.03 18:56:24.
