data_PCOD9130018
_publ_section_title
;
Structure prediction by ZEFSAII (Michael W. Deem and Ramdas Pophale) SiO2 
 PCOD9130018
Probable space group: C 2
;
_chemical_formula_sum "Si O2"
_cell_formula_units_Z 28
_cell_length_a 19.069141
_cell_length_b 10.506962
_cell_length_c 8.151829
_cell_angle_alpha 90.000000
_cell_angle_beta 51.624825
_cell_angle_gamma 90.000000
_cell_volume 1280.438279
_symmetry_space_group_name_H-M "C 2"
_symmetry_group_IT_number 5
_symmetry_cell_setting 'monoclinic'
loop_
_space_group_symop_operation_xyz
x,y,z
-x,y,-z
1/2+x,1/2+y,z
1/2-x,1/2+y,-z
loop_
_atom_site_type_symbol
_atom_site_label
_atom_site_fract_x
_atom_site_fract_y
_atom_site_fract_z
Si Si1 0.899432 0.977700 0.160262
Si Si2 0.500000 0.111302 0.500000
Si Si3 0.500000 0.633981 0.500000
Si Si4 0.174751 0.011419 0.095725
Si Si5 0.105237 0.237965 0.637720
Si Si6 0.174173 0.726596 0.096608
Si Si7 0.565771 0.020281 0.754682
Si Si8 0.687293 0.232289 0.701249
O O1 0.842713 0.867441 0.330277
O O2 0.905171 0.112882 0.238443
O O3 0.000000 0.926778 0.000000
O O4 0.856361 0.002564 0.046887
O O5 0.587322 0.193237 0.328529
O O6 0.523760 0.036174 0.633768
O O7 0.586380 0.550599 0.325543
O O8 0.532436 0.721111 0.601639
O O9 0.206961 0.868901 0.093420
O O10 0.250886 0.118025 0.996198
O O11 0.092576 0.373648 0.739961
O O12 0.206839 0.232324 0.427658
O O13 0.147536 0.726943 0.942887
O O14 0.649977 0.115365 0.650789
O O15 0.500000 0.054529 0.000000
#
# Coordination Sequence:
#
# PCOD9130018 Si02
#       8
#     4   2   2   4   4   4   4   4
#     4  11  24  45  71  99 143 191 239 292 366 446
#     4  12  28  48  74 112 144 204 246 302 376 448
#     4  12  24  46  72 104 146 188 244 308 362 456
#     4  11  26  46  73 106 144 192 244 307 367 443
#     4  12  26  45  70 107 141 192 241 301 374 432
#     4  11  26  47  73 107 149 191 250 304 373 438
#     4  12  27  49  74 107 147 191 246 309 367 438
#     4  11  25  47  71 105 145 191 241 304 363 446
#
# _framework density 21.867509999999999
#
# number of rings (size 3 to 8) (size 9 to 14) (size 15 to 20)
#    0.000    0.571    4.286    2.571    8.000    3.429 
#    0.000    0.000    0.000    0.000    0.000    0.000 
#    0.000    0.000    0.000    0.000    0.000    0.000 
#
# Total GULP energy -78292.399325 kJ/mol
# GULP energy per Si atom -5592.314237 kJ/mol
# Density = 2.181774 g / cm^3
# Si number density = 21.867510 Si / 1000 Ang^3
#
#
#
# Elastic Constant Matrix: (Units=GPa)
#
#
# Indices 1 2 3 4 5 6 
#
# 1 84.1542 66.7670 23.9111 0.0000 -2.1077 0.0000
# 2 66.7670 148.7676 24.6613 0.0000 -23.4688 0.0000
# 3 23.9111 24.6613 85.4115 0.0000 -19.6760 0.0000
# 4 0.0000 0.0000 0.0000 48.0189 0.0000 -15.4673
# 5 -2.1077 -23.4688 -19.6760 0.0000 35.7998 0.0000
# 6 0.0000 0.0000 0.0000 -15.4673 0.0000 41.1288
#
#
#
# Elastic Compliance Matrix: (Units=1/GPa)
#
#
# Indices 1 2 3 4 5 6 
#
# 1 0.020809 -0.009777 -0.004805 0.000000 -0.007825 0.000000
# 2 -0.009777 0.012197 0.001059 0.000000 0.008002 0.000000
# 3 -0.004805 0.001059 0.014704 0.000000 0.008493 0.000000
# 4 0.000000 0.000000 0.000000 0.023695 0.000000 0.008911
# 5 -0.007825 0.008002 0.008493 0.000000 0.037386 0.000000
# 6 0.000000 0.000000 0.000000 0.008911 0.000000 0.027665
#
#
# Mechanical properties :
#
#
# Convention : Reuss Voigt Hill
#
# Bulk Modulus (GPa) = 48.39589 61.00134 54.69862
# Shear Modulus (GPa) = 29.34417 38.52243 33.93330
#
# Velocity S-wave (km/s) = 3.66718 4.20173 3.94352
# Velocity P-wave (km/s) = 6.33328 7.17606 6.76780
#
# Compressibility (1/GPa) = 0.02066291
#
# Stress axis : x y z
#
# Youngs Moduli (GPa) = 48.05507 81.98910 68.00883
#
# Poissons Ratio (x) = 0.80163 0.32681
# Poissons Ratio (y) = 0.46985 -0.07202
# Poissons Ratio (z) = 0.23092 -0.08682
#
# Static dielectric constant tensor:
#      x y z
#    x 1.703380 0.000000 0.073420 
#    y 0.000000 1.810030 0.000000 
#    z 0.073420 0.000000 1.759090 
# 
# From -- ./inp_files/29131.got.cif
#   From: 2010.05.17/outbox.cif.g08.bks.cpg/sg5_15_cif.got.tgz:29131.got - 2010.06.03 18:56:24.
