data_PCOD9130821
_publ_section_title
;
Structure prediction by ZEFSAII (Michael W. Deem and Ramdas Pophale) SiO2 
 PCOD9130821
Probable space group: P M
;
_chemical_formula_sum "Si O2"
_cell_formula_units_Z 16
_cell_length_a 7.952306
_cell_length_b 17.593011
_cell_length_c 5.846407
_cell_angle_alpha 90.000000
_cell_angle_beta 58.178774
_cell_angle_gamma 90.000000
_cell_volume 695.002875
_symmetry_space_group_name_H-M "P M"
_symmetry_group_IT_number 6
_symmetry_cell_setting 'monoclinic'
loop_
_space_group_symop_operation_xyz
x,y,z
x,-y,z
loop_
_atom_site_type_symbol
_atom_site_label
_atom_site_fract_x
_atom_site_fract_y
_atom_site_fract_z
Si Si1 0.637040 0.088348 0.384350
Si Si2 0.621273 0.907285 0.896377
Si Si3 0.249506 0.311409 0.629166
Si Si4 0.984584 0.583871 0.072805
Si Si5 0.150885 0.909816 0.245270
Si Si6 0.337222 0.583017 0.182655
Si Si7 0.586516 0.411461 0.617953
Si Si8 0.184099 0.865320 0.722202
O O1 0.697164 0.120005 0.592052
O O2 0.395062 0.090267 0.565950
O O3 0.697456 0.000000 0.337885
O O4 0.691795 0.121682 0.095303
O O5 0.641732 0.000000 0.881772
O O6 0.385686 0.890241 0.069525
O O7 0.287528 0.340706 0.348599
O O8 0.237355 0.223268 0.678473
O O9 0.433866 0.351197 0.624894
O O10 0.047174 0.352330 0.851091
O O11 0.952999 0.500000 0.990613
O O12 0.173364 0.577821 0.103562
O O13 0.799169 0.603415 0.362379
O O14 0.082847 0.883585 0.548867
O O15 0.128644 0.000000 0.262661
O O16 0.081535 0.882932 0.041244
O O17 0.326957 0.500000 0.310946
O O18 0.552491 0.590913 0.913963
O O19 0.538989 0.500000 0.594870
#
# Coordination Sequence:
#
# PCOD9130821 Si02
#       8
#     2   2   2   2   2   2   2   2
#     4   8  12  21  33  52  82 122 160 200 246 308
#     4   7  10  16  29  45  68 103 149 191 231 278
#     4  11  21  31  52  83 122 144 184 248 307 352
#     4   9  19  36  56  77 107 153 201 239 284 349
#     4   9  16  29  45  68 103 149 191 231 278 348
#     4   9  18  33  53  77 108 148 192 246 291 345
#     4   9  19  36  56  77 107 153 201 239 284 349
#     4  10  19  26  46  73 112 150 176 234 306 345
#
# _framework density 23.021488000000002
#
# number of rings (size 3 to 8) (size 9 to 14) (size 15 to 20)
#    0.000    3.000    0.000    4.500    3.500    1.000 
#    0.000    2.500    0.000    0.000    0.000    0.000 
#    0.000   11.000    0.000    0.000    0.000    0.000 
#
# Total GULP energy -89158.179687 kJ/mol
# GULP energy per Si atom -5572.386230 kJ/mol
# Density = 2.296909 g / cm^3
# Si number density = 23.021488 Si / 1000 Ang^3
#
#
#
# Elastic Constant Matrix: (Units=GPa)
#
#
# Indices 1 2 3 4 5 6 
#
# 1 74.9775 8.7007 48.4053 0.0000 14.1073 0.0000
# 2 8.7007 71.1880 18.5476 0.0000 -9.1617 0.0000
# 3 48.4053 18.5476 185.9194 0.0000 14.5788 0.0000
# 4 0.0000 0.0000 0.0000 12.4738 0.0000 31.1807
# 5 14.1073 -9.1617 14.5788 0.0000 45.1051 0.0000
# 6 0.0000 0.0000 0.0000 31.1807 0.0000 -21.1443
#
#
#
# Elastic Compliance Matrix: (Units=1/GPa)
#
#
# Indices 1 2 3 4 5 6 
#
# 1 0.016849 -0.001605 -0.003886 0.000000 -0.004340 0.000000
# 2 -0.001605 0.015129 -0.001407 0.000000 0.004030 0.000000
# 3 -0.003886 -0.001407 0.006626 0.000000 -0.001212 0.000000
# 4 0.000000 0.000000 0.000000 0.017107 0.000000 0.025227
# 5 -0.004340 0.004030 -0.001212 0.000000 0.024738 0.000000
# 6 0.000000 0.000000 0.000000 0.025227 0.000000 -0.010092
#
#
# Mechanical properties :
#
#
# Convention : Reuss Voigt Hill
#
# Bulk Modulus (GPa) = 40.31277 53.71023 47.01150
# Shear Modulus (GPa) = 54.09875 24.38236 39.24056
#
# Velocity S-wave (km/s) = 4.85286 3.25793 4.13306
# Velocity P-wave (km/s) = 6.99638 6.12644 6.57581
#
# Compressibility (1/GPa) = 0.02480604
#
# Stress axis : x y z
#
# Youngs Moduli (GPa) = 59.35007 66.09897 150.92185
#
# Poissons Ratio (x) = 0.10611 0.58654
# Poissons Ratio (y) = 0.09527 0.21240
# Poissons Ratio (z) = 0.23066 0.09302
#
# Static dielectric constant tensor:
#      x y z
#    x 1.932450 0.000000 0.041010 
#    y 0.000000 1.802290 0.000000 
#    z 0.041010 0.000000 1.989150 
# 
# From -- ./inp_files/1359.got.cif
#   From: 2010.05.17/outbox.cif.g08.bks.cpg/sg6_1_cif.got.tgz:1359.got - 2010.06.03 19:42:10.
