data_PCOD9130255
_publ_section_title
;
Structure prediction by ZEFSAII (Michael W. Deem and Ramdas Pophale) SiO2 
 PCOD9130255
Probable space group: C 2
;
_chemical_formula_sum "Si O2"
_cell_formula_units_Z 26
_cell_length_a 13.751909
_cell_length_b 7.968858
_cell_length_c 14.343706
_cell_angle_alpha 90.000000
_cell_angle_beta 42.172168
_cell_angle_gamma 90.000000
_cell_volume 1055.300976
_symmetry_space_group_name_H-M "C 2"
_symmetry_group_IT_number 5
_symmetry_cell_setting 'monoclinic'
loop_
_space_group_symop_operation_xyz
x,y,z
-x,y,-z
1/2+x,1/2+y,z
1/2-x,1/2+y,-z
loop_
_atom_site_type_symbol
_atom_site_label
_atom_site_fract_x
_atom_site_fract_y
_atom_site_fract_z
Si Si1 0.000000 0.833030 0.500000
Si Si2 0.679776 0.396815 0.683243
Si Si3 0.863822 0.086343 0.475854
Si Si4 0.667090 0.088027 0.251454
Si Si5 0.908911 0.271528 0.780214
Si Si6 0.920418 0.699080 0.957207
Si Si7 0.599332 0.802123 0.019071
O O1 0.069445 0.721704 0.371784
O O2 0.127573 0.940422 0.455435
O O3 0.779278 0.240682 0.580126
O O4 0.686377 0.518983 0.588806
O O5 0.740965 0.487868 0.733600
O O6 0.523759 0.307874 0.815928
O O7 0.030200 0.143243 0.337754
O O8 0.763563 0.190191 0.108298
O O9 0.559875 0.955894 0.279098
O O10 0.737673 0.276784 0.918516
O O11 0.971211 0.228849 0.837317
O O12 0.887654 0.500215 0.965927
O O13 0.000000 0.707424 0.000000
O O14 0.500000 0.791367 0.000000
#
# Coordination Sequence:
#
# PCOD9130255 Si02
#       7
#     2   4   4   4   4   4   4
#     4  12  28  46  74 108 150 200 258 308 378 456
#     4  12  28  50  76 110 154 204 253 316 380 450
#     4  12  29  48  77 108 155 202 257 313 379 454
#     4  12  26  47  76 108 151 197 253 310 381 450
#     4  12  26  47  78 111 150 197 257 309 383 458
#     4  11  26  47  73 108 152 194 250 318 381 444
#     4  11  27  43  76 107 151 190 250 309 383 445
#
# _framework density 24.637519999999999
#
# number of rings (size 3 to 8) (size 9 to 14) (size 15 to 20)
#    0.000    0.308    1.538    5.538   17.231    0.000 
#    0.000    0.000    0.000    0.000    0.000    0.000 
#    0.000    0.000    0.000    0.000    0.000    0.000 
#
# Total GULP energy -72777.813876 kJ/mol
# GULP energy per Si atom -5598.293375 kJ/mol
# Density = 2.458144 g / cm^3
# Si number density = 24.637520 Si / 1000 Ang^3
#
#
#
# Elastic Constant Matrix: (Units=GPa)
#
#
# Indices 1 2 3 4 5 6 
#
# 1 72.8671 18.1385 16.0252 0.0000 18.8785 0.0000
# 2 18.1385 92.3471 39.1060 0.0000 6.2467 0.0000
# 3 16.0252 39.1060 93.7705 0.0000 0.4310 0.0000
# 4 0.0000 0.0000 0.0000 57.3698 0.0000 5.0804
# 5 18.8785 6.2467 0.4310 0.0000 37.6965 0.0000
# 6 0.0000 0.0000 0.0000 5.0804 0.0000 42.4049
#
#
#
# Elastic Compliance Matrix: (Units=1/GPa)
#
#
# Indices 1 2 3 4 5 6 
#
# 1 0.016722 -0.001878 -0.002038 0.000000 -0.008040 0.000000
# 2 -0.001878 0.013533 -0.005317 0.000000 -0.001241 0.000000
# 3 -0.002038 -0.005317 0.013222 0.000000 0.001750 0.000000
# 4 0.000000 0.000000 0.000000 0.017618 0.000000 -0.002111
# 5 -0.008040 -0.001241 0.001750 0.000000 0.030740 0.000000
# 6 0.000000 0.000000 0.000000 -0.002111 0.000000 0.023835
#
#
# Mechanical properties :
#
#
# Convention : Reuss Voigt Hill
#
# Bulk Modulus (GPa) = 39.98089 45.05822 42.51956
# Shear Modulus (GPa) = 35.09441 39.87525 37.48483
#
# Velocity S-wave (km/s) = 3.77826 4.02739 3.90481
# Velocity P-wave (km/s) = 5.94109 6.32097 6.13397
#
# Compressibility (1/GPa) = 0.02501195
#
# Stress axis : x y z
#
# Youngs Moduli (GPa) = 59.80074 73.89234 75.63123
#
# Poissons Ratio (x) = 0.13875 0.15412
# Poissons Ratio (y) = 0.11229 0.40215
# Poissons Ratio (z) = 0.12186 0.39291
#
# Static dielectric constant tensor:
#      x y z
#    x 2.005830 0.000000 -0.017400 
#    y 0.000000 1.973200 0.000000 
#    z -0.017400 0.000000 1.953570 
# 
# From -- ./inp_files/54296.got.cif
#   From: 2010.05.17/outbox.cif.g08.bks.cpg/sg5_28_cif.got.tgz:54296.got - 2010.06.03 18:56:24.
