data_PCOD9130032
_publ_section_title
;
Structure prediction by ZEFSAII (Michael W. Deem and Ramdas Pophale) SiO2 
 PCOD9130032
Probable space group: C 2
;
_chemical_formula_sum "Si O2"
_cell_formula_units_Z 24
_cell_length_a 14.289977
_cell_length_b 5.233954
_cell_length_c 14.472204
_cell_angle_alpha 90.000000
_cell_angle_beta 107.027145
_cell_angle_gamma 90.000000
_cell_volume 1034.974056
_symmetry_space_group_name_H-M "C 2"
_symmetry_group_IT_number 5
_symmetry_cell_setting 'monoclinic'
loop_
_space_group_symop_operation_xyz
x,y,z
-x,y,-z
1/2+x,1/2+y,z
1/2-x,1/2+y,-z
loop_
_atom_site_type_symbol
_atom_site_label
_atom_site_fract_x
_atom_site_fract_y
_atom_site_fract_z
Si Si1 0.236604 0.344770 0.766304
Si Si2 0.617027 0.878221 0.393713
Si Si3 0.000000 0.725790 0.500000
Si Si4 0.000000 0.443532 0.000000
Si Si5 0.836588 0.070435 0.423805
Si Si6 0.191718 0.531473 0.953501
Si Si7 0.870800 0.334371 0.799468
O O1 0.171778 0.287392 0.656775
O O2 0.184696 0.424412 0.846796
O O3 0.304372 0.587143 0.765161
O O4 0.304652 0.089406 0.798682
O O5 0.561470 0.064314 0.445483
O O6 0.727765 0.966599 0.404829
O O7 0.628887 0.634468 0.462297
O O8 0.570982 0.863974 0.279738
O O9 0.920563 0.880459 0.417491
O O10 0.086643 0.587100 0.969953
O O11 0.942748 0.288894 0.905214
O O12 0.254758 0.792840 0.978512
#
# Coordination Sequence:
#
# PCOD9130032 Si02
#       7
#     4   4   2   2   4   4   4
#     4  11  24  49  75 107 150 197 241 307 379 432
#     4  11  24  47  71 105 153 190 247 306 372 439
#     4  12  26  44  74 112 142 204 246 298 372 454
#     4  12  26  48  78 110 144 196 250 304 370 430
#     4  11  24  45  76 103 151 192 245 307 369 442
#     4  12  25  48  72 106 148 190 241 307 365 437
#     4  11  26  46  78 107 147 198 248 308 368 437
#
# _framework density 23.188988999999999
#
# number of rings (size 3 to 8) (size 9 to 14) (size 15 to 20)
#    0.000    0.667    5.000    1.500    4.667    5.333 
#    3.000    0.000    0.000    0.000    0.000    0.000 
#    0.000    0.000    0.000    0.000    0.000    0.000 
#
# Total GULP energy -67053.795762 kJ/mol
# GULP energy per Si atom -5587.816314 kJ/mol
# Density = 2.313621 g / cm^3
# Si number density = 23.188989 Si / 1000 Ang^3
#
#
#
# Elastic Constant Matrix: (Units=GPa)
#
#
# Indices 1 2 3 4 5 6 
#
# 1 123.8420 35.1308 26.4542 0.0000 -5.0985 0.0000
# 2 35.1308 103.3380 15.4662 0.0000 2.9367 0.0000
# 3 26.4542 15.4662 147.4462 0.0000 -8.8013 0.0000
# 4 0.0000 0.0000 0.0000 51.1280 0.0000 -36.0812
# 5 -5.0985 2.9367 -8.8013 0.0000 20.3603 0.0000
# 6 0.0000 0.0000 0.0000 -36.0812 0.0000 37.6188
#
#
#
# Elastic Compliance Matrix: (Units=1/GPa)
#
#
# Indices 1 2 3 4 5 6 
#
# 1 0.009289 -0.003040 -0.001214 0.000000 0.002240 0.000000
# 2 -0.003040 0.010899 -0.000757 0.000000 -0.002660 0.000000
# 3 -0.001214 -0.000757 0.007255 0.000000 0.002941 0.000000
# 4 0.000000 0.000000 0.000000 0.060527 0.000000 0.058053
# 5 0.002240 -0.002660 0.002941 0.000000 0.051331 0.000000
# 6 0.000000 0.000000 0.000000 0.058053 0.000000 0.082263
#
#
# Mechanical properties :
#
#
# Convention : Reuss Voigt Hill
#
# Bulk Modulus (GPa) = 57.39889 58.74761 58.07325
# Shear Modulus (GPa) = 21.06223 41.65975 31.36099
#
# Velocity S-wave (km/s) = 3.01705 4.24315 3.68150
# Velocity P-wave (km/s) = 6.07809 7.02816 6.57032
#
# Compressibility (1/GPa) = 0.01742194
#
# Stress axis : x y z
#
# Youngs Moduli (GPa) = 107.65855 91.74967 137.83813
#
# Poissons Ratio (x) = 0.27889 0.16733
# Poissons Ratio (y) = 0.32725 0.10430
# Poissons Ratio (z) = 0.13070 0.06943
#
# Static dielectric constant tensor:
#      x y z
#    x 1.593120 0.000000 -0.092170 
#    y 0.000000 1.881230 0.000000 
#    z -0.092170 0.000000 1.912030 
# 
# From -- ./inp_files/53705.got.cif
#   From: 2010.05.17/outbox.cif.g08.bks.cpg/sg5_27_cif.got.tgz:53705.got - 2010.06.03 18:56:24.
