data_PCOD9130387
_publ_section_title
;
Structure prediction by ZEFSAII (Michael W. Deem and Ramdas Pophale) SiO2 
 PCOD9130387
Probable space group: C 2
;
_chemical_formula_sum "Si O2"
_cell_formula_units_Z 28
_cell_length_a 21.840680
_cell_length_b 8.728627
_cell_length_c 8.427373
_cell_angle_alpha 90.000000
_cell_angle_beta 54.779313
_cell_angle_gamma 90.000000
_cell_volume 1312.480093
_symmetry_space_group_name_H-M "C 2"
_symmetry_group_IT_number 5
_symmetry_cell_setting 'monoclinic'
loop_
_space_group_symop_operation_xyz
x,y,z
-x,y,-z
1/2+x,1/2+y,z
1/2-x,1/2+y,-z
loop_
_atom_site_type_symbol
_atom_site_label
_atom_site_fract_x
_atom_site_fract_y
_atom_site_fract_z
Si Si1 0.609004 0.891580 0.999509
Si Si2 0.500000 0.414890 0.500000
Si Si3 0.413284 0.887786 0.620182
Si Si4 0.757607 0.865884 0.591853
Si Si5 0.502136 0.603694 0.822134
Si Si6 0.332806 0.695353 0.519843
Si Si7 0.907901 0.694324 0.437648
Si Si8 0.000000 0.626430 0.000000
O O1 0.609857 0.954207 0.176728
O O2 0.556649 0.742128 0.081836
O O3 0.568584 0.017607 0.951809
O O4 0.690926 0.848890 0.817380
O O5 0.486739 0.510850 0.682036
O O6 0.433264 0.302521 0.545257
O O7 0.500000 0.837296 0.500000
O O8 0.357721 0.751031 0.656107
O O9 0.410502 0.019852 0.492281
O O10 0.717236 0.825545 0.486987
O O11 0.826077 0.748967 0.509563
O O12 0.790607 0.035458 0.562917
O O13 0.585968 0.672224 0.682182
O O14 0.500000 0.525343 0.000000
O O15 0.966492 0.711329 0.204343
#
# Coordination Sequence:
#
# PCOD9130387 Si02
#       8
#     4   2   4   4   4   4   4   2
#     4  12  23  43  75 106 142 201 253 300 381 459
#     4  12  26  46  72 114 154 194 258 316 364 438
#     4  12  23  44  75 104 142 197 249 313 366 449
#     4  12  27  45  69 108 153 189 245 318 391 445
#     4  12  23  44  77 107 142 200 256 300 360 459
#     4  12  24  46  71 103 148 195 244 310 375 446
#     4  12  26  47  74 112 153 193 251 322 376 448
#     4  12  22  46  78 104 142 210 264 290 376 466
#
# _framework density 21.333656999999999
#
# number of rings (size 3 to 8) (size 9 to 14) (size 15 to 20)
#    0.000    0.000    7.143    3.429    1.000    1.143 
#    0.000    1.429    0.000    0.000    0.000    0.000 
#    0.000    0.000    0.000    0.000    0.000    0.000 
#
# Total GULP energy -78261.177850 kJ/mol
# GULP energy per Si atom -5590.084132 kJ/mol
# Density = 2.128510 g / cm^3
# Si number density = 21.333657 Si / 1000 Ang^3
#
#
#
# Elastic Constant Matrix: (Units=GPa)
#
#
# Indices 1 2 3 4 5 6 
#
# 1 148.0194 56.4937 41.4548 0.0000 -1.9924 0.0000
# 2 56.4937 102.0603 29.0071 0.0000 -2.1857 0.0000
# 3 41.4548 29.0071 95.4343 0.0000 -2.1101 0.0000
# 4 0.0000 0.0000 0.0000 19.7073 0.0000 7.9146
# 5 -1.9924 -2.1857 -2.1101 0.0000 48.9333 0.0000
# 6 0.0000 0.0000 0.0000 7.9146 0.0000 39.0687
#
#
#
# Elastic Compliance Matrix: (Units=1/GPa)
#
#
# Indices 1 2 3 4 5 6 
#
# 1 0.009145 -0.004304 -0.002663 0.000000 0.000065 0.000000
# 2 -0.004304 0.012756 -0.002001 0.000000 0.000308 0.000000
# 3 -0.002663 -0.002001 0.012251 0.000000 0.000330 0.000000
# 4 0.000000 0.000000 0.000000 0.055236 0.000000 -0.011190
# 5 0.000065 0.000308 0.000330 0.000000 0.020467 0.000000
# 6 0.000000 0.000000 0.000000 -0.011190 0.000000 0.027863
#
#
# Mechanical properties :
#
#
# Convention : Reuss Voigt Hill
#
# Bulk Modulus (GPa) = 61.66596 66.60278 64.13437
# Shear Modulus (GPa) = 31.04477 36.11244 33.57861
#
# Velocity S-wave (km/s) = 3.81885 4.11876 3.97164
# Velocity P-wave (km/s) = 6.95795 7.34209 7.15260
#
# Compressibility (1/GPa) = 0.01621640
#
# Stress axis : x y z
#
# Youngs Moduli (GPa) = 109.34727 78.39612 81.62905
#
# Poissons Ratio (x) = 0.33741 0.21737
# Poissons Ratio (y) = 0.47062 0.16332
# Poissons Ratio (z) = 0.29118 0.15685
#
# Static dielectric constant tensor:
#      x y z
#    x 1.798850 0.000000 0.041010 
#    y 0.000000 1.809930 0.000000 
#    z 0.041010 0.000000 1.779330 
# 
# From -- ./inp_files/29120.got.cif
#   From: 2010.05.17/outbox.cif.g08.bks.cpg/sg5_15_cif.got.tgz:29120.got - 2010.06.03 18:56:24.
