data_PCOD9130934
_publ_section_title
;
Structure prediction by ZEFSAII (Michael W. Deem and Ramdas Pophale) SiO2 
 PCOD9130934
Probable space group: P M
;
_chemical_formula_sum "Si O2"
_cell_formula_units_Z 16
_cell_length_a 16.537316
_cell_length_b 8.196254
_cell_length_c 20.970802
_cell_angle_alpha 90.000000
_cell_angle_beta 161.985902
_cell_angle_gamma 90.000000
_cell_volume 879.035844
_symmetry_space_group_name_H-M "P M"
_symmetry_group_IT_number 6
_symmetry_cell_setting 'monoclinic'
loop_
_space_group_symop_operation_xyz
x,y,z
x,-y,z
loop_
_atom_site_type_symbol
_atom_site_label
_atom_site_fract_x
_atom_site_fract_y
_atom_site_fract_z
Si Si1 0.928830 0.803437 0.176790
Si Si2 0.525535 0.194431 0.624252
Si Si3 0.522146 0.199206 0.977711
Si Si4 0.517314 0.694616 0.476848
Si Si5 0.924126 0.800757 0.529267
Si Si6 0.916664 0.803161 0.668489
Si Si7 0.513852 0.800761 0.116568
Si Si8 0.921323 0.694587 0.029897
O O1 0.842468 0.758839 0.040552
O O2 0.227123 0.743030 0.409672
O O3 0.935378 0.000000 0.185888
O O4 0.729679 0.742807 0.081305
O O5 0.603790 0.241273 0.610980
O O6 0.518376 0.000000 0.623315
O O7 0.724263 0.256318 0.826489
O O8 0.223044 0.248575 0.739452
O O9 0.525527 0.000000 0.979303
O O10 0.582515 0.248647 0.095742
O O11 0.510021 0.500000 0.474828
O O12 0.711654 0.744720 0.566651
O O13 0.219430 0.754799 0.241684
O O14 0.856003 0.750252 0.550420
O O15 0.718882 0.743232 0.322860
O O16 0.921268 0.000000 0.526543
O O17 0.915157 0.000000 0.667713
O O18 0.215201 0.750587 0.906404
O O19 0.516370 0.000000 0.119148
O O20 0.929150 0.500000 0.038938
#
# Coordination Sequence:
#
# PCOD9130934 Si02
#       8
#     2   2   2   2   2   2   2   2
#     4   9  18  32  51  77 103 128 164 207 247 287
#     4  10  20  34  53  76 101 128 162 207 250 290
#     4   8  14  25  43  69  98 124 155 196 240 286
#     4  10  21  36  52  71  98 132 167 203 246 297
#     4   8  14  25  43  68  98 127 154 193 243 288
#     4   9  17  29  46  70  96 123 161 203 241 286
#     4   8  14  25  42  68  99 126 154 194 244 288
#     4  10  21  36  52  71  99 134 167 201 245 298
#
# _framework density 18.201761999999999
#
# number of rings (size 3 to 8) (size 9 to 14) (size 15 to 20)
#    0.000    3.000    0.000    2.625    0.000    4.000 
#    0.000    5.000    0.000    3.000    0.000    0.000 
#    0.000    0.000    0.000    0.000    0.000    0.000 
#
# Total GULP energy -89191.879310 kJ/mol
# GULP energy per Si atom -5574.492457 kJ/mol
# Density = 1.816033 g / cm^3
# Si number density = 18.201762 Si / 1000 Ang^3
#
#
#
# Elastic Constant Matrix: (Units=GPa)
#
#
# Indices 1 2 3 4 5 6 
#
# 1 179.8204 12.2741 107.4518 0.0000 6.6789 0.0000
# 2 12.2741 11.1882 10.4066 0.0000 0.6364 0.0000
# 3 107.4518 10.4066 146.3818 0.0000 -28.3771 0.0000
# 4 0.0000 0.0000 0.0000 15.2774 0.0000 -3.9261
# 5 6.6789 0.6364 -28.3771 0.0000 24.8888 0.0000
# 6 0.0000 0.0000 0.0000 -3.9261 0.0000 -20.4612
#
#
#
# Elastic Compliance Matrix: (Units=1/GPa)
#
#
# Indices 1 2 3 4 5 6 
#
# 1 0.016171 -0.001394 -0.016183 0.000000 -0.022755 0.000000
# 2 -0.001394 0.099276 -0.008285 0.000000 -0.011611 0.000000
# 3 -0.016183 -0.008285 0.025909 0.000000 0.034095 0.000000
# 4 0.000000 0.000000 0.000000 0.062380 0.000000 -0.011970
# 5 -0.022755 -0.011611 0.034095 0.000000 0.085455 0.000000
# 6 0.000000 0.000000 0.000000 -0.011970 0.000000 -0.046576
#
#
# Mechanical properties :
#
#
# Convention : Reuss Voigt Hill
#
# Bulk Modulus (GPa) = 11.15671 66.40615 38.78143
# Shear Modulus (GPa) = 15.42179 17.75819 16.58999
#
# Velocity S-wave (km/s) = 2.91395 3.12690 3.02230
# Velocity P-wave (km/s) = 4.17902 7.04267 5.79066
#
# Compressibility (1/GPa) = 0.08963212
#
# Stress axis : x y z
#
# Youngs Moduli (GPa) = 61.83752 10.07293 38.59685
#
# Poissons Ratio (x) = 0.01405 0.62460
# Poissons Ratio (y) = 0.08623 0.31977
# Poissons Ratio (z) = 1.00070 0.08345
#
# Static dielectric constant tensor:
#      x y z
#    x 1.604770 0.000000 0.009390 
#    y 0.000000 1.629470 0.000000 
#    z 0.009390 0.000000 1.624780 
# 
# From -- ./inp_files/5858.got.cif
#   From: 2010.05.17/outbox.cif.g08.bks.cpg/sg6_3_cif.got.tgz:5858.got - 2010.06.03 19:42:10.
