data_PCOD9130740
_publ_section_title
;
Structure prediction by ZEFSAII (Michael W. Deem and Ramdas Pophale) SiO2 
 PCOD9130740
Probable space group: C 2
;
_chemical_formula_sum "Si O2"
_cell_formula_units_Z 16
_cell_length_a 18.000000
_cell_length_b 15.000000
_cell_length_c 12.000000
_cell_angle_alpha 90.000000
_cell_angle_beta 150.000000
_cell_angle_gamma 90.000000
_cell_volume 1620.000000
_symmetry_space_group_name_H-M "C 2"
_symmetry_group_IT_number 5
_symmetry_cell_setting 'monoclinic'
loop_
_space_group_symop_operation_xyz
x,y,z
-x,y,-z
1/2+x,1/2+y,z
1/2-x,1/2+y,-z
loop_
_atom_site_type_symbol
_atom_site_label
_atom_site_fract_x
_atom_site_fract_y
_atom_site_fract_z
Si Si1 0.642309 0.382360 0.455543
Si Si2 0.114024 0.280770 0.860590
Si Si3 0.794707 0.360960 0.415400
Si Si4 0.821547 0.221835 0.271457
Si Si5 0.175243 0.225004 0.189006
Si Si6 0.827180 0.023029 0.314053
Si Si7 0.333434 0.043041 0.331047
Si Si8 0.700086 0.442310 0.957242
O O1 0.689800 0.381097 0.386336
O O2 0.720902 0.293061 0.605931
O O3 0.700733 0.462809 0.612888
O O4 0.463845 0.397014 0.241840
O O5 0.188848 0.206925 0.876044
O O6 0.938517 0.302654 0.641944
O O7 0.171572 0.264017 0.058665
O O8 0.179132 0.364944 0.878773
O O9 0.741442 0.297672 0.242179
O O10 0.837942 0.456570 0.418375
O O11 0.000000 0.242862 0.500000
O O12 0.788740 0.126140 0.283351
O O13 0.255644 0.128514 0.287369
O O14 0.000000 0.220019 0.000000
O O15 0.762741 0.981804 0.116959
O O16 0.000000 0.023458 0.500000
O O17 0.500000 0.061135 0.500000
O O18 0.229263 0.013022 0.092001
#
# Coordination Sequence:
#
# PCOD9130740 Si02
#       8
#     4   4   4   4   4   4   4   4
#     4  11  25  40  65  97 135 172 218 278 336 396
#     4  11  20  41  70  88 128 179 218 269 332 393
#     4  11  22  42  65  94 134 173 219 273 336 392
#     4   9  18  36  64  90 118 165 221 267 312 391
#     4  12  27  44  68 101 137 178 223 281 344 397
#     4   9  19  37  63  94 121 161 219 266 322 392
#     4  12  26  44  68 101 135 178 229 276 330 407
#     4  11  22  41  69  93 128 177 219 272 333 393
#
# _framework density 9.8765429999999999
#
# number of rings (size 3 to 8) (size 9 to 14) (size 15 to 20)
#    0.000    1.250    5.000    1.125    3.500    2.000 
#    0.000    0.000    0.000    1.500    0.000    0.000 
#    0.000    0.000    0.000    0.000    0.000    0.000 
#
# Total GULP energy -89079.188259 kJ/mol
# GULP energy per Si atom -5567.449266 kJ/mol
# Density = 0.985406 g / cm^3
# Si number density = 9.876543 Si / 1000 Ang^3
#
#
#
# Elastic Constant Matrix: (Units=GPa)
#
#
# Indices 1 2 3 4 5 6 
#
# 1 145.2867 46.4894 19.4692 0.0000 -6.8026 0.0000
# 2 46.4894 120.7963 14.8406 0.0000 7.9852 0.0000
# 3 19.4692 14.8406 56.4074 0.0000 2.7009 0.0000
# 4 0.0000 0.0000 0.0000 25.6065 0.0000 0.8624
# 5 -6.8026 7.9852 2.7009 0.0000 34.4882 0.0000
# 6 0.0000 0.0000 0.0000 0.8624 0.0000 32.5816
#
#
#
# Elastic Compliance Matrix: (Units=1/GPa)
#
#
# Indices 1 2 3 4 5 6 
#
# 1 0.008279 -0.003086 -0.002166 0.000000 0.002517 0.000000
# 2 -0.003086 0.009820 -0.001385 0.000000 -0.002774 0.000000
# 3 -0.002166 -0.001385 0.018916 0.000000 -0.001588 0.000000
# 4 0.000000 0.000000 0.000000 0.039088 0.000000 -0.001035
# 5 0.002517 -0.002774 -0.001588 0.000000 0.030259 0.000000
# 6 0.000000 0.000000 0.000000 -0.001035 0.000000 0.030720
#
#
# Mechanical properties :
#
#
# Convention : Reuss Voigt Hill
#
# Bulk Modulus (GPa) = 42.12446 53.78766 47.95606
# Shear Modulus (GPa) = 31.59181 34.64800 33.11991
#
# Velocity S-wave (km/s) = 4.00351 4.19269 4.09919
# Velocity P-wave (km/s) = 6.53778 7.12231 6.83630
#
# Compressibility (1/GPa) = 0.02373918
#
# Stress axis : x y z
#
# Youngs Moduli (GPa) = 120.79279 101.83508 52.86456
#
# Poissons Ratio (x) = 0.31430 0.11450
# Poissons Ratio (y) = 0.37281 0.07324
# Poissons Ratio (z) = 0.26163 0.14109
#
# Static dielectric constant tensor:
#      x y z
#    x 1.729100 0.000000 -0.114260 
#    y 0.000000 1.760070 0.000000 
#    z -0.114260 0.000000 1.845530 
# 
# From -- ./inp_files/45006.got.cif
#   From: 2010.05.17/outbox.ucp.g08.bks.cvg/sg5_23_cif.got.tgz:45006.got - 2010.06.11 12:53:14.
