data_PCOD9130551
_publ_section_title
;
Structure prediction by ZEFSAII (Michael W. Deem and Ramdas Pophale) SiO2 
 PCOD9130551
Probable space group: C 2
;
_chemical_formula_sum "Si O2"
_cell_formula_units_Z 20
_cell_length_a 20.330096
_cell_length_b 5.459951
_cell_length_c 7.576249
_cell_angle_alpha 90.000000
_cell_angle_beta 104.034903
_cell_angle_gamma 90.000000
_cell_volume 815.869100
_symmetry_space_group_name_H-M "C 2"
_symmetry_group_IT_number 5
_symmetry_cell_setting 'monoclinic'
loop_
_space_group_symop_operation_xyz
x,y,z
-x,y,-z
1/2+x,1/2+y,z
1/2-x,1/2+y,-z
loop_
_atom_site_type_symbol
_atom_site_label
_atom_site_fract_x
_atom_site_fract_y
_atom_site_fract_z
Si Si1 0.056203 0.380600 0.890760
Si Si2 0.007380 0.858266 0.707519
Si Si3 0.189957 0.166375 0.043680
Si Si4 0.851432 0.811684 0.689440
Si Si5 0.773859 0.995287 0.313858
O O1 0.051411 0.611134 0.757205
O O2 0.130677 0.366215 0.020215
O O3 0.038374 0.105557 0.811782
O O4 0.000000 0.430713 0.000000
O O5 0.000000 0.919094 0.500000
O O6 0.932020 0.789141 0.726674
O O7 0.161803 0.934574 0.129541
O O8 0.254608 0.244488 0.200781
O O9 0.203695 0.147455 0.844473
O O10 0.828481 0.975164 0.504352
O O11 0.795607 0.595900 0.644465
#
# Coordination Sequence:
#
# PCOD9130551 Si02
#       5
#     4   4   4   4   4
#     4  12  26  48  76 106 148 198 247 311 378 439
#     4  12  28  49  76 110 149 198 253 312 377 446
#     4  12  26  46  74 107 149 192 254 307 372 452
#     4  12  26  47  73 107 152 192 248 312 371 449
#     4  12  26  45  75 106 145 198 242 308 381 438
#
# _framework density 24.513736000000002
#
# number of rings (size 3 to 8) (size 9 to 14) (size 15 to 20)
#    0.000    0.000    6.000    3.600    2.800    3.200 
#    0.000    0.000    0.000    0.000    0.000    0.000 
#    0.000    0.000    0.000    0.000    0.000    0.000 
#
# Total GULP energy -55911.675457 kJ/mol
# GULP energy per Si atom -5591.167546 kJ/mol
# Density = 2.445794 g / cm^3
# Si number density = 24.513736 Si / 1000 Ang^3
#
#
#
# Elastic Constant Matrix: (Units=GPa)
#
#
# Indices 1 2 3 4 5 6 
#
# 1 77.5309 19.2626 16.4170 0.0000 4.2337 0.0000
# 2 19.2626 82.9203 38.0595 0.0000 24.6392 0.0000
# 3 16.4170 38.0595 123.9581 0.0000 8.1399 0.0000
# 4 0.0000 0.0000 0.0000 44.7000 0.0000 16.1499
# 5 4.2337 24.6392 8.1399 0.0000 45.4481 0.0000
# 6 0.0000 0.0000 0.0000 16.1499 0.0000 25.1697
#
#
#
# Elastic Compliance Matrix: (Units=1/GPa)
#
#
# Indices 1 2 3 4 5 6 
#
# 1 0.013798 -0.002897 -0.000968 0.000000 0.000459 0.000000
# 2 -0.002897 0.017186 -0.004350 0.000000 -0.008268 0.000000
# 3 -0.000968 -0.004350 0.009482 0.000000 0.000750 0.000000
# 4 0.000000 0.000000 0.000000 0.029123 0.000000 -0.018686
# 5 0.000459 -0.008268 0.000750 0.000000 0.026309 0.000000
# 6 0.000000 0.000000 0.000000 -0.018686 0.000000 0.051720
#
#
# Mechanical properties :
#
#
# Convention : Reuss Voigt Hill
#
# Bulk Modulus (GPa) = 41.60561 47.98751 44.79656
# Shear Modulus (GPa) = 29.05961 37.10824 33.08392
#
# Velocity S-wave (km/s) = 3.44676 3.89494 3.67769
# Velocity P-wave (km/s) = 5.73144 6.31235 6.02889
#
# Compressibility (1/GPa) = 0.02403522
#
# Stress axis : x y z
#
# Youngs Moduli (GPa) = 72.47510 58.18551 105.46505
#
# Poissons Ratio (x) = 0.16858 0.10208
# Poissons Ratio (y) = 0.20998 0.45879
# Poissons Ratio (z) = 0.07015 0.25312
#
# Static dielectric constant tensor:
#      x y z
#    x 1.997470 0.000000 0.008300 
#    y 0.000000 2.015720 0.000000 
#    z 0.008300 0.000000 1.911660 
# 
# From -- ./inp_files/28145.got.cif
#   From: 2010.05.17/outbox.cif.g08.bks.cpg/sg5_15_cif.got.tgz:28145.got - 2010.06.03 18:56:24.
