data_PCOD9130354
_publ_section_title
;
Structure prediction by ZEFSAII (Michael W. Deem and Ramdas Pophale) SiO2 
 PCOD9130354
Probable space group: C 2
;
_chemical_formula_sum "Si O2"
_cell_formula_units_Z 20
_cell_length_a 22.522989
_cell_length_b 4.987130
_cell_length_c 9.066343
_cell_angle_alpha 90.000000
_cell_angle_beta 52.937557
_cell_angle_gamma 90.000000
_cell_volume 812.644138
_symmetry_space_group_name_H-M "C 2"
_symmetry_group_IT_number 5
_symmetry_cell_setting 'monoclinic'
loop_
_space_group_symop_operation_xyz
x,y,z
-x,y,-z
1/2+x,1/2+y,z
1/2-x,1/2+y,-z
loop_
_atom_site_type_symbol
_atom_site_label
_atom_site_fract_x
_atom_site_fract_y
_atom_site_fract_z
Si Si1 0.292681 0.013910 0.388084
Si Si2 0.863665 0.205378 0.022672
Si Si3 0.048083 0.707982 0.066757
Si Si4 0.593769 0.257035 0.553535
Si Si5 0.590776 0.757087 0.374416
O O1 0.241314 0.275897 0.461189
O O2 0.365547 0.131976 0.363779
O O3 0.304108 0.855823 0.215520
O O4 0.934276 0.394141 0.958834
O O5 0.865121 0.212629 0.843891
O O6 0.880120 0.897914 0.037315
O O7 0.994473 0.761751 0.284072
O O8 0.000000 0.790633 0.000000
O O9 0.614620 0.549011 0.465681
O O10 0.608884 0.054366 0.399389
O O11 0.500000 0.734820 0.500000
#
# Coordination Sequence:
#
# PCOD9130354 Si02
#       5
#     4   4   4   4   4
#     4  12  28  50  70  98 139 199 256 287 323 402
#     4  12  25  41  70 104 145 180 225 296 354 426
#     4  12  22  37  68 110 141 170 228 295 370 416
#     4  12  24  43  70 105 146 181 224 293 358 427
#     4  12  23  41  68 113 149 173 213 285 389 441
#
# _framework density 24.61102
#
# number of rings (size 3 to 8) (size 9 to 14) (size 15 to 20)
#    0.000    0.000    6.000    4.800    2.800    0.000 
#    0.000    4.000    0.000    0.000    0.000    0.000 
#    0.000    0.000    0.000    0.000    0.000    0.000 
#
# Total GULP energy -55891.480272 kJ/mol
# GULP energy per Si atom -5589.148027 kJ/mol
# Density = 2.455500 g / cm^3
# Si number density = 24.611020 Si / 1000 Ang^3
#
#
#
# Elastic Constant Matrix: (Units=GPa)
#
#
# Indices 1 2 3 4 5 6 
#
# 1 32.3521 19.5810 7.1108 0.0000 -3.0799 0.0000
# 2 19.5810 114.2014 9.1264 0.0000 -10.3596 0.0000
# 3 7.1108 9.1264 115.9418 0.0000 1.1399 0.0000
# 4 0.0000 0.0000 0.0000 44.4261 0.0000 2.7592
# 5 -3.0799 -10.3596 1.1399 0.0000 25.3463 0.0000
# 6 0.0000 0.0000 0.0000 2.7592 0.0000 44.3377
#
#
#
# Elastic Compliance Matrix: (Units=1/GPa)
#
#
# Indices 1 2 3 4 5 6 
#
# 1 0.034907 -0.005666 -0.001715 0.000000 0.002003 0.000000
# 2 -0.005666 0.010080 -0.000480 0.000000 0.003453 0.000000
# 3 -0.001715 -0.000480 0.008776 0.000000 -0.000799 0.000000
# 4 0.000000 0.000000 0.000000 0.022597 0.000000 -0.001406
# 5 0.002003 0.003453 -0.000799 0.000000 0.041144 0.000000
# 6 0.000000 0.000000 0.000000 -0.001406 0.000000 0.022642
#
#
# Mechanical properties :
#
#
# Convention : Reuss Voigt Hill
#
# Bulk Modulus (GPa) = 26.28761 37.12576 31.70668
# Shear Modulus (GPa) = 29.66536 37.93380 33.79958
#
# Velocity S-wave (km/s) = 3.47561 3.93024 3.70990
# Velocity P-wave (km/s) = 5.17792 5.97608 5.59126
#
# Compressibility (1/GPa) = 0.03804074
#
# Stress axis : x y z
#
# Youngs Moduli (GPa) = 28.64752 99.21030 113.94975
#
# Poissons Ratio (x) = 0.56217 0.19537
# Poissons Ratio (y) = 0.16233 0.05468
# Poissons Ratio (z) = 0.04912 0.04760
#
# Static dielectric constant tensor:
#      x y z
#    x 1.962840 0.000000 -0.029130 
#    y 0.000000 1.840310 0.000000 
#    z -0.029130 0.000000 2.051700 
# 
# From -- ./inp_files/30229.got.cif
#   From: 2010.05.17/outbox.cif.g08.bks.cpg/sg5_16_cif.got.tgz:30229.got - 2010.06.03 18:56:24.
