data_PCOD9130371
_publ_section_title
;
Structure prediction by ZEFSAII (Michael W. Deem and Ramdas Pophale) SiO2 
 PCOD9130371
Probable space group: C 2
;
_chemical_formula_sum "Si O2"
_cell_formula_units_Z 22
_cell_length_a 4.988129
_cell_length_b 13.729986
_cell_length_c 13.562049
_cell_angle_alpha 90.000000
_cell_angle_beta 90.126862
_cell_angle_gamma 90.000000
_cell_volume 928.820977
_symmetry_space_group_name_H-M "C 2"
_symmetry_group_IT_number 5
_symmetry_cell_setting 'monoclinic'
loop_
_space_group_symop_operation_xyz
x,y,z
-x,y,-z
1/2+x,1/2+y,z
1/2-x,1/2+y,-z
loop_
_atom_site_type_symbol
_atom_site_label
_atom_site_fract_x
_atom_site_fract_y
_atom_site_fract_z
Si Si1 0.784820 0.057340 0.800228
Si Si2 0.000000 0.568290 0.500000
Si Si3 0.123506 0.952309 0.393696
Si Si4 0.248080 0.184377 0.799361
Si Si5 0.748877 0.872151 0.930772
Si Si6 0.687764 0.747135 0.588694
O O1 0.524848 0.125618 0.779101
O O2 0.021848 0.118881 0.851241
O O3 0.687834 0.966427 0.864479
O O4 0.500000 0.848554 0.000000
O O5 0.079164 0.495786 0.587834
O O6 0.203771 0.647426 0.456332
O O7 0.000000 0.978575 0.500000
O O8 0.059666 0.008033 0.293810
O O9 0.109743 0.836125 0.388840
O O10 0.311442 0.280130 0.861592
O O11 0.096983 0.218627 0.697867
O O12 0.000000 0.893679 0.000000
O O13 0.500000 0.785125 0.500000
#
# Coordination Sequence:
#
# PCOD9130371 Si02
#       6
#     4   2   4   4   4   4
#     4  12  27  49  78 109 151 198 247 306 380 447
#     4  12  22  44  64 100 146 184 242 288 358 418
#     4  12  25  43  70 104 147 198 244 298 359 440
#     4  12  27  49  78 109 151 198 247 306 380 447
#     4  12  28  52  80 114 148 188 254 324 378 444
#     4  12  25  43  70 104 147 198 244 298 359 440
#
# _framework density 23.685939000000001
#
# number of rings (size 3 to 8) (size 9 to 14) (size 15 to 20)
#    0.000    0.000    5.455    4.909    0.000    4.364 
#    3.273    0.000    0.000    0.000    0.000    0.000 
#    0.000    0.000    0.000    0.000    0.000    0.000 
#
# Total GULP energy -61389.975582 kJ/mol
# GULP energy per Si atom -5580.906871 kJ/mol
# Density = 2.363203 g / cm^3
# Si number density = 23.685939 Si / 1000 Ang^3
#
#
#
# Elastic Constant Matrix: (Units=GPa)
#
#
# Indices 1 2 3 4 5 6 
#
# 1 71.3151 13.8200 13.1018 0.0000 -7.8030 0.0000
# 2 13.8200 148.2560 34.3349 0.0000 -6.3600 0.0000
# 3 13.1018 34.3349 95.1697 0.0000 -12.2191 0.0000
# 4 0.0000 0.0000 0.0000 13.5907 0.0000 1.4468
# 5 -7.8030 -6.3600 -12.2191 0.0000 32.7823 0.0000
# 6 0.0000 0.0000 0.0000 1.4468 0.0000 35.7195
#
#
#
# Elastic Compliance Matrix: (Units=1/GPa)
#
#
# Indices 1 2 3 4 5 6 
#
# 1 0.014760 -0.000947 -0.001326 0.000000 0.002835 0.000000
# 2 -0.000947 0.007427 -0.002513 0.000000 0.000279 0.000000
# 3 -0.001326 -0.002513 0.012071 0.000000 0.003696 0.000000
# 4 0.000000 0.000000 0.000000 0.073898 0.000000 -0.002993
# 5 0.002835 0.000279 0.003696 0.000000 0.032611 0.000000
# 6 0.000000 0.000000 0.000000 -0.002993 0.000000 0.028117
#
#
# Mechanical properties :
#
#
# Convention : Reuss Voigt Hill
#
# Bulk Modulus (GPa) = 40.51045 48.58380 44.54712
# Shear Modulus (GPa) = 26.78281 33.31744 30.05012
#
# Velocity S-wave (km/s) = 3.36631 3.75458 3.56573
# Velocity P-wave (km/s) = 5.67888 6.27312 5.98338
#
# Compressibility (1/GPa) = 0.02468499
#
# Stress axis : x y z
#
# Youngs Moduli (GPa) = 67.75217 134.63609 82.83984
#
# Poissons Ratio (x) = 0.12751 0.10987
# Poissons Ratio (y) = 0.06417 0.20822
# Poissons Ratio (z) = 0.08986 0.33840
#
# Static dielectric constant tensor:
#      x y z
#    x 2.170690 0.000000 0.012180 
#    y 0.000000 1.842630 0.000000 
#    z 0.012180 0.000000 1.893810 
# 
# From -- ./inp_files/48776.got.cif
#   From: 2010.05.17/outbox.cif.g08.bks.cpg/sg5_25_cif.got.tgz:48776.got - 2010.06.03 18:56:24.
