data_PCOD9130325
_publ_section_title
;
Structure prediction by ZEFSAII (Michael W. Deem and Ramdas Pophale) SiO2 
 PCOD9130325
Probable space group: C 2
;
_chemical_formula_sum "Si O2"
_cell_formula_units_Z 22
_cell_length_a 18.370526
_cell_length_b 7.061528
_cell_length_c 18.298257
_cell_angle_alpha 90.000000
_cell_angle_beta 21.731516
_cell_angle_gamma 90.000000
_cell_volume 878.889327
_symmetry_space_group_name_H-M "C 2"
_symmetry_group_IT_number 5
_symmetry_cell_setting 'monoclinic'
loop_
_space_group_symop_operation_xyz
x,y,z
-x,y,-z
1/2+x,1/2+y,z
1/2-x,1/2+y,-z
loop_
_atom_site_type_symbol
_atom_site_label
_atom_site_fract_x
_atom_site_fract_y
_atom_site_fract_z
Si Si1 0.802661 0.826510 0.480224
Si Si2 0.866518 0.435727 0.844854
Si Si3 0.500000 0.989825 0.500000
Si Si4 0.177524 0.965425 0.692346
Si Si5 0.699525 0.679507 0.887612
Si Si6 0.329537 0.535686 0.822346
O O1 0.579468 0.895393 0.677191
O O2 0.762498 0.645348 0.568585
O O3 0.942831 0.972513 0.392667
O O4 0.871866 0.822951 0.329185
O O5 0.840553 0.625308 0.823523
O O6 0.810217 0.261652 0.843767
O O7 0.734397 0.473650 0.037343
O O8 0.357041 0.886649 0.574797
O O9 0.332514 0.113595 0.696384
O O10 0.996323 0.057240 0.909171
O O11 0.694223 0.908049 0.895113
#
# Coordination Sequence:
#
# PCOD9130325 Si02
#       6
#     4   4   2   4   4   4
#     4  12  20  38  64  98 130 172 222 278 332 400
#     4  12  22  37  67 102 133 171 231 290 338 395
#     4  12  26  44  70  94 146 186 226 276 358 410
#     4  12  25  41  73 101 133 182 225 286 349 409
#     4  12  25  45  65 100 137 184 229 279 340 417
#     4  12  22  37  67 102 133 171 231 290 338 395
#
# _framework density 25.031594999999999
#
# number of rings (size 3 to 8) (size 9 to 14) (size 15 to 20)
#    0.000    0.000   10.909    0.545    0.000    0.000 
#    0.000    0.909    4.000    2.182    0.000    0.000 
#    0.000    0.000    0.000    0.000    0.000    0.000 
#
# Total GULP energy -61320.741259 kJ/mol
# GULP energy per Si atom -5574.612842 kJ/mol
# Density = 2.497462 g / cm^3
# Si number density = 25.031595 Si / 1000 Ang^3
#
#
#
# Elastic Constant Matrix: (Units=GPa)
#
#
# Indices 1 2 3 4 5 6 
#
# 1 74.8730 -5.8407 17.6021 -0.0001 -5.9559 0.0000
# 2 -5.8407 90.5503 10.6411 -0.0009 10.1733 0.0000
# 3 17.6021 10.6411 145.0548 -0.0011 5.6539 0.0008
# 4 -0.0001 -0.0009 -0.0011 28.0751 0.0004 -0.0480
# 5 -5.9559 10.1733 5.6539 0.0004 50.6358 -0.0002
# 6 0.0000 0.0000 0.0008 -0.0480 -0.0002 4.7397
#
#
#
# Elastic Compliance Matrix: (Units=1/GPa)
#
#
# Indices 1 2 3 4 5 6 
#
# 1 0.013991 0.000931 -0.001831 0.000000 0.001663 0.000000
# 2 0.000931 0.011441 -0.000871 0.000000 -0.002092 0.000000
# 3 -0.001831 -0.000871 0.007213 0.000000 -0.000846 -0.000001
# 4 0.000000 0.000000 0.000000 0.035619 0.000000 0.000361
# 5 0.001663 -0.002092 -0.000846 0.000000 0.020459 0.000001
# 6 0.000000 0.000000 -0.000001 0.000361 0.000001 0.210989
#
#
# Mechanical properties :
#
#
# Convention : Reuss Voigt Hill
#
# Bulk Modulus (GPa) = 34.36009 39.47590 36.91799
# Shear Modulus (GPa) = 15.97670 35.89514 25.93592
#
# Velocity S-wave (km/s) = 2.52912 3.79092 3.22239
# Velocity P-wave (km/s) = 4.72071 5.91321 5.35029
#
# Compressibility (1/GPa) = 0.02910354
#
# Stress axis : x y z
#
# Youngs Moduli (GPa) = 71.47304 87.40515 138.63922
#
# Poissons Ratio (x) = -0.08136 0.25384
# Poissons Ratio (y) = -0.06653 0.12071
# Poissons Ratio (z) = 0.13086 0.07610
#
# Static dielectric constant tensor:
#      x y z
#    x 2.062590 0.000000 -0.017700 
#    y 0.000000 2.063120 0.000000 
#    z -0.017700 0.000000 2.076880 
# 
# From -- ./inp_files/66980.got.cif
#   From: 2010.05.17/outbox.cif.g08.bks.cpg/sg5_34_cif.got.tgz:66980.got - 2010.06.03 18:56:24.
