data_PCOD9130797
_publ_section_title
;
Structure prediction by ZEFSAII (Michael W. Deem and Ramdas Pophale) SiO2 
 PCOD9130797
Probable space group: P M
;
_chemical_formula_sum "Si O2"
_cell_formula_units_Z 16
_cell_length_a 12.639957
_cell_length_b 8.456426
_cell_length_c 10.573320
_cell_angle_alpha 90.000000
_cell_angle_beta 52.035394
_cell_angle_gamma 90.000000
_cell_volume 891.015874
_symmetry_space_group_name_H-M "P M"
_symmetry_group_IT_number 6
_symmetry_cell_setting 'monoclinic'
loop_
_space_group_symop_operation_xyz
x,y,z
x,-y,z
loop_
_atom_site_type_symbol
_atom_site_label
_atom_site_fract_x
_atom_site_fract_y
_atom_site_fract_z
Si Si1 0.968490 0.308585 0.076010
Si Si2 0.670670 0.692223 0.298151
Si Si3 0.677987 0.689080 0.588026
Si Si4 0.406069 0.812848 0.883730
Si Si5 0.244928 0.308620 0.758734
Si Si6 0.391988 0.306785 0.394884
Si Si7 0.249491 0.689266 0.242993
Si Si8 0.970246 0.187704 0.360860
O O1 0.968452 0.500000 0.082493
O O2 0.819040 0.257078 0.146154
O O3 0.991812 0.246855 0.200805
O O4 0.091526 0.259679 0.897355
O O5 0.669020 0.500000 0.297639
O O6 0.655839 0.737632 0.456867
O O7 0.544282 0.746863 0.309766
O O8 0.665638 0.500000 0.603063
O O9 0.561746 0.765185 0.757116
O O10 0.829476 0.738374 0.509483
O O11 0.334198 0.753760 0.808548
O O12 0.391783 0.000000 0.903700
O O13 0.332862 0.735508 0.057157
O O14 0.251206 0.500000 0.758154
O O15 0.303907 0.258144 0.580864
O O16 0.393548 0.500000 0.392003
O O17 0.327569 0.254976 0.310778
O O18 0.237466 0.500000 0.256186
O O19 0.100573 0.759750 0.342197
O O20 0.958171 0.000000 0.369552
#
# Coordination Sequence:
#
# PCOD9130797 Si02
#       8
#     2   2   2   2   2   2   2   2
#     4   9  17  29  53  82 109 141 181 225 279 333
#     4   8  14  28  51  81 108 134 173 226 276 321
#     4  10  19  35  60  84 110 142 184 233 283 336
#     4  12  23  35  54  84 116 147 188 236 284 330
#     4  10  18  33  56  82 110 142 186 236 281 326
#     4   9  18  33  55  81 109 144 189 236 275 327
#     4  11  22  37  56  79 113 157 199 231 272 332
#     4  11  21  34  53  81 117 147 184 233 284 333
#
# _framework density 17.957031000000001
#
# number of rings (size 3 to 8) (size 9 to 14) (size 15 to 20)
#    0.000    2.000    2.500    3.750    0.000    0.000 
#    0.000    2.500    0.000    4.500    0.000    0.000 
#    0.000    0.000    0.000    0.000    0.000    0.000 
#
# Total GULP energy -89290.756081 kJ/mol
# GULP energy per Si atom -5580.672255 kJ/mol
# Density = 1.791616 g / cm^3
# Si number density = 17.957031 Si / 1000 Ang^3
#
#
#
# Elastic Constant Matrix: (Units=GPa)
#
#
# Indices 1 2 3 4 5 6 
#
# 1 131.3686 2.9502 51.0542 0.0000 -12.8239 0.0000
# 2 2.9502 16.0721 2.3606 0.0000 -0.2013 0.0000
# 3 51.0542 2.3606 72.5643 0.0000 -10.7358 0.0000
# 4 0.0000 0.0000 0.0000 3.6600 0.0000 -10.7432
# 5 -12.8239 -0.2013 -10.7358 0.0000 29.6713 0.0000
# 6 0.0000 0.0000 0.0000 -10.7432 0.0000 0.1121
#
#
#
# Elastic Compliance Matrix: (Units=1/GPa)
#
#
# Indices 1 2 3 4 5 6 
#
# 1 0.010599 -0.000873 -0.007134 0.000000 0.001994 0.000000
# 2 -0.000873 0.062593 -0.001495 0.000000 -0.000494 0.000000
# 3 -0.007134 -0.001495 0.019431 0.000000 0.003937 0.000000
# 4 0.000000 0.000000 0.000000 -0.000975 0.000000 -0.093414
# 5 0.001994 -0.000494 0.003937 0.000000 0.035986 0.000000
# 6 0.000000 0.000000 0.000000 -0.093414 0.000000 -0.031825
#
#
# Mechanical properties :
#
#
# Convention : Reuss Voigt Hill
#
# Bulk Modulus (GPa) = 13.58332 36.97057 25.27695
# Shear Modulus (GPa) = 35.88024 17.59801 26.73913
#
# Velocity S-wave (km/s) = 4.47488 3.13390 3.86302
# Velocity P-wave (km/s) = 5.85493 5.80760 5.83131
#
# Compressibility (1/GPa) = 0.07361969
#
# Stress axis : x y z
#
# Youngs Moduli (GPa) = 94.35064 15.97620 51.46394
#
# Poissons Ratio (x) = 0.01394 0.36713
# Poissons Ratio (y) = 0.08235 0.07695
# Poissons Ratio (z) = 0.67306 0.02389
#
# Static dielectric constant tensor:
#      x y z
#    x 1.612550 0.000000 -0.027550 
#    y 0.000000 1.605300 0.000000 
#    z -0.027550 0.000000 1.607470 
# 
# From -- ./inp_files/5053.got.cif
#   From: 2010.05.17/outbox.cif.g08.bks.cpg/sg6_3_cif.got.tgz:5053.got - 2010.06.03 19:42:10.
