data_PCOD9130712
_publ_section_title
;
Structure prediction by ZEFSAII (Michael W. Deem and Ramdas Pophale) SiO2 
 PCOD9130712
Probable space group: C 2
;
_chemical_formula_sum "Si O2"
_cell_formula_units_Z 16
_cell_length_a 9.000000
_cell_length_b 15.000000
_cell_length_c 12.000000
_cell_angle_alpha 90.000000
_cell_angle_beta 90.000000
_cell_angle_gamma 90.000000
_cell_volume 1620.000000
_symmetry_space_group_name_H-M "C 2"
_symmetry_group_IT_number 5
_symmetry_cell_setting 'monoclinic'
loop_
_space_group_symop_operation_xyz
x,y,z
-x,y,-z
1/2+x,1/2+y,z
1/2-x,1/2+y,-z
loop_
_atom_site_type_symbol
_atom_site_label
_atom_site_fract_x
_atom_site_fract_y
_atom_site_fract_z
Si Si1 0.111421 0.972310 0.898993
Si Si2 0.827320 0.841411 0.398552
Si Si3 0.803410 0.301470 0.834499
Si Si4 0.833376 0.200863 0.446953
Si Si5 0.387095 0.435679 0.699445
Si Si6 0.177471 0.162063 0.982191
Si Si7 0.653348 0.794506 0.789805
Si Si8 0.683326 0.013576 0.500707
O O1 0.222635 0.889414 0.883246
O O2 0.002025 0.982271 0.788896
O O3 0.201648 0.061638 0.936492
O O4 0.000000 0.952000 0.000000
O O5 0.767780 0.794661 0.287009
O O6 0.777124 0.771313 0.492752
O O7 0.731662 0.930532 0.423410
O O8 0.996078 0.875749 0.374200
O O9 0.982143 0.317021 0.823892
O O10 0.769099 0.211332 0.904867
O O11 0.854914 0.236455 0.322387
O O12 0.000000 0.198494 0.500000
O O13 0.753738 0.105128 0.455232
O O14 0.267833 0.374851 0.765938
O O15 0.279267 0.492850 0.615826
O O16 0.216899 0.231842 0.886277
O O17 0.000000 0.161295 0.000000
O O18 0.500000 0.016990 0.500000
#
# Coordination Sequence:
#
# PCOD9130712 Si02
#       8
#     4   4   4   4   4   4   4   4
#     4  10  22  41  72 101 132 180 234 288 352 410
#     4  11  23  44  66  98 135 185 230 284 351 409
#     4  10  21  41  69  97 130 180 228 282 349 419
#     4  12  25  40  68  98 141 183 228 282 349 420
#     4  11  24  42  69  95 143 182 234 289 347 418
#     4   9  21  39  64  94 130 171 228 279 339 413
#     4  11  22  39  64  93 135 178 223 279 347 407
#     4  12  27  42  64 101 143 184 240 288 345 418
#
# _framework density 9.8765429999999999
#
# number of rings (size 3 to 8) (size 9 to 14) (size 15 to 20)
#    0.000    1.250    2.500    3.000    7.000    1.000 
#    0.000    0.000    0.000   23.250    0.000    0.000 
#    0.000    0.000    0.000    0.000    0.000    0.000 
#
# Total GULP energy -89246.132590 kJ/mol
# GULP energy per Si atom -5577.883287 kJ/mol
# Density = 0.985406 g / cm^3
# Si number density = 9.876543 Si / 1000 Ang^3
#
#
#
# Elastic Constant Matrix: (Units=GPa)
#
#
# Indices 1 2 3 4 5 6 
#
# 1 108.8606 37.9748 25.8389 0.0000 1.5608 0.0000
# 2 37.9748 114.6729 41.1572 0.0000 1.8658 0.0000
# 3 25.8389 41.1572 113.8100 0.0000 0.9890 0.0000
# 4 0.0000 0.0000 0.0000 29.4981 0.0000 -1.9428
# 5 1.5608 1.8658 0.9890 0.0000 29.9822 0.0000
# 6 0.0000 0.0000 0.0000 -1.9428 0.0000 35.8628
#
#
#
# Elastic Compliance Matrix: (Units=1/GPa)
#
#
# Indices 1 2 3 4 5 6 
#
# 1 0.010554 -0.003023 -0.001300 0.000000 -0.000318 0.000000
# 2 -0.003023 0.010895 -0.003250 0.000000 -0.000413 0.000000
# 3 -0.001300 -0.003250 0.010258 0.000000 -0.000068 0.000000
# 4 0.000000 0.000000 0.000000 0.034022 0.000000 0.001843
# 5 -0.000318 -0.000413 -0.000068 0.000000 0.033398 0.000000
# 6 0.000000 0.000000 0.000000 0.001843 0.000000 0.027984
#
#
# Mechanical properties :
#
#
# Convention : Reuss Voigt Hill
#
# Bulk Modulus (GPa) = 60.38700 60.80948 60.59824
# Shear Modulus (GPa) = 33.83501 34.56012 34.19757
#
# Velocity S-wave (km/s) = 4.14321 4.18737 4.16535
# Velocity P-wave (km/s) = 7.31611 7.36413 7.34016
#
# Compressibility (1/GPa) = 0.01655986
#
# Stress axis : x y z
#
# Youngs Moduli (GPa) = 94.75253 91.78716 97.48878
#
# Poissons Ratio (x) = 0.27749 0.12674
# Poissons Ratio (y) = 0.28646 0.31683
# Poissons Ratio (z) = 0.12318 0.29830
#
# Static dielectric constant tensor:
#      x y z
#    x 1.678620 0.000000 0.018920 
#    y 0.000000 1.712190 0.000000 
#    z 0.018920 0.000000 1.773470 
# 
# From -- ./inp_files/36426.got.cif
#   From: 2010.05.17/outbox.ucp.g08.bks.cvg/sg5_19_cif.got.tgz:36426.got - 2010.06.11 12:53:14.
