data_PCOD9130486
_publ_section_title
;
Structure prediction by ZEFSAII (Michael W. Deem and Ramdas Pophale) SiO2 
 PCOD9130486
Probable space group: C 2
;
_chemical_formula_sum "Si O2"
_cell_formula_units_Z 22
_cell_length_a 8.392745
_cell_length_b 21.173531
_cell_length_c 5.478106
_cell_angle_alpha 90.000000
_cell_angle_beta 64.501646
_cell_angle_gamma 90.000000
_cell_volume 878.662209
_symmetry_space_group_name_H-M "C 2"
_symmetry_group_IT_number 5
_symmetry_cell_setting 'monoclinic'
loop_
_space_group_symop_operation_xyz
x,y,z
-x,y,-z
1/2+x,1/2+y,z
1/2-x,1/2+y,-z
loop_
_atom_site_type_symbol
_atom_site_label
_atom_site_fract_x
_atom_site_fract_y
_atom_site_fract_z
Si Si1 0.192124 0.404830 0.985674
Si Si2 0.110562 0.121213 0.680025
Si Si3 0.500000 0.334030 0.500000
Si Si4 0.000000 0.626568 0.000000
Si Si5 0.802370 0.728377 0.410397
Si Si6 0.667042 0.024102 0.260421
Si Si7 0.000000 0.318040 0.500000
O O1 0.334678 0.374273 0.708070
O O2 0.264860 0.470128 0.045486
O O3 0.132023 0.356937 0.239814
O O4 0.000000 0.420038 0.000000
O O5 0.258484 0.175041 0.638305
O O6 0.214082 0.055250 0.609238
O O7 0.000000 0.130496 0.500000
O O8 0.000000 0.118307 0.000000
O O9 0.448505 0.282300 0.328956
O O10 0.150910 0.677272 0.826664
O O11 0.915013 0.578830 0.857650
O O12 0.627108 0.769952 0.553785
O O13 0.500000 0.991959 0.500000
#
# Coordination Sequence:
#
# PCOD9130486 Si02
#       7
#     4   4   2   2   4   4   2
#     4  12  27  54  82 114 167 223 278 349 419 495
#     4  12  28  50  79 126 166 214 273 353 434 502
#     4  12  28  50  84 122 160 218 288 340 414 520
#     4  12  24  48  80 120 162 216 276 354 424 500
#     4  12  25  46  81 118 163 207 275 345 425 504
#     4  12  26  51  82 110 162 222 280 342 422 502
#     4  12  26  48  82 112 164 222 270 334 430 500
#
# _framework density 25.038063000000001
#
# number of rings (size 3 to 8) (size 9 to 14) (size 15 to 20)
#    0.000    0.000    6.364    3.273    2.545    0.000 
#   11.455    0.000    0.000    0.000    0.000    0.000 
#    0.000    0.000    0.000    0.000    0.000    0.000 
#
# Total GULP energy -61334.225325 kJ/mol
# GULP energy per Si atom -5575.838666 kJ/mol
# Density = 2.498108 g / cm^3
# Si number density = 25.038063 Si / 1000 Ang^3
#
#
#
# Elastic Constant Matrix: (Units=GPa)
#
#
# Indices 1 2 3 4 5 6 
#
# 1 63.1965 41.6666 28.0521 0.0000 -4.4257 0.0000
# 2 41.6666 156.9419 47.8400 0.0000 -0.4528 0.0000
# 3 28.0521 47.8400 106.6128 0.0000 -16.5809 0.0000
# 4 0.0000 0.0000 0.0000 40.9523 0.0000 -4.0310
# 5 -4.4257 -0.4528 -16.5809 0.0000 44.5252 0.0000
# 6 0.0000 0.0000 0.0000 -4.0310 0.0000 16.8502
#
#
#
# Elastic Compliance Matrix: (Units=1/GPa)
#
#
# Indices 1 2 3 4 5 6 
#
# 1 0.020196 -0.004374 -0.003233 0.000000 0.000759 0.000000
# 2 -0.004374 0.008393 -0.002834 0.000000 -0.001405 0.000000
# 3 -0.003233 -0.002834 0.012151 0.000000 0.004175 0.000000
# 4 0.000000 0.000000 0.000000 0.025007 0.000000 0.005982
# 5 0.000759 -0.001405 0.004175 0.000000 0.024075 0.000000
# 6 0.000000 0.000000 0.000000 0.005982 0.000000 0.060778
#
#
# Mechanical properties :
#
#
# Convention : Reuss Voigt Hill
#
# Bulk Modulus (GPa) = 50.35700 62.42984 56.39342
# Shear Modulus (GPa) = 28.07393 34.41171 31.24282
#
# Velocity S-wave (km/s) = 3.35214 3.71128 3.53627
# Velocity P-wave (km/s) = 5.92776 6.58429 6.26463
#
# Compressibility (1/GPa) = 0.01985821
#
# Stress axis : x y z
#
# Youngs Moduli (GPa) = 49.51510 119.15029 82.29604
#
# Poissons Ratio (x) = 0.52117 0.26608
# Poissons Ratio (y) = 0.21658 0.23319
# Poissons Ratio (z) = 0.16009 0.33762
#
# Static dielectric constant tensor:
#      x y z
#    x 2.278280 0.000000 -0.110910 
#    y 0.000000 1.920200 0.000000 
#    z -0.110910 0.000000 2.253750 
# 
# From -- ./inp_files/2898.got.cif
#   From: 2010.05.17/outbox.cif.g08.bks.cpg/sg5_2_cif.got.tgz:2898.got - 2010.06.03 18:56:24.
