data_PCOD9130415
_publ_section_title
;
Structure prediction by ZEFSAII (Michael W. Deem and Ramdas Pophale) SiO2 
 PCOD9130415
Probable space group: C 2
;
_chemical_formula_sum "Si O2"
_cell_formula_units_Z 22
_cell_length_a 18.496661
_cell_length_b 5.087826
_cell_length_c 11.622200
_cell_angle_alpha 90.000000
_cell_angle_beta 113.364720
_cell_angle_gamma 90.000000
_cell_volume 1004.051845
_symmetry_space_group_name_H-M "C 2"
_symmetry_group_IT_number 5
_symmetry_cell_setting 'monoclinic'
loop_
_space_group_symop_operation_xyz
x,y,z
-x,y,-z
1/2+x,1/2+y,z
1/2-x,1/2+y,-z
loop_
_atom_site_type_symbol
_atom_site_label
_atom_site_fract_x
_atom_site_fract_y
_atom_site_fract_z
Si Si1 0.500000 0.251621 0.000000
Si Si2 0.591250 0.622310 0.878124
Si Si3 0.428659 0.870916 0.777708
Si Si4 0.703034 0.651059 0.743341
Si Si5 0.302381 0.860259 0.509542
Si Si6 0.807584 0.154846 0.848460
O O1 0.549875 0.406298 0.934440
O O2 0.439586 0.072877 0.889210
O O3 0.517881 0.806567 0.801531
O O4 0.635267 0.561085 0.788099
O O5 0.658505 0.731974 0.005485
O O6 0.376006 0.941107 0.635352
O O7 0.382145 0.629767 0.809336
O O8 0.673936 0.757316 0.601821
O O9 0.758502 0.397947 0.766961
O O10 0.755444 0.894097 0.823502
O O11 0.254792 0.612005 0.532241
#
# Coordination Sequence:
#
# PCOD9130415 Si02
#       6
#     2   4   4   4   4   4
#     4  12  24  46  74 112 154 190 250 302 390 428
#     4  12  27  43  74 113 149 189 245 317 367 439
#     4  12  25  43  78 104 146 201 245 301 372 450
#     4  12  27  46  75 108 148 192 249 300 367 434
#     4  12  26  48  75 106 145 197 248 298 368 449
#     4  12  23  47  72 109 144 193 241 303 367 441
#
# _framework density 21.911218000000002
#
# number of rings (size 3 to 8) (size 9 to 14) (size 15 to 20)
#    0.000    0.000    7.273    2.182    5.091    0.727 
#    0.000    0.000    0.000    0.000    0.000    0.000 
#    0.000    0.000    0.000    0.000    0.000    0.000 
#
# Total GULP energy -61460.593960 kJ/mol
# GULP energy per Si atom -5587.326724 kJ/mol
# Density = 2.186135 g / cm^3
# Si number density = 21.911218 Si / 1000 Ang^3
#
#
#
# Elastic Constant Matrix: (Units=GPa)
#
#
# Indices 1 2 3 4 5 6 
#
# 1 105.7638 35.5944 53.8681 0.0000 -23.1840 0.0000
# 2 35.5944 102.3150 30.5050 0.0000 10.8755 0.0000
# 3 53.8681 30.5050 172.3456 0.0000 4.5608 0.0000
# 4 0.0000 0.0000 0.0000 25.2604 0.0000 5.2898
# 5 -23.1840 10.8755 4.5608 0.0000 31.4306 0.0000
# 6 0.0000 0.0000 0.0000 5.2898 0.0000 23.9707
#
#
#
# Elastic Compliance Matrix: (Units=1/GPa)
#
#
# Indices 1 2 3 4 5 6 
#
# 1 0.017463 -0.006333 -0.004754 0.000000 0.015763 0.000000
# 2 -0.006333 0.012972 -0.000074 0.000000 -0.009149 0.000000
# 3 -0.004754 -0.000074 0.007422 0.000000 -0.004558 0.000000
# 4 0.000000 0.000000 0.000000 0.041506 0.000000 -0.009159
# 5 0.015763 -0.009149 -0.004558 0.000000 0.047270 0.000000
# 6 0.000000 0.000000 0.000000 -0.009159 0.000000 0.043739
#
#
# Mechanical properties :
#
#
# Convention : Reuss Voigt Hill
#
# Bulk Modulus (GPa) = 64.37910 68.92882 66.65396
# Shear Modulus (GPa) = 25.26865 33.49614 29.38239
#
# Velocity S-wave (km/s) = 3.39961 3.91413 3.66591
# Velocity P-wave (km/s) = 6.69741 7.20789 6.95734
#
# Compressibility (1/GPa) = 0.01553299
#
# Stress axis : x y z
#
# Youngs Moduli (GPa) = 57.26298 77.09089 134.73235
#
# Poissons Ratio (x) = 0.48824 0.64058
# Poissons Ratio (y) = 0.36266 0.01002
# Poissons Ratio (z) = 0.27225 0.00573
#
# Static dielectric constant tensor:
#      x y z
#    x 1.798810 0.000000 0.007500 
#    y 0.000000 1.826140 0.000000 
#    z 0.007500 0.000000 1.832320 
# 
# From -- ./inp_files/43794.got.cif
#   From: 2010.05.17/outbox.cif.g08.bks.cpg/sg5_22_cif.got.tgz:43794.got - 2010.06.03 18:56:24.
