data_PCOD9130959
_publ_section_title
;
Structure prediction by ZEFSAII (Michael W. Deem and Ramdas Pophale) SiO2 
 PCOD9130959
Probable space group: P M
;
_chemical_formula_sum "Si O2"
_cell_formula_units_Z 16
_cell_length_a 14.761844
_cell_length_b 8.921463
_cell_length_c 19.634186
_cell_angle_alpha 90.000000
_cell_angle_beta 19.134691
_cell_angle_gamma 90.000000
_cell_volume 847.588906
_symmetry_space_group_name_H-M "P M"
_symmetry_group_IT_number 6
_symmetry_cell_setting 'monoclinic'
loop_
_space_group_symop_operation_xyz
x,y,z
x,-y,z
loop_
_atom_site_type_symbol
_atom_site_label
_atom_site_fract_x
_atom_site_fract_y
_atom_site_fract_z
Si Si1 0.784570 0.822446 0.648010
Si Si2 0.719511 0.822112 0.176915
Si Si3 0.228351 0.822057 0.213414
Si Si4 0.726926 0.680618 0.318899
Si Si5 0.100910 0.680726 0.789508
Si Si6 0.656288 0.322967 0.002185
Si Si7 0.279144 0.178569 0.384913
Si Si8 0.203432 0.679104 0.084633
O O1 0.990828 0.789421 0.438468
O O2 0.962800 0.791823 0.590068
O O3 0.722648 0.000000 0.690612
O O4 0.503523 0.731670 0.846033
O O5 0.764202 0.746179 0.217392
O O6 0.412467 0.793279 0.363609
O O7 0.752876 0.000000 0.158998
O O8 0.933116 0.758947 0.969241
O O9 0.518953 0.762801 0.037020
O O10 0.162510 0.747192 0.188515
O O11 0.244772 0.000000 0.194025
O O12 0.734763 0.500000 0.308950
O O13 0.421097 0.722936 0.561709
O O14 0.965053 0.729331 0.201800
O O15 0.076115 0.500000 0.814799
O O16 0.954428 0.719193 0.821299
O O17 0.649985 0.500000 0.993354
O O18 0.456072 0.278889 0.207350
O O19 0.325206 0.000000 0.336541
O O20 0.194994 0.500000 0.095019
#
# Coordination Sequence:
#
# PCOD9130959 Si02
#       8
#     2   2   2   2   2   2   2   2
#     4   9  19  37  59  82 111 145 177 216 272 329
#     4  10  20  35  58  86 113 141 177 223 272 324
#     4  10  21  38  59  81 111 147 178 219 275 329
#     4  10  23  41  56  75 108 148 188 227 269 320
#     4   9  19  37  59  82 111 146 180 219 270 324
#     4   9  16  29  54  86 113 138 175 220 266 322
#     4   8  16  32  53  81 114 144 174 212 268 330
#     4  11  24  39  56  79 107 143 189 234 270 314
#
# _framework density 18.877075000000001
#
# number of rings (size 3 to 8) (size 9 to 14) (size 15 to 20)
#    0.000    2.500    0.000    2.250    0.000    7.000 
#    0.000    6.250    0.000    0.000    0.000    0.000 
#    0.000    0.000    0.000    0.000    0.000    0.000 
#
# Total GULP energy -89255.507618 kJ/mol
# GULP energy per Si atom -5578.469226 kJ/mol
# Density = 1.883411 g / cm^3
# Si number density = 18.877075 Si / 1000 Ang^3
#
#
#
# Elastic Constant Matrix: (Units=GPa)
#
#
# Indices 1 2 3 4 5 6 
#
# 1 176.1080 55.0683 83.8274 0.0000 -25.9364 0.0000
# 2 55.0683 35.4844 46.6555 0.0000 -11.3756 0.0000
# 3 83.8274 46.6555 118.7421 0.0000 -25.2303 0.0000
# 4 0.0000 0.0000 0.0000 18.2945 0.0000 -11.2171
# 5 -25.9364 -11.3756 -25.2303 0.0000 34.1342 0.0000
# 6 0.0000 0.0000 0.0000 -11.2171 0.0000 -137.5500
#
#
#
# Elastic Compliance Matrix: (Units=1/GPa)
#
#
# Indices 1 2 3 4 5 6 
#
# 1 0.011492 -0.014614 -0.001839 0.000000 0.002502 0.000000
# 2 -0.014614 0.077138 -0.020036 0.000000 -0.000207 0.000000
# 3 -0.001839 -0.020036 0.018835 0.000000 0.005847 0.000000
# 4 0.000000 0.000000 0.000000 0.052058 0.000000 -0.004245
# 5 0.002502 -0.000207 0.005847 0.000000 0.035451 0.000000
# 6 0.000000 0.000000 0.000000 -0.004245 0.000000 -0.006924
#
#
# Mechanical properties :
#
#
# Convention : Reuss Voigt Hill
#
# Bulk Modulus (GPa) = 28.99633 77.93744 53.46689
# Shear Modulus (GPa) = 18.34702 -7.37204 5.48749
#
# Velocity S-wave (km/s) = 3.12095 -1.97832 1.70683
# Velocity P-wave (km/s) = 5.32738 6.01316 5.68063
#
# Compressibility (1/GPa) = 0.03448712
#
# Stress axis : x y z
#
# Youngs Moduli (GPa) = 87.01591 12.96371 53.09375
#
# Poissons Ratio (x) = 0.18946 0.09765
# Poissons Ratio (y) = 1.27169 1.06376
# Poissons Ratio (z) = 0.16003 0.25973
#
# Static dielectric constant tensor:
#      x y z
#    x 1.657050 0.000000 -0.012680 
#    y 0.000000 1.632560 0.000000 
#    z -0.012680 0.000000 1.662250 
# 
# From -- ./inp_files/4567.got.cif
#   From: 2010.05.17/outbox.cif.g08.bks.cpg/sg6_3_cif.got.tgz:4567.got - 2010.06.03 19:42:10.
