data_PCOD9130761
_publ_section_title
;
Structure prediction by ZEFSAII (Michael W. Deem and Ramdas Pophale) SiO2 
 PCOD9130761
Probable space group: P M
;
_chemical_formula_sum "Si O2"
_cell_formula_units_Z 16
_cell_length_a 20.913791
_cell_length_b 7.585269
_cell_length_c 10.453606
_cell_angle_alpha 90.000000
_cell_angle_beta 28.878257
_cell_angle_gamma 90.000000
_cell_volume 800.888684
_symmetry_space_group_name_H-M "P M"
_symmetry_group_IT_number 6
_symmetry_cell_setting 'monoclinic'
loop_
_space_group_symop_operation_xyz
x,y,z
x,-y,z
loop_
_atom_site_type_symbol
_atom_site_label
_atom_site_fract_x
_atom_site_fract_y
_atom_site_fract_z
Si Si1 0.894960 0.713575 0.598590
Si Si2 0.174599 0.715616 0.018562
Si Si3 0.469926 0.791228 0.215386
Si Si4 0.744121 0.283139 0.119225
Si Si5 0.732994 0.205099 0.627554
Si Si6 0.464312 0.705892 0.523565
Si Si7 0.171333 0.712720 0.728923
Si Si8 0.901800 0.295514 0.087905
O O1 0.891661 0.500000 0.599698
O O2 0.817185 0.777676 0.610047
O O3 0.047553 0.770088 0.321461
O O4 0.823742 0.769232 0.852824
O O5 0.178153 0.500000 0.012322
O O6 0.319076 0.780619 0.807381
O O7 0.154826 0.770438 0.905496
O O8 0.481319 0.715901 0.339397
O O9 0.320737 0.760156 0.428184
O O10 0.490286 0.000000 0.193312
O O11 0.587097 0.723323 0.918872
O O12 0.739954 0.500000 0.128018
O O13 0.593414 0.219696 0.366073
O O14 0.819157 0.220682 0.114351
O O15 0.813236 0.290150 0.371055
O O16 0.720041 0.000000 0.616002
O O17 0.459085 0.500000 0.566786
O O18 0.164413 0.500000 0.742092
O O19 0.046818 0.780771 0.866026
O O20 0.925374 0.500000 0.013358
#
# Coordination Sequence:
#
# PCOD9130761 Si02
#       8
#     2   2   2   2   2   2   2   2
#     4  10  17  31  53  77 103 133 169 215 261 302
#     4   8  14  25  46  74  99 127 161 203 251 298
#     4  10  20  32  49  75 105 134 172 219 259 301
#     4   9  18  31  53  79 104 136 172 212 260 312
#     4  11  22  34  50  77 106 137 178 219 257 307
#     4   9  16  30  50  75 105 133 166 207 255 308
#     4   9  17  31  51  74 102 136 173 212 259 309
#     4  10  20  36  54  77 108 140 175 215 260 311
#
# _framework density 19.977806000000001
#
# number of rings (size 3 to 8) (size 9 to 14) (size 15 to 20)
#    0.000    2.500    2.500    1.500    0.000    2.000 
#    0.000    2.500    0.000    4.500    0.000    0.000 
#    0.000    0.000    0.000    0.000    0.000    0.000 
#
# Total GULP energy -89248.406425 kJ/mol
# GULP energy per Si atom -5578.025402 kJ/mol
# Density = 1.993234 g / cm^3
# Si number density = 19.977806 Si / 1000 Ang^3
#
#
#
# Elastic Constant Matrix: (Units=GPa)
#
#
# Indices 1 2 3 4 5 6 
#
# 1 159.3862 -2.6110 77.3590 0.0000 -31.2564 0.0000
# 2 -2.6110 43.1578 -6.8135 0.0000 -3.9375 0.0000
# 3 77.3590 -6.8135 113.0135 0.0000 -36.7520 0.0000
# 4 0.0000 0.0000 0.0000 -6.8460 0.0000 -19.5560
# 5 -31.2564 -3.9375 -36.7520 0.0000 38.6445 0.0000
# 6 0.0000 0.0000 0.0000 -19.5560 0.0000 9.0609
#
#
#
# Elastic Compliance Matrix: (Units=1/GPa)
#
#
# Indices 1 2 3 4 5 6 
#
# 1 0.009521 -0.000149 -0.005830 0.000000 0.002141 0.000000
# 2 -0.000149 0.024199 0.003364 0.000000 0.005544 0.000000
# 3 -0.005830 0.003364 0.016823 0.000000 0.011626 0.000000
# 4 0.000000 0.000000 0.000000 -0.020386 0.000000 -0.043999
# 5 0.002141 0.005544 0.011626 0.000000 0.039231 0.000000
# 6 0.000000 0.000000 0.000000 -0.043999 0.000000 0.015403
#
#
# Mechanical properties :
#
#
# Convention : Reuss Voigt Hill
#
# Bulk Modulus (GPa) = 22.06895 50.15850 36.11373
# Shear Modulus (GPa) = 47.56260 24.68007 36.12134
#
# Velocity S-wave (km/s) = 4.88461 3.51860 4.25676
# Velocity P-wave (km/s) = 6.54853 6.45516 6.50201
#
# Compressibility (1/GPa) = 0.04531253
#
# Stress axis : x y z
#
# Youngs Moduli (GPa) = 105.02928 41.32456 59.44273
#
# Poissons Ratio (x) = 0.00616 0.34655
# Poissons Ratio (y) = 0.01565 -0.19996
# Poissons Ratio (z) = 0.61232 -0.13901
#
# Static dielectric constant tensor:
#      x y z
#    x 1.691830 0.000000 -0.044490 
#    y 0.000000 1.720460 0.000000 
#    z -0.044490 0.000000 1.705550 
# 
# From -- ./inp_files/3778.got.cif
#   From: 2010.05.17/outbox.cif.g08.bks.cpg/sg6_2_cif.got.tgz:3778.got - 2010.06.03 19:42:10.
