data_PCOD9130115
_publ_section_title
;
Structure prediction by ZEFSAII (Michael W. Deem and Ramdas Pophale) SiO2 
 PCOD9130115
Probable space group: C 2
;
_chemical_formula_sum "Si O2"
_cell_formula_units_Z 16
_cell_length_a 13.270709
_cell_length_b 5.036478
_cell_length_c 10.044579
_cell_angle_alpha 90.000000
_cell_angle_beta 90.773761
_cell_angle_gamma 90.000000
_cell_volume 671.294675
_symmetry_space_group_name_H-M "C 2"
_symmetry_group_IT_number 5
_symmetry_cell_setting 'monoclinic'
loop_
_space_group_symop_operation_xyz
x,y,z
-x,y,-z
1/2+x,1/2+y,z
1/2-x,1/2+y,-z
loop_
_atom_site_type_symbol
_atom_site_label
_atom_site_fract_x
_atom_site_fract_y
_atom_site_fract_z
Si Si1 0.133309 0.892040 0.087267
Si Si2 0.548115 0.898065 0.236605
Si Si3 0.223605 0.400844 0.419837
Si Si4 0.340550 0.665858 0.181585
O O1 0.923898 0.629769 0.865770
O O2 0.117263 0.981948 0.935978
O O3 0.098190 0.131291 0.179863
O O4 0.251734 0.838404 0.113866
O O5 0.608148 0.950601 0.374065
O O6 0.430049 0.843570 0.241563
O O7 0.244221 0.100083 0.462228
O O8 0.290155 0.489433 0.294902
#
# Coordination Sequence:
#
# PCOD9130115 Si02
#       4
#     4   4   4   4
#     4  11  25  43  70 107 137 170 225 281 344 416
#     4  11  26  46  71 102 136 178 227 279 343 410
#     4  11  25  47  69  98 138 182 236 279 321 399
#     4  11  25  46  72 100 141 182 215 284 348 392
#
# _framework density 23.834543
#
# number of rings (size 3 to 8) (size 9 to 14) (size 15 to 20)
#    0.000    1.000    0.000    6.750    0.000   17.000 
#    0.000    7.500    0.000    0.000    0.000    0.000 
#    0.000    0.000    0.000    0.000    0.000    0.000 
#
# Total GULP energy -44886.799009 kJ/mol
# GULP energy per Si atom -5610.849876 kJ/mol
# Density = 2.378029 g / cm^3
# Si number density = 23.834543 Si / 1000 Ang^3
#
#
#
# Elastic Constant Matrix: (Units=GPa)
#
#
# Indices 1 2 3 4 5 6 
#
# 1 78.7509 20.6787 16.6298 0.0000 34.6236 0.0000
# 2 20.6787 92.9446 -8.4804 0.0000 15.9837 0.0000
# 3 16.6298 -8.4804 85.8660 0.0000 20.3701 0.0000
# 4 0.0000 0.0000 0.0000 38.5001 0.0000 0.9427
# 5 34.6236 15.9837 20.3701 0.0000 37.4021 0.0000
# 6 0.0000 0.0000 0.0000 0.9427 0.0000 43.3618
#
#
#
# Elastic Compliance Matrix: (Units=1/GPa)
#
#
# Indices 1 2 3 4 5 6 
#
# 1 0.021607 -0.001412 0.000319 0.000000 -0.019572 0.000000
# 2 -0.001412 0.012263 0.002776 0.000000 -0.005445 0.000000
# 3 0.000319 0.002776 0.014022 0.000000 -0.009118 0.000000
# 4 0.000000 0.000000 0.000000 0.025988 0.000000 -0.000565
# 5 -0.019572 -0.005445 -0.009118 0.000000 0.052147 0.000000
# 6 0.000000 0.000000 0.000000 -0.000565 0.000000 0.023074
#
#
# Mechanical properties :
#
#
# Convention : Reuss Voigt Hill
#
# Bulk Modulus (GPa) = 19.50929 35.02419 27.26674
# Shear Modulus (GPa) = 30.70876 39.10171 34.90524
#
# Velocity S-wave (km/s) = 3.59334 4.05476 3.83101
# Velocity P-wave (km/s) = 5.04175 6.05377 5.57079
#
# Compressibility (1/GPa) = 0.05125764
#
# Stress axis : x y z
#
# Youngs Moduli (GPa) = 46.28215 81.54559 71.31832
#
# Poissons Ratio (x) = 0.11516 -0.02275
# Poissons Ratio (y) = 0.06536 -0.19801
# Poissons Ratio (z) = -0.01476 -0.22641
#
# Static dielectric constant tensor:
#      x y z
#    x 1.907720 0.000000 0.030890 
#    y 0.000000 1.848570 0.000000 
#    z 0.030890 0.000000 1.893380 
# 
# From -- ./inp_files/22303.got.cif
#   From: 2010.05.17/outbox.cif.g08.bks.cpg/sg5_12_cif.got.tgz:22303.got - 2010.06.03 18:56:24.
