data_PCOD9130331
_publ_section_title
;
Structure prediction by ZEFSAII (Michael W. Deem and Ramdas Pophale) SiO2 
 PCOD9130331
Probable space group: C 2
;
_chemical_formula_sum "Si O2"
_cell_formula_units_Z 18
_cell_length_a 7.559865
_cell_length_b 8.071683
_cell_length_c 11.938844
_cell_angle_alpha 90.000000
_cell_angle_beta 63.090269
_cell_angle_gamma 90.000000
_cell_volume 649.634756
_symmetry_space_group_name_H-M "C 2"
_symmetry_group_IT_number 5
_symmetry_cell_setting 'monoclinic'
loop_
_space_group_symop_operation_xyz
x,y,z
-x,y,-z
1/2+x,1/2+y,z
1/2-x,1/2+y,-z
loop_
_atom_site_type_symbol
_atom_site_label
_atom_site_fract_x
_atom_site_fract_y
_atom_site_fract_z
Si Si1 0.000000 0.413731 0.000000
Si Si2 0.297265 0.424743 0.532999
Si Si3 0.653023 0.503717 0.849279
Si Si4 0.019318 0.695232 0.335238
Si Si5 0.171674 0.180775 0.148189
O O1 0.164445 0.539054 0.908021
O O2 0.896699 0.297754 0.937178
O O3 0.500000 0.530293 0.500000
O O4 0.340643 0.325649 0.407139
O O5 0.326593 0.283255 0.621333
O O6 0.097522 0.526312 0.599737
O O7 0.836730 0.633875 0.806822
O O8 0.736350 0.322246 0.802906
O O9 0.522043 0.570654 0.784893
O O10 0.500000 0.489841 0.000000
#
# Coordination Sequence:
#
# PCOD9130331 Si02
#       5
#     2   4   4   4   4
#     4  12  20  44  56  88 118 192 208 262 294 390
#     4   8  20  42  68  96 125 170 223 279 314 389
#     4  12  23  41  68 101 138 176 212 273 328 412
#     4   9  20  43  70  97 130 172 222 271 336 373
#     4  12  23  40  63  88 134 177 220 251 323 381
#
# _framework density 27.707877
#
# number of rings (size 3 to 8) (size 9 to 14) (size 15 to 20)
#    1.333    0.000    4.444    1.333    0.000    0.000 
#    4.000   15.556    0.000    0.000    0.000    0.000 
#    0.000    0.000    0.000    0.000    0.000    0.000 
#
# Total GULP energy -50124.332523 kJ/mol
# GULP energy per Si atom -5569.370280 kJ/mol
# Density = 2.764481 g / cm^3
# Si number density = 27.707877 Si / 1000 Ang^3
#
#
#
# Elastic Constant Matrix: (Units=GPa)
#
#
# Indices 1 2 3 4 5 6 
#
# 1 117.9970 73.0878 40.6120 0.0000 -7.9431 0.0000
# 2 73.0878 193.6420 62.5424 0.0000 -10.9654 0.0000
# 3 40.6120 62.5424 121.1535 0.0000 -8.8218 0.0000
# 4 0.0000 0.0000 0.0000 54.8031 0.0000 -17.4994
# 5 -7.9431 -10.9654 -8.8218 0.0000 39.4107 0.0000
# 6 0.0000 0.0000 0.0000 -17.4994 0.0000 72.2620
#
#
#
# Elastic Compliance Matrix: (Units=1/GPa)
#
#
# Indices 1 2 3 4 5 6 
#
# 1 0.011451 -0.003665 -0.001884 0.000000 0.000867 0.000000
# 2 -0.003665 0.007411 -0.002542 0.000000 0.000754 0.000000
# 3 -0.001884 -0.002542 0.010286 0.000000 0.001215 0.000000
# 4 0.000000 0.000000 0.000000 0.019776 0.000000 0.004789
# 5 0.000867 0.000754 0.001215 0.000000 0.026030 0.000000
# 6 0.000000 0.000000 0.000000 0.004789 0.000000 0.014998
#
#
# Mechanical properties :
#
#
# Convention : Reuss Voigt Hill
#
# Bulk Modulus (GPa) = 77.11731 87.25299 82.18515
# Shear Modulus (GPa) = 45.26587 50.39852 47.83220
#
# Velocity S-wave (km/s) = 4.04627 4.26951 4.15939
# Velocity P-wave (km/s) = 7.05141 7.47420 7.26588
#
# Compressibility (1/GPa) = 0.01296726
#
# Stress axis : x y z
#
# Youngs Moduli (GPa) = 87.32548 134.92983 97.21543
#
# Poissons Ratio (x) = 0.49448 0.18313
# Poissons Ratio (y) = 0.32002 0.24717
# Poissons Ratio (z) = 0.16450 0.34306
#
# Static dielectric constant tensor:
#      x y z
#    x 2.278710 0.000000 0.061520 
#    y 0.000000 2.205310 0.000000 
#    z 0.061520 0.000000 2.230870 
# 
# From -- ./inp_files/59228.got.cif
#   From: 2010.05.17/outbox.cif.g08.bks.cpg/sg5_30_cif.got.tgz:59228.got - 2010.06.03 18:56:24.
