data_PCOD9130546
_publ_section_title
;
Structure prediction by ZEFSAII (Michael W. Deem and Ramdas Pophale) SiO2 
 PCOD9130546
Probable space group: C 2
;
_chemical_formula_sum "Si O2"
_cell_formula_units_Z 16
_cell_length_a 16.359126
_cell_length_b 10.352147
_cell_length_c 4.818157
_cell_angle_alpha 90.000000
_cell_angle_beta 49.427822
_cell_angle_gamma 90.000000
_cell_volume 619.796510
_symmetry_space_group_name_H-M "C 2"
_symmetry_group_IT_number 5
_symmetry_cell_setting 'monoclinic'
loop_
_space_group_symop_operation_xyz
x,y,z
-x,y,-z
1/2+x,1/2+y,z
1/2-x,1/2+y,-z
loop_
_atom_site_type_symbol
_atom_site_label
_atom_site_fract_x
_atom_site_fract_y
_atom_site_fract_z
Si Si1 0.693814 0.724030 0.510423
Si Si2 0.625335 0.876713 0.176195
Si Si3 0.000000 0.029518 0.000000
Si Si4 0.500000 0.351321 0.500000
Si Si5 0.107494 0.624643 0.586116
O O1 0.700402 0.784299 0.193667
O O2 0.599245 0.619312 0.700544
O O3 0.797602 0.657677 0.411852
O O4 0.656345 0.842494 0.794113
O O5 0.500000 0.839880 0.500000
O O6 0.634650 0.017283 0.294867
O O7 0.958610 0.943245 0.835675
O O8 0.577801 0.255240 0.490638
O O9 0.000000 0.586249 0.000000
#
# Coordination Sequence:
#
# PCOD9130546 Si02
#       5
#     4   4   2   2   4
#     4  12  29  47  81 112 151 201 256 316 381 447
#     4  12  25  52  77 112 149 200 260 316 372 454
#     4  12  26  52  74 112 152 200 250 316 380 454
#     4  12  28  48  74 108 160 196 248 306 388 452
#     4  12  30  51  77 115 158 205 253 316 385 458
#
# _framework density 25.814923
#
# number of rings (size 3 to 8) (size 9 to 14) (size 15 to 20)
#    0.000    0.000    5.000    3.000   10.500    0.000 
#    0.000    0.000    0.000    0.000    0.000    0.000 
#    0.000    0.000    0.000    0.000    0.000    0.000 
#
# Total GULP energy -44909.070021 kJ/mol
# GULP energy per Si atom -5613.633753 kJ/mol
# Density = 2.575617 g / cm^3
# Si number density = 25.814923 Si / 1000 Ang^3
#
#
#
# Elastic Constant Matrix: (Units=GPa)
#
#
# Indices 1 2 3 4 5 6 
#
# 1 130.6346 20.3449 14.9610 0.0000 -9.4082 0.0000
# 2 20.3449 129.4338 19.8709 0.0000 5.8488 0.0000
# 3 14.9610 19.8709 73.5819 0.0000 8.2475 0.0000
# 4 0.0000 0.0000 0.0000 8.8419 0.0000 5.8075
# 5 -9.4082 5.8488 8.2475 0.0000 57.5461 0.0000
# 6 0.0000 0.0000 0.0000 5.8075 0.0000 30.7969
#
#
#
# Elastic Compliance Matrix: (Units=1/GPa)
#
#
# Indices 1 2 3 4 5 6 
#
# 1 0.008124 -0.001116 -0.001537 0.000000 0.001662 0.000000
# 2 -0.001116 0.008229 -0.001912 0.000000 -0.000745 0.000000
# 3 -0.001537 -0.001912 0.014661 0.000000 -0.002158 0.000000
# 4 0.000000 0.000000 0.000000 0.129087 0.000000 -0.024342
# 5 0.001662 -0.000745 -0.002158 0.000000 0.018034 0.000000
# 6 0.000000 0.000000 0.000000 -0.024342 0.000000 0.037061
#
#
# Mechanical properties :
#
#
# Convention : Reuss Voigt Hill
#
# Bulk Modulus (GPa) = 45.69420 49.33377 47.51399
# Shear Modulus (GPa) = 21.58708 38.00187 29.79448
#
# Velocity S-wave (km/s) = 2.89489 3.84094 3.40097
# Velocity P-wave (km/s) = 5.37708 6.23077 5.81960
#
# Compressibility (1/GPa) = 0.02188461
#
# Stress axis : x y z
#
# Youngs Moduli (GPa) = 123.08490 121.52808 68.20856
#
# Poissons Ratio (x) = 0.13565 0.10482
# Poissons Ratio (y) = 0.13739 0.13039
# Poissons Ratio (z) = 0.18915 0.23232
#
# Static dielectric constant tensor:
#      x y z
#    x 1.986130 0.000000 0.005400 
#    y 0.000000 2.004980 0.000000 
#    z 0.005400 0.000000 2.048730 
# 
# From -- ./inp_files/6563.got.cif
#   From: 2010.05.17/outbox.cif.g08.bks.cpg/sg5_4_cif.got.tgz:6563.got - 2010.06.03 18:56:24.
