data_PCOD9130919
_publ_section_title
;
Structure prediction by ZEFSAII (Michael W. Deem and Ramdas Pophale) SiO2 
 PCOD9130919
Probable space group: P M
;
_chemical_formula_sum "Si O2"
_cell_formula_units_Z 16
_cell_length_a 12.315839
_cell_length_b 8.305509
_cell_length_c 10.004969
_cell_angle_alpha 90.000000
_cell_angle_beta 129.438339
_cell_angle_gamma 90.000000
_cell_volume 790.381774
_symmetry_space_group_name_H-M "P M"
_symmetry_group_IT_number 6
_symmetry_cell_setting 'monoclinic'
loop_
_space_group_symop_operation_xyz
x,y,z
x,-y,z
loop_
_atom_site_type_symbol
_atom_site_label
_atom_site_fract_x
_atom_site_fract_y
_atom_site_fract_z
Si Si1 0.169740 0.805199 0.137010
Si Si2 0.675717 0.316051 0.071628
Si Si3 0.966768 0.187852 0.219244
Si Si4 0.028468 0.197207 0.750284
Si Si5 0.487447 0.688441 0.424294
Si Si6 0.186582 0.811286 0.622278
Si Si7 0.722101 0.190677 0.406703
Si Si8 0.462495 0.811906 0.697751
O O1 0.326715 0.737153 0.266118
O O2 0.076697 0.760068 0.192479
O O3 0.182185 0.000000 0.147498
O O4 0.082926 0.755545 0.938148
O O5 0.629155 0.500000 0.023630
O O6 0.827949 0.291311 0.124146
O O7 0.688589 0.269311 0.237285
O O8 0.570550 0.207380 0.903489
O O9 0.048836 0.193290 0.423159
O O10 0.928600 0.000000 0.163511
O O11 0.871472 0.248061 0.585232
O O12 0.141438 0.256394 0.729295
O O13 0.027605 0.000000 0.746053
O O14 0.506036 0.500000 0.416213
O O15 0.598074 0.777990 0.415446
O O16 0.510364 0.728525 0.598663
O O17 0.315870 0.742058 0.639870
O O18 0.223751 0.000000 0.672610
O O19 0.735287 0.000000 0.392822
O O20 0.441886 0.000000 0.646900
#
# Coordination Sequence:
#
# PCOD9130919 Si02
#       8
#     2   2   2   2   2   2   2   2
#     4  10  21  39  65  94 122 162 215 264 309 375
#     4  12  26  42  61  95 134 168 206 264 330 383
#     4  10  19  38  65  91 120 160 214 266 308 372
#     4   9  19  36  63  96 120 150 208 269 311 357
#     4  12  26  43  61  92 135 171 205 264 329 382
#     4   9  17  35  63  93 118 148 207 272 310 353
#     4  11  23  43  68  92 123 171 219 264 311 378
#     4  11  23  42  68  95 122 168 220 263 310 380
#
# _framework density 20.243383000000001
#
# number of rings (size 3 to 8) (size 9 to 14) (size 15 to 20)
#    0.000    1.500    2.500    3.000    3.500    0.500 
#    0.000    1.250    0.000    0.000    0.000    0.000 
#    0.000    0.000    0.000    0.000    0.000    0.000 
#
# Total GULP energy -89377.899826 kJ/mol
# GULP energy per Si atom -5586.118739 kJ/mol
# Density = 2.019731 g / cm^3
# Si number density = 20.243383 Si / 1000 Ang^3
#
#
#
# Elastic Constant Matrix: (Units=GPa)
#
#
# Indices 1 2 3 4 5 6 
#
# 1 78.4058 -6.3419 18.7033 0.0000 -10.4354 0.0000
# 2 -6.3419 23.0943 -6.2914 0.0000 -0.4396 0.0000
# 3 18.7033 -6.2914 87.4471 0.0000 -12.2213 0.0000
# 4 0.0000 0.0000 0.0000 19.8293 0.0000 10.1025
# 5 -10.4354 -0.4396 -12.2213 0.0000 29.3679 0.0000
# 6 0.0000 0.0000 0.0000 10.1025 0.0000 44.9806
#
#
#
# Elastic Compliance Matrix: (Units=1/GPa)
#
#
# Indices 1 2 3 4 5 6 
#
# 1 0.014101 0.003353 -0.002195 0.000000 0.004147 0.000000
# 2 0.003353 0.045087 0.002960 0.000000 0.003098 0.000000
# 3 -0.002195 0.002960 0.012757 0.000000 0.004573 0.000000
# 4 0.000000 0.000000 0.000000 0.056947 0.000000 -0.012790
# 5 0.004147 0.003098 0.004573 0.000000 0.037474 0.000000
# 6 0.000000 0.000000 0.000000 -0.012790 0.000000 0.025104
#
#
# Mechanical properties :
#
#
# Convention : Reuss Voigt Hill
#
# Bulk Modulus (GPa) = 12.47190 22.34299 17.40745
# Shear Modulus (GPa) = 23.81393 31.02737 27.42065
#
# Velocity S-wave (km/s) = 3.43356 3.91924 3.68441
# Velocity P-wave (km/s) = 4.67905 5.61620 5.16891
#
# Compressibility (1/GPa) = 0.08018025
#
# Stress axis : x y z
#
# Youngs Moduli (GPa) = 70.91698 22.17946 78.38826
#
# Poissons Ratio (x) = -0.07437 0.17207
# Poissons Ratio (y) = -0.23780 -0.23200
# Poissons Ratio (z) = 0.15567 -0.06564
#
# Static dielectric constant tensor:
#      x y z
#    x 1.709310 0.000000 0.002920 
#    y 0.000000 1.662690 0.000000 
#    z 0.002920 0.000000 1.697110 
# 
# From -- ./inp_files/3765.got.cif
#   From: 2010.05.17/outbox.cif.g08.bks.cpg/sg6_2_cif.got.tgz:3765.got - 2010.06.03 19:42:10.
