data_PCOD9130860
_publ_section_title
;
Structure prediction by ZEFSAII (Michael W. Deem and Ramdas Pophale) SiO2 
 PCOD9130860
Probable space group: P M
;
_chemical_formula_sum "Si O2"
_cell_formula_units_Z 16
_cell_length_a 12.564981
_cell_length_b 8.796343
_cell_length_c 10.555118
_cell_angle_alpha 90.000000
_cell_angle_beta 128.308866
_cell_angle_gamma 90.000000
_cell_volume 915.418996
_symmetry_space_group_name_H-M "P M"
_symmetry_group_IT_number 6
_symmetry_cell_setting 'monoclinic'
loop_
_space_group_symop_operation_xyz
x,y,z
x,-y,z
loop_
_atom_site_type_symbol
_atom_site_label
_atom_site_fract_x
_atom_site_fract_y
_atom_site_fract_z
Si Si1 0.700820 0.181620 0.959850
Si Si2 0.966444 0.683325 0.052319
Si Si3 0.124968 0.681659 0.425698
Si Si4 0.388582 0.317844 0.991637
Si Si5 0.959244 0.180950 0.539663
Si Si6 0.695885 0.318495 0.237094
Si Si7 0.391747 0.180809 0.714732
Si Si8 0.104821 0.683129 0.891852
O O1 0.548615 0.217240 0.800399
O O2 0.710275 0.000000 0.983736
O O3 0.819582 0.241269 0.958143
O O4 0.717899 0.260903 0.109422
O O5 0.951425 0.500000 0.040909
O O6 0.052977 0.724190 0.241059
O O7 0.043574 0.729181 0.981454
O O8 0.118740 0.500000 0.434932
O O9 0.279777 0.736488 0.547977
O O10 0.045288 0.755558 0.484381
O O11 0.384928 0.500000 0.964858
O O12 0.539111 0.282479 0.152947
O O13 0.370124 0.234480 0.843869
O O14 0.263550 0.278874 0.989977
O O15 0.806320 0.239293 0.406367
O O16 0.023479 0.244198 0.715760
O O17 0.964052 0.000000 0.541835
O O18 0.715043 0.500000 0.254972
O O19 0.372979 0.000000 0.693095
O O20 0.093369 0.500000 0.873736
#
# Coordination Sequence:
#
# PCOD9130860 Si02
#       8
#     2   2   2   2   2   2   2   2
#     4  10  20  34  54  81 114 149 185 229 281 330
#     4  10  22  38  58  82 112 149 190 231 279 335
#     4  11  21  35  56  83 112 146 188 234 276 326
#     4   9  18  33  56  81 109 144 183 228 281 329
#     4  12  23  35  55  85 114 147 186 230 281 333
#     4  10  19  33  55  83 111 144 186 232 279 329
#     4  10  20  33  53  83 114 143 183 231 278 330
#     4  10  21  39  59  82 112 148 187 233 281 332
#
# _framework density 17.478335000000001
#
# number of rings (size 3 to 8) (size 9 to 14) (size 15 to 20)
#    0.000    1.750    2.500    2.625    0.000    3.000 
#    0.000    1.250    0.000    3.000    0.000    0.000 
#    0.000    0.000    0.000    0.000    0.000    0.000 
#
# Total GULP energy -89340.458896 kJ/mol
# GULP energy per Si atom -5583.778681 kJ/mol
# Density = 1.743855 g / cm^3
# Si number density = 17.478335 Si / 1000 Ang^3
#
#
#
# Elastic Constant Matrix: (Units=GPa)
#
#
# Indices 1 2 3 4 5 6 
#
# 1 162.4739 51.8670 79.1503 0.0000 7.1467 0.0000
# 2 51.8670 44.8621 41.1149 0.0000 2.7528 0.0000
# 3 79.1503 41.1149 103.3352 0.0000 5.5315 0.0000
# 4 0.0000 0.0000 0.0000 -1.7238 0.0000 17.8671
# 5 7.1467 2.7528 5.5315 0.0000 27.5727 0.0000
# 6 0.0000 0.0000 0.0000 17.8671 0.0000 15.9907
#
#
#
# Elastic Compliance Matrix: (Units=1/GPa)
#
#
# Indices 1 2 3 4 5 6 
#
# 1 0.011487 -0.008191 -0.005483 0.000000 -0.001060 0.000000
# 2 -0.008191 0.040938 -0.010017 0.000000 0.000045 0.000000
# 3 -0.005483 -0.010017 0.017925 0.000000 -0.001175 0.000000
# 4 0.000000 0.000000 0.000000 -0.046110 0.000000 0.051520
# 5 -0.001060 0.000045 -0.001175 0.000000 0.036774 0.000000
# 6 0.000000 0.000000 0.000000 0.051520 0.000000 0.004971
#
#
# Mechanical properties :
#
#
# Convention : Reuss Voigt Hill
#
# Bulk Modulus (GPa) = 43.53716 72.77059 58.15388
# Shear Modulus (GPa) = 41.31432 17.60384 29.45908
#
# Velocity S-wave (km/s) = 4.86711 3.17705 4.10989
# Velocity P-wave (km/s) = 7.51986 7.42855 7.47434
#
# Compressibility (1/GPa) = 0.02296889
#
# Stress axis : x y z
#
# Youngs Moduli (GPa) = 87.05191 24.42735 55.78660
#
# Poissons Ratio (x) = 0.20008 0.30589
# Poissons Ratio (y) = 0.71303 0.55880
# Poissons Ratio (z) = 0.47732 0.24468
#
# Static dielectric constant tensor:
#      x y z
#    x 1.603980 0.000000 0.026440 
#    y 0.000000 1.582740 0.000000 
#    z 0.026440 0.000000 1.570610 
# 
# From -- ./inp_files/3757.got.cif
#   From: 2010.05.17/outbox.cif.g08.bks.cpg/sg6_2_cif.got.tgz:3757.got - 2010.06.03 19:42:10.
