data_PCOD9130708
_publ_section_title
;
Structure prediction by ZEFSAII (Michael W. Deem and Ramdas Pophale) SiO2 
 PCOD9130708
Probable space group: C 2
;
_chemical_formula_sum "Si O2"
_cell_formula_units_Z 16
_cell_length_a 12.000000
_cell_length_b 9.000000
_cell_length_c 30.000000
_cell_angle_alpha 90.000000
_cell_angle_beta 30.000000
_cell_angle_gamma 90.000000
_cell_volume 1620.000000
_symmetry_space_group_name_H-M "C 2"
_symmetry_group_IT_number 5
_symmetry_cell_setting 'monoclinic'
loop_
_space_group_symop_operation_xyz
x,y,z
-x,y,-z
1/2+x,1/2+y,z
1/2-x,1/2+y,-z
loop_
_atom_site_type_symbol
_atom_site_label
_atom_site_fract_x
_atom_site_fract_y
_atom_site_fract_z
Si Si1 0.128562 0.895230 0.714466
Si Si2 0.008997 0.809500 0.910292
Si Si3 0.304457 0.683034 0.728003
Si Si4 0.026921 0.611598 0.598391
Si Si5 0.722052 0.066151 0.902314
Si Si6 0.778176 0.819946 0.546274
Si Si7 0.549496 0.654208 0.085218
Si Si8 0.844618 0.835598 0.735186
O O1 0.208164 0.753624 0.715732
O O2 0.070431 0.850954 0.684877
O O3 0.326632 0.014408 0.646905
O O4 0.897975 0.969062 0.813218
O O5 0.157512 0.766432 0.816284
O O6 0.125474 0.709214 0.908753
O O7 0.000324 0.990080 0.918918
O O8 0.757020 0.744639 0.991738
O O9 0.562087 0.736960 0.642724
O O10 0.282344 0.503844 0.740864
O O11 0.154183 0.717804 0.519532
O O12 0.190746 0.485310 0.562753
O O13 0.901507 0.720113 0.676567
O O14 0.862265 0.117284 0.896029
O O15 0.500000 0.988374 0.000000
O O16 0.000000 0.828768 0.500000
O O17 0.339217 0.760709 0.168097
#
# Coordination Sequence:
#
# PCOD9130708 Si02
#       8
#     4   4   4   4   4   4   4   4
#     4  11  23  43  66  99 131 173 214 272 330 395
#     4  11  22  40  67  93 133 175 217 267 329 385
#     4  11  23  41  66  98 129 169 221 268 328 395
#     4  11  25  45  65  97 134 161 224 272 327 399
#     4  10  21  39  66  93 133 174 212 264 325 387
#     4  11  25  44  70  95 128 176 214 273 337 393
#     4  11  23  41  64  97 134 176 221 271 321 393
#     4  12  24  41  68  97 132 175 215 274 328 388
#
# _framework density 9.8765429999999999
#
# number of rings (size 3 to 8) (size 9 to 14) (size 15 to 20)
#    0.000    1.000    3.750    3.000    1.750    4.000 
#    0.000    1.875    0.000    0.000    0.000    0.000 
#    0.000    0.000    0.000    0.000    0.000    0.000 
#
# Total GULP energy -89329.129771 kJ/mol
# GULP energy per Si atom -5583.070611 kJ/mol
# Density = 0.985406 g / cm^3
# Si number density = 9.876543 Si / 1000 Ang^3
#
#
#
# Elastic Constant Matrix: (Units=GPa)
#
#
# Indices 1 2 3 4 5 6 
#
# 1 67.4549 19.1553 2.8892 0.0078 -21.7933 0.0004
# 2 19.1553 137.7804 44.4505 0.0172 -22.6423 -0.0009
# 3 2.8892 44.4505 132.1338 -0.0769 -13.8882 0.0030
# 4 0.0078 0.0172 -0.0769 29.5467 0.0146 -3.0102
# 5 -21.7933 -22.6423 -13.8882 0.0146 27.9423 0.0009
# 6 0.0004 -0.0009 0.0030 -3.0102 0.0009 32.2981
#
#
#
# Elastic Compliance Matrix: (Units=1/GPa)
#
#
# Indices 1 2 3 4 5 6 
#
# 1 0.020066 -0.000653 0.001446 -0.000009 0.015839 -0.000002
# 2 -0.000653 0.009060 -0.002443 -0.000014 0.005618 -0.000001
# 3 0.001446 -0.002443 0.008725 0.000022 0.003484 0.000001
# 4 -0.000009 -0.000014 0.000022 0.034169 -0.000026 0.003185
# 5 0.015839 0.005618 0.003484 -0.000026 0.054426 -0.000004
# 6 -0.000002 -0.000001 0.000001 0.003185 -0.000004 0.031258
#
#
# Mechanical properties :
#
#
# Convention : Reuss Voigt Hill
#
# Bulk Modulus (GPa) = 28.94402 52.26212 40.60307
# Shear Modulus (GPa) = 28.98188 36.01567 32.49877
#
# Velocity S-wave (km/s) = 3.83457 4.27464 4.06057
# Velocity P-wave (km/s) = 5.85576 7.13292 6.52566
#
# Compressibility (1/GPa) = 0.03454945
#
# Stress axis : x y z
#
# Youngs Moduli (GPa) = 49.83641 110.37329 114.61853
#
# Poissons Ratio (x) = 0.07209 -0.16571
# Poissons Ratio (y) = 0.03255 0.28003
# Poissons Ratio (z) = -0.07205 0.26966
#
# Static dielectric constant tensor:
#      x y z
#    x 1.722510 0.000000 0.014640 
#    y 0.000000 1.711920 0.000000 
#    z 0.014640 0.000000 1.715760 
# 
# From -- ./inp_files/65132.got.cif
#   From: 2010.05.17/outbox.ucp.g08.bks.cvg/sg5_33_cif.got.tgz:65132.got - 2010.06.11 12:53:14.
