data_PCOD9130668
_publ_section_title
;
Structure prediction by ZEFSAII (Michael W. Deem and Ramdas Pophale) SiO2 
 PCOD9130668
Probable space group: C 2
;
_chemical_formula_sum "Si O2"
_cell_formula_units_Z 12
_cell_length_a 18.000000
_cell_length_b 9.000000
_cell_length_c 24.000000
_cell_angle_alpha 90.000000
_cell_angle_beta 20.000000
_cell_angle_gamma 90.000000
_cell_volume 1329.774317
_symmetry_space_group_name_H-M "C 2"
_symmetry_group_IT_number 5
_symmetry_cell_setting 'monoclinic'
loop_
_space_group_symop_operation_xyz
x,y,z
-x,y,-z
1/2+x,1/2+y,z
1/2-x,1/2+y,-z
loop_
_atom_site_type_symbol
_atom_site_label
_atom_site_fract_x
_atom_site_fract_y
_atom_site_fract_z
Si Si1 0.083471 0.354750 0.658355
Si Si2 0.256319 0.859624 0.657760
Si Si3 0.918496 0.678132 0.498011
Si Si4 0.769465 0.201041 0.151527
Si Si5 0.412511 0.382047 0.002322
Si Si6 0.630546 0.211682 0.635468
O O1 0.236200 0.277892 0.596913
O O2 0.171396 0.286068 0.538273
O O3 0.123350 0.533171 0.631428
O O4 0.826291 0.321466 0.846321
O O5 0.500000 0.802484 0.500000
O O6 0.149501 0.756069 0.686206
O O7 0.095928 0.873210 0.824559
O O8 0.309968 0.019773 0.591089
O O9 0.000000 0.740224 0.500000
O O10 0.123658 0.665009 0.309942
O O11 0.591646 0.273386 0.236008
O O12 0.000000 0.282345 0.000000
O O13 0.851912 0.052574 0.061411
O O14 0.500000 0.318091 0.000000
#
# Coordination Sequence:
#
# PCOD9130668 Si02
#       6
#     4   4   4   4   4   4
#     4  10  21  36  57  79 110 143 176 221 268 316
#     4  11  21  34  57  81 107 142 182 220 264 320
#     4  10  20  35  57  82 108 143 179 218 265 318
#     4   9  17  32  54  77 106 139 175 217 262 313
#     4  10  19  33  54  79 106 140 180 221 263 315
#     4  10  20  36  55  80 107 143 180 219 268 314
#
# _framework density 9.0240880000000008
#
# number of rings (size 3 to 8) (size 9 to 14) (size 15 to 20)
#    0.000    2.000    0.000    8.000    0.000    4.667 
#    0.000    0.000    0.000   21.000    0.000    1.167 
#    0.000    0.000    0.000    0.000    0.000    0.000 
#
# Total GULP energy -66860.122714 kJ/mol
# GULP energy per Si atom -5571.676893 kJ/mol
# Density = 0.900355 g / cm^3
# Si number density = 9.024088 Si / 1000 Ang^3
#
#
#
# Elastic Constant Matrix: (Units=GPa)
#
#
# Indices 1 2 3 4 5 6 
#
# 1 137.4289 26.4847 78.2909 -0.0035 9.9697 -0.0004
# 2 26.4847 41.8060 25.8992 -0.0083 1.5064 -0.0018
# 3 78.2909 25.8992 194.9301 -0.0185 6.5574 -0.0033
# 4 -0.0035 -0.0083 -0.0185 24.0883 0.0001 0.3822
# 5 9.9697 1.5064 6.5574 0.0001 43.1261 -0.0002
# 6 -0.0004 -0.0018 -0.0033 0.3822 -0.0002 33.5543
#
#
#
# Elastic Compliance Matrix: (Units=1/GPa)
#
#
# Indices 1 2 3 4 5 6 
#
# 1 0.010196 -0.004246 -0.003474 -0.000003 -0.001680 0.000000
# 2 -0.004246 0.027840 -0.002004 0.000007 0.000314 0.000001
# 3 -0.003474 -0.002004 0.006797 0.000004 -0.000160 0.000000
# 4 -0.000003 0.000007 0.000004 0.041521 0.000000 -0.000473
# 5 -0.001680 0.000314 -0.000160 0.000000 0.023590 0.000000
# 6 0.000000 0.000001 0.000000 -0.000473 0.000000 0.029808
#
#
# Mechanical properties :
#
#
# Convention : Reuss Voigt Hill
#
# Bulk Modulus (GPa) = 39.39501 70.61276 55.00388
# Shear Modulus (GPa) = 29.82165 36.38641 33.10403
#
# Velocity S-wave (km/s) = 4.06930 4.49494 4.28741
# Velocity P-wave (km/s) = 6.62979 8.13319 7.41967
#
# Compressibility (1/GPa) = 0.02538393
#
# Stress axis : x y z
#
# Youngs Moduli (GPa) = 98.07737 35.91910 147.12080
#
# Poissons Ratio (x) = 0.15253 0.51115
# Poissons Ratio (y) = 0.41647 0.29484
# Poissons Ratio (z) = 0.34076 0.07198
#
# Static dielectric constant tensor:
#      x y z
#    x 1.678990 0.000000 -0.041220 
#    y 0.000000 1.628370 0.000000 
#    z -0.041220 0.000000 1.632630 
# 
# From -- ./inp_files/69072.got.cif
#   From: 2010.05.17/outbox.ucp.g08.bks.cvg/sg5_35_cif.got.tgz:69072.got - 2010.06.11 12:53:14.
