data_PCOD9130983
_publ_section_title
;
Structure prediction by ZEFSAII (Michael W. Deem and Ramdas Pophale) SiO2 
 PCOD9130983
Probable space group: P M
;
_chemical_formula_sum "Si O2"
_cell_formula_units_Z 16
_cell_length_a 9.560097
_cell_length_b 8.641863
_cell_length_c 11.379820
_cell_angle_alpha 90.000000
_cell_angle_beta 64.821301
_cell_angle_gamma 90.000000
_cell_volume 850.837426
_symmetry_space_group_name_H-M "P M"
_symmetry_group_IT_number 6
_symmetry_cell_setting 'monoclinic'
loop_
_space_group_symop_operation_xyz
x,y,z
x,-y,z
loop_
_atom_site_type_symbol
_atom_site_label
_atom_site_fract_x
_atom_site_fract_y
_atom_site_fract_z
Si Si1 0.334240 0.816254 0.157630
Si Si2 0.951041 0.688174 0.918008
Si Si3 0.872165 0.313244 0.685028
Si Si4 0.721892 0.814934 0.387975
Si Si5 0.563035 0.184491 0.690319
Si Si6 0.641648 0.685809 0.165759
Si Si7 0.030965 0.685014 0.383895
Si Si8 0.269870 0.685358 0.922318
O O1 0.490213 0.741940 0.152252
O O2 0.188437 0.763706 0.287701
O O3 0.348814 0.000000 0.154020
O O4 0.303008 0.758911 0.036762
O O5 0.953576 0.500000 0.917633
O O6 0.940418 0.735829 0.785719
O O7 0.106115 0.739528 0.927999
O O8 0.796312 0.736255 0.041270
O O9 0.853206 0.500000 0.692318
O O10 0.705532 0.238352 0.720966
O O11 0.980044 0.274268 0.535142
O O12 0.615699 0.776474 0.538780
O O13 0.650729 0.753580 0.293237
O O14 0.888974 0.739194 0.352641
O O15 0.739653 0.000000 0.377771
O O16 0.408042 0.267827 0.786177
O O17 0.544063 0.000000 0.706080
O O18 0.641224 0.500000 0.171665
O O19 0.046937 0.500000 0.369667
O O20 0.265290 0.500000 0.937104
#
# Coordination Sequence:
#
# PCOD9130983 Si02
#       8
#     2   2   2   2   2   2   2   2
#     4  12  25  40  58  83 117 153 191 240 300 355
#     4   9  20  37  58  84 111 142 185 238 288 336
#     4   9  18  36  61  86 113 148 190 236 286 340
#     4  10  21  38  59  85 120 157 193 238 292 346
#     4  10  21  37  57  85 119 154 191 232 285 345
#     4  11  22  38  61  86 114 150 195 244 293 348
#     4  10  20  36  60  88 116 151 196 240 286 345
#     4  11  22  38  60  85 114 149 193 242 290 345
#
# _framework density 18.805002000000002
#
# number of rings (size 3 to 8) (size 9 to 14) (size 15 to 20)
#    0.000    1.750    0.000    4.500    0.000    5.000 
#    0.000    5.000    0.000    0.000    0.000    0.000 
#    0.000    0.000    0.000    0.000    0.000    0.000 
#
# Total GULP energy -89431.106426 kJ/mol
# GULP energy per Si atom -5589.444152 kJ/mol
# Density = 1.876220 g / cm^3
# Si number density = 18.805002 Si / 1000 Ang^3
#
#
#
# Elastic Constant Matrix: (Units=GPa)
#
#
# Indices 1 2 3 4 5 6 
#
# 1 138.4399 11.4245 73.1312 0.0000 13.6214 0.0000
# 2 11.4245 34.8395 16.6747 0.0000 2.5579 0.0000
# 3 73.1312 16.6747 81.4115 0.0000 3.8249 0.0000
# 4 0.0000 0.0000 0.0000 28.5749 0.0000 1.9513
# 5 13.6214 2.5579 3.8249 0.0000 39.5315 0.0000
# 6 0.0000 0.0000 0.0000 1.9513 0.0000 8.0167
#
#
#
# Elastic Compliance Matrix: (Units=1/GPa)
#
#
# Indices 1 2 3 4 5 6 
#
# 1 0.014369 0.001840 -0.013105 0.000000 -0.003802 0.000000
# 2 0.001840 0.032139 -0.008145 0.000000 -0.001925 0.000000
# 3 -0.013105 -0.008145 0.025603 0.000000 0.002565 0.000000
# 4 0.000000 0.000000 0.000000 0.035587 0.000000 -0.008662
# 5 -0.003802 -0.001925 0.002565 0.000000 0.026483 0.000000
# 6 0.000000 0.000000 0.000000 -0.008662 0.000000 0.126849
#
#
# Mechanical properties :
#
#
# Convention : Reuss Voigt Hill
#
# Bulk Modulus (GPa) = 30.03879 50.79464 40.41672
# Shear Modulus (GPa) = 16.07988 25.45532 20.76760
#
# Velocity S-wave (km/s) = 2.92736 3.68318 3.32681
# Velocity P-wave (km/s) = 5.23779 6.71995 6.02462
#
# Compressibility (1/GPa) = 0.03329029
#
# Stress axis : x y z
#
# Youngs Moduli (GPa) = 69.59654 31.11445 39.05732
#
# Poissons Ratio (x) = -0.05725 0.51186
# Poissons Ratio (y) = -0.12805 0.31812
# Poissons Ratio (z) = 0.91209 0.25343
#
# Static dielectric constant tensor:
#      x y z
#    x 1.613560 0.000000 0.002890 
#    y 0.000000 1.631240 0.000000 
#    z 0.002890 0.000000 1.644090 
# 
# From -- ./inp_files/3784.got.cif
#   From: 2010.05.17/outbox.cif.g08.bks.cpg/sg6_2_cif.got.tgz:3784.got - 2010.06.03 19:42:10.
