data_PCOD9130311
_publ_section_title
;
Structure prediction by ZEFSAII (Michael W. Deem and Ramdas Pophale) SiO2 
 PCOD9130311
Probable space group: C 2
;
_chemical_formula_sum "Si O2"
_cell_formula_units_Z 22
_cell_length_a 5.584953
_cell_length_b 13.219952
_cell_length_c 12.406582
_cell_angle_alpha 90.000000
_cell_angle_beta 90.930598
_cell_angle_gamma 90.000000
_cell_volume 915.891998
_symmetry_space_group_name_H-M "C 2"
_symmetry_group_IT_number 5
_symmetry_cell_setting 'monoclinic'
loop_
_space_group_symop_operation_xyz
x,y,z
-x,y,-z
1/2+x,1/2+y,z
1/2-x,1/2+y,-z
loop_
_atom_site_type_symbol
_atom_site_label
_atom_site_fract_x
_atom_site_fract_y
_atom_site_fract_z
Si Si1 0.319757 0.681360 0.592814
Si Si2 0.473492 0.548761 0.785130
Si Si3 0.752832 0.683222 0.935274
Si Si4 0.891157 0.399075 0.118302
Si Si5 0.500000 0.005387 0.500000
Si Si6 0.746642 0.381298 0.682090
O O1 0.500000 0.715508 0.500000
O O2 0.420402 0.643127 0.707774
O O3 0.163114 0.776831 0.628332
O O4 0.197368 0.583133 0.543465
O O5 0.698240 0.589530 0.855532
O O6 0.262663 0.499366 0.854480
O O7 0.534960 0.456170 0.708059
O O8 0.768975 0.796043 0.884167
O O9 0.500000 0.686794 0.000000
O O10 0.000000 0.668700 0.000000
O O11 0.096147 0.374983 0.207852
O O12 0.000000 0.410198 0.000000
O O13 0.409739 0.937696 0.596316
#
# Coordination Sequence:
#
# PCOD9130311 Si02
#       6
#     4   4   4   4   2   4
#     4  12  26  49  74 113 154 202 265 336 404 478
#     4  12  28  47  80 111 155 213 268 330 410 482
#     4  11  29  51  78 116 163 214 273 336 399 480
#     4  11  28  51  77 117 164 213 270 333 409 486
#     4  12  26  46  78 112 152 208 266 336 412 468
#     4  12  27  46  78 113 154 204 271 330 402 483
#
# _framework density 24.020296999999999
#
# number of rings (size 3 to 8) (size 9 to 14) (size 15 to 20)
#    0.000    0.364    6.364    0.000   10.182    4.364 
#    0.000    0.000    0.000    0.000    0.000    0.000 
#    0.000    0.000    0.000    0.000    0.000    0.000 
#
# Total GULP energy -61532.865256 kJ/mol
# GULP energy per Si atom -5593.896841 kJ/mol
# Density = 2.396563 g / cm^3
# Si number density = 24.020297 Si / 1000 Ang^3
#
#
#
# Elastic Constant Matrix: (Units=GPa)
#
#
# Indices 1 2 3 4 5 6 
#
# 1 53.5349 5.2185 16.0964 0.0000 0.4971 0.0000
# 2 5.2185 111.3779 32.6996 0.0000 -12.6759 0.0000
# 3 16.0964 32.6996 112.5501 0.0000 -14.0808 0.0000
# 4 0.0000 0.0000 0.0000 26.3836 0.0000 -69.9422
# 5 0.4971 -12.6759 -14.0808 0.0000 42.7993 0.0000
# 6 0.0000 0.0000 0.0000 -69.9422 0.0000 75.9043
#
#
#
# Elastic Compliance Matrix: (Units=1/GPa)
#
#
# Indices 1 2 3 4 5 6 
#
# 1 0.019582 -0.000209 -0.002895 0.000000 -0.001242 0.000000
# 2 -0.000209 0.009994 -0.002611 0.000000 0.002104 0.000000
# 3 -0.002895 -0.002611 0.010393 0.000000 0.002680 0.000000
# 4 0.000000 0.000000 0.000000 -0.026271 0.000000 -0.024207
# 5 -0.001242 0.002104 0.002680 0.000000 0.024884 0.000000
# 6 0.000000 0.000000 0.000000 -0.024207 0.000000 -0.009132
#
#
# Mechanical properties :
#
#
# Convention : Reuss Voigt Hill
#
# Bulk Modulus (GPa) = 35.03930 42.83243 38.93586
# Shear Modulus (GPa) = 99.22192 43.91401 71.56796
#
# Velocity S-wave (km/s) = 6.43407 4.28039 5.46438
# Velocity P-wave (km/s) = 8.35556 6.50380 7.48715
#
# Compressibility (1/GPa) = 0.02853938
#
# Stress axis : x y z
#
# Youngs Moduli (GPa) = 51.06784 100.05932 96.22158
#
# Poissons Ratio (x) = 0.02089 0.27858
# Poissons Ratio (y) = 0.01066 0.25119
# Poissons Ratio (z) = 0.14785 0.26121
#
# Static dielectric constant tensor:
#      x y z
#    x 1.940280 0.000000 -0.025520 
#    y 0.000000 1.934900 0.000000 
#    z -0.025520 0.000000 1.419630 
# 
# From -- ./inp_files/33259.got.cif
#   From: 2010.05.17/outbox.cif.g08.bks.cpg/sg5_17_cif.got.tgz:33259.got - 2010.06.03 18:56:24.
