data_PCOD9130213
_publ_section_title
;
Structure prediction by ZEFSAII (Michael W. Deem and Ramdas Pophale) SiO2 
 PCOD9130213
Probable space group: C 2
;
_chemical_formula_sum "Si O2"
_cell_formula_units_Z 20
_cell_length_a 7.896150
_cell_length_b 6.938327
_cell_length_c 21.756925
_cell_angle_alpha 90.000000
_cell_angle_beta 40.591333
_cell_angle_gamma 90.000000
_cell_volume 775.570618
_symmetry_space_group_name_H-M "C 2"
_symmetry_group_IT_number 5
_symmetry_cell_setting 'monoclinic'
loop_
_space_group_symop_operation_xyz
x,y,z
-x,y,-z
1/2+x,1/2+y,z
1/2-x,1/2+y,-z
loop_
_atom_site_type_symbol
_atom_site_label
_atom_site_fract_x
_atom_site_fract_y
_atom_site_fract_z
Si Si1 0.648154 0.180570 0.070695
Si Si2 0.181341 0.980043 0.763828
Si Si3 0.961891 0.415789 0.218551
Si Si4 0.000000 0.455541 0.000000
Si Si5 0.472019 0.670194 0.625680
Si Si6 0.500000 0.393997 0.500000
O O1 0.554455 0.370102 0.135977
O O2 0.909687 0.279913 0.976365
O O3 0.656429 0.007434 0.115978
O O4 0.475041 0.114494 0.062163
O O5 0.414754 0.966773 0.749293
O O6 0.282548 0.857762 0.677539
O O7 0.106880 0.194390 0.768169
O O8 0.693014 0.534936 0.282775
O O9 0.500926 0.537633 0.557917
O O10 0.750250 0.754863 0.566971
#
# Coordination Sequence:
#
# PCOD9130213 Si02
#       6
#     4   4   4   2   4   2
#     4  11  28  46  74 111 150 194 248 301 372 434
#     4  11  25  49  78 106 146 199 247 299 360 448
#     4  11  25  49  78 106 146 199 247 299 360 448
#     4  12  28  48  76 108 154 192 240 314 368 430
#     4  11  28  50  74 111 150 194 248 301 372 434
#     4  12  28  48  76 108 154 192 240 314 368 430
#
# _framework density 25.787468000000001
#
# number of rings (size 3 to 8) (size 9 to 14) (size 15 to 20)
#    0.000    0.800    2.000    2.400   11.200    8.800 
#    0.000    0.000    0.000    0.000    0.000    0.000 
#    0.000    0.000    0.000    0.000    0.000    0.000 
#
# Total GULP energy -55786.488272 kJ/mol
# GULP energy per Si atom -5578.648827 kJ/mol
# Density = 2.572877 g / cm^3
# Si number density = 25.787468 Si / 1000 Ang^3
#
#
#
# Elastic Constant Matrix: (Units=GPa)
#
#
# Indices 1 2 3 4 5 6 
#
# 1 124.0027 87.6351 13.8689 0.0000 4.0661 0.0000
# 2 87.6351 227.5801 83.1646 0.0000 -55.9611 0.0000
# 3 13.8689 83.1646 -227.3558 0.0000 213.7614 0.0000
# 4 0.0000 0.0000 0.0000 19.4321 0.0000 1.9388
# 5 4.0661 -55.9611 213.7614 0.0000 -156.6426 0.0000
# 6 0.0000 0.0000 0.0000 1.9388 0.0000 64.1387
#
#
#
# Elastic Compliance Matrix: (Units=1/GPa)
#
#
# Indices 1 2 3 4 5 6 
#
# 1 0.011164 -0.003805 -0.002967 0.000000 -0.002399 0.000000
# 2 -0.003805 0.005348 0.000583 0.000000 -0.001213 0.000000
# 3 -0.002967 0.000583 0.016373 0.000000 0.022058 0.000000
# 4 0.000000 0.000000 0.000000 0.051617 0.000000 -0.001560
# 5 -0.002399 -0.001213 0.022058 0.000000 0.024088 0.000000
# 6 0.000000 0.000000 0.000000 -0.001560 0.000000 0.015638
#
#
# Mechanical properties :
#
#
# Convention : Reuss Voigt Hill
#
# Bulk Modulus (GPa) = 48.76165 54.84047 51.80106
# Shear Modulus (GPa) = 34.85764 -18.64382 8.10691
#
# Velocity S-wave (km/s) = 3.68057 -2.69175 1.77498
# Velocity P-wave (km/s) = 6.08377 3.41348 4.93275
#
# Compressibility (1/GPa) = 0.02050792
#
# Stress axis : x y z
#
# Youngs Moduli (GPa) = 89.57606 186.99696 61.07633
#
# Poissons Ratio (x) = 0.71148 0.18119
# Poissons Ratio (y) = 0.34081 -0.03562
# Poissons Ratio (z) = 0.26574 -0.10905
#
# Static dielectric constant tensor:
#      x y z
#    x 1.927650 0.000000 0.152890 
#    y 0.000000 1.991150 0.000000 
#    z 0.152890 0.000000 1.919680 
# 
# From -- ./inp_files/59176.got.cif
#   From: 2010.05.17/outbox.cif.g08.bks.cpg/sg5_30_cif.got.tgz:59176.got - 2010.06.03 18:56:24.
