data_PCOD9130853
_publ_section_title
;
Structure prediction by ZEFSAII (Michael W. Deem and Ramdas Pophale) SiO2 
 PCOD9130853
Probable space group: P M
;
_chemical_formula_sum "Si O2"
_cell_formula_units_Z 14
_cell_length_a 8.483898
_cell_length_b 13.218829
_cell_length_c 8.693193
_cell_angle_alpha 90.000000
_cell_angle_beta 54.832445
_cell_angle_gamma 90.000000
_cell_volume 796.966741
_symmetry_space_group_name_H-M "P M"
_symmetry_group_IT_number 6
_symmetry_cell_setting 'monoclinic'
loop_
_space_group_symop_operation_xyz
x,y,z
x,-y,z
loop_
_atom_site_type_symbol
_atom_site_label
_atom_site_fract_x
_atom_site_fract_y
_atom_site_fract_z
Si Si1 0.772980 0.381266 0.261970
Si Si2 0.184585 0.384958 0.858930
Si Si3 0.831382 0.235364 0.520287
Si Si4 0.075430 0.613085 0.567176
Si Si5 0.220498 0.117329 0.259324
Si Si6 0.441685 0.302522 0.222545
Si Si7 0.448417 0.229919 0.889151
O O1 0.732730 0.500000 0.319953
O O2 0.787613 0.310499 0.403122
O O3 0.609060 0.337267 0.241297
O O4 0.979104 0.377242 0.060254
O O5 0.257104 0.500000 0.840435
O O6 0.151228 0.369734 0.696540
O O7 0.327788 0.302903 0.847057
O O8 0.634612 0.189867 0.696316
O O9 0.920836 0.305695 0.602956
O O10 0.001111 0.157123 0.384426
O O11 0.996390 0.500000 0.602183
O O12 0.257728 0.625306 0.350628
O O13 0.348014 0.190223 0.299679
O O14 0.234075 0.000000 0.287756
O O15 0.313218 0.144424 0.041152
O O16 0.504776 0.295994 0.009375
#
# Coordination Sequence:
#
# PCOD9130853 Si02
#       7
#     2   2   2   2   2   2   2
#     4  11  20  34  55  87 125 157 186 223 274 340
#     4  10  20  33  54  83 122 158 190 225 274 337
#     4  11  21  36  60  85 114 153 187 235 282 340
#     4  10  19  33  52  82 119 156 190 227 274 336
#     4   9  21  42  61  81 110 145 192 248 292 331
#     4   9  20  35  55  82 113 152 183 240 275 334
#     4  10  21  37  57  84 113 149 190 236 285 334
#
# _framework density 17.566604000000002
#
# number of rings (size 3 to 8) (size 9 to 14) (size 15 to 20)
#    0.857    1.143    1.429    2.571    0.000    5.143 
#    0.000    0.714    0.000    6.857    0.000    0.000 
#    0.000    0.000    0.000    0.000    0.000    0.000 
#
# Total GULP energy -78002.010748 kJ/mol
# GULP energy per Si atom -5571.572196 kJ/mol
# Density = 1.752662 g / cm^3
# Si number density = 17.566604 Si / 1000 Ang^3
#
#
#
# Elastic Constant Matrix: (Units=GPa)
#
#
# Indices 1 2 3 4 5 6 
#
# 1 46.9974 28.6963 7.4446 0.0000 -16.8383 0.0000
# 2 28.6963 86.7223 14.9254 0.0000 -5.3123 0.0000
# 3 7.4446 14.9254 90.2410 0.0000 -19.5143 0.0000
# 4 0.0000 0.0000 0.0000 0.2430 0.0000 2.6235
# 5 -16.8383 -5.3123 -19.5143 0.0000 28.6000 0.0000
# 6 0.0000 0.0000 0.0000 2.6235 0.0000 17.5639
#
#
#
# Elastic Compliance Matrix: (Units=1/GPa)
#
#
# Indices 1 2 3 4 5 6 
#
# 1 0.034807 -0.010831 0.003421 0.000000 0.020815 0.000000
# 2 -0.010831 0.015265 -0.002812 0.000000 -0.005460 0.000000
# 3 0.003421 -0.002812 0.013592 0.000000 0.010766 0.000000
# 4 0.000000 0.000000 0.000000 -6.716337 0.000000 1.003198
# 5 0.020815 -0.005460 0.010766 0.000000 0.053552 0.000000
# 6 0.000000 0.000000 0.000000 1.003198 0.000000 -0.092910
#
#
# Mechanical properties :
#
#
# Convention : Reuss Voigt Hill
#
# Bulk Modulus (GPa) = 23.13737 36.23257 29.68497
# Shear Modulus (GPa) = -0.75107 20.80766 10.02830
#
# Velocity S-wave (km/s) = -0.65459 3.44539 2.39189
# Velocity P-wave (km/s) = 3.55366 6.04138 4.95614
#
# Compressibility (1/GPa) = 0.04322013
#
# Stress axis : x y z
#
# Youngs Moduli (GPa) = 28.72971 65.51102 73.57013
#
# Poissons Ratio (x) = 0.70957 -0.25170
# Poissons Ratio (y) = 0.31118 0.20687
# Poissons Ratio (z) = -0.09829 0.18421
#
# Static dielectric constant tensor:
#      x y z
#    x 1.580680 0.000000 -0.013150 
#    y 0.000000 1.566890 0.000000 
#    z -0.013150 0.000000 1.623300 
# 
# From -- ./inp_files/2816.got.cif
#   From: 2010.05.17/outbox.cif.g08.bks.cpg/sg6_2_cif.got.tgz:2816.got - 2010.06.03 19:42:10.
