data_PCOD9130080
_publ_section_title
;
Structure prediction by ZEFSAII (Michael W. Deem and Ramdas Pophale) SiO2 
 PCOD9130080
Probable space group: C 2
;
_chemical_formula_sum "Si O2"
_cell_formula_units_Z 30
_cell_length_a 6.147794
_cell_length_b 17.217392
_cell_length_c 13.653708
_cell_angle_alpha 90.000000
_cell_angle_beta 70.161709
_cell_angle_gamma 90.000000
_cell_volume 1359.462631
_symmetry_space_group_name_H-M "C 2"
_symmetry_group_IT_number 5
_symmetry_cell_setting 'monoclinic'
loop_
_space_group_symop_operation_xyz
x,y,z
-x,y,-z
1/2+x,1/2+y,z
1/2-x,1/2+y,-z
loop_
_atom_site_type_symbol
_atom_site_label
_atom_site_fract_x
_atom_site_fract_y
_atom_site_fract_z
Si Si1 0.633555 0.967500 0.121420
Si Si2 0.882360 0.626203 0.113406
Si Si3 0.219660 0.134959 0.546562
Si Si4 0.120565 0.779665 0.781664
Si Si5 0.947017 0.042481 0.240054
Si Si6 0.795180 0.893798 0.721875
Si Si7 0.000000 0.868508 0.000000
Si Si8 0.586311 0.811235 0.590037
O O1 0.442510 0.906359 0.183639
O O2 0.788037 0.927609 0.014397
O O3 0.521785 0.047506 0.106848
O O4 0.782542 0.994230 0.192778
O O5 0.618276 0.597170 0.149974
O O6 0.906582 0.687905 0.197006
O O7 0.000000 0.662937 0.000000
O O8 0.500000 0.115144 0.500000
O O9 0.000000 0.115924 0.500000
O O10 0.153561 0.097256 0.660595
O O11 0.206421 0.228546 0.553105
O O12 0.933329 0.820413 0.741869
O O13 0.368182 0.794899 0.694726
O O14 0.078745 0.820522 0.893544
O O15 0.077795 0.974409 0.278674
O O16 0.742949 0.874478 0.618427
O O17 0.500000 0.841898 0.500000
#
# Coordination Sequence:
#
# PCOD9130080 Si02
#       8
#     4   4   4   4   4   4   2   4
#     4  11  25  44  68 103 146 198 240 306 379 459
#     4  11  25  42  74 106 143 195 253 304 378 466
#     4  11  28  49  79 112 149 203 256 323 391 458
#     4  12  25  46  70 110 146 188 248 316 374 456
#     4  11  24  48  70 103 152 190 253 312 380 467
#     4  11  25  45  72 105 140 200 243 315 382 452
#     4  12  22  48  66 100 158 182 246 306 380 450
#     4  11  26  48  74 104 146 191 252 312 388 452
#
# _framework density 22.067543000000001
#
# number of rings (size 3 to 8) (size 9 to 14) (size 15 to 20)
#    0.000    0.800    4.667    0.800   11.200    0.000 
#    4.800    1.333    0.000    0.000    0.000    0.000 
#    0.000    0.000    0.000    0.000    0.000    0.000 
#
# Total GULP energy -83720.388789 kJ/mol
# GULP energy per Si atom -5581.359253 kJ/mol
# Density = 2.201732 g / cm^3
# Si number density = 22.067543 Si / 1000 Ang^3
#
#
#
# Elastic Constant Matrix: (Units=GPa)
#
#
# Indices 1 2 3 4 5 6 
#
# 1 86.3466 16.5718 31.5291 0.0000 -6.3280 0.0000
# 2 16.5718 47.1751 -6.5212 0.0000 4.5049 0.0000
# 3 31.5291 -6.5212 77.5356 0.0000 5.8795 0.0000
# 4 0.0000 0.0000 0.0000 51.6339 0.0000 97.3731
# 5 -6.3280 4.5049 5.8795 0.0000 33.9646 0.0000
# 6 0.0000 0.0000 0.0000 97.3731 0.0000 795.2593
#
#
#
# Elastic Compliance Matrix: (Units=1/GPa)
#
#
# Indices 1 2 3 4 5 6 
#
# 1 0.016109 -0.007206 -0.007556 0.000000 0.005265 0.000000
# 2 -0.007206 0.025019 0.005460 0.000000 -0.005606 0.000000
# 3 -0.007556 0.005460 0.016811 0.000000 -0.005042 0.000000
# 4 0.000000 0.000000 0.000000 0.025182 0.000000 -0.003083
# 5 0.005265 -0.005606 -0.005042 0.000000 0.032040 0.000000
# 6 0.000000 0.000000 0.000000 -0.003083 0.000000 0.001635
#
#
# Mechanical properties :
#
#
# Convention : Reuss Voigt Hill
#
# Bulk Modulus (GPa) = 25.42284 32.69074 29.05679
# Shear Modulus (GPa) = 33.66723 187.47008 110.56866
#
# Velocity S-wave (km/s) = 3.91019 9.22699 7.08614
# Velocity P-wave (km/s) = 5.65080 11.32972 8.95249
#
# Compressibility (1/GPa) = 0.03933471
#
# Stress axis : x y z
#
# Youngs Moduli (GPa) = 62.07662 39.96957 59.48360
#
# Poissons Ratio (x) = 0.28803 0.44945
# Poissons Ratio (y) = 0.44733 -0.32476
# Poissons Ratio (z) = 0.46905 -0.21822
#
# Static dielectric constant tensor:
#      x y z
#    x 1.881580 0.000000 0.027690 
#    y 0.000000 1.777430 0.000000 
#    z 0.027690 0.000000 1.562160 
# 
# From -- ./inp_files/49196.got.cif
#   From: 2010.05.17/outbox.cif.g08.bks.cpg/sg5_25_cif.got.tgz:49196.got - 2010.06.03 18:56:24.
