data_PCOD9130245
_publ_section_title
;
Structure prediction by ZEFSAII (Michael W. Deem and Ramdas Pophale) SiO2 
 PCOD9130245
Probable space group: C 2
;
_chemical_formula_sum "Si O2"
_cell_formula_units_Z 18
_cell_length_a 7.556552
_cell_length_b 11.889081
_cell_length_c 7.745232
_cell_angle_alpha 90.000000
_cell_angle_beta 82.450356
_cell_angle_gamma 90.000000
_cell_volume 689.803276
_symmetry_space_group_name_H-M "C 2"
_symmetry_group_IT_number 5
_symmetry_cell_setting 'monoclinic'
loop_
_space_group_symop_operation_xyz
x,y,z
-x,y,-z
1/2+x,1/2+y,z
1/2-x,1/2+y,-z
loop_
_atom_site_type_symbol
_atom_site_label
_atom_site_fract_x
_atom_site_fract_y
_atom_site_fract_z
Si Si1 0.500000 0.113451 0.500000
Si Si2 0.489868 0.526701 0.200958
Si Si3 0.603956 0.012529 0.822090
Si Si4 0.926566 0.279357 0.250199
Si Si5 0.213575 0.815199 0.629365
O O1 0.588462 0.207803 0.616094
O O2 0.484843 0.025164 0.663498
O O3 0.691916 0.548359 0.237858
O O4 0.390873 0.647996 0.220847
O O5 0.396159 0.428596 0.321465
O O6 0.500000 0.492444 0.000000
O O7 0.635284 0.879902 0.862636
O O8 0.500000 0.062973 0.000000
O O9 0.138621 0.292881 0.244889
O O10 0.823762 0.311400 0.437936
#
# Coordination Sequence:
#
# PCOD9130245 Si02
#       5
#     2   4   4   4   4
#     4  12  26  50  82 112 166 214 268 330 402 486
#     4  12  28  52  82 117 166 214 269 340 408 481
#     4  12  28  51  80 122 165 213 273 337 405 484
#     4  11  26  50  79 116 161 205 272 334 402 484
#     4  11  26  46  80 117 156 213 270 321 408 485
#
# _framework density 26.094396
#
# number of rings (size 3 to 8) (size 9 to 14) (size 15 to 20)
#    0.000    0.444    2.222    4.667    9.333    2.667 
#    4.000    0.000    0.000    0.000    0.000    0.000 
#    0.000    0.000    0.000    0.000    0.000    0.000 
#
# Total GULP energy -50200.141566 kJ/mol
# GULP energy per Si atom -5577.793507 kJ/mol
# Density = 2.603500 g / cm^3
# Si number density = 26.094396 Si / 1000 Ang^3
#
#
#
# Elastic Constant Matrix: (Units=GPa)
#
#
# Indices 1 2 3 4 5 6 
#
# 1 84.0082 48.7657 9.4158 0.0000 -2.1852 0.0000
# 2 48.7657 184.5273 27.8677 0.0000 -21.7985 0.0000
# 3 9.4158 27.8677 145.6651 0.0000 -3.4056 0.0000
# 4 0.0000 0.0000 0.0000 20.0447 0.0000 8.8971
# 5 -2.1852 -21.7985 -3.4056 0.0000 32.1562 0.0000
# 6 0.0000 0.0000 0.0000 8.8971 0.0000 34.8344
#
#
#
# Elastic Compliance Matrix: (Units=1/GPa)
#
#
# Indices 1 2 3 4 5 6 
#
# 1 0.014153 -0.003911 -0.000207 0.000000 -0.001711 0.000000
# 2 -0.003911 0.007132 -0.001007 0.000000 0.004462 0.000000
# 3 -0.000207 -0.001007 0.007072 0.000000 0.000052 0.000000
# 4 0.000000 0.000000 0.000000 0.056267 0.000000 -0.014371
# 5 -0.001711 0.004462 0.000052 0.000000 0.034012 0.000000
# 6 0.000000 0.000000 0.000000 -0.014371 0.000000 0.032378
#
#
# Mechanical properties :
#
#
# Convention : Reuss Voigt Hill
#
# Bulk Modulus (GPa) = 55.22729 65.14434 60.18582
# Shear Modulus (GPa) = 29.88629 39.28380 34.58505
#
# Velocity S-wave (km/s) = 3.38792 3.88422 3.64453
# Velocity P-wave (km/s) = 6.04271 6.71828 6.38943
#
# Compressibility (1/GPa) = 0.01810699
#
# Stress axis : x y z
#
# Youngs Moduli (GPa) = 70.65834 140.21035 141.39574
#
# Poissons Ratio (x) = 0.54838 0.02921
# Poissons Ratio (y) = 0.27635 0.14243
# Poissons Ratio (z) = 0.01460 0.14124
#
# Static dielectric constant tensor:
#      x y z
#    x 2.131270 0.000000 -0.028770 
#    y 0.000000 2.129760 0.000000 
#    z -0.028770 0.000000 2.089100 
# 
# From -- ./inp_files/13978.got.cif
#   From: 2010.05.17/outbox.cif.g08.bks.cpg/sg5_7_cif.got.tgz:13978.got - 2010.06.03 18:56:24.
