data_PCOD9130818
_publ_section_title
;
Structure prediction by ZEFSAII (Michael W. Deem and Ramdas Pophale) SiO2 
 PCOD9130818
Probable space group: P M
;
_chemical_formula_sum "Si O2"
_cell_formula_units_Z 11
_cell_length_a 10.948371
_cell_length_b 13.414426
_cell_length_c 7.732194
_cell_angle_alpha 90.000000
_cell_angle_beta 28.140472
_cell_angle_gamma 90.000000
_cell_volume 535.587274
_symmetry_space_group_name_H-M "P M"
_symmetry_group_IT_number 6
_symmetry_cell_setting 'monoclinic'
loop_
_space_group_symop_operation_xyz
x,y,z
x,-y,z
loop_
_atom_site_type_symbol
_atom_site_label
_atom_site_fract_x
_atom_site_fract_y
_atom_site_fract_z
Si Si1 0.336950 0.671137 0.754970
Si Si2 0.704553 0.500000 0.277653
Si Si3 0.395583 0.824127 0.390154
Si Si4 0.924743 0.500000 0.356172
Si Si5 0.312836 0.716557 0.159551
Si Si6 0.091053 0.500000 0.511166
Si Si7 0.962355 0.108871 0.695780
O O1 0.556909 0.598693 0.405845
O O2 0.287765 0.754104 0.675152
O O3 0.428634 0.716065 0.823592
O O4 0.097444 0.597851 0.097411
O O5 0.704842 0.500000 0.486061
O O6 0.979006 0.500000 0.843502
O O7 0.469876 0.759615 0.125631
O O8 0.156121 0.888680 0.618292
O O9 0.660793 0.876346 0.114882
O O10 0.877816 0.500000 0.620047
O O11 0.239875 0.603189 0.296446
O O12 0.069713 0.794083 0.459408
O O13 0.993204 0.000000 0.571321
#
# Coordination Sequence:
#
# PCOD9130818 Si02
#       7
#     2   1   2   1   2   1   2
#     4  10  21  37  56  93 123 165 211 249 314 362
#     4  11  21  31  58  85 130 169 203 251 296 382
#     4  10  22  40  66  90 122 162 202 264 304 366
#     4   9  21  35  54  82 134 164 204 253 294 376
#     4   9  22  38  64  89 130 165 204 259 302 378
#     4  10  18  38  58  93 124 169 205 242 318 362
#     4  10  22  44  67  90 123 166 208 259 315 364
#
# _framework density 20.538201999999998
#
# number of rings (size 3 to 8) (size 9 to 14) (size 15 to 20)
#    1.091    1.091    0.000    3.273    2.545    5.091 
#    0.000    4.545    0.000    0.000    0.000    0.000 
#    0.000    0.000    0.000    0.000    0.000    0.000 
#
# Total GULP energy -61240.877073 kJ/mol
# GULP energy per Si atom -5567.352461 kJ/mol
# Density = 2.049146 g / cm^3
# Si number density = 20.538202 Si / 1000 Ang^3
#
#
#
# Elastic Constant Matrix: (Units=GPa)
#
#
# Indices 1 2 3 4 5 6 
#
# 1 70.2827 29.2233 24.5765 0.0000 2.9816 0.0000
# 2 29.2233 112.8578 21.5374 0.0000 -3.6057 0.0000
# 3 24.5765 21.5374 48.0802 0.0000 -7.7242 0.0000
# 4 0.0000 0.0000 0.0000 -5.1541 0.0000 2.3731
# 5 2.9816 -3.6057 -7.7242 0.0000 34.1272 0.0000
# 6 0.0000 0.0000 0.0000 2.3731 0.0000 8.5109
#
#
#
# Elastic Compliance Matrix: (Units=1/GPa)
#
#
# Indices 1 2 3 4 5 6 
#
# 1 0.018856 -0.003333 -0.008786 0.000000 -0.003988 0.000000
# 2 -0.003333 0.010278 -0.002780 0.000000 0.000748 0.000000
# 3 -0.008786 -0.002780 0.027615 0.000000 0.006724 0.000000
# 4 0.000000 0.000000 0.000000 -0.171946 0.000000 0.047943
# 5 -0.003988 0.000748 0.006724 0.000000 0.031252 0.000000
# 6 0.000000 0.000000 0.000000 0.047943 0.000000 0.104129
#
#
# Mechanical properties :
#
#
# Convention : Reuss Voigt Hill
#
# Bulk Modulus (GPa) = 37.10484 42.43279 39.76882
# Shear Modulus (GPa) = 84.79720 17.88904 51.34312
#
# Velocity S-wave (km/s) = 6.43251 2.95449 5.00531
# Velocity P-wave (km/s) = 8.56008 5.68718 7.26702
#
# Compressibility (1/GPa) = 0.02695066
#
# Stress axis : x y z
#
# Youngs Moduli (GPa) = 53.03477 97.29277 36.21216
#
# Poissons Ratio (x) = 0.32430 0.31815
# Poissons Ratio (y) = 0.17678 0.10068
# Poissons Ratio (z) = 0.46595 0.27049
#
# Static dielectric constant tensor:
#      x y z
#    x 1.772190 0.000000 -0.038530 
#    y 0.000000 1.674570 0.000000 
#    z -0.038530 0.000000 1.717240 
# 
# From -- ./inp_files/3911.got.cif
#   From: 2010.05.17/outbox.cif.g08.bks.cpg/sg6_2_cif.got.tgz:3911.got - 2010.06.03 19:42:10.
