data_PCOD9130902
_publ_section_title
;
Structure prediction by ZEFSAII (Michael W. Deem and Ramdas Pophale) SiO2 
 PCOD9130902
Probable space group: P M
;
_chemical_formula_sum "Si O2"
_cell_formula_units_Z 15
_cell_length_a 10.465969
_cell_length_b 12.592572
_cell_length_c 6.954101
_cell_angle_alpha 90.000000
_cell_angle_beta 137.502847
_cell_angle_gamma 90.000000
_cell_volume 619.148286
_symmetry_space_group_name_H-M "P M"
_symmetry_group_IT_number 6
_symmetry_cell_setting 'monoclinic'
loop_
_space_group_symop_operation_xyz
x,y,z
x,-y,z
loop_
_atom_site_type_symbol
_atom_site_label
_atom_site_fract_x
_atom_site_fract_y
_atom_site_fract_z
Si Si1 0.296580 0.346660 0.420030
Si Si2 0.366878 0.380978 0.042689
Si Si3 0.766132 0.116171 0.701585
Si Si4 0.418898 0.884630 0.589392
Si Si5 0.884331 0.649870 0.899976
Si Si6 0.924504 0.386106 0.487762
Si Si7 0.652706 0.206966 0.186898
Si Si8 0.615084 0.500000 0.847597
O O1 0.341965 0.368432 0.245779
O O2 0.296731 0.220791 0.449953
O O3 0.449818 0.407262 0.716878
O O4 0.083180 0.383484 0.210118
O O5 0.447547 0.500000 0.105551
O O6 0.498099 0.285202 0.115781
O O7 0.150294 0.380053 0.722064
O O8 0.555599 0.117209 0.556547
O O9 0.864218 0.222964 0.883808
O O10 0.747263 0.134804 0.453988
O O11 0.848852 0.000000 0.837808
O O12 0.325749 0.000000 0.498394
O O13 0.556985 0.865278 0.922405
O O14 0.884800 0.617932 0.673616
O O15 0.722967 0.592044 0.835444
O O16 0.835609 0.500000 0.305644
O O17 0.813662 0.286207 0.284736
#
# Coordination Sequence:
#
# PCOD9130902 Si02
#       8
#     2   2   2   2   2   2   2   1
#     4  11  21  38  64  95 128 166 209 256 315 380
#     4  10  19  35  60  92 128 164 204 254 311 378
#     4  10  21  41  66  90 121 168 216 264 319 370
#     4  11  24  43  65  93 126 166 218 269 313 370
#     4  10  20  34  63  95 124 167 209 252 317 379
#     4   9  18  33  57  90 127 162 204 252 309 378
#     4  11  21  39  65  87 122 168 208 259 316 371
#     4  12  18  34  58  96 132 162 200 258 308 384
#
# _framework density 24.226831000000001
#
# number of rings (size 3 to 8) (size 9 to 14) (size 15 to 20)
#    0.000    1.600    4.000    2.000    0.000    0.533 
#    4.800    0.000    2.933    1.600    0.000    0.000 
#    0.000    0.000    0.000    0.000    0.000    0.000 
#
# Total GULP energy -83776.401647 kJ/mol
# GULP energy per Si atom -5585.093443 kJ/mol
# Density = 2.417169 g / cm^3
# Si number density = 24.226831 Si / 1000 Ang^3
#
#
#
# Elastic Constant Matrix: (Units=GPa)
#
#
# Indices 1 2 3 4 5 6 
#
# 1 30.8054 29.8403 58.1822 0.0000 16.7407 0.0000
# 2 29.8403 206.4930 -14.3672 0.0000 0.5216 0.0000
# 3 58.1822 -14.3672 -67.3398 0.0000 -33.1092 0.0000
# 4 0.0000 0.0000 0.0000 19.7817 0.0000 -10.9577
# 5 16.7407 0.5216 -33.1092 0.0000 42.2931 0.0000
# 6 0.0000 0.0000 0.0000 -10.9577 0.0000 19.3503
#
#
#
# Elastic Compliance Matrix: (Units=1/GPa)
#
#
# Indices 1 2 3 4 5 6 
#
# 1 0.012996 -0.001182 0.010111 0.000000 0.002786 0.000000
# 2 -0.001182 0.004902 -0.001637 0.000000 -0.000874 0.000000
# 3 0.010111 -0.001637 -0.002749 0.000000 -0.006134 0.000000
# 4 0.000000 0.000000 0.000000 0.073656 0.000000 0.041710
# 5 0.002786 -0.000874 -0.006134 0.000000 0.017751 0.000000
# 6 0.000000 0.000000 0.000000 0.041710 0.000000 0.075298
#
#
# Mechanical properties :
#
#
# Convention : Reuss Voigt Hill
#
# Bulk Modulus (GPa) = 33.63180 35.25215 34.44197
# Shear Modulus (GPa) = 28.21985 22.70526 25.46255
#
# Velocity S-wave (km/s) = 3.41665 3.06469 3.24544
# Velocity P-wave (km/s) = 5.42925 5.20630 5.31894
#
# Compressibility (1/GPa) = 0.02973377
#
# Stress axis : x y z
#
# Youngs Moduli (GPa) = 76.94730 204.00474 -363.77741
#
# Poissons Ratio (x) = 0.24105 3.67814
# Poissons Ratio (y) = 0.09092 -0.59547
# Poissons Ratio (z) = -0.77801 0.33394
#
# Static dielectric constant tensor:
#      x y z
#    x 1.899090 0.000000 -0.065210 
#    y 0.000000 1.853520 0.000000 
#    z -0.065210 0.000000 2.300900 
# 
# From -- ./inp_files/4033.got.cif
#   From: 2010.05.17/outbox.cif.g08.bks.cpg/sg6_3_cif.got.tgz:4033.got - 2010.06.03 19:42:10.
