data_PCOD9130411
_publ_section_title
;
Structure prediction by ZEFSAII (Michael W. Deem and Ramdas Pophale) SiO2 
 PCOD9130411
Probable space group: C 2
;
_chemical_formula_sum "Si O2"
_cell_formula_units_Z 20
_cell_length_a 21.451042
_cell_length_b 4.739389
_cell_length_c 10.999591
_cell_angle_alpha 90.000000
_cell_angle_beta 46.797272
_cell_angle_gamma 90.000000
_cell_volume 815.148447
_symmetry_space_group_name_H-M "C 2"
_symmetry_group_IT_number 5
_symmetry_cell_setting 'monoclinic'
loop_
_space_group_symop_operation_xyz
x,y,z
-x,y,-z
1/2+x,1/2+y,z
1/2-x,1/2+y,-z
loop_
_atom_site_type_symbol
_atom_site_label
_atom_site_fract_x
_atom_site_fract_y
_atom_site_fract_z
Si Si1 0.240411 0.421420 0.841940
Si Si2 0.859597 0.448785 0.684358
Si Si3 0.793046 0.534562 0.386857
Si Si4 0.069463 0.168428 0.186405
Si Si5 0.546815 0.129267 0.690882
O O1 0.276198 0.741892 0.795858
O O2 0.217401 0.395638 0.730440
O O3 0.321058 0.242749 0.783020
O O4 0.160973 0.276193 0.015369
O O5 0.925660 0.291602 0.683512
O O6 0.902529 0.544821 0.500407
O O7 0.777387 0.276917 0.500202
O O8 0.881272 0.688628 0.304430
O O9 0.002106 0.352864 0.201013
O O10 0.026741 0.861229 0.235597
#
# Coordination Sequence:
#
# PCOD9130411 Si02
#       5
#     4   4   4   4   4
#     4  12  24  46  74 106 144 198 248 309 365 444
#     4  12  24  45  74 103 148 199 247 296 369 460
#     4  12  23  46  74 104 142 195 260 304 362 458
#     4  12  27  44  70 112 153 185 244 315 382 436
#     4  12  25  45  71 106 149 194 245 309 377 439
#
# _framework density 24.535405999999998
#
# number of rings (size 3 to 8) (size 9 to 14) (size 15 to 20)
#    0.000    0.000    4.000    6.600    0.000    2.400 
#    0.000    2.000    0.000    0.000    0.000    0.000 
#    0.000    0.000    0.000    0.000    0.000    0.000 
#
# Total GULP energy -55800.097425 kJ/mol
# GULP energy per Si atom -5580.009742 kJ/mol
# Density = 2.447956 g / cm^3
# Si number density = 24.535406 Si / 1000 Ang^3
#
#
#
# Elastic Constant Matrix: (Units=GPa)
#
#
# Indices 1 2 3 4 5 6 
#
# 1 106.0923 8.6124 26.0334 -0.0011 -4.5404 0.0020
# 2 8.6124 139.3216 40.3384 -0.0022 -3.0370 0.0024
# 3 26.0334 40.3384 106.6335 -0.0002 -8.9574 -0.0002
# 4 -0.0011 -0.0022 -0.0002 40.6116 -0.0002 -13.3278
# 5 -4.5404 -3.0370 -8.9574 -0.0002 36.7674 -0.0006
# 6 0.0020 0.0024 -0.0002 -13.3278 -0.0006 28.5044
#
#
#
# Elastic Compliance Matrix: (Units=1/GPa)
#
#
# Indices 1 2 3 4 5 6 
#
# 1 0.010043 0.000098 -0.002434 0.000000 0.000655 -0.000001
# 2 0.000098 0.008062 -0.003080 0.000000 -0.000072 -0.000001
# 3 -0.002434 -0.003080 0.011322 0.000000 0.002203 0.000001
# 4 0.000000 0.000000 0.000000 0.029087 0.000000 0.013600
# 5 0.000655 -0.000072 0.002203 0.000000 0.027810 0.000001
# 6 -0.000001 -0.000001 0.000001 0.013600 0.000001 0.041441
#
#
# Mechanical properties :
#
#
# Convention : Reuss Voigt Hill
#
# Bulk Modulus (GPa) = 53.77500 55.77954 54.77727
# Shear Modulus (GPa) = 34.53166 39.64756 37.08961
#
# Velocity S-wave (km/s) = 3.75563 4.02423 3.89225
# Velocity P-wave (km/s) = 6.38524 6.66155 6.52485
#
# Compressibility (1/GPa) = 0.01859600
#
# Stress axis : x y z
#
# Youngs Moduli (GPa) = 99.57085 124.04385 88.32163
#
# Poissons Ratio (x) = -0.01218 0.21498
# Poissons Ratio (y) = -0.00978 0.27200
# Poissons Ratio (z) = 0.24236 0.38202
#
# Static dielectric constant tensor:
#      x y z
#    x 2.018790 0.000000 0.067050 
#    y 0.000000 1.954360 0.000000 
#    z 0.067050 0.000000 2.164750 
# 
# From -- ./inp_files/45359.got.cif
#   From: 2010.05.17/outbox.cif.g08.bks.cpg/sg5_23_cif.got.tgz:45359.got - 2010.06.03 18:56:24.
