data_PCOD9130979
_publ_section_title
;
Structure prediction by ZEFSAII (Michael W. Deem and Ramdas Pophale) SiO2 
 PCOD9130979
Probable space group: P M
;
_chemical_formula_sum "Si O2"
_cell_formula_units_Z 16
_cell_length_a 8.533164
_cell_length_b 8.694485
_cell_length_c 12.605090
_cell_angle_alpha 90.000000
_cell_angle_beta 126.354969
_cell_angle_gamma 90.000000
_cell_volume 753.164652
_symmetry_space_group_name_H-M "P M"
_symmetry_group_IT_number 6
_symmetry_cell_setting 'monoclinic'
loop_
_space_group_symop_operation_xyz
x,y,z
x,-y,z
loop_
_atom_site_type_symbol
_atom_site_label
_atom_site_fract_x
_atom_site_fract_y
_atom_site_fract_z
Si Si1 0.761430 0.180891 0.603330
Si Si2 0.982779 0.681950 0.487653
Si Si3 0.372490 0.672466 0.142773
Si Si4 0.982866 0.820961 0.906844
Si Si5 0.779656 0.324868 0.011537
Si Si6 0.198141 0.666269 0.293772
Si Si7 0.354700 0.175857 0.541764
Si Si8 0.724394 0.825761 0.200958
O O1 0.853811 0.253237 0.534097
O O2 0.920777 0.192226 0.760491
O O3 0.562572 0.241467 0.581728
O O4 0.723747 0.000000 0.565404
O O5 0.989753 0.500000 0.500711
O O6 0.870260 0.726768 0.333074
O O7 0.205267 0.746246 0.565639
O O8 0.435767 0.500000 0.133744
O O9 0.351141 0.667853 0.260529
O O10 0.520780 0.806019 0.177309
O O11 0.166546 0.714862 0.008052
O O12 0.024277 0.000000 0.947948
O O13 0.807833 0.764414 0.913339
O O14 0.713310 0.500000 0.968957
O O15 0.674102 0.236274 0.063243
O O16 0.994291 0.329832 0.151408
O O17 0.212357 0.500000 0.356766
O O18 0.232233 0.807094 0.383951
O O19 0.387144 0.000000 0.587297
O O20 0.793900 0.000000 0.223953
#
# Coordination Sequence:
#
# PCOD9130979 Si02
#       8
#     2   2   2   2   2   2   2   2
#     4  10  24  45  66  91 125 170 219 266 314 372
#     4  12  25  41  64  95 132 168 208 264 323 382
#     4  10  21  37  59  88 123 160 201 254 314 374
#     4  10  21  41  64  87 119 162 210 258 308 367
#     4  10  20  36  59  86 121 157 194 249 307 365
#     4   9  18  33  55  83 117 153 191 241 306 370
#     4  11  22  38  63  92 124 165 212 262 315 378
#     4  12  23  37  60  92 125 159 203 254 315 382
#
# _framework density 21.243696
#
# number of rings (size 3 to 8) (size 9 to 14) (size 15 to 20)
#    0.000    1.500    1.250    5.250    0.000    6.500 
#    2.250    0.000    0.000    0.000    0.000    0.000 
#    0.000    0.000    0.000    0.000    0.000    0.000 
#
# Total GULP energy -89186.366564 kJ/mol
# GULP energy per Si atom -5574.147910 kJ/mol
# Density = 2.119534 g / cm^3
# Si number density = 21.243696 Si / 1000 Ang^3
#
#
#
# Elastic Constant Matrix: (Units=GPa)
#
#
# Indices 1 2 3 4 5 6 
#
# 1 108.2953 19.1791 14.4535 0.0000 -7.2998 0.0000
# 2 19.1791 86.1495 9.6643 0.0000 -8.6752 0.0000
# 3 14.4535 9.6643 40.9764 0.0000 -16.2582 0.0000
# 4 0.0000 0.0000 0.0000 -8.6791 0.0000 8.6812
# 5 -7.2998 -8.6752 -16.2582 0.0000 25.8424 0.0000
# 6 0.0000 0.0000 0.0000 8.6812 0.0000 17.6233
#
#
#
# Elastic Compliance Matrix: (Units=1/GPa)
#
#
# Indices 1 2 3 4 5 6 
#
# 1 0.009979 -0.001857 -0.002946 0.000000 0.000342 0.000000
# 2 -0.001857 0.012443 -0.001107 0.000000 0.002956 0.000000
# 3 -0.002946 -0.001107 0.033619 0.000000 0.019947 0.000000
# 4 0.000000 0.000000 0.000000 -0.077188 0.000000 0.038022
# 5 0.000342 0.002956 0.019947 0.000000 0.052334 0.000000
# 6 0.000000 0.000000 0.000000 0.038022 0.000000 0.038013
#
#
# Mechanical properties :
#
#
# Convention : Reuss Voigt Hill
#
# Bulk Modulus (GPa) = 22.61358 35.77945 29.19651
# Shear Modulus (GPa) = 52.21365 19.76562 35.98964
#
# Velocity S-wave (km/s) = 4.96304 3.05359 4.12045
# Velocity P-wave (km/s) = 6.59624 5.41401 6.03415
#
# Compressibility (1/GPa) = 0.04422122
#
# Stress axis : x y z
#
# Youngs Moduli (GPa) = 100.20948 80.36700 29.74524
#
# Poissons Ratio (x) = 0.14921 0.08764
# Poissons Ratio (y) = 0.18605 0.03292
# Poissons Ratio (z) = 0.29525 0.08895
#
# Static dielectric constant tensor:
#      x y z
#    x 1.870890 0.000000 0.021100 
#    y 0.000000 1.780830 0.000000 
#    z 0.021100 0.000000 1.747730 
# 
# From -- ./inp_files/4589.got.cif
#   From: 2010.05.17/outbox.cif.g08.bks.cpg/sg6_3_cif.got.tgz:4589.got - 2010.06.03 19:42:10.
