data_PCOD9130583
_publ_section_title
;
Structure prediction by ZEFSAII (Michael W. Deem and Ramdas Pophale) SiO2 
 PCOD9130583
Probable space group: C 2
;
_chemical_formula_sum "Si O2"
_cell_formula_units_Z 16
_cell_length_a 12.331548
_cell_length_b 7.596015
_cell_length_c 8.880232
_cell_angle_alpha 90.000000
_cell_angle_beta 136.115786
_cell_angle_gamma 90.000000
_cell_volume 576.618180
_symmetry_space_group_name_H-M "C 2"
_symmetry_group_IT_number 5
_symmetry_cell_setting 'monoclinic'
loop_
_space_group_symop_operation_xyz
x,y,z
-x,y,-z
1/2+x,1/2+y,z
1/2-x,1/2+y,-z
loop_
_atom_site_type_symbol
_atom_site_label
_atom_site_fract_x
_atom_site_fract_y
_atom_site_fract_z
Si Si1 0.000000 0.067590 0.000000
Si Si2 0.944781 0.545402 0.212523
Si Si3 0.500000 0.333224 0.500000
Si Si4 0.244341 0.786727 0.164714
Si Si5 0.690106 0.608484 0.480091
O O1 0.894170 0.152130 0.762989
O O2 0.884806 0.937652 0.974509
O O3 0.885952 0.356712 0.207817
O O4 0.906510 0.694948 0.301031
O O5 0.127282 0.564264 0.363513
O O6 0.837097 0.606943 0.966633
O O7 0.597824 0.457100 0.483131
O O8 0.296871 0.766319 0.387658
#
# Coordination Sequence:
#
# PCOD9130583 Si02
#       5
#     2   4   2   4   4
#     4  12  26  54  84 122 176 220 282 348 428 508
#     4  12  27  54  83 129 174 224 285 354 429 505
#     4  12  26  50  84 124 170 220 284 344 426 510
#     4  12  26  54  86 122 174 225 284 348 425 507
#     4  12  27  53  85 122 176 224 281 355 423 512
#
# _framework density 27.748000000000001
#
# number of rings (size 3 to 8) (size 9 to 14) (size 15 to 20)
#    0.000    0.000    5.000    3.000    0.000    5.000 
#    4.500    0.000    0.000    0.000    0.000    0.000 
#    0.000    0.000    0.000    0.000    0.000    0.000 
#
# Total GULP energy -44893.258918 kJ/mol
# GULP energy per Si atom -5611.657365 kJ/mol
# Density = 2.768484 g / cm^3
# Si number density = 27.748000 Si / 1000 Ang^3
#
#
#
# Elastic Constant Matrix: (Units=GPa)
#
#
# Indices 1 2 3 4 5 6 
#
# 1 183.3128 37.6678 77.1791 0.0000 19.7369 0.0000
# 2 37.6678 71.6734 41.2828 0.0000 2.4144 0.0000
# 3 77.1791 41.2828 234.9273 0.0000 -5.2783 0.0000
# 4 0.0000 0.0000 0.0000 65.9650 0.0000 -14.5695
# 5 19.7369 2.4144 -5.2783 0.0000 47.0063 0.0000
# 6 0.0000 0.0000 0.0000 -14.5695 0.0000 48.7498
#
#
#
# Elastic Compliance Matrix: (Units=1/GPa)
#
#
# Indices 1 2 3 4 5 6 
#
# 1 0.007133 -0.002509 -0.001972 0.000000 -0.003088 0.000000
# 2 -0.002509 0.016464 -0.002069 0.000000 -0.000024 0.000000
# 3 -0.001972 -0.002069 0.005302 0.000000 0.001530 0.000000
# 4 0.000000 0.000000 0.000000 0.016231 0.000000 0.004851
# 5 -0.003088 -0.000024 0.001530 0.000000 0.022743 0.000000
# 6 0.000000 0.000000 0.000000 0.004851 0.000000 0.021963
#
#
# Mechanical properties :
#
#
# Convention : Reuss Voigt Hill
#
# Bulk Modulus (GPa) = 63.29648 89.13031 76.21339
# Shear Modulus (GPa) = 46.20933 54.59648 50.40290
#
# Velocity S-wave (km/s) = 4.08526 4.44056 4.26661
# Velocity P-wave (km/s) = 6.71664 7.64738 7.19707
#
# Compressibility (1/GPa) = 0.01579867
#
# Stress axis : x y z
#
# Youngs Moduli (GPa) = 140.18506 60.74017 188.59134
#
# Poissons Ratio (x) = 0.15240 0.37189
# Poissons Ratio (y) = 0.35174 0.39026
# Poissons Ratio (z) = 0.27644 0.12569
#
# Static dielectric constant tensor:
#      x y z
#    x 2.229940 0.000000 0.009170 
#    y 0.000000 2.194140 0.000000 
#    z 0.009170 0.000000 2.178380 
# 
# From -- ./inp_files/18427.got.cif
#   From: 2010.05.17/outbox.cif.g08.bks.cpg/sg5_10_cif.got.tgz:18427.got - 2010.06.03 18:56:24.
