data_PCOD9130163
_publ_section_title
;
Structure prediction by ZEFSAII (Michael W. Deem and Ramdas Pophale) SiO2 
 PCOD9130163
Probable space group: C 2
;
_chemical_formula_sum "Si O2"
_cell_formula_units_Z 14
_cell_length_a 12.663841
_cell_length_b 6.836975
_cell_length_c 15.693903
_cell_angle_alpha 90.000000
_cell_angle_beta 26.070812
_cell_angle_gamma 90.000000
_cell_volume 597.174336
_symmetry_space_group_name_H-M "C 2"
_symmetry_group_IT_number 5
_symmetry_cell_setting 'monoclinic'
loop_
_space_group_symop_operation_xyz
x,y,z
-x,y,-z
1/2+x,1/2+y,z
1/2-x,1/2+y,-z
loop_
_atom_site_type_symbol
_atom_site_label
_atom_site_fract_x
_atom_site_fract_y
_atom_site_fract_z
Si Si1 0.148768 0.521830 0.194707
Si Si2 0.500000 0.438485 0.500000
Si Si3 0.346523 0.579601 0.238628
Si Si4 0.309946 0.758685 0.510484
O O1 0.260137 0.505063 0.208244
O O2 0.950517 0.691158 0.331989
O O3 0.985695 0.327563 0.307611
O O4 0.365489 0.560985 0.973476
O O5 0.727988 0.294498 0.325543
O O6 0.439650 0.583147 0.466078
O O7 0.240054 0.438031 0.388215
#
# Coordination Sequence:
#
# PCOD9130163 Si02
#       4
#     4   2   4   4
#     4  11  25  46  72 101 142 186 236 283 365 410
#     4  12  22  48  72  98 152 178 230 304 340 408
#     4  11  25  49  66 109 142 182 240 296 340 430
#     4  12  25  47  71 105 145 185 235 298 345 426
#
# _framework density 23.443740999999999
#
# number of rings (size 3 to 8) (size 9 to 14) (size 15 to 20)
#    0.000    0.571    5.714    1.714    4.000    0.000 
#   10.286    0.000    0.000    0.000    0.000    0.000 
#    0.000    0.000    0.000    0.000    0.000    0.000 
#
# Total GULP energy -39145.935168 kJ/mol
# GULP energy per Si atom -5592.276453 kJ/mol
# Density = 2.339038 g / cm^3
# Si number density = 23.443741 Si / 1000 Ang^3
#
#
#
# Elastic Constant Matrix: (Units=GPa)
#
#
# Indices 1 2 3 4 5 6 
#
# 1 67.4230 17.1227 35.3157 -0.0001 -7.0518 -0.0002
# 2 17.1227 135.7259 89.5506 -0.0018 6.4451 0.0001
# 3 35.3157 89.5506 247.6720 -0.0038 4.0937 0.0011
# 4 -0.0001 -0.0018 -0.0038 28.8563 0.0004 -15.7324
# 5 -7.0518 6.4451 4.0937 0.0004 35.7151 0.0004
# 6 -0.0002 0.0001 0.0011 -15.7324 0.0004 47.7970
#
#
#
# Elastic Compliance Matrix: (Units=1/GPa)
#
#
# Indices 1 2 3 4 5 6 
#
# 1 0.016538 -0.000873 -0.002103 0.000000 0.003664 0.000000
# 2 -0.000873 0.009787 -0.003389 0.000000 -0.001550 0.000000
# 3 -0.002103 -0.003389 0.005570 0.000001 -0.000442 0.000000
# 4 0.000000 0.000000 0.000001 0.042233 -0.000001 0.013901
# 5 0.003664 -0.001550 -0.000442 -0.000001 0.029053 0.000000
# 6 0.000000 0.000000 0.000000 0.013901 0.000000 0.025497
#
#
# Mechanical properties :
#
#
# Convention : Reuss Voigt Hill
#
# Bulk Modulus (GPa) = 52.17486 81.64433 66.90960
# Shear Modulus (GPa) = 33.83000 43.06245 38.44623
#
# Velocity S-wave (km/s) = 3.80284 4.29049 4.05401
# Velocity P-wave (km/s) = 6.44871 7.71010 7.10744
#
# Compressibility (1/GPa) = 0.01916632
#
# Stress axis : x y z
#
# Youngs Moduli (GPa) = 60.46593 102.17259 179.53096
#
# Poissons Ratio (x) = 0.08917 0.37759
# Poissons Ratio (y) = 0.05277 0.60838
# Poissons Ratio (z) = 0.12717 0.34624
#
# Static dielectric constant tensor:
#      x y z
#    x 1.933990 0.000000 -0.028480 
#    y 0.000000 1.901300 0.000000 
#    z -0.028480 0.000000 1.925830 
# 
# From -- ./inp_files/22356.got.cif
#   From: 2010.05.17/outbox.cif.g08.bks.cpg/sg5_12_cif.got.tgz:22356.got - 2010.06.03 18:56:24.
