data_PCOD9130913
_publ_section_title
;
Structure prediction by ZEFSAII (Michael W. Deem and Ramdas Pophale) SiO2 
 PCOD9130913
Probable space group: P M
;
_chemical_formula_sum "Si O2"
_cell_formula_units_Z 16
_cell_length_a 12.374369
_cell_length_b 7.570017
_cell_length_c 9.954822
_cell_angle_alpha 90.000000
_cell_angle_beta 52.081916
_cell_angle_gamma 90.000000
_cell_volume 735.647826
_symmetry_space_group_name_H-M "P M"
_symmetry_group_IT_number 6
_symmetry_cell_setting 'monoclinic'
loop_
_space_group_symop_operation_xyz
x,y,z
x,-y,z
loop_
_atom_site_type_symbol
_atom_site_label
_atom_site_fract_x
_atom_site_fract_y
_atom_site_fract_z
Si Si1 0.289410 0.202754 0.962890
Si Si2 0.002219 0.783037 0.302869
Si Si3 0.278234 0.786280 0.451718
Si Si4 0.466260 0.297574 0.069221
Si Si5 0.751915 0.206839 0.310999
Si Si6 0.973415 0.213585 0.634933
Si Si7 0.729847 0.704267 0.020296
Si Si8 0.445758 0.782895 0.585863
O O1 0.353179 0.281788 0.779579
O O2 0.254779 0.000000 0.956063
O O3 0.410697 0.205494 0.979269
O O4 0.150432 0.277764 0.134144
O O5 0.881570 0.723016 0.294813
O O6 0.972909 0.729307 0.479174
O O7 0.006794 0.000000 0.302262
O O8 0.341952 0.709251 0.268644
O O9 0.372048 0.732959 0.504208
O O10 0.120208 0.736168 0.584606
O O11 0.283273 0.000000 0.435850
O O12 0.499131 0.500000 0.008157
O O13 0.595828 0.217684 0.049080
O O14 0.602862 0.279349 0.466177
O O15 0.748231 0.000000 0.347849
O O16 0.764596 0.219506 0.139885
O O17 0.852661 0.281771 0.820903
O O18 0.963780 0.000000 0.643151
O O19 0.697288 0.500000 0.072182
O O20 0.448904 0.000000 0.587377
#
# Coordination Sequence:
#
# PCOD9130913 Si02
#       8
#     2   2   2   2   2   2   2   2
#     4  10  20  37  60  86 117 149 186 240 290 340
#     4   9  19  35  58  89 118 143 184 237 289 340
#     4  10  19  37  63  88 111 145 195 244 292 342
#     4  11  23  39  58  82 115 155 198 241 284 338
#     4  10  20  37  60  86 116 150 189 237 287 343
#     4  10  21  37  61  89 114 149 193 241 291 343
#     4  11  25  41  56  82 118 158 198 238 284 339
#     4   9  19  33  58  90 113 141 187 238 289 337
#
# _framework density 21.749535999999999
#
# number of rings (size 3 to 8) (size 9 to 14) (size 15 to 20)
#    0.000    2.000    2.500    0.750    3.500    2.000 
#    0.000    2.500    0.000    0.000    0.000    0.000 
#    0.000    0.000    0.000    0.000    0.000    0.000 
#
# Total GULP energy -89359.000525 kJ/mol
# GULP energy per Si atom -5584.937533 kJ/mol
# Density = 2.170003 g / cm^3
# Si number density = 21.749536 Si / 1000 Ang^3
#
#
#
# Elastic Constant Matrix: (Units=GPa)
#
#
# Indices 1 2 3 4 5 6 
#
# 1 122.7312 1.7972 23.2605 0.0000 -7.3645 0.0000
# 2 1.7972 45.6823 -5.9469 0.0000 -0.9262 0.0000
# 3 23.2605 -5.9469 104.3833 0.0000 -5.5050 0.0000
# 4 0.0000 0.0000 0.0000 5.5321 0.0000 -7.4988
# 5 -7.3645 -0.9262 -5.5050 0.0000 33.5393 0.0000
# 6 0.0000 0.0000 0.0000 -7.4988 0.0000 -0.4558
#
#
#
# Elastic Compliance Matrix: (Units=1/GPa)
#
#
# Indices 1 2 3 4 5 6 
#
# 1 0.008604 -0.000550 -0.001866 0.000000 0.001568 0.000000
# 2 -0.000550 0.022111 0.001420 0.000000 0.000723 0.000000
# 3 -0.001866 0.001420 0.010145 0.000000 0.001295 0.000000
# 4 0.000000 0.000000 0.000000 0.007758 0.000000 -0.127632
# 5 0.001568 0.000723 0.001295 0.000000 0.030392 0.000000
# 6 0.000000 0.000000 0.000000 -0.127632 0.000000 -0.094158
#
#
# Mechanical properties :
#
#
# Convention : Reuss Voigt Hill
#
# Bulk Modulus (GPa) = 25.72680 34.55760 30.14220
# Shear Modulus (GPa) = -24865.14970 24.63554 -12420.25708
#
# Velocity S-wave (km/s) = -107.03885 3.36920 -75.65039
# Velocity P-wave (km/s) = 123.54985 5.57304 87.27402
#
# Compressibility (1/GPa) = 0.03886998
#
# Stress axis : x y z
#
# Youngs Moduli (GPa) = 116.22999 45.22537 98.57018
#
# Poissons Ratio (x) = 0.02486 0.18392
# Poissons Ratio (y) = 0.06388 -0.14000
# Poissons Ratio (z) = 0.21687 -0.06424
#
# Static dielectric constant tensor:
#      x y z
#    x 1.774370 0.000000 -0.010260 
#    y 0.000000 1.840090 0.000000 
#    z -0.010260 0.000000 1.743420 
# 
# From -- ./inp_files/3453.got.cif
#   From: 2010.05.17/outbox.cif.g08.bks.cpg/sg6_2_cif.got.tgz:3453.got - 2010.06.03 19:42:10.
