data_PCOD9130383
_publ_section_title
;
Structure prediction by ZEFSAII (Michael W. Deem and Ramdas Pophale) SiO2 
 PCOD9130383
Probable space group: C 2
;
_chemical_formula_sum "Si O2"
_cell_formula_units_Z 18
_cell_length_a 17.358703
_cell_length_b 8.257155
_cell_length_c 13.148785
_cell_angle_alpha 90.000000
_cell_angle_beta 22.966180
_cell_angle_gamma 90.000000
_cell_volume 735.371719
_symmetry_space_group_name_H-M "C 2"
_symmetry_group_IT_number 5
_symmetry_cell_setting 'monoclinic'
loop_
_space_group_symop_operation_xyz
x,y,z
-x,y,-z
1/2+x,1/2+y,z
1/2-x,1/2+y,-z
loop_
_atom_site_type_symbol
_atom_site_label
_atom_site_fract_x
_atom_site_fract_y
_atom_site_fract_z
Si Si1 0.798685 0.822870 0.036357
Si Si2 0.999205 0.614777 0.620062
Si Si3 0.790855 0.532665 0.309943
Si Si4 0.500000 0.569917 0.500000
Si Si5 0.702155 0.401610 0.635623
O O1 0.667931 0.684262 0.247318
O O2 0.650568 0.963172 0.185862
O O3 0.912149 0.743314 0.804451
O O4 0.966532 0.893874 0.906919
O O5 0.000000 0.654644 0.500000
O O6 0.208655 0.542048 0.402462
O O7 0.620481 0.477099 0.440086
O O8 0.790673 0.437903 0.416115
O O9 0.743795 0.721308 0.392691
O O10 0.000000 0.521892 0.000000
#
# Coordination Sequence:
#
# PCOD9130383 Si02
#       5
#     4   4   4   2   4
#     4  12  25  48  76 106 146 189 244 292 361 427
#     4  12  27  49  73 108 143 194 240 295 361 424
#     4  12  25  48  72 103 144 188 239 294 358 422
#     4  12  22  46  76 100 140 196 226 300 356 414
#     4  12  25  47  71 107 144 185 241 291 355 431
#
# _framework density 24.477416000000002
#
# number of rings (size 3 to 8) (size 9 to 14) (size 15 to 20)
#    0.000    0.000    7.778    1.333    0.000    0.000 
#   12.000    1.111    0.000    0.000    0.000    0.000 
#    0.000    0.000    0.000    0.000    0.000    0.000 
#
# Total GULP energy -50480.509507 kJ/mol
# GULP energy per Si atom -5608.945501 kJ/mol
# Density = 2.442170 g / cm^3
# Si number density = 24.477416 Si / 1000 Ang^3
#
#
#
# Elastic Constant Matrix: (Units=GPa)
#
#
# Indices 1 2 3 4 5 6 
#
# 1 188.8119 30.8586 83.6819 0.0000 3.8693 0.0000
# 2 30.8586 43.9537 45.1235 0.0000 28.1817 0.0000
# 3 83.6819 45.1235 159.1983 0.0000 21.5125 0.0000
# 4 0.0000 0.0000 0.0000 13.6630 0.0000 9.9425
# 5 3.8693 28.1817 21.5125 0.0000 46.6119 0.0000
# 6 0.0000 0.0000 0.0000 9.9425 0.0000 47.7415
#
#
#
# Elastic Compliance Matrix: (Units=1/GPa)
#
#
# Indices 1 2 3 4 5 6 
#
# 1 0.007266 -0.003959 -0.003135 0.000000 0.003237 0.000000
# 2 -0.003959 0.052145 -0.009048 0.000000 -0.027023 0.000000
# 3 -0.003135 -0.009048 0.010366 0.000000 0.000946 0.000000
# 4 0.000000 0.000000 0.000000 0.086263 0.000000 -0.017965
# 5 0.003237 -0.027023 0.000946 0.000000 0.037086 0.000000
# 6 0.000000 0.000000 0.000000 -0.017965 0.000000 0.024687
#
#
# Mechanical properties :
#
#
# Convention : Reuss Voigt Hill
#
# Bulk Modulus (GPa) = 26.67025 79.03242 52.85133
# Shear Modulus (GPa) = 19.04072 37.08994 28.06533
#
# Velocity S-wave (km/s) = 2.79209 3.89687 3.38979
# Velocity P-wave (km/s) = 4.61670 7.25296 6.07945
#
# Compressibility (1/GPa) = 0.03749496
#
# Stress axis : x y z
#
# Youngs Moduli (GPa) = 137.62140 19.17724 96.46993
#
# Poissons Ratio (x) = 0.07592 0.30242
# Poissons Ratio (y) = 0.54479 0.87283
# Poissons Ratio (z) = 0.43143 0.17351
#
# Static dielectric constant tensor:
#      x y z
#    x 1.981740 0.000000 0.006840 
#    y 0.000000 1.934380 0.000000 
#    z 0.006840 0.000000 1.879430 
# 
# From -- ./inp_files/42124.got.cif
#   From: 2010.05.17/outbox.cif.g08.bks.cpg/sg5_22_cif.got.tgz:42124.got - 2010.06.03 18:56:24.
