data_PCOD9130622
_publ_section_title
;
Structure prediction by ZEFSAII (Michael W. Deem and Ramdas Pophale) SiO2 
 PCOD9130622
Probable space group: C 2
;
_chemical_formula_sum "Si O2"
_cell_formula_units_Z 18
_cell_length_a 13.189705
_cell_length_b 7.625158
_cell_length_c 9.622207
_cell_angle_alpha 90.000000
_cell_angle_beta 41.915165
_cell_angle_gamma 90.000000
_cell_volume 646.478803
_symmetry_space_group_name_H-M "C 2"
_symmetry_group_IT_number 5
_symmetry_cell_setting 'monoclinic'
loop_
_space_group_symop_operation_xyz
x,y,z
-x,y,-z
1/2+x,1/2+y,z
1/2-x,1/2+y,-z
loop_
_atom_site_type_symbol
_atom_site_label
_atom_site_fract_x
_atom_site_fract_y
_atom_site_fract_z
Si Si1 0.706500 0.292200 0.606371
Si Si2 0.260779 0.582207 0.823157
Si Si3 0.810089 0.715347 0.698681
Si Si4 0.500000 0.544397 0.000000
Si Si5 0.945037 0.416613 0.750560
O O1 0.670697 0.235139 0.486454
O O2 0.580517 0.424280 0.800036
O O3 0.878552 0.368049 0.424639
O O4 0.722736 0.141899 0.706266
O O5 0.352065 0.400279 0.724214
O O6 0.351287 0.739544 0.805038
O O7 0.110690 0.523890 0.057900
O O8 0.634338 0.671143 0.908193
O O9 0.887683 0.552475 0.692788
#
# Coordination Sequence:
#
# PCOD9130622 Si02
#       5
#     4   4   4   2   4
#     4  12  30  59  91 131 181 240 303 375 464 549
#     4  12  27  55  91 130 174 232 305 371 456 548
#     4  12  28  57  93 125 183 237 298 383 457 545
#     4  12  28  56  84 134 174 230 304 364 454 548
#     4  12  28  60  89 134 181 237 304 376 462 550
#
# _framework density 27.843139999999998
#
# number of rings (size 3 to 8) (size 9 to 14) (size 15 to 20)
#    0.000    0.000    4.444    3.333    0.000    4.444 
#   12.000    2.222    0.000    0.000    0.000    0.000 
#    0.000    0.000    0.000    0.000    0.000    0.000 
#
# Total GULP energy -50522.483459 kJ/mol
# GULP energy per Si atom -5613.609273 kJ/mol
# Density = 2.777977 g / cm^3
# Si number density = 27.843140 Si / 1000 Ang^3
#
#
#
# Elastic Constant Matrix: (Units=GPa)
#
#
# Indices 1 2 3 4 5 6 
#
# 1 173.9501 82.1816 103.2376 0.0000 -17.4960 0.0000
# 2 82.1816 248.7667 93.5600 0.0000 6.6805 0.0000
# 3 103.2376 93.5600 228.5378 0.0000 -6.5261 0.0000
# 4 0.0000 0.0000 0.0000 -39.9558 0.0000 100.8919
# 5 -17.4960 6.6805 -6.5261 0.0000 69.8916 0.0000
# 6 0.0000 0.0000 0.0000 100.8919 0.0000 -45.5516
#
#
#
# Elastic Compliance Matrix: (Units=1/GPa)
#
#
# Indices 1 2 3 4 5 6 
#
# 1 0.008628 -0.001727 -0.003133 0.000000 0.002032 0.000000
# 2 -0.001727 0.005125 -0.001348 0.000000 -0.001048 0.000000
# 3 -0.003133 -0.001348 0.006341 0.000000 -0.000063 0.000000
# 4 0.000000 0.000000 0.000000 0.005449 0.000000 0.012070
# 5 0.002032 -0.001048 -0.000063 0.000000 0.014911 0.000000
# 6 0.000000 0.000000 0.000000 0.012070 0.000000 0.004780
#
#
# Mechanical properties :
#
#
# Convention : Reuss Voigt Hill
#
# Bulk Modulus (GPa) = 130.22012 134.35701 132.28856
# Shear Modulus (GPa) = 83.04296 21.69519 52.36908
#
# Velocity S-wave (km/s) = 5.46718 2.79443 4.34159
# Velocity P-wave (km/s) = 9.31258 7.66626 8.52923
#
# Compressibility (1/GPa) = 0.00767930
#
# Stress axis : x y z
#
# Youngs Moduli (GPa) = 115.89874 195.10390 157.70656
#
# Poissons Ratio (x) = 0.33690 0.49404
# Poissons Ratio (y) = 0.20013 0.21262
# Poissons Ratio (z) = 0.36307 0.26304
#
# Static dielectric constant tensor:
#      x y z
#    x 2.137410 0.000000 -0.201140 
#    y 0.000000 2.194590 0.000000 
#    z -0.201140 0.000000 3.274310 
# 
# From -- ./inp_files/22591.got.cif
#   From: 2010.05.17/outbox.cif.g08.bks.cpg/sg5_12_cif.got.tgz:22591.got - 2010.06.03 18:56:24.
