data_PCOD9130731
_publ_section_title
;
Structure prediction by ZEFSAII (Michael W. Deem and Ramdas Pophale) SiO2 
 PCOD9130731
Probable space group: C 2
;
_chemical_formula_sum "Si O2"
_cell_formula_units_Z 15
_cell_length_a 6.000000
_cell_length_b 18.000000
_cell_length_c 15.000000
_cell_angle_alpha 90.000000
_cell_angle_beta 70.000000
_cell_angle_gamma 90.000000
_cell_volume 1522.302046
_symmetry_space_group_name_H-M "C 2"
_symmetry_group_IT_number 5
_symmetry_cell_setting 'monoclinic'
loop_
_space_group_symop_operation_xyz
x,y,z
-x,y,-z
1/2+x,1/2+y,z
1/2-x,1/2+y,-z
loop_
_atom_site_type_symbol
_atom_site_label
_atom_site_fract_x
_atom_site_fract_y
_atom_site_fract_z
Si Si1 0.310055 0.350200 0.100934
Si Si2 0.500000 0.612470 0.500000
Si Si3 0.795023 0.511179 0.949575
Si Si4 0.536896 0.367038 0.717585
Si Si5 0.782513 0.515441 0.601555
Si Si6 0.102220 0.613617 0.234998
Si Si7 0.388459 0.761077 0.237727
Si Si8 0.201413 0.213705 0.343157
O O1 0.186417 0.424096 0.078910
O O2 0.429820 0.372483 0.179580
O O3 0.123068 0.286383 0.152470
O O4 0.500000 0.326421 0.000000
O O5 0.597964 0.563141 0.567268
O O6 0.692343 0.670151 0.436654
O O7 0.857981 0.561933 0.855791
O O8 0.500000 0.521386 0.000000
O O9 0.000000 0.524627 0.000000
O O10 0.647623 0.440516 0.655785
O O11 0.270539 0.336407 0.736687
O O12 0.678132 0.293656 0.666463
O O13 0.862366 0.563901 0.678576
O O14 0.000000 0.500801 0.500000
O O15 0.267451 0.687792 0.212933
O O16 0.846420 0.653859 0.264885
O O17 0.457959 0.733149 0.327005
#
# Coordination Sequence:
#
# PCOD9130731 Si02
#       8
#     4   2   4   4   4   4   4   4
#     4  10  23  44  72 106 140 190 241 295 368 441
#     4  12  24  40  70 100 134 188 242 298 372 444
#     4  11  27  46  74 109 145 197 247 308 379 445
#     4  10  24  45  68 100 141 189 239 300 369 432
#     4  12  25  44  69 107 139 186 248 304 368 444
#     4  11  23  47  70  99 149 184 244 308 375 441
#     4  10  23  44  71  97 142 190 234 300 367 446
#     4  10  23  43  65  98 136 189 231 300 369 436
#
# _framework density 9.8534980000000001
#
# number of rings (size 3 to 8) (size 9 to 14) (size 15 to 20)
#    0.000    1.333    4.000    0.000    6.533    3.200 
#    7.200    0.000    0.000    0.000    0.000    0.000 
#    0.000    0.000    0.000    0.000    0.000    0.000 
#
# Total GULP energy -83556.677613 kJ/mol
# GULP energy per Si atom -5570.445174 kJ/mol
# Density = 0.983107 g / cm^3
# Si number density = 9.853498 Si / 1000 Ang^3
#
#
#
# Elastic Constant Matrix: (Units=GPa)
#
#
# Indices 1 2 3 4 5 6 
#
# 1 89.8912 33.0171 43.8094 0.0000 15.0415 0.0000
# 2 33.0171 119.0590 65.6638 0.0000 -2.0310 0.0000
# 3 43.8094 65.6638 127.4348 0.0000 7.1759 0.0000
# 4 0.0000 0.0000 0.0000 42.3088 0.0000 -0.5583
# 5 15.0415 -2.0310 7.1759 0.0000 32.3977 0.0000
# 6 0.0000 0.0000 0.0000 -0.5583 0.0000 31.1414
#
#
#
# Elastic Compliance Matrix: (Units=1/GPa)
#
#
# Indices 1 2 3 4 5 6 
#
# 1 0.014711 -0.002218 -0.003567 0.000000 -0.006179 0.000000
# 2 -0.002218 0.012211 -0.005702 0.000000 0.003058 0.000000
# 3 -0.003567 -0.005702 0.012089 0.000000 -0.001379 0.000000
# 4 0.000000 0.000000 0.000000 0.023641 0.000000 0.000424
# 5 -0.006179 0.003058 -0.001379 0.000000 0.034232 0.000000
# 6 0.000000 0.000000 0.000000 0.000424 0.000000 0.032119
#
#
# Mechanical properties :
#
#
# Convention : Reuss Voigt Hill
#
# Bulk Modulus (GPa) = 62.34960 69.04062 65.69511
# Shear Modulus (GPa) = 31.78164 34.09590 32.93877
#
# Velocity S-wave (km/s) = 4.02021 4.16401 4.09274
# Velocity P-wave (km/s) = 7.29770 7.63074 7.46608
#
# Compressibility (1/GPa) = 0.01603860
#
# Stress axis : x y z
#
# Youngs Moduli (GPa) = 67.97413 81.89256 82.72053
#
# Poissons Ratio (x) = 0.18165 0.29503
# Poissons Ratio (y) = 0.15077 0.47165
# Poissons Ratio (z) = 0.24244 0.46693
#
# Static dielectric constant tensor:
#      x y z
#    x 1.798590 0.000000 -0.050140 
#    y 0.000000 1.651590 0.000000 
#    z -0.050140 0.000000 1.722540 
# 
# From -- ./inp_files/49319.got.cif
#   From: 2010.05.17/outbox.ucp.g08.bks.cvg/sg5_25_cif.got.tgz:49319.got - 2010.06.11 12:53:14.
