data_PCOD9130046
_publ_section_title
;
Structure prediction by ZEFSAII (Michael W. Deem and Ramdas Pophale) SiO2 
 PCOD9130046
Probable space group: C 2
;
_chemical_formula_sum "Si O2"
_cell_formula_units_Z 30
_cell_length_a 13.536176
_cell_length_b 8.674456
_cell_length_c 12.149696
_cell_angle_alpha 90.000000
_cell_angle_beta 106.744841
_cell_angle_gamma 90.000000
_cell_volume 1366.112825
_symmetry_space_group_name_H-M "C 2"
_symmetry_group_IT_number 5
_symmetry_cell_setting 'monoclinic'
loop_
_space_group_symop_operation_xyz
x,y,z
-x,y,-z
1/2+x,1/2+y,z
1/2-x,1/2+y,-z
loop_
_atom_site_type_symbol
_atom_site_label
_atom_site_fract_x
_atom_site_fract_y
_atom_site_fract_z
Si Si1 0.877707 0.433360 0.267043
Si Si2 0.858197 0.907901 0.751844
Si Si3 0.996873 0.175970 0.208422
Si Si4 0.810736 0.720446 0.146982
Si Si5 0.192405 0.656125 0.439081
Si Si6 0.703632 0.827767 0.335149
Si Si7 0.000000 0.539974 0.500000
Si Si8 0.130765 0.994626 0.001216
O O1 0.762705 0.456694 0.278053
O O2 0.894710 0.584858 0.196791
O O3 0.959234 0.436419 0.389650
O O4 0.896775 0.266464 0.220961
O O5 0.848354 0.762331 0.672134
O O6 0.939626 0.027848 0.724884
O O7 0.888255 0.900352 0.890791
O O8 0.089727 0.300469 0.245720
O O9 0.953926 0.103473 0.082791
O O10 0.777599 0.787870 0.255755
O O11 0.839663 0.863618 0.078673
O O12 0.719820 0.617865 0.062603
O O13 0.278645 0.724344 0.548962
O O14 0.221687 0.496807 0.390140
O O15 0.095411 0.636037 0.488169
#
# Coordination Sequence:
#
# PCOD9130046 Si02
#       8
#     4   4   4   4   4   4   2   4
#     4  11  24  46  72 103 149 195 250 311 382 456
#     4  11  26  49  70 107 153 190 250 320 374 465
#     4  12  24  45  74 106 142 203 247 309 386 452
#     4  11  25  47  72 107 149 198 249 321 384 459
#     4  12  27  48  75 107 150 198 251 323 397 454
#     4  12  25  46  75 107 149 198 251 323 387 465
#     4  12  22  44  68 102 144 182 248 312 366 466
#     4  11  25  45  74 106 151 195 252 315 380 465
#
# _framework density 21.96012
#
# number of rings (size 3 to 8) (size 9 to 14) (size 15 to 20)
#    0.000    0.533    5.333    3.600    5.600    0.000 
#    0.000    0.000    0.000    0.000    0.000    0.000 
#    0.000    0.000    0.000    0.000    0.000    0.000 
#
# Total GULP energy -83544.282457 kJ/mol
# GULP energy per Si atom -5569.618830 kJ/mol
# Density = 2.191014 g / cm^3
# Si number density = 21.960120 Si / 1000 Ang^3
#
#
#
# Elastic Constant Matrix: (Units=GPa)
#
#
# Indices 1 2 3 4 5 6 
#
# 1 41.6070 31.6789 25.9756 0.0000 -3.7738 0.0000
# 2 31.6789 149.4973 83.7805 0.0000 -15.4762 0.0000
# 3 25.9756 83.7805 156.6040 0.0000 4.9071 0.0000
# 4 0.0000 0.0000 0.0000 40.6056 0.0000 4.7358
# 5 -3.7738 -15.4762 4.9071 0.0000 27.0697 0.0000
# 6 0.0000 0.0000 0.0000 4.7358 0.0000 25.7082
#
#
#
# Elastic Compliance Matrix: (Units=1/GPa)
#
#
# Indices 1 2 3 4 5 6 
#
# 1 0.029256 -0.004648 -0.002424 0.000000 0.001860 0.000000
# 2 -0.004648 0.011549 -0.005626 0.000000 0.006975 0.000000
# 3 -0.002424 -0.005626 0.009965 0.000000 -0.005361 0.000000
# 4 0.000000 0.000000 0.000000 0.025168 0.000000 -0.004636
# 5 0.001860 0.006975 -0.005361 0.000000 0.042160 0.000000
# 6 0.000000 0.000000 0.000000 -0.004636 0.000000 0.039752
#
#
# Mechanical properties :
#
#
# Convention : Reuss Voigt Hill
#
# Bulk Modulus (GPa) = 39.41165 70.06425 54.73795
# Shear Modulus (GPa) = 26.08171 32.42824 29.25498
#
# Velocity S-wave (km/s) = 3.45002 3.84694 3.65387
# Velocity P-wave (km/s) = 5.81860 7.19072 6.54074
#
# Compressibility (1/GPa) = 0.02537321
#
# Stress axis : x y z
#
# Youngs Moduli (GPa) = 34.18145 86.58739 100.34650
#
# Poissons Ratio (x) = 0.40248 0.24325
# Poissons Ratio (y) = 0.15888 0.56456
# Poissons Ratio (z) = 0.08286 0.48715
#
# Static dielectric constant tensor:
#      x y z
#    x 1.940650 0.000000 0.000420 
#    y 0.000000 1.879330 0.000000 
#    z 0.000420 0.000000 1.823390 
# 
# From -- ./inp_files/42008.got.cif
#   From: 2010.05.17/outbox.cif.g08.bks.cpg/sg5_22_cif.got.tgz:42008.got - 2010.06.03 18:56:24.
