data_PCOD9130895
_publ_section_title
;
Structure prediction by ZEFSAII (Michael W. Deem and Ramdas Pophale) SiO2 
 PCOD9130895
Probable space group: P M
;
_chemical_formula_sum "Si O2"
_cell_formula_units_Z 16
_cell_length_a 12.420692
_cell_length_b 8.718316
_cell_length_c 10.303508
_cell_angle_alpha 90.000000
_cell_angle_beta 54.146229
_cell_angle_gamma 90.000000
_cell_volume 904.324496
_symmetry_space_group_name_H-M "P M"
_symmetry_group_IT_number 6
_symmetry_cell_setting 'monoclinic'
loop_
_space_group_symop_operation_xyz
x,y,z
x,-y,z
loop_
_atom_site_type_symbol
_atom_site_label
_atom_site_fract_x
_atom_site_fract_y
_atom_site_fract_z
Si Si1 0.957020 0.682747 0.559290
Si Si2 0.116648 0.182782 0.682534
Si Si3 0.184605 0.683613 0.906400
Si Si4 0.451325 0.813532 0.090154
Si Si5 0.665225 0.815974 0.724939
Si Si6 0.490376 0.682585 0.624056
Si Si7 0.425049 0.816277 0.399989
Si Si8 0.157325 0.184510 0.204588
O O1 0.961065 0.500000 0.552468
O O2 0.808575 0.742459 0.642015
O O3 0.014242 0.742013 0.655865
O O4 0.052054 0.750292 0.380394
O O5 0.112750 0.250139 0.830038
O O6 0.266603 0.212792 0.524339
O O7 0.097884 0.000000 0.698427
O O8 0.173484 0.500000 0.916677
O O9 0.341436 0.723471 0.778922
O O10 0.134592 0.755094 0.075541
O O11 0.470642 0.764849 0.225376
O O12 0.305762 0.765847 0.143247
O O13 0.450344 0.000000 0.091498
O O14 0.565314 0.764658 0.910540
O O15 0.596740 0.765370 0.639288
O O16 0.676137 0.000000 0.721426
O O17 0.505714 0.500000 0.623063
O O18 0.494554 0.734873 0.471751
O O19 0.443454 0.000000 0.398717
O O20 0.152613 0.000000 0.210275
#
# Coordination Sequence:
#
# PCOD9130895 Si02
#       8
#     2   2   2   2   2   2   2   2
#     4  12  25  40  57  84 121 157 191 241 301 352
#     4  10  19  35  59  85 114 153 197 240 285 344
#     4  10  20  34  55  88 123 152 187 241 297 341
#     4   9  18  34  59  88 113 141 190 244 284 330
#     4  11  22  39  61  84 113 155 197 237 286 348
#     4  10  20  34  53  84 120 152 187 232 289 346
#     4   9  17  33  57  85 113 144 186 239 287 336
#     4  11  20  37  61  88 115 150 199 244 285 343
#
# _framework density 17.692762999999999
#
# number of rings (size 3 to 8) (size 9 to 14) (size 15 to 20)
#    0.000    1.750    2.500    3.000    0.000    1.500 
#    0.000    2.500    0.000    1.500    0.000    0.000 
#    0.000    0.000    0.000    0.000    0.000    0.000 
#
# Total GULP energy -89366.816279 kJ/mol
# GULP energy per Si atom -5585.426017 kJ/mol
# Density = 1.765249 g / cm^3
# Si number density = 17.692763 Si / 1000 Ang^3
#
#
#
# Elastic Constant Matrix: (Units=GPa)
#
#
# Indices 1 2 3 4 5 6 
#
# 1 137.8264 60.8040 88.9433 0.0000 15.4795 0.0000
# 2 60.8040 70.7860 43.6401 0.0000 6.2218 0.0000
# 3 88.9433 43.6401 131.9590 0.0000 16.8462 0.0000
# 4 0.0000 0.0000 0.0000 13.0933 0.0000 -0.1433
# 5 15.4795 6.2218 16.8462 0.0000 32.0862 0.0000
# 6 0.0000 0.0000 0.0000 -0.1433 0.0000 24.2825
#
#
#
# Elastic Compliance Matrix: (Units=1/GPa)
#
#
# Indices 1 2 3 4 5 6 
#
# 1 0.016689 -0.009272 -0.007915 0.000000 -0.002098 0.000000
# 2 -0.009272 0.022900 -0.001424 0.000000 0.000780 0.000000
# 3 -0.007915 -0.001424 0.013785 0.000000 -0.003143 0.000000
# 4 0.000000 0.000000 0.000000 0.076380 0.000000 0.000451
# 5 -0.002098 0.000780 -0.003143 0.000000 0.033677 0.000000
# 6 0.000000 0.000000 0.000000 0.000451 0.000000 0.041185
#
#
# Mechanical properties :
#
#
# Convention : Reuss Voigt Hill
#
# Bulk Modulus (GPa) = 61.90304 80.81623 71.35963
# Shear Modulus (GPa) = 20.22484 23.70469 21.96477
#
# Velocity S-wave (km/s) = 3.38466 3.66429 3.52725
# Velocity P-wave (km/s) = 7.09495 7.97994 7.55042
#
# Compressibility (1/GPa) = 0.01615430
#
# Stress axis : x y z
#
# Youngs Moduli (GPa) = 59.91933 43.66721 72.54337
#
# Poissons Ratio (x) = 0.40487 0.57416
# Poissons Ratio (y) = 0.55556 0.10327
# Poissons Ratio (z) = 0.47425 0.06216
#
# Static dielectric constant tensor:
#      x y z
#    x 1.577810 0.000000 0.005020 
#    y 0.000000 1.585310 0.000000 
#    z 0.005020 0.000000 1.594460 
# 
# From -- ./inp_files/3724.got.cif
#   From: 2010.05.17/outbox.cif.g08.bks.cpg/sg6_2_cif.got.tgz:3724.got - 2010.06.03 19:42:10.
