data_PCOD9130846
_publ_section_title
;
Structure prediction by ZEFSAII (Michael W. Deem and Ramdas Pophale) SiO2 
 PCOD9130846
Probable space group: P M
;
_chemical_formula_sum "Si O2"
_cell_formula_units_Z 16
_cell_length_a 10.548079
_cell_length_b 8.613214
_cell_length_c 12.601986
_cell_angle_alpha 90.000000
_cell_angle_beta 52.251022
_cell_angle_gamma 90.000000
_cell_volume 905.293942
_symmetry_space_group_name_H-M "P M"
_symmetry_group_IT_number 6
_symmetry_cell_setting 'monoclinic'
loop_
_space_group_symop_operation_xyz
x,y,z
x,-y,z
loop_
_atom_site_type_symbol
_atom_site_label
_atom_site_fract_x
_atom_site_fract_y
_atom_site_fract_z
Si Si1 0.483150 0.186469 0.480670
Si Si2 0.028626 0.813671 0.905861
Si Si3 0.537278 0.687423 0.896776
Si Si4 0.713415 0.188340 0.181170
Si Si5 0.904642 0.687397 0.745324
Si Si6 0.384280 0.685950 0.752933
Si Si7 0.425248 0.185943 0.172995
Si Si8 0.212769 0.685736 0.461470
O O1 0.638266 0.235668 0.332217
O O2 0.474617 0.249058 0.603488
O O3 0.330527 0.248273 0.492387
O O4 0.475446 0.000000 0.485517
O O5 0.200841 0.741215 0.840022
O O6 0.966684 0.763984 0.821677
O O7 0.041969 0.000000 0.902831
O O8 0.890658 0.760383 0.058821
O O9 0.532724 0.500000 0.902496
O O10 0.723195 0.735502 0.813367
O O11 0.463918 0.738094 0.822307
O O12 0.440164 0.751264 0.047002
O O13 0.584887 0.236736 0.156903
O O14 0.714954 0.000000 0.178977
O O15 0.907423 0.500000 0.757518
O O16 0.031921 0.725798 0.587796
O O17 0.388694 0.500000 0.746343
O O18 0.276371 0.247045 0.318145
O O19 0.422388 0.000000 0.173868
O O20 0.228327 0.500000 0.451836
#
# Coordination Sequence:
#
# PCOD9130846 Si02
#       8
#     2   2   2   2   2   2   2   2
#     4  10  19  34  55  80 110 143 183 227 276 327
#     4  11  20  34  57  83 110 142 181 230 279 323
#     4  10  22  39  57  78 111 151 186 225 275 330
#     4   8  17  32  52  81 110 136 172 226 276 320
#     4  10  20  35  56  83 110 140 184 231 272 324
#     4  11  23  38  54  79 114 150 187 225 272 332
#     4  10  19  34  55  81 112 143 182 226 273 327
#     4  10  19  32  54  83 113 141 177 226 279 329
#
# _framework density 17.673817
#
# number of rings (size 3 to 8) (size 9 to 14) (size 15 to 20)
#    0.000    2.000    2.500    2.625    0.000    1.500 
#    0.000    3.125    0.000    4.500    0.000    0.000 
#    0.000    0.000    0.000    0.000    0.000    0.000 
#
# Total GULP energy -89292.782817 kJ/mol
# GULP energy per Si atom -5580.798926 kJ/mol
# Density = 1.763359 g / cm^3
# Si number density = 17.673817 Si / 1000 Ang^3
#
#
#
# Elastic Constant Matrix: (Units=GPa)
#
#
# Indices 1 2 3 4 5 6 
#
# 1 97.8820 27.4356 74.7969 0.0000 13.2318 0.0000
# 2 27.4356 34.8607 37.1874 0.0000 4.2647 0.0000
# 3 74.7969 37.1874 182.9091 0.0000 12.7366 0.0000
# 4 0.0000 0.0000 0.0000 27.3034 0.0000 2.8353
# 5 13.2318 4.2647 12.7366 0.0000 26.3962 0.0000
# 6 0.0000 0.0000 0.0000 2.8353 0.0000 0.7698
#
#
#
# Elastic Compliance Matrix: (Units=1/GPa)
#
#
# Indices 1 2 3 4 5 6 
#
# 1 0.016740 -0.007204 -0.005047 0.000000 -0.004792 0.000000
# 2 -0.007204 0.039879 -0.005137 0.000000 -0.000353 0.000000
# 3 -0.005047 -0.005137 0.008632 0.000000 -0.000805 0.000000
# 4 0.000000 0.000000 0.000000 0.059309 0.000000 -0.218435
# 5 -0.004792 -0.000353 -0.000805 0.000000 0.040732 0.000000
# 6 0.000000 0.000000 0.000000 -0.218435 0.000000 2.103473
#
#
# Mechanical properties :
#
#
# Convention : Reuss Voigt Hill
#
# Bulk Modulus (GPa) = 32.81570 66.05462 49.43516
# Shear Modulus (GPa) = 2.16104 22.64268 12.40186
#
# Velocity S-wave (km/s) = 1.10697 3.58319 2.65185
# Velocity P-wave (km/s) = 4.49906 7.38745 6.11621
#
# Compressibility (1/GPa) = 0.03047322
#
# Stress axis : x y z
#
# Youngs Moduli (GPa) = 59.73572 25.07603 115.85318
#
# Poissons Ratio (x) = 0.18066 0.58473
# Poissons Ratio (y) = 0.43036 0.59515
# Poissons Ratio (z) = 0.30150 0.12882
#
# Static dielectric constant tensor:
#      x y z
#    x 1.573660 0.000000 -0.012670 
#    y 0.000000 1.595690 0.000000 
#    z -0.012670 0.000000 1.617280 
# 
# From -- ./inp_files/3767.got.cif
#   From: 2010.05.17/outbox.cif.g08.bks.cpg/sg6_2_cif.got.tgz:3767.got - 2010.06.03 19:42:10.
