data_PCOD9130370
_publ_section_title
;
Structure prediction by ZEFSAII (Michael W. Deem and Ramdas Pophale) SiO2 
 PCOD9130370
Probable space group: C 2
;
_chemical_formula_sum "Si O2"
_cell_formula_units_Z 16
_cell_length_a 7.898131
_cell_length_b 20.461093
_cell_length_c 7.570926
_cell_angle_alpha 90.000000
_cell_angle_beta 35.982839
_cell_angle_gamma 90.000000
_cell_volume 718.855757
_symmetry_space_group_name_H-M "C 2"
_symmetry_group_IT_number 5
_symmetry_cell_setting 'monoclinic'
loop_
_space_group_symop_operation_xyz
x,y,z
-x,y,-z
1/2+x,1/2+y,z
1/2-x,1/2+y,-z
loop_
_atom_site_type_symbol
_atom_site_label
_atom_site_fract_x
_atom_site_fract_y
_atom_site_fract_z
Si Si1 0.866784 0.055930 0.932586
Si Si2 0.640369 0.980755 0.684286
Si Si3 0.500000 0.362970 0.500000
Si Si4 0.286452 0.688974 0.842604
Si Si5 0.000000 0.266958 0.000000
O O1 0.703354 0.117264 0.986309
O O2 0.114953 0.030091 0.591919
O O3 0.000000 0.081322 0.000000
O O4 0.651018 0.997606 0.173069
O O5 0.804740 0.911745 0.546202
O O6 0.500000 0.988229 0.000000
O O7 0.273498 0.314796 0.778358
O O8 0.500000 0.680688 0.500000
O O9 0.456201 0.724814 0.858796
O O10 0.000000 0.721183 0.000000
#
# Coordination Sequence:
#
# PCOD9130370 Si02
#       5
#     4   4   2   4   2
#     4  12  24  42  70 112 150 177 238 305 366 437
#     4  12  22  43  70 101 134 195 233 282 370 415
#     4  12  24  46  76  92 146 202 230 290 354 424
#     4  12  26  46  74 108 143 190 235 303 367 420
#     4  12  26  50  72 106 144 190 256 278 352 442
#
# _framework density 22.257595999999999
#
# number of rings (size 3 to 8) (size 9 to 14) (size 15 to 20)
#    0.000    0.000    5.000    6.000    0.000    0.000 
#    0.000   12.500    0.000    0.000    0.000    0.000 
#    0.000    0.000    0.000    0.000    0.000    0.000 
#
# Total GULP energy -44611.413889 kJ/mol
# GULP energy per Si atom -5576.426736 kJ/mol
# Density = 2.220694 g / cm^3
# Si number density = 22.257596 Si / 1000 Ang^3
#
#
#
# Elastic Constant Matrix: (Units=GPa)
#
#
# Indices 1 2 3 4 5 6 
#
# 1 130.8754 38.9674 27.6727 0.0000 4.1108 0.0000
# 2 38.9674 100.8122 33.7315 0.0000 7.8736 0.0000
# 3 27.6727 33.7315 117.9177 0.0000 -13.2989 0.0000
# 4 0.0000 0.0000 0.0000 29.8318 0.0000 -25.2763
# 5 4.1108 7.8736 -13.2989 0.0000 36.1865 0.0000
# 6 0.0000 0.0000 0.0000 -25.2763 0.0000 53.4594
#
#
#
# Elastic Compliance Matrix: (Units=1/GPa)
#
#
# Indices 1 2 3 4 5 6 
#
# 1 0.008812 -0.002891 -0.001338 0.000000 -0.000864 0.000000
# 2 -0.002891 0.012412 -0.003276 0.000000 -0.003576 0.000000
# 3 -0.001338 -0.003276 0.010254 0.000000 0.004633 0.000000
# 4 0.000000 0.000000 0.000000 0.055926 0.000000 0.026442
# 5 -0.000864 -0.003576 0.004633 0.000000 0.030214 0.000000
# 6 0.000000 0.000000 0.000000 0.026442 0.000000 0.031208
#
#
# Mechanical properties :
#
#
# Convention : Reuss Voigt Hill
#
# Bulk Modulus (GPa) = 60.72174 61.14983 60.93579
# Shear Modulus (GPa) = 29.52915 40.51112 35.02013
#
# Velocity S-wave (km/s) = 3.64634 4.27089 3.97092
# Velocity P-wave (km/s) = 6.71329 7.20098 6.96141
#
# Compressibility (1/GPa) = 0.01646857
#
# Stress axis : x y z
#
# Youngs Moduli (GPa) = 113.48563 80.56674 97.52172
#
# Poissons Ratio (x) = 0.23290 0.13053
# Poissons Ratio (y) = 0.32805 0.31943
# Poissons Ratio (z) = 0.15189 0.26390
#
# Static dielectric constant tensor:
#      x y z
#    x 1.851660 0.000000 -0.022030 
#    y 0.000000 1.789410 0.000000 
#    z -0.022030 0.000000 1.805040 
# 
# From -- ./inp_files/15988.got.cif
#   From: 2010.05.17/outbox.cif.g08.bks.cpg/sg5_8_cif.got.tgz:15988.got - 2010.06.03 18:56:24.
