data_PCOD9130150
_publ_section_title
;
Structure prediction by ZEFSAII (Michael W. Deem and Ramdas Pophale) SiO2 
 PCOD9130150
Probable space group: C 2
;
_chemical_formula_sum "Si O2"
_cell_formula_units_Z 18
_cell_length_a 5.241859
_cell_length_b 25.884270
_cell_length_c 5.277750
_cell_angle_alpha 90.000000
_cell_angle_beta 85.471996
_cell_angle_gamma 90.000000
_cell_volume 713.859034
_symmetry_space_group_name_H-M "C 2"
_symmetry_group_IT_number 5
_symmetry_cell_setting 'monoclinic'
loop_
_space_group_symop_operation_xyz
x,y,z
-x,y,-z
1/2+x,1/2+y,z
1/2-x,1/2+y,-z
loop_
_atom_site_type_symbol
_atom_site_label
_atom_site_fract_x
_atom_site_fract_y
_atom_site_fract_z
Si Si1 0.000000 0.147090 0.500000
Si Si2 0.726717 0.848147 0.162329
Si Si3 0.662163 0.238812 0.731288
Si Si4 0.758417 0.954555 0.364015
Si Si5 0.500000 0.585303 0.000000
Si Si6 0.500000 0.018159 0.000000
O O1 0.797552 0.186372 0.641671
O O2 0.092998 0.114784 0.736376
O O3 0.663848 0.789397 0.240062
O O4 0.753705 0.892632 0.369065
O O5 0.500000 0.865986 0.000000
O O6 0.000000 0.846860 0.000000
O O7 0.500000 0.254885 0.500000
O O8 0.500000 0.231162 0.000000
O O9 0.500000 0.978066 0.500000
O O10 0.000000 0.973240 0.500000
O O11 0.710229 0.975569 0.090299
O O12 0.235760 0.558071 0.919201
#
# Coordination Sequence:
#
# PCOD9130150 Si02
#       6
#     2   4   4   4   2   2
#     4  12  30  52  84 114 156 218 274 350 406 486
#     4  11  25  45  74 117 162 205 258 319 398 491
#     4  11  27  48  80 117 163 211 267 332 406 493
#     4  12  26  46  81 114 158 211 262 328 404 493
#     4  12  32  52  85 114 161 210 286 346 414 466
#     4  12  30  54  75 118 157 210 272 350 402 490
#
# _framework density 25.215059
#
# number of rings (size 3 to 8) (size 9 to 14) (size 15 to 20)
#    0.000    0.444    1.111    4.667   20.222    0.000 
#    0.000    0.000    0.000    0.000    0.000    0.000 
#    0.000    0.000    0.000    0.000    0.000    0.000 
#
# Total GULP energy -50151.610703 kJ/mol
# GULP energy per Si atom -5572.401189 kJ/mol
# Density = 2.515767 g / cm^3
# Si number density = 25.215059 Si / 1000 Ang^3
#
#
#
# Elastic Constant Matrix: (Units=GPa)
#
#
# Indices 1 2 3 4 5 6 
#
# 1 180.6285 39.8633 52.8877 0.0000 24.7761 0.0000
# 2 39.8633 106.0644 48.4768 0.0000 -4.5827 0.0000
# 3 52.8877 48.4768 125.2456 0.0000 11.4687 0.0000
# 4 0.0000 0.0000 0.0000 49.3122 0.0000 -2.5154
# 5 24.7761 -4.5827 11.4687 0.0000 53.1130 0.0000
# 6 0.0000 0.0000 0.0000 -2.5154 0.0000 38.0933
#
#
#
# Elastic Compliance Matrix: (Units=1/GPa)
#
#
# Indices 1 2 3 4 5 6 
#
# 1 0.006917 -0.001843 -0.001936 0.000000 -0.002968 0.000000
# 2 -0.001843 0.012155 -0.004184 0.000000 0.002812 0.000000
# 3 -0.001936 -0.004184 0.010581 0.000000 -0.001743 0.000000
# 4 0.000000 0.000000 0.000000 0.020347 0.000000 0.001344
# 5 -0.002968 0.002812 -0.001743 0.000000 0.020831 0.000000
# 6 0.000000 0.000000 0.000000 0.001344 0.000000 0.026340
#
#
# Mechanical properties :
#
#
# Convention : Reuss Voigt Hill
#
# Bulk Modulus (GPa) = 72.84874 77.15492 75.00183
# Shear Modulus (GPa) = 42.49133 46.15109 44.32121
#
# Velocity S-wave (km/s) = 4.10952 4.28284 4.19707
# Velocity P-wave (km/s) = 7.17434 7.42443 7.30046
#
# Compressibility (1/GPa) = 0.01372707
#
# Stress axis : x y z
#
# Youngs Moduli (GPa) = 144.57551 82.27337 94.51300
#
# Poissons Ratio (x) = 0.15164 0.18294
# Poissons Ratio (y) = 0.26647 0.39541
# Poissons Ratio (z) = 0.27984 0.34420
#
# Static dielectric constant tensor:
#      x y z
#    x 1.994990 0.000000 0.037040 
#    y 0.000000 2.027330 0.000000 
#    z 0.037040 0.000000 1.522560 
# 
# From -- ./inp_files/1159.got.cif
#   From: 2010.05.17/outbox.cif.g08.bks.cpg/sg5_1_cif.got.tgz:1159.got - 2010.06.03 18:56:24.
