data_PCOD9130014
_publ_section_title
;
Structure prediction by ZEFSAII (Michael W. Deem and Ramdas Pophale) SiO2 
 PCOD9130014
Probable space group: C 2
;
_chemical_formula_sum "Si O2"
_cell_formula_units_Z 26
_cell_length_a 5.359112
_cell_length_b 22.429031
_cell_length_c 10.582374
_cell_angle_alpha 90.000000
_cell_angle_beta 105.685402
_cell_angle_gamma 90.000000
_cell_volume 1224.629697
_symmetry_space_group_name_H-M "C 2"
_symmetry_group_IT_number 5
_symmetry_cell_setting 'monoclinic'
loop_
_space_group_symop_operation_xyz
x,y,z
-x,y,-z
1/2+x,1/2+y,z
1/2-x,1/2+y,-z
loop_
_atom_site_type_symbol
_atom_site_label
_atom_site_fract_x
_atom_site_fract_y
_atom_site_fract_z
Si Si1 0.502950 0.750000 0.802193
Si Si2 0.210089 0.158517 0.416485
Si Si3 0.064194 0.557746 0.860340
Si Si4 0.000000 0.151347 0.000000
Si Si5 0.508960 0.317430 0.849299
Si Si6 0.935549 0.045936 0.344742
Si Si7 0.086749 0.955385 0.158525
O O1 0.341134 0.714110 0.678252
O O2 0.603948 0.697959 0.910393
O O3 0.755192 0.780089 0.775339
O O4 0.290339 0.794267 0.839256
O O5 0.500000 0.159780 0.500000
O O6 0.000000 0.160128 0.500000
O O7 0.154845 0.094579 0.345754
O O8 0.284057 0.608317 0.910673
O O9 0.151614 0.494252 0.813525
O O10 0.829810 0.578135 0.737331
O O11 0.000000 0.545991 0.000000
O O12 0.443655 0.386330 0.811971
O O13 0.500000 0.312254 0.000000
O O14 0.000000 0.029208 0.500000
O O15 0.941396 0.991402 0.248452
O O16 0.000000 0.960887 0.000000
#
# Coordination Sequence:
#
# PCOD9130014 Si02
#       7
#     4   4   4   2   4   4   4
#     4  12  25  45  71 103 141 182 237 292 349 424
#     4  11  26  46  71 101 146 190 232 288 359 430
#     4  12  23  42  70 107 142 185 230 299 359 432
#     4  12  26  38  70 112 142 172 236 290 378 410
#     4  11  25  44  70 104 140 185 234 295 354 410
#     4  11  27  44  72 106 146 188 235 296 365 427
#     4  11  24  45  70 103 138 185 239 294 358 424
#
# _framework density 21.230906000000001
#
# number of rings (size 3 to 8) (size 9 to 14) (size 15 to 20)
#    0.000    0.615    3.846    2.769   15.077    0.000 
#    0.000    2.308    3.385    0.000    0.000    0.000 
#    0.000    0.000    0.000    0.000    0.000    0.000 
#
# Total GULP energy -72484.876328 kJ/mol
# GULP energy per Si atom -5575.759718 kJ/mol
# Density = 2.118258 g / cm^3
# Si number density = 21.230906 Si / 1000 Ang^3
#
#
#
# Elastic Constant Matrix: (Units=GPa)
#
#
# Indices 1 2 3 4 5 6 
#
# 1 63.7702 15.6421 44.1797 0.0000 -0.8124 0.0000
# 2 15.6421 110.1412 47.4673 0.0000 -3.2284 0.0000
# 3 44.1797 47.4673 124.3279 0.0000 22.8037 0.0000
# 4 0.0000 0.0000 0.0000 26.0673 0.0000 -3.9980
# 5 -0.8124 -3.2284 22.8037 0.0000 40.9652 0.0000
# 6 0.0000 0.0000 0.0000 -3.9980 0.0000 43.3176
#
#
#
# Elastic Compliance Matrix: (Units=1/GPa)
#
#
# Indices 1 2 3 4 5 6 
#
# 1 0.021873 0.001022 -0.009196 0.000000 0.005633 0.000000
# 2 0.001022 0.011393 -0.005436 0.000000 0.003944 0.000000
# 3 -0.009196 -0.005436 0.015033 0.000000 -0.008979 0.000000
# 4 0.000000 0.000000 0.000000 0.038913 0.000000 0.003592
# 5 0.005633 0.003944 -0.008979 0.000000 0.029832 0.000000
# 6 0.000000 0.000000 0.000000 0.003592 0.000000 0.023417
#
#
# Mechanical properties :
#
#
# Convention : Reuss Voigt Hill
#
# Bulk Modulus (GPa) = 47.44100 56.97972 52.21036
# Shear Modulus (GPa) = 28.61916 34.80002 31.70959
#
# Velocity S-wave (km/s) = 3.67549 4.05300 3.86885
# Velocity P-wave (km/s) = 6.35658 6.98561 6.67850
#
# Compressibility (1/GPa) = 0.02107881
#
# Stress axis : x y z
#
# Youngs Moduli (GPa) = 45.71755 87.77675 66.51818
#
# Poissons Ratio (x) = -0.08970 0.61171
# Poissons Ratio (y) = -0.04672 0.36160
# Poissons Ratio (z) = 0.42042 0.47717
#
# Static dielectric constant tensor:
#      x y z
#    x 1.806790 0.000000 -0.079460 
#    y 0.000000 1.769570 0.000000 
#    z -0.079460 0.000000 1.775020 
# 
# From -- ./inp_files/34014.got.cif
#   From: 2010.05.17/outbox.cif.g08.bks.cpg/sg5_18_cif.got.tgz:34014.got - 2010.06.03 18:56:24.
