data_PCOD9130770
_publ_section_title
;
Structure prediction by ZEFSAII (Michael W. Deem and Ramdas Pophale) SiO2 
 PCOD9130770
Probable space group: P M
;
_chemical_formula_sum "Si O2"
_cell_formula_units_Z 16
_cell_length_a 10.127558
_cell_length_b 8.079564
_cell_length_c 8.093837
_cell_angle_alpha 90.000000
_cell_angle_beta 72.494415
_cell_angle_gamma 90.000000
_cell_volume 631.616214
_symmetry_space_group_name_H-M "P M"
_symmetry_group_IT_number 6
_symmetry_cell_setting 'monoclinic'
loop_
_space_group_symop_operation_xyz
x,y,z
x,-y,z
loop_
_atom_site_type_symbol
_atom_site_label
_atom_site_fract_x
_atom_site_fract_y
_atom_site_fract_z
Si Si1 0.893750 0.297934 0.969140
Si Si2 0.148667 0.691140 0.667485
Si Si3 0.323874 0.811774 0.295384
Si Si4 0.632182 0.700329 0.893233
Si Si5 0.810486 0.698068 0.508455
Si Si6 0.063599 0.299820 0.221292
Si Si7 0.544912 0.691773 0.433733
Si Si8 0.374177 0.812979 0.804677
O O1 0.889452 0.500000 0.979741
O O2 0.736060 0.243890 0.999166
O O3 0.994782 0.258512 0.776916
O O4 0.980367 0.238979 0.093205
O O5 0.146588 0.500000 0.613044
O O6 0.226778 0.790213 0.495671
O O7 0.243677 0.703098 0.797630
O O8 0.462731 0.713965 0.294018
O O9 0.219566 0.756816 0.191197
O O10 0.363870 0.000000 0.258753
O O11 0.622773 0.500000 0.900084
O O12 0.723974 0.753447 0.698670
O O13 0.478653 0.764616 0.912815
O O14 0.824048 0.500000 0.524386
O O15 0.962731 0.758418 0.408096
O O16 0.707546 0.724406 0.390696
O O17 0.065485 0.500000 0.217650
O O18 0.525659 0.500000 0.491580
O O19 0.470066 0.798492 0.603136
O O20 0.326184 0.000000 0.843534
#
# Coordination Sequence:
#
# PCOD9130770 Si02
#       8
#     2   2   2   2   2   2   2   2
#     4   9  19  33  54  78 100 129 173 215 251 292
#     4  10  18  33  55  78 100 130 169 213 253 293
#     4  11  21  33  50  77 105 135 169 205 249 303
#     4   9  16  31  51  74 100 130 165 206 250 299
#     4   8  15  28  52  77  98 124 161 204 251 296
#     4  10  19  35  54  75 102 134 168 210 253 297
#     4   9  16  30  51  75  99 129 165 209 254 294
#     4  10  18  29  47  76 104 129 162 206 253 302
#
# _framework density 25.331838000000001
#
# number of rings (size 3 to 8) (size 9 to 14) (size 15 to 20)
#    0.000    2.500    0.000    6.000    0.000    2.000 
#    0.000   10.000    0.000    4.500    0.000    0.000 
#    0.000    0.000    0.000    0.000    0.000    0.000 
#
# Total GULP energy -89412.458882 kJ/mol
# GULP energy per Si atom -5588.278680 kJ/mol
# Density = 2.527418 g / cm^3
# Si number density = 25.331838 Si / 1000 Ang^3
#
#
#
# Elastic Constant Matrix: (Units=GPa)
#
#
# Indices 1 2 3 4 5 6 
#
# 1 189.3922 4.1337 29.8064 0.0000 17.7693 0.0000
# 2 4.1337 47.3778 -1.5177 0.0000 2.7374 0.0000
# 3 29.8064 -1.5177 82.5216 0.0000 22.1584 0.0000
# 4 0.0000 0.0000 0.0000 24.6573 0.0000 76.4291
# 5 17.7693 2.7374 22.1584 0.0000 53.0935 0.0000
# 6 0.0000 0.0000 0.0000 76.4291 0.0000 352.3686
#
#
#
# Elastic Compliance Matrix: (Units=1/GPa)
#
#
# Indices 1 2 3 4 5 6 
#
# 1 0.005673 -0.000485 -0.001751 0.000000 -0.001143 0.000000
# 2 -0.000485 0.021255 0.000920 0.000000 -0.001317 0.000000
# 3 -0.001751 0.000920 0.014216 0.000000 -0.005394 0.000000
# 4 0.000000 0.000000 0.000000 0.123767 0.000000 -0.026845
# 5 -0.001143 -0.001317 -0.005394 0.000000 0.021536 0.000000
# 6 0.000000 0.000000 0.000000 -0.026845 0.000000 0.008661
#
#
# Mechanical properties :
#
#
# Convention : Reuss Voigt Hill
#
# Bulk Modulus (GPa) = 25.96640 42.68181 34.32410
# Shear Modulus (GPa) = 23.74416 105.14849 64.44632
#
# Velocity S-wave (km/s) = 3.06490 6.44969 5.04936
# Velocity P-wave (km/s) = 4.77468 8.50590 6.89739
#
# Compressibility (1/GPa) = 0.03851131
#
# Stress axis : x y z
#
# Youngs Moduli (GPa) = 176.25873 47.04811 70.34348
#
# Poissons Ratio (x) = 0.02282 0.12319
# Poissons Ratio (y) = 0.08550 -0.06471
# Poissons Ratio (z) = 0.30868 -0.04328
#
# Static dielectric constant tensor:
#      x y z
#    x 1.994300 0.000000 0.033520 
#    y 0.000000 1.869400 0.000000 
#    z 0.033520 0.000000 2.154800 
# 
# From -- ./inp_files/3575.got.cif
#   From: 2010.05.17/outbox.cif.g08.bks.cpg/sg6_2_cif.got.tgz:3575.got - 2010.06.03 19:42:10.
