data_PCOD9130229
_publ_section_title
;
Structure prediction by ZEFSAII (Michael W. Deem and Ramdas Pophale) SiO2 
 PCOD9130229
Probable space group: C 2
;
_chemical_formula_sum "Si O2"
_cell_formula_units_Z 20
_cell_length_a 10.577961
_cell_length_b 11.836546
_cell_length_c 12.366116
_cell_angle_alpha 90.000000
_cell_angle_beta 147.286073
_cell_angle_gamma 90.000000
_cell_volume 836.780695
_symmetry_space_group_name_H-M "C 2"
_symmetry_group_IT_number 5
_symmetry_cell_setting 'monoclinic'
loop_
_space_group_symop_operation_xyz
x,y,z
-x,y,-z
1/2+x,1/2+y,z
1/2-x,1/2+y,-z
loop_
_atom_site_type_symbol
_atom_site_label
_atom_site_fract_x
_atom_site_fract_y
_atom_site_fract_z
Si Si1 0.488479 0.292350 0.670362
Si Si2 0.000000 0.616757 0.500000
Si Si3 0.223505 0.432900 0.786227
Si Si4 0.818114 0.711131 0.772761
Si Si5 0.179147 0.475422 0.333733
Si Si6 0.500000 0.835974 0.000000
O O1 0.402939 0.196201 0.525364
O O2 0.423862 0.281530 0.748399
O O3 0.384110 0.408256 0.544850
O O4 0.767351 0.272716 0.867933
O O5 0.803145 0.528527 0.323180
O O6 0.146021 0.303430 0.703732
O O7 0.050652 0.477098 0.755152
O O8 0.500000 0.422732 0.000000
O O9 0.748943 0.596862 0.661191
O O10 0.000000 0.679696 0.000000
O O11 0.093276 0.406834 0.167894
#
# Coordination Sequence:
#
# PCOD9130229 Si02
#       6
#     4   2   4   4   4   2
#     4  12  27  49  78 116 153 212 264 329 403 466
#     4  12  24  46  72 110 156 202 258 322 386 466
#     4  11  26  49  74 113 157 207 260 322 393 470
#     4  11  25  51  78 115 157 210 265 322 396 472
#     4  12  25  49  76 116 160 206 267 330 394 471
#     4  12  24  48  74 110 160 198 274 322 396 476
#
# _framework density 23.901125
#
# number of rings (size 3 to 8) (size 9 to 14) (size 15 to 20)
#    0.000    0.400    5.000    3.600    1.400    0.000 
#   18.000    0.000    0.000    0.000    0.000    0.000 
#    0.000    0.000    0.000    0.000    0.000    0.000 
#
# Total GULP energy -55854.589771 kJ/mol
# GULP energy per Si atom -5585.458977 kJ/mol
# Density = 2.384673 g / cm^3
# Si number density = 23.901125 Si / 1000 Ang^3
#
#
#
# Elastic Constant Matrix: (Units=GPa)
#
#
# Indices 1 2 3 4 5 6 
#
# 1 116.1136 38.8404 44.9497 0.0013 -13.5791 0.0001
# 2 38.8404 146.1051 30.4513 0.0016 -10.9356 0.0006
# 3 44.9497 30.4513 112.9296 0.0031 2.5450 0.0014
# 4 0.0013 0.0016 0.0031 38.1473 0.0015 -11.5627
# 5 -13.5791 -10.9356 2.5450 0.0015 41.0570 0.0004
# 6 0.0001 0.0006 0.0014 -11.5627 0.0004 35.1003
#
#
#
# Elastic Compliance Matrix: (Units=1/GPa)
#
#
# Indices 1 2 3 4 5 6 
#
# 1 0.011206 -0.001880 -0.004031 0.000000 0.003455 0.000000
# 2 -0.001880 0.007745 -0.001374 0.000000 0.001526 0.000000
# 3 -0.004031 -0.001374 0.010884 -0.000001 -0.002374 -0.000001
# 4 0.000000 0.000000 -0.000001 0.029122 -0.000001 0.009593
# 5 0.003455 0.001526 -0.002374 -0.000001 0.026053 -0.000001
# 6 0.000000 0.000000 -0.000001 0.009593 -0.000001 0.031650
#
#
# Mechanical properties :
#
#
# Convention : Reuss Voigt Hill
#
# Bulk Modulus (GPa) = 65.51823 67.07013 66.29418
# Shear Modulus (GPa) = 36.67881 40.25470 38.46676
#
# Velocity S-wave (km/s) = 3.92165 4.10837 4.01610
# Velocity P-wave (km/s) = 6.92658 7.11529 7.02157
#
# Compressibility (1/GPa) = 0.01526293
#
# Stress axis : x y z
#
# Youngs Moduli (GPa) = 89.23948 129.11726 91.88020
#
# Poissons Ratio (x) = 0.24276 0.37039
# Poissons Ratio (y) = 0.16778 0.12628
# Poissons Ratio (z) = 0.35974 0.17746
#
# Static dielectric constant tensor:
#      x y z
#    x 1.958510 0.000000 0.013340 
#    y 0.000000 1.955470 0.000000 
#    z 0.013340 0.000000 2.043930 
# 
# From -- ./inp_files/52818.got.cif
#   From: 2010.05.17/outbox.cif.g08.bks.cpg/sg5_27_cif.got.tgz:52818.got - 2010.06.03 18:56:24.
