data_PCOD9130547
_publ_section_title
;
Structure prediction by ZEFSAII (Michael W. Deem and Ramdas Pophale) SiO2 
 PCOD9130547
Probable space group: C 2
;
_chemical_formula_sum "Si O2"
_cell_formula_units_Z 26
_cell_length_a 10.416930
_cell_length_b 10.844343
_cell_length_c 12.201767
_cell_angle_alpha 90.000000
_cell_angle_beta 59.566821
_cell_angle_gamma 90.000000
_cell_volume 1188.458601
_symmetry_space_group_name_H-M "C 2"
_symmetry_group_IT_number 5
_symmetry_cell_setting 'monoclinic'
loop_
_space_group_symop_operation_xyz
x,y,z
-x,y,-z
1/2+x,1/2+y,z
1/2-x,1/2+y,-z
loop_
_atom_site_type_symbol
_atom_site_label
_atom_site_fract_x
_atom_site_fract_y
_atom_site_fract_z
Si Si1 0.908814 0.870610 0.359199
Si Si2 0.000000 0.036075 0.500000
Si Si3 0.258334 0.182545 0.293947
Si Si4 0.308325 0.770369 0.911396
Si Si5 0.784219 0.759065 0.808984
Si Si6 0.050815 0.056657 0.859225
Si Si7 0.458132 0.971023 0.139751
O O1 0.058059 0.790197 0.310348
O O2 0.778339 0.779065 0.382747
O O3 0.891200 0.952940 0.473728
O O4 0.936905 0.958735 0.242462
O O5 0.899043 0.115795 0.624183
O O6 0.264875 0.248145 0.173500
O O7 0.388543 0.080810 0.238912
O O8 0.427030 0.659802 0.881500
O O9 0.400728 0.898058 0.873821
O O10 0.205068 0.765070 0.063283
O O11 0.704202 0.632661 0.809260
O O12 0.669747 0.868175 0.825147
O O13 0.000000 0.005733 0.000000
O O14 0.500000 0.017217 0.000000
#
# Coordination Sequence:
#
# PCOD9130547 Si02
#       7
#     4   2   4   4   4   4   4
#     4  12  26  42  68  96 126 182 224 269 324 396
#     4  12  28  52  60  88 140 188 228 266 320 388
#     4  12  26  42  68  96 126 182 224 269 324 396
#     4   9  19  38  65  99 137 168 206 269 335 390
#     4   9  19  38  65  99 137 168 206 269 335 390
#     4   9  19  38  65  99 137 168 206 269 335 390
#     4   9  19  38  65  99 137 168 206 269 335 390
#
# _framework density 21.877077
#
# number of rings (size 3 to 8) (size 9 to 14) (size 15 to 20)
#    0.000    1.846    3.077    1.846    4.308    3.692 
#    0.000    0.000    0.000    0.000    0.000    0.000 
#    0.000    0.000    0.000    0.000    0.000    0.000 
#
# Total GULP energy -72709.969855 kJ/mol
# GULP energy per Si atom -5593.074604 kJ/mol
# Density = 2.182728 g / cm^3
# Si number density = 21.877077 Si / 1000 Ang^3
#
#
#
# Elastic Constant Matrix: (Units=GPa)
#
#
# Indices 1 2 3 4 5 6 
#
# 1 39.4220 13.2577 4.3765 0.0000 10.6638 0.0000
# 2 13.2577 65.3410 16.8141 0.0000 12.2392 0.0000
# 3 4.3765 16.8141 36.0328 0.0000 12.8445 0.0000
# 4 0.0000 0.0000 0.0000 -52.5959 0.0000 -50.1527
# 5 10.6638 12.2392 12.8445 0.0000 31.9137 0.0000
# 6 0.0000 0.0000 0.0000 -50.1527 0.0000 -21.2018
#
#
#
# Elastic Compliance Matrix: (Units=1/GPa)
#
#
# Indices 1 2 3 4 5 6 
#
# 1 0.029095 -0.004741 0.001746 0.000000 -0.008607 0.000000
# 2 -0.004741 0.018608 -0.007155 0.000000 -0.002673 0.000000
# 3 0.001746 -0.007155 0.035152 0.000000 -0.011988 0.000000
# 4 0.000000 0.000000 0.000000 0.015142 0.000000 -0.035819
# 5 -0.008607 -0.002673 -0.011988 0.000000 0.040060 0.000000
# 6 0.000000 0.000000 0.000000 -0.035819 0.000000 0.037564
#
#
# Mechanical properties :
#
#
# Convention : Reuss Voigt Hill
#
# Bulk Modulus (GPa) = 15.98529 23.29915 19.64222
# Shear Modulus (GPa) = 23.06571 -1.28696 10.88938
#
# Velocity S-wave (km/s) = 3.25057 -0.76782 2.23346
# Velocity P-wave (km/s) = 4.62720 3.14437 3.95589
#
# Compressibility (1/GPa) = 0.06255752
#
# Stress axis : x y z
#
# Youngs Moduli (GPa) = 34.36998 53.74064 28.44775
#
# Poissons Ratio (x) = 0.25476 -0.04968
# Poissons Ratio (y) = 0.16294 0.20353
# Poissons Ratio (z) = -0.06002 0.38449
#
# Static dielectric constant tensor:
#      x y z
#    x 1.799520 0.000000 0.004560 
#    y 0.000000 1.809570 0.000000 
#    z 0.004560 0.000000 1.775400 
# 
# From -- ./inp_files/38746.got.cif
#   From: 2010.05.17/outbox.cif.g08.bks.cpg/sg5_20_cif.got.tgz:38746.got - 2010.06.03 18:56:24.
