data_PCOD9130367
_publ_section_title
;
Structure prediction by ZEFSAII (Michael W. Deem and Ramdas Pophale) SiO2 
 PCOD9130367
Probable space group: C 2
;
_chemical_formula_sum "Si O2"
_cell_formula_units_Z 24
_cell_length_a 14.295454
_cell_length_b 7.322783
_cell_length_c 12.961009
_cell_angle_alpha 90.000000
_cell_angle_beta 142.008912
_cell_angle_gamma 90.000000
_cell_volume 835.157589
_symmetry_space_group_name_H-M "C 2"
_symmetry_group_IT_number 5
_symmetry_cell_setting 'monoclinic'
loop_
_space_group_symop_operation_xyz
x,y,z
-x,y,-z
1/2+x,1/2+y,z
1/2-x,1/2+y,-z
loop_
_atom_site_type_symbol
_atom_site_label
_atom_site_fract_x
_atom_site_fract_y
_atom_site_fract_z
Si Si1 0.698618 0.751560 0.078890
Si Si2 0.583148 0.542114 0.170953
Si Si3 0.639865 0.429211 0.548604
Si Si4 0.288600 0.787568 0.494042
Si Si5 0.676056 0.135470 0.118882
Si Si6 0.925489 0.463766 0.316234
O O1 0.670603 0.694155 0.177150
O O2 0.857318 0.649266 0.208680
O O3 0.697902 0.965835 0.057032
O O4 0.558587 0.648519 0.902247
O O5 0.675075 0.389174 0.313472
O O6 0.500000 0.446699 0.000000
O O7 0.500000 0.378429 0.500000
O O8 0.704196 0.275438 0.529592
O O9 0.745447 0.542869 0.715507
O O10 0.624099 0.599633 0.455800
O O11 0.431375 0.919247 0.629090
O O12 0.786589 0.312077 0.191752
O O13 0.500000 0.121088 0.000000
O O14 0.000000 0.462508 0.500000
#
# Coordination Sequence:
#
# PCOD9130367 Si02
#       6
#     4   4   4   4   4   4
#     4   9  21  38  71 111 157 211 261 327 407 464
#     4   8  18  39  70 114 152 210 262 325 399 477
#     4  12  29  50  76 121 160 211 273 341 403 491
#     4  12  25  47  77 116 161 210 272 331 419 488
#     4  12  24  43  77 113 159 212 268 335 401 480
#     4  12  22  42  73 112 159 207 260 337 403 466
#
# _framework density 28.737092000000001
#
# number of rings (size 3 to 8) (size 9 to 14) (size 15 to 20)
#    1.000    0.000    6.667    0.000    7.000    2.667 
#    0.000    2.500    3.667    2.000    0.000    0.000 
#    0.000    0.000    0.000    0.000    0.000    0.000 
#
# Total GULP energy -66881.072904 kJ/mol
# GULP energy per Si atom -5573.422742 kJ/mol
# Density = 2.867169 g / cm^3
# Si number density = 28.737092 Si / 1000 Ang^3
#
#
#
# Elastic Constant Matrix: (Units=GPa)
#
#
# Indices 1 2 3 4 5 6 
#
# 1 148.7705 24.7759 50.0994 0.0000 20.7296 0.0000
# 2 24.7759 140.9234 10.1412 0.0000 14.9228 0.0000
# 3 50.0994 10.1412 133.6537 0.0000 12.9599 0.0000
# 4 0.0000 0.0000 0.0000 7.0624 0.0000 -28.3668
# 5 20.7296 14.9228 12.9599 0.0000 56.8706 0.0000
# 6 0.0000 0.0000 0.0000 -28.3668 0.0000 17.8788
#
#
#
# Elastic Compliance Matrix: (Units=1/GPa)
#
#
# Indices 1 2 3 4 5 6 
#
# 1 0.008107 -0.001008 -0.002763 0.000000 -0.002061 0.000000
# 2 -0.001008 0.007443 -0.000034 0.000000 -0.001578 0.000000
# 3 -0.002763 -0.000034 0.008612 0.000000 -0.000947 0.000000
# 4 0.000000 0.000000 0.000000 -0.026354 0.000000 -0.041814
# 5 -0.002061 -0.001578 -0.000947 0.000000 0.018965 0.000000
# 6 0.000000 0.000000 0.000000 -0.041814 0.000000 -0.010410
#
#
# Mechanical properties :
#
#
# Convention : Reuss Voigt Hill
#
# Bulk Modulus (GPa) = 60.41349 65.93119 63.17234
# Shear Modulus (GPa) = 256.55354 38.91777 147.73565
#
# Velocity S-wave (km/s) = 9.45885 3.68403 7.17781
# Velocity P-wave (km/s) = 11.84743 6.41006 9.52498
#
# Compressibility (1/GPa) = 0.01655260
#
# Stress axis : x y z
#
# Youngs Moduli (GPa) = 123.34760 134.35755 116.11814
#
# Poissons Ratio (x) = 0.13547 0.32079
# Poissons Ratio (y) = 0.12437 0.00392
# Poissons Ratio (z) = 0.34076 0.00454
#
# Static dielectric constant tensor:
#      x y z
#    x 2.443020 0.000000 -0.212670 
#    y 0.000000 2.612930 0.000000 
#    z -0.212670 0.000000 2.845560 
# 
# From -- ./inp_files/52784.got.cif
#   From: 2010.05.17/outbox.cif.g08.bks.cpg/sg5_27_cif.got.tgz:52784.got - 2010.06.03 18:56:24.
