data_PCOD9130927
_publ_section_title
;
Structure prediction by ZEFSAII (Michael W. Deem and Ramdas Pophale) SiO2 
 PCOD9130927
Probable space group: P M
;
_chemical_formula_sum "Si O2"
_cell_formula_units_Z 13
_cell_length_a 6.851600
_cell_length_b 7.054212
_cell_length_c 9.736281
_cell_angle_alpha 90.000000
_cell_angle_beta 106.514186
_cell_angle_gamma 90.000000
_cell_volume 451.168434
_symmetry_space_group_name_H-M "P M"
_symmetry_group_IT_number 6
_symmetry_cell_setting 'monoclinic'
loop_
_space_group_symop_operation_xyz
x,y,z
x,-y,z
loop_
_atom_site_type_symbol
_atom_site_label
_atom_site_fract_x
_atom_site_fract_y
_atom_site_fract_z
Si Si1 0.595370 0.223849 0.260920
Si Si2 0.525115 0.223235 0.942001
Si Si3 0.304356 0.227943 0.631300
Si Si4 0.737130 0.771661 0.567974
Si Si5 0.955752 0.777611 0.872034
Si Si6 0.127578 0.222036 0.184740
Si Si7 0.014814 0.500000 0.394944
O O1 0.567805 0.298669 0.102004
O O2 0.729319 0.312459 0.411882
O O3 0.363815 0.238386 0.271540
O O4 0.645603 0.000000 0.261843
O O5 0.737345 0.240334 0.904129
O O6 0.483252 0.000000 0.953933
O O7 0.352532 0.285512 0.799551
O O8 0.518466 0.263365 0.594564
O O9 0.132020 0.336398 0.515889
O O10 0.270009 0.000000 0.621646
O O11 0.755722 0.000000 0.560490
O O12 0.904519 0.704731 0.710326
O O13 0.106064 0.712011 0.021755
O O14 0.999958 0.000000 0.861736
O O15 0.994584 0.337195 0.263861
O O16 0.071407 0.000000 0.175787
#
# Coordination Sequence:
#
# PCOD9130927 Si02
#       7
#     2   2   2   2   2   2   1
#     4   9  15  27  52  82 107 131 171 218 255 302
#     4   8  15  29  53  80 105 136 173 212 259 311
#     4   9  17  31  50  76 104 132 174 220 252 298
#     4   8  13  26  50  75 100 132 170 210 248 299
#     4   8  15  29  49  72 105 141 170 208 260 308
#     4  10  20  33  52  80 109 134 170 218 259 304
#     4  12  20  30  52  78 102 140 178 214 254 310
#
# _framework density 28.814074000000002
#
# number of rings (size 3 to 8) (size 9 to 14) (size 15 to 20)
#    0.000    3.077    1.538    2.308    0.000    0.000 
#    0.000    3.846    3.385    0.000    0.000    0.000 
#    0.000    0.000    0.000    0.000    0.000    0.000 
#
# Total GULP energy -72579.024365 kJ/mol
# GULP energy per Si atom -5583.001874 kJ/mol
# Density = 2.874849 g / cm^3
# Si number density = 28.814074 Si / 1000 Ang^3
#
#
#
# Elastic Constant Matrix: (Units=GPa)
#
#
# Indices 1 2 3 4 5 6 
#
# 1 95.2731 -27.9383 48.0857 0.0000 17.2547 0.0000
# 2 -27.9383 172.4569 25.8614 0.0000 1.7637 0.0000
# 3 48.0857 25.8614 342.6422 0.0000 15.1462 0.0000
# 4 0.0000 0.0000 0.0000-1776.8214 0.0000 497.8723
# 5 17.2547 1.7637 15.1462 0.0000 79.0516 0.0000
# 6 0.0000 0.0000 0.0000 497.8723 0.0000 -246.7978
#
#
#
# Elastic Compliance Matrix: (Units=1/GPa)
#
#
# Indices 1 2 3 4 5 6 
#
# 1 0.012545 0.002331 -0.001829 0.000000 -0.002440 0.000000
# 2 0.002331 0.006298 -0.000780 0.000000 -0.000500 0.000000
# 3 -0.001829 -0.000780 0.003243 0.000000 -0.000205 0.000000
# 4 0.000000 0.000000 0.000000 -0.001295 0.000000 -0.002612
# 5 -0.002440 -0.000500 -0.000205 0.000000 0.013233 0.000000
# 6 0.000000 0.000000 0.000000 -0.002612 0.000000 -0.009320
#
#
# Mechanical properties :
#
#
# Convention : Reuss Voigt Hill
#
# Bulk Modulus (GPa) = 46.44519 78.04331 62.24425
# Shear Modulus (GPa) = 154.14845 -351.28929 -98.57042
#
# Velocity S-wave (km/s) = 7.32214 -11.05353 -5.85520
# Velocity P-wave (km/s) = 9.36157 11.65176 4.90533
#
# Compressibility (1/GPa) = 0.02153075
#
# Stress axis : x y z
#
# Youngs Moduli (GPa) = 79.71557 158.77069 308.34887
#
# Poissons Ratio (x) = -0.37016 0.56385
# Poissons Ratio (y) = -0.18585 0.24066
# Poissons Ratio (z) = 0.14577 0.12392
#
# Static dielectric constant tensor:
#      x y z
#    x 2.345820 0.000000 -0.050200 
#    y 0.000000 2.215270 0.000000 
#    z -0.050200 0.000000 2.197470 
# 
# From -- ./inp_files/3429.got.cif
#   From: 2010.05.17/outbox.cif.g08.bks.cpg/sg6_2_cif.got.tgz:3429.got - 2010.06.03 19:42:10.
