data_PCOD9130253
_publ_section_title
;
Structure prediction by ZEFSAII (Michael W. Deem and Ramdas Pophale) SiO2 
 PCOD9130253
Probable space group: C 2
;
_chemical_formula_sum "Si O2"
_cell_formula_units_Z 22
_cell_length_a 18.710692
_cell_length_b 6.879662
_cell_length_c 11.698804
_cell_angle_alpha 90.000000
_cell_angle_beta 142.939837
_cell_angle_gamma 90.000000
_cell_volume 907.540364
_symmetry_space_group_name_H-M "C 2"
_symmetry_group_IT_number 5
_symmetry_cell_setting 'monoclinic'
loop_
_space_group_symop_operation_xyz
x,y,z
-x,y,-z
1/2+x,1/2+y,z
1/2-x,1/2+y,-z
loop_
_atom_site_type_symbol
_atom_site_label
_atom_site_fract_x
_atom_site_fract_y
_atom_site_fract_z
Si Si1 0.040449 0.516060 0.866445
Si Si2 0.017424 0.178173 0.347240
Si Si3 0.197554 0.195749 0.780569
Si Si4 0.000000 0.187886 0.000000
Si Si5 0.642332 0.335033 0.383854
Si Si6 0.745826 0.019501 0.672912
O O1 0.992304 0.412207 0.688383
O O2 0.024058 0.336152 0.928136
O O3 0.950373 0.683610 0.786453
O O4 0.174093 0.597046 0.042014
O O5 0.880305 0.146558 0.207326
O O6 0.107918 0.130055 0.565691
O O7 0.068523 0.027079 0.320878
O O8 0.213063 0.416982 0.750896
O O9 0.885048 0.057742 0.855974
O O10 0.690235 0.222367 0.558190
O O11 0.750567 0.375487 0.434851
#
# Coordination Sequence:
#
# PCOD9130253 Si02
#       6
#     4   4   4   2   4   4
#     4  12  25  46  74 105 147 195 245 313 370 453
#     4  11  26  51  68 111 145 197 246 308 370 460
#     4  11  26  47  73 106 150 189 251 300 376 446
#     4  12  24  42  70 110 144 186 256 300 384 442
#     4  12  24  46  75 103 146 194 246 308 379 434
#     4  12  23  44  75 107 145 195 246 312 371 447
#
# _framework density 24.241344999999999
#
# number of rings (size 3 to 8) (size 9 to 14) (size 15 to 20)
#    0.000    0.364    3.636    5.455    2.545    0.000 
#    6.545    0.000    0.000    0.000    0.000    0.000 
#    0.000    0.000    0.000    0.000    0.000    0.000 
#
# Total GULP energy -61332.428606 kJ/mol
# GULP energy per Si atom -5575.675328 kJ/mol
# Density = 2.418617 g / cm^3
# Si number density = 24.241345 Si / 1000 Ang^3
#
#
#
# Elastic Constant Matrix: (Units=GPa)
#
#
# Indices 1 2 3 4 5 6 
#
# 1 67.9604 27.5119 12.5259 0.0000 27.3257 0.0000
# 2 27.5119 111.5741 35.0502 0.0000 11.7781 0.0000
# 3 12.5259 35.0502 94.3408 0.0000 30.0029 0.0000
# 4 0.0000 0.0000 0.0000 30.4948 0.0000 0.5836
# 5 27.3257 11.7781 30.0029 0.0000 34.6900 0.0000
# 6 0.0000 0.0000 0.0000 0.5836 0.0000 29.4075
#
#
#
# Elastic Compliance Matrix: (Units=1/GPa)
#
#
# Indices 1 2 3 4 5 6 
#
# 1 0.025254 -0.005708 0.006177 0.000000 -0.023297 0.000000
# 2 -0.005708 0.011439 -0.005086 0.000000 0.005011 0.000000
# 3 0.006177 -0.005086 0.017474 0.000000 -0.018252 0.000000
# 4 0.000000 0.000000 0.000000 0.032805 0.000000 -0.000651
# 5 -0.023297 0.005011 -0.018252 0.000000 0.061263 0.000000
# 6 0.000000 0.000000 0.000000 -0.000651 0.000000 0.034018
#
#
# Mechanical properties :
#
#
# Convention : Reuss Voigt Hill
#
# Bulk Modulus (GPa) = 22.25546 47.11680 34.68613
# Shear Modulus (GPa) = 24.21730 32.17094 28.19412
#
# Velocity S-wave (km/s) = 3.16414 3.64690 3.41407
# Velocity P-wave (km/s) = 4.74866 6.10016 5.46634
#
# Compressibility (1/GPa) = 0.04493279
#
# Stress axis : x y z
#
# Youngs Moduli (GPa) = 39.59722 87.42159 57.22874
#
# Poissons Ratio (x) = 0.49903 -0.35350
# Poissons Ratio (y) = 0.22603 0.29104
# Poissons Ratio (z) = -0.24459 0.44460
#
# Static dielectric constant tensor:
#      x y z
#    x 2.036150 0.000000 -0.119790 
#    y 0.000000 1.943490 0.000000 
#    z -0.119790 0.000000 2.171220 
# 
# From -- ./inp_files/57484.got.cif
#   From: 2010.05.17/outbox.cif.g08.bks.cpg/sg5_29_cif.got.tgz:57484.got - 2010.06.03 18:56:24.
