data_PCOD9130274
_publ_section_title
;
Structure prediction by ZEFSAII (Michael W. Deem and Ramdas Pophale) SiO2 
 PCOD9130274
Probable space group: C 2
;
_chemical_formula_sum "Si O2"
_cell_formula_units_Z 24
_cell_length_a 8.500909
_cell_length_b 11.210879
_cell_length_c 11.188374
_cell_angle_alpha 90.000000
_cell_angle_beta 92.110910
_cell_angle_gamma 90.000000
_cell_volume 1065.558247
_symmetry_space_group_name_H-M "C 2"
_symmetry_group_IT_number 5
_symmetry_cell_setting 'monoclinic'
loop_
_space_group_symop_operation_xyz
x,y,z
-x,y,-z
1/2+x,1/2+y,z
1/2-x,1/2+y,-z
loop_
_atom_site_type_symbol
_atom_site_label
_atom_site_fract_x
_atom_site_fract_y
_atom_site_fract_z
Si Si1 0.825187 0.107610 0.548210
Si Si2 0.000000 0.598630 0.000000
Si Si3 0.000000 0.013754 0.000000
Si Si4 0.836584 0.841545 0.566504
Si Si5 0.056762 0.191127 0.198709
Si Si6 0.696439 0.244596 0.177982
Si Si7 0.776903 0.387224 0.943198
O O1 0.742765 0.218830 0.480959
O O2 0.847008 0.147411 0.685425
O O3 0.000000 0.099920 0.500000
O O4 0.756936 0.971932 0.539942
O O5 0.045325 0.671553 0.121685
O O6 0.141435 0.505547 0.006188
O O7 0.911340 0.102893 0.909627
O O8 0.101046 0.931572 0.913529
O O9 0.850759 0.823640 0.709849
O O10 0.000000 0.845364 0.500000
O O11 0.122209 0.319483 0.153971
O O12 0.867362 0.186014 0.218385
O O13 0.753392 0.307054 0.058436
#
# Coordination Sequence:
#
# PCOD9130274 Si02
#       7
#     4   2   2   4   4   4   4
#     4  11  26  49  76 100 145 198 248 306 370 432
#     4  12  24  42  72 108 146 190 236 298 372 442
#     4  12  24  42  70 104 150 188 228 308 370 436
#     4  11  28  50  71 110 143 193 257 307 367 437
#     4  12  23  45  73 106 145 192 243 299 370 443
#     4  12  24  44  71 107 146 187 246 299 362 442
#     4  12  24  43  67 109 146 186 238 299 373 439
#
# _framework density 22.523403999999999
#
# number of rings (size 3 to 8) (size 9 to 14) (size 15 to 20)
#    0.000    0.333    6.667    1.500    0.000   10.000 
#    0.000    0.000    0.000    0.000    0.000    0.000 
#    0.000    0.000    0.000    0.000    0.000    0.000 
#
# Total GULP energy -66851.009244 kJ/mol
# GULP energy per Si atom -5570.917437 kJ/mol
# Density = 2.247214 g / cm^3
# Si number density = 22.523404 Si / 1000 Ang^3
#
#
#
# Elastic Constant Matrix: (Units=GPa)
#
#
# Indices 1 2 3 4 5 6 
#
# 1 56.4875 48.9343 12.6301 0.0000 -11.1477 0.0000
# 2 48.9343 155.1370 46.4303 0.0000 11.7826 0.0000
# 3 12.6301 46.4303 106.9710 0.0000 -5.0134 0.0000
# 4 0.0000 0.0000 0.0000 25.2490 0.0000 -2.8468
# 5 -11.1477 11.7826 -5.0134 0.0000 29.3929 0.0000
# 6 0.0000 0.0000 0.0000 -2.8468 0.0000 49.3823
#
#
#
# Elastic Compliance Matrix: (Units=1/GPa)
#
#
# Indices 1 2 3 4 5 6 
#
# 1 0.030453 -0.011513 0.002177 0.000000 0.016536 0.000000
# 2 -0.011513 0.012147 -0.004381 0.000000 -0.009983 0.000000
# 3 0.002177 -0.004381 0.011203 0.000000 0.004493 0.000000
# 4 0.000000 0.000000 0.000000 0.039865 0.000000 0.002298
# 5 0.016536 -0.009983 0.004493 0.000000 0.045062 0.000000
# 6 0.000000 0.000000 0.000000 0.002298 0.000000 0.020383
#
#
# Mechanical properties :
#
#
# Convention : Reuss Voigt Hill
#
# Bulk Modulus (GPa) = 37.92345 59.39833 48.66089
# Shear Modulus (GPa) = 25.59682 34.84492 30.22087
#
# Velocity S-wave (km/s) = 3.37479 3.93753 3.66697
# Velocity P-wave (km/s) = 5.66211 6.86303 6.29129
#
# Compressibility (1/GPa) = 0.02636891
#
# Stress axis : x y z
#
# Youngs Moduli (GPa) = 32.83695 82.32630 89.25915
#
# Poissons Ratio (x) = 0.94784 -0.19428
# Poissons Ratio (y) = 0.37806 0.39102
# Poissons Ratio (z) = -0.07147 0.36065
#
# Static dielectric constant tensor:
#      x y z
#    x 1.945910 0.000000 0.035290 
#    y 0.000000 1.975170 0.000000 
#    z 0.035290 0.000000 1.795840 
# 
# From -- ./inp_files/35447.got.cif
#   From: 2010.05.17/outbox.cif.g08.bks.cpg/sg5_18_cif.got.tgz:35447.got - 2010.06.03 18:56:24.
