data_PCOD9130739
_publ_section_title
;
Structure prediction by ZEFSAII (Michael W. Deem and Ramdas Pophale) SiO2 
 PCOD9130739
Probable space group: C 2
;
_chemical_formula_sum "Si O2"
_cell_formula_units_Z 13
_cell_length_a 21.000000
_cell_length_b 9.000000
_cell_length_c 9.000000
_cell_angle_alpha 90.000000
_cell_angle_beta 130.000000
_cell_angle_gamma 90.000000
_cell_volume 1303.041598
_symmetry_space_group_name_H-M "C 2"
_symmetry_group_IT_number 5
_symmetry_cell_setting 'monoclinic'
loop_
_space_group_symop_operation_xyz
x,y,z
-x,y,-z
1/2+x,1/2+y,z
1/2-x,1/2+y,-z
loop_
_atom_site_type_symbol
_atom_site_label
_atom_site_fract_x
_atom_site_fract_y
_atom_site_fract_z
Si Si1 0.609693 0.663790 0.840863
Si Si2 0.857689 0.823597 0.006485
Si Si3 0.784991 0.786337 0.213666
Si Si4 0.420326 0.745654 0.554581
Si Si5 0.737158 0.594107 0.649627
Si Si6 0.500000 0.211597 0.000000
Si Si7 0.863585 0.564066 0.579040
O O1 0.633989 0.499141 0.938456
O O2 0.515127 0.710197 0.745275
O O3 0.598911 0.693059 0.645477
O O4 0.689358 0.754685 0.020687
O O5 0.841835 0.762535 0.150998
O O6 0.785361 0.733570 0.803640
O O7 0.938186 0.793950 0.023479
O O8 0.823913 0.681144 0.401307
O O9 0.781072 0.955640 0.268205
O O10 0.351179 0.653826 0.541161
O O11 0.396900 0.918225 0.543458
O O12 0.791993 0.535249 0.594503
O O13 0.439345 0.123596 0.795430
#
# Coordination Sequence:
#
# PCOD9130739 Si02
#       7
#     4   4   4   4   4   2   4
#     4  11  26  43  72 109 139 190 246 300 364 428
#     4  11  23  47  73 100 151 183 251 297 368 437
#     4  12  24  44  79 105 139 201 241 301 375 446
#     4  11  24  45  70 103 151 184 247 302 354 441
#     4  11  24  47  72 105 148 191 246 302 368 444
#     4  10  28  46  72 112 144 188 246 314 366 432
#     4  11  27  46  73 105 153 193 244 301 373 435
#
# _framework density 9.9766580000000005
#
# number of rings (size 3 to 8) (size 9 to 14) (size 15 to 20)
#    0.000    0.923    3.077    1.846    8.615    3.077 
#    2.769    0.000    0.000    0.000    0.000    0.000 
#    0.000    0.000    0.000    0.000    0.000    0.000 
#
# Total GULP energy -72445.734732 kJ/mol
# GULP energy per Si atom -5572.748826 kJ/mol
# Density = 0.995395 g / cm^3
# Si number density = 9.976658 Si / 1000 Ang^3
#
#
#
# Elastic Constant Matrix: (Units=GPa)
#
#
# Indices 1 2 3 4 5 6 
#
# 1 134.5560 41.3308 35.7438 0.0000 0.8028 0.0000
# 2 41.3308 126.3059 50.2922 0.0000 8.3537 0.0000
# 3 35.7438 50.2922 115.1039 0.0000 12.7694 0.0000
# 4 0.0000 0.0000 0.0000 30.4742 0.0000 -5.4306
# 5 0.8028 8.3537 12.7694 0.0000 40.6472 0.0000
# 6 0.0000 0.0000 0.0000 -5.4306 0.0000 36.9036
#
#
#
# Elastic Compliance Matrix: (Units=1/GPa)
#
#
# Indices 1 2 3 4 5 6 
#
# 1 0.008566 -0.002134 -0.001821 0.000000 0.000841 0.000000
# 2 -0.002134 0.010134 -0.003667 0.000000 -0.000889 0.000000
# 3 -0.001821 -0.003667 0.011157 0.000000 -0.002715 0.000000
# 4 0.000000 0.000000 0.000000 0.033698 0.000000 0.004959
# 5 0.000841 -0.000889 -0.002715 0.000000 0.025621 0.000000
# 6 0.000000 0.000000 0.000000 0.004959 0.000000 0.027827
#
#
# Mechanical properties :
#
#
# Convention : Reuss Voigt Hill
#
# Bulk Modulus (GPa) = 68.42809 70.07772 69.25291
# Shear Modulus (GPa) = 36.46497 38.17828 37.32163
#
# Velocity S-wave (km/s) = 4.27958 4.37897 4.32956
# Velocity P-wave (km/s) = 7.66735 7.79514 7.73151
#
# Compressibility (1/GPa) = 0.01461388
#
# Stress axis : x y z
#
# Youngs Moduli (GPa) = 116.74118 98.67526 89.63211
#
# Poissons Ratio (x) = 0.21053 0.16324
# Poissons Ratio (y) = 0.24907 0.32867
# Poissons Ratio (z) = 0.21261 0.36182
#
# Static dielectric constant tensor:
#      x y z
#    x 1.762790 0.000000 0.005060 
#    y 0.000000 1.724750 0.000000 
#    z 0.005060 0.000000 1.679950 
# 
# From -- ./inp_files/29149.got.cif
#   From: 2010.05.17/outbox.ucp.g08.bks.cvg/sg5_15_cif.got.tgz:29149.got - 2010.06.11 12:53:14.
