data_PCOD9130036
_publ_section_title
;
Structure prediction by ZEFSAII (Michael W. Deem and Ramdas Pophale) SiO2 
 PCOD9130036
Probable space group: C 2
;
_chemical_formula_sum "Si O2"
_cell_formula_units_Z 28
_cell_length_a 14.219096
_cell_length_b 7.892867
_cell_length_c 19.567234
_cell_angle_alpha 90.000000
_cell_angle_beta 30.626788
_cell_angle_gamma 90.000000
_cell_volume 1118.748543
_symmetry_space_group_name_H-M "C 2"
_symmetry_group_IT_number 5
_symmetry_cell_setting 'monoclinic'
loop_
_space_group_symop_operation_xyz
x,y,z
-x,y,-z
1/2+x,1/2+y,z
1/2-x,1/2+y,-z
loop_
_atom_site_type_symbol
_atom_site_label
_atom_site_fract_x
_atom_site_fract_y
_atom_site_fract_z
Si Si1 0.486501 0.838950 0.718643
Si Si2 0.235002 0.619246 0.963134
Si Si3 0.804179 0.062862 0.150424
Si Si4 0.952413 0.911494 0.183582
Si Si5 0.696496 0.437120 0.384164
Si Si6 0.920939 0.437656 0.116636
Si Si7 0.854317 0.305022 0.531705
O O1 0.338709 0.693960 0.831127
O O2 0.643270 0.835940 0.678417
O O3 0.582628 0.835272 0.584820
O O4 0.363692 0.010961 0.792915
O O5 0.406367 0.568504 0.903292
O O6 0.078633 0.750960 0.084800
O O7 0.117961 0.443367 0.031991
O O8 0.833523 0.261083 0.146357
O O9 0.797760 0.958376 0.224654
O O10 0.000000 0.001280 0.000000
O O11 0.843414 0.882337 0.322379
O O12 0.500000 0.345115 0.500000
O O13 0.770824 0.500730 0.264259
O O14 0.663397 0.602799 0.449578
O O15 0.000000 0.532524 0.000000
O O16 0.000000 0.355117 0.500000
#
# Coordination Sequence:
#
# PCOD9130036 Si02
#       7
#     4   4   4   4   4   4   4
#     4  12  27  47  77 114 154 217 262 320 396 469
#     4  12  27  44  80 109 154 199 269 318 402 462
#     4  11  24  45  76 110 152 195 260 323 391 462
#     4  12  24  46  74 107 150 200 254 323 382 464
#     4  11  27  51  74 108 162 202 260 324 384 469
#     4  11  27  48  78 111 150 202 258 326 393 459
#     4  11  26  46  73 105 153 207 255 314 388 455
#
# _framework density 25.027964000000001
#
# number of rings (size 3 to 8) (size 9 to 14) (size 15 to 20)
#    0.000    0.571    4.286    2.571    8.000    3.429 
#    2.571    0.000    0.000    0.000    0.000    0.000 
#    0.000    0.000    0.000    0.000    0.000    0.000 
#
# Total GULP energy -78185.803440 kJ/mol
# GULP energy per Si atom -5584.700246 kJ/mol
# Density = 2.497100 g / cm^3
# Si number density = 25.027964 Si / 1000 Ang^3
#
#
#
# Elastic Constant Matrix: (Units=GPa)
#
#
# Indices 1 2 3 4 5 6 
#
# 1 74.4001 18.2126 52.9079 0.0000 -13.3647 0.0000
# 2 18.2126 79.3837 34.4506 0.0000 -10.2690 0.0000
# 3 52.9079 34.4506 200.1073 -0.0002 17.4340 0.0000
# 4 0.0000 0.0000 -0.0002 27.9985 0.0000 -1.2963
# 5 -13.3647 -10.2690 17.4340 0.0000 54.9656 0.0000
# 6 0.0000 0.0000 0.0000 -1.2963 0.0000 30.5683
#
#
#
# Elastic Compliance Matrix: (Units=1/GPa)
#
#
# Indices 1 2 3 4 5 6 
#
# 1 0.018498 -0.001224 -0.005196 0.000000 0.005917 0.000000
# 2 -0.001224 0.014335 -0.002419 0.000000 0.003148 0.000000
# 3 -0.005196 -0.002419 0.007134 0.000000 -0.003978 0.000000
# 4 0.000000 0.000000 0.000000 0.035786 0.000000 0.001518
# 5 0.005917 0.003148 -0.003978 0.000000 0.021482 0.000000
# 6 0.000000 0.000000 0.000000 0.001518 0.000000 0.032778
#
#
# Mechanical properties :
#
#
# Convention : Reuss Voigt Hill
#
# Bulk Modulus (GPa) = 44.86155 62.78147 53.82151
# Shear Modulus (GPa) = 32.23331 39.26113 35.74722
#
# Velocity S-wave (km/s) = 3.59261 3.96497 3.78337
# Velocity P-wave (km/s) = 5.93065 6.78972 6.37467
#
# Compressibility (1/GPa) = 0.02229080
#
# Stress axis : x y z
#
# Youngs Moduli (GPa) = 54.05958 69.76148 140.17385
#
# Poissons Ratio (x) = 0.08537 0.72830
# Poissons Ratio (y) = 0.06615 0.33902
# Poissons Ratio (z) = 0.28088 0.16872
#
# Static dielectric constant tensor:
#      x y z
#    x 2.114030 0.000000 0.030020 
#    y 0.000000 2.003210 0.000000 
#    z 0.030020 0.000000 1.983320 
# 
# From -- ./inp_files/65976.got.cif
#   From: 2010.05.17/outbox.cif.g08.bks.cpg/sg5_33_cif.got.tgz:65976.got - 2010.06.03 18:56:24.
