data_PCOD9130087
_publ_section_title
;
Structure prediction by ZEFSAII (Michael W. Deem and Ramdas Pophale) SiO2 
 PCOD9130087
Probable space group: C 2
;
_chemical_formula_sum "Si O2"
_cell_formula_units_Z 18
_cell_length_a 12.316108
_cell_length_b 7.331219
_cell_length_c 7.993651
_cell_angle_alpha 90.000000
_cell_angle_beta 97.795987
_cell_angle_gamma 90.000000
_cell_volume 715.092404
_symmetry_space_group_name_H-M "C 2"
_symmetry_group_IT_number 5
_symmetry_cell_setting 'monoclinic'
loop_
_space_group_symop_operation_xyz
x,y,z
-x,y,-z
1/2+x,1/2+y,z
1/2-x,1/2+y,-z
loop_
_atom_site_type_symbol
_atom_site_label
_atom_site_fract_x
_atom_site_fract_y
_atom_site_fract_z
Si Si1 0.316401 0.195840 0.355875
Si Si2 0.500000 0.451763 0.000000
Si Si3 0.374798 0.831176 0.503680
Si Si4 0.162802 0.064267 0.765534
Si Si5 0.618271 0.099590 0.007930
O O1 0.187247 0.226911 0.361696
O O2 0.360786 0.402773 0.372290
O O3 0.359592 0.048810 0.497850
O O4 0.352368 0.131620 0.179740
O O5 0.563133 0.565332 0.874307
O O6 0.410012 0.300645 0.920433
O O7 0.500000 0.786851 0.500000
O O8 0.319320 0.752349 0.324769
O O9 0.275758 0.016564 0.883775
O O10 0.500000 0.001427 0.000000
#
# Coordination Sequence:
#
# PCOD9130087 Si02
#       5
#     4   2   4   4   4
#     4  11  26  48  68 107 146 183 246 296 348 432
#     4   8  22  44  70 106 140 186 234 312 344 412
#     4  12  29  46  73 106 144 199 240 290 362 437
#     4  11  24  48  74 105 147 194 242 296 365 424
#     4   9  23  44  75 104 145 187 236 306 355 415
#
# _framework density 25.171569999999999
#
# number of rings (size 3 to 8) (size 9 to 14) (size 15 to 20)
#    0.667    0.889    2.222    0.000   12.444    0.889 
#    2.000    0.000    0.000    0.000    0.000    0.000 
#    0.000    0.000    0.000    0.000    0.000    0.000 
#
# Total GULP energy -50244.403562 kJ/mol
# GULP energy per Si atom -5582.711507 kJ/mol
# Density = 2.511428 g / cm^3
# Si number density = 25.171570 Si / 1000 Ang^3
#
#
#
# Elastic Constant Matrix: (Units=GPa)
#
#
# Indices 1 2 3 4 5 6 
#
# 1 198.8570 12.5355 55.8402 0.0000 -43.8300 0.0000
# 2 12.5355 67.9947 9.7414 0.0000 -14.7780 0.0000
# 3 55.8402 9.7414 41.0409 0.0000 -22.3170 0.0000
# 4 0.0000 0.0000 0.0000 17.3586 0.0000 -3.6097
# 5 -43.8300 -14.7780 -22.3170 0.0000 44.5493 0.0000
# 6 0.0000 0.0000 0.0000 -3.6097 0.0000 31.6072
#
#
#
# Elastic Compliance Matrix: (Units=1/GPa)
#
#
# Indices 1 2 3 4 5 6 
#
# 1 0.008551 0.000633 -0.009753 0.000000 0.003738 0.000000
# 2 0.000633 0.015943 -0.001967 0.000000 0.004926 0.000000
# 3 -0.009753 -0.001967 0.044709 0.000000 0.012149 0.000000
# 4 0.000000 0.000000 0.000000 0.059010 0.000000 0.006739
# 5 0.003738 0.004926 0.012149 0.000000 0.033845 0.000000
# 6 0.000000 0.000000 0.000000 0.006739 0.000000 0.032408
#
#
# Mechanical properties :
#
#
# Convention : Reuss Voigt Hill
#
# Bulk Modulus (GPa) = 21.26306 51.56967 36.41637
# Shear Modulus (GPa) = 21.52254 34.02138 27.77196
#
# Velocity S-wave (km/s) = 2.92727 3.68037 3.32521
# Velocity P-wave (km/s) = 4.45991 6.21224 5.40753
#
# Compressibility (1/GPa) = 0.04702991
#
# Stress axis : x y z
#
# Youngs Moduli (GPa) = 116.94217 62.72453 22.36697
#
# Poissons Ratio (x) = -0.03971 0.21814
# Poissons Ratio (y) = -0.07403 0.04399
# Poissons Ratio (z) = 1.14050 0.12337
#
# Static dielectric constant tensor:
#      x y z
#    x 1.985890 0.000000 -0.001450 
#    y 0.000000 1.979900 0.000000 
#    z -0.001450 0.000000 1.982750 
# 
# From -- ./inp_files/18086.got.cif
#   From: 2010.05.17/outbox.cif.g08.bks.cpg/sg5_10_cif.got.tgz:18086.got - 2010.06.03 18:56:24.
