data_PCOD9130349
_publ_section_title
;
Structure prediction by ZEFSAII (Michael W. Deem and Ramdas Pophale) SiO2 
 PCOD9130349
Probable space group: C 2
;
_chemical_formula_sum "Si O2"
_cell_formula_units_Z 26
_cell_length_a 16.844652
_cell_length_b 13.484586
_cell_length_c 9.689058
_cell_angle_alpha 90.000000
_cell_angle_beta 30.679137
_cell_angle_gamma 90.000000
_cell_volume 1122.915369
_symmetry_space_group_name_H-M "C 2"
_symmetry_group_IT_number 5
_symmetry_cell_setting 'monoclinic'
loop_
_space_group_symop_operation_xyz
x,y,z
-x,y,-z
1/2+x,1/2+y,z
1/2-x,1/2+y,-z
loop_
_atom_site_type_symbol
_atom_site_label
_atom_site_fract_x
_atom_site_fract_y
_atom_site_fract_z
Si Si1 0.227588 0.551270 0.948390
Si Si2 0.030758 0.284022 0.794176
Si Si3 0.854857 0.939190 0.995611
Si Si4 0.000000 0.812896 0.000000
Si Si5 0.621069 0.994458 0.562132
Si Si6 0.266499 0.130105 0.360384
Si Si7 0.841792 0.260227 0.823083
O O1 0.249527 0.561449 0.750424
O O2 0.234829 0.664820 0.984033
O O3 0.358891 0.495557 0.842865
O O4 0.053449 0.510543 0.233788
O O5 0.128582 0.381308 0.604420
O O6 0.104395 0.176648 0.651820
O O7 0.881896 0.289657 0.918379
O O8 0.000000 0.292056 0.000000
O O9 0.992525 0.886681 0.877687
O O10 0.740344 0.848913 0.131154
O O11 0.756546 0.007752 0.247538
O O12 0.861830 0.732144 0.193049
O O13 0.649397 0.068873 0.645801
O O14 0.000000 0.237889 0.500000
#
# Coordination Sequence:
#
# PCOD9130349 Si02
#       7
#     4   4   4   2   4   4   4
#     4  12  23  41  71 102 130 187 235 285 347 433
#     4  12  26  45  69 101 144 188 237 292 359 426
#     4  12  25  43  73 102 141 188 237 288 369 428
#     4  12  22  50  68 102 146 188 226 302 366 420
#     4  12  23  44  70 103 138 186 238 289 355 438
#     4  12  24  45  74 102 141 188 239 294 355 428
#     4  12  21  46  69  96 138 185 231 293 356 415
#
# _framework density 23.154015999999999
#
# number of rings (size 3 to 8) (size 9 to 14) (size 15 to 20)
#    0.000    0.000    9.231    1.385    2.154    1.231 
#    0.000    0.000    0.000    0.000    0.000    0.000 
#    0.000    0.000    0.000    0.000    0.000    0.000 
#
# Total GULP energy -72643.951885 kJ/mol
# GULP energy per Si atom -5587.996299 kJ/mol
# Density = 2.310132 g / cm^3
# Si number density = 23.154016 Si / 1000 Ang^3
#
#
#
# Elastic Constant Matrix: (Units=GPa)
#
#
# Indices 1 2 3 4 5 6 
#
# 1 168.9519 34.3665 18.1516 0.0000 26.0497 0.0000
# 2 34.3665 82.3292 9.3530 0.0000 8.2303 0.0000
# 3 18.1516 9.3530 40.2340 0.0000 11.1992 0.0000
# 4 0.0000 0.0000 0.0000 26.2764 0.0000 -8.0433
# 5 26.0497 8.2303 11.1992 0.0000 29.1495 0.0000
# 6 0.0000 0.0000 0.0000 -8.0433 0.0000 58.1773
#
#
#
# Elastic Compliance Matrix: (Units=1/GPa)
#
#
# Indices 1 2 3 4 5 6 
#
# 1 0.007379 -0.002394 -0.001260 0.000000 -0.005434 0.000000
# 2 -0.002394 0.013445 -0.001774 0.000000 -0.000975 0.000000
# 3 -0.001260 -0.001774 0.028422 0.000000 -0.009293 0.000000
# 4 0.000000 0.000000 0.000000 0.039739 0.000000 0.005494
# 5 -0.005434 -0.000975 -0.009293 0.000000 0.043008 0.000000
# 6 0.000000 0.000000 0.000000 0.005494 0.000000 0.017948
#
#
# Mechanical properties :
#
#
# Convention : Reuss Voigt Hill
#
# Bulk Modulus (GPa) = 26.04821 46.13972 36.09397
# Shear Modulus (GPa) = 28.80298 38.03023 33.41661
#
# Velocity S-wave (km/s) = 3.53083 4.05716 3.80311
# Velocity P-wave (km/s) = 5.28173 6.47441 5.90824
#
# Compressibility (1/GPa) = 0.03839036
#
# Stress axis : x y z
#
# Youngs Moduli (GPa) = 135.51925 74.37915 35.18387
#
# Poissons Ratio (x) = 0.17805 0.04433
# Poissons Ratio (y) = 0.32441 0.06242
# Poissons Ratio (z) = 0.17074 0.13195
#
# Static dielectric constant tensor:
#      x y z
#    x 1.894240 0.000000 -0.010620 
#    y 0.000000 1.830020 0.000000 
#    z -0.010620 0.000000 1.933620 
# 
# From -- ./inp_files/24792.got.cif
#   From: 2010.05.17/outbox.cif.g08.bks.cpg/sg5_13_cif.got.tgz:24792.got - 2010.06.03 18:56:24.
