data_PCOD9130827
_publ_section_title
;
Structure prediction by ZEFSAII (Michael W. Deem and Ramdas Pophale) SiO2 
 PCOD9130827
Probable space group: P M
;
_chemical_formula_sum "Si O2"
_cell_formula_units_Z 16
_cell_length_a 5.059588
_cell_length_b 11.571200
_cell_length_c 13.415696
_cell_angle_alpha 90.000000
_cell_angle_beta 83.802119
_cell_angle_gamma 90.000000
_cell_volume 780.837829
_symmetry_space_group_name_H-M "P M"
_symmetry_group_IT_number 6
_symmetry_cell_setting 'monoclinic'
loop_
_space_group_symop_operation_xyz
x,y,z
x,-y,z
loop_
_atom_site_type_symbol
_atom_site_label
_atom_site_fract_x
_atom_site_fract_y
_atom_site_fract_z
Si Si1 0.522960 0.874498 0.217430
Si Si2 0.237760 0.127173 0.036664
Si Si3 0.942885 0.864134 0.499109
Si Si4 0.996374 0.755333 0.290986
Si Si5 0.958234 0.371194 0.105249
Si Si6 0.698777 0.371266 0.915676
Si Si7 0.406641 0.134492 0.634141
Si Si8 0.225027 0.756010 0.843191
O O1 0.816119 0.851563 0.243064
O O2 0.308737 0.783124 0.266810
O O3 0.433302 0.000000 0.257484
O O4 0.492722 0.873475 0.099239
O O5 0.281903 0.139433 0.917613
O O6 0.110474 0.000000 0.060196
O O7 0.104939 0.251005 0.069967
O O8 0.219053 0.850517 0.545685
O O9 0.925580 0.774924 0.408542
O O10 0.706414 0.843966 0.586964
O O11 0.920473 0.000000 0.466877
O O12 0.919373 0.645548 0.225628
O O13 0.079236 0.500000 0.084684
O O14 0.714224 0.368445 0.036240
O O15 0.780323 0.500000 0.882968
O O16 0.919511 0.282650 0.865725
O O17 0.414913 0.342734 0.881321
O O18 0.309493 0.211855 0.729179
O O19 0.383508 0.000000 0.665225
#
# Coordination Sequence:
#
# PCOD9130827 Si02
#       8
#     2   2   2   2   2   2   2   2
#     4  10  19  31  50  80 114 143 179 228 283 337
#     4   9  19  34  55  87 121 154 192 236 284 343
#     4  10  20  34  53  78 111 149 191 238 290 344
#     4  11  20  34  55  80 108 148 190 234 281 339
#     4   9  20  38  59  86 120 157 192 232 285 350
#     4  10  21  37  59  86 115 151 194 233 280 347
#     4  10  21  36  55  82 114 149 189 237 293 349
#     4  11  20  36  58  83 115 153 188 238 290 341
#
# _framework density 20.490811000000001
#
# number of rings (size 3 to 8) (size 9 to 14) (size 15 to 20)
#    0.000    2.000    0.000    4.125    0.000    2.500 
#    0.000   13.125    0.000    4.500    0.000    0.000 
#    0.000    0.000    0.000    0.000    0.000    0.000 
#
# Total GULP energy -89126.310539 kJ/mol
# GULP energy per Si atom -5570.394409 kJ/mol
# Density = 2.044417 g / cm^3
# Si number density = 20.490811 Si / 1000 Ang^3
#
#
#
# Elastic Constant Matrix: (Units=GPa)
#
#
# Indices 1 2 3 4 5 6 
#
# 1 44.5117 3.3028 -10.2340 0.0000 -0.6954 0.0000
# 2 3.3028 96.0904 26.2449 0.0000 0.4496 0.0000
# 3 -10.2340 26.2449 77.3157 0.0000 1.0373 0.0000
# 4 0.0000 0.0000 0.0000 19.9624 0.0000 -0.7670
# 5 -0.6954 0.4496 1.0373 0.0000 20.6857 0.0000
# 6 0.0000 0.0000 0.0000 -0.7670 0.0000 21.7839
#
#
#
# Elastic Compliance Matrix: (Units=1/GPa)
#
#
# Indices 1 2 3 4 5 6 
#
# 1 0.023466 -0.001825 0.003717 0.000000 0.000642 0.000000
# 2 -0.001825 0.011612 -0.004182 0.000000 -0.000104 0.000000
# 3 0.003717 -0.004182 0.014853 0.000000 -0.000529 0.000000
# 4 0.000000 0.000000 0.000000 0.050162 0.000000 0.001766
# 5 0.000642 -0.000104 -0.000529 0.000000 0.048393 0.000000
# 6 0.000000 0.000000 0.000000 0.001766 0.000000 0.045968
#
#
# Mechanical properties :
#
#
# Convention : Reuss Voigt Hill
#
# Bulk Modulus (GPa) = 22.05004 28.50500 25.27752
# Shear Modulus (GPa) = 23.34811 25.72669 24.53740
#
# Velocity S-wave (km/s) = 3.37923 3.54718 3.46422
# Velocity P-wave (km/s) = 5.09999 5.54238 5.32578
#
# Compressibility (1/GPa) = 0.04535138
#
# Stress axis : x y z
#
# Youngs Moduli (GPa) = 42.61480 86.11580 67.32810
#
# Poissons Ratio (x) = 0.15714 -0.25025
# Poissons Ratio (y) = 0.07776 0.28156
# Poissons Ratio (z) = -0.15840 0.36013
#
# Static dielectric constant tensor:
#      x y z
#    x 1.731570 0.000000 -0.024350 
#    y 0.000000 1.759560 0.000000 
#    z -0.024350 0.000000 1.784390 
# 
# From -- ./inp_files/1683.got.cif
#   From: 2010.05.17/outbox.cif.g08.bks.cpg/sg6_1_cif.got.tgz:1683.got - 2010.06.03 19:42:10.
