data_PCOD9130359
_publ_section_title
;
Structure prediction by ZEFSAII (Michael W. Deem and Ramdas Pophale) SiO2 
 PCOD9130359
Probable space group: C 2
;
_chemical_formula_sum "Si O2"
_cell_formula_units_Z 18
_cell_length_a 11.719604
_cell_length_b 8.519740
_cell_length_c 13.851595
_cell_angle_alpha 90.000000
_cell_angle_beta 147.716845
_cell_angle_gamma 90.000000
_cell_volume 738.694298
_symmetry_space_group_name_H-M "C 2"
_symmetry_group_IT_number 5
_symmetry_cell_setting 'monoclinic'
loop_
_space_group_symop_operation_xyz
x,y,z
-x,y,-z
1/2+x,1/2+y,z
1/2-x,1/2+y,-z
loop_
_atom_site_type_symbol
_atom_site_label
_atom_site_fract_x
_atom_site_fract_y
_atom_site_fract_z
Si Si1 0.314945 0.676160 0.250853
Si Si2 0.831338 0.203257 0.632750
Si Si3 0.000000 0.904350 0.500000
Si Si4 0.557222 0.379860 0.211641
Si Si5 0.240015 0.145680 0.006943
O O1 0.554898 0.727095 0.388780
O O2 0.339274 0.520702 0.330817
O O3 0.200748 0.808721 0.230676
O O4 0.211703 0.631483 0.073938
O O5 0.626612 0.296321 0.516333
O O6 0.019790 0.246111 0.845613
O O7 0.822705 0.014908 0.642373
O O8 0.351003 0.479756 0.022056
O O9 0.443035 0.239208 0.189547
#
# Coordination Sequence:
#
# PCOD9130359 Si02
#       5
#     4   4   2   4   4
#     4   9  22  37  59  87 114 159 191 236 285 343
#     4   8  24  37  58  89 115 155 196 233 291 343
#     4  12  22  40  60  82 126 156 196 232 280 350
#     4   9  18  38  62  81 119 146 186 250 289 333
#     4   8  20  39  59  89 113 146 197 236 296 343
#
# _framework density 24.367319999999999
#
# number of rings (size 3 to 8) (size 9 to 14) (size 15 to 20)
#    2.667    0.000    0.000    0.667    3.111    6.222 
#    0.000    8.889    0.000    0.000    0.000    0.000 
#    0.000    0.000    0.000    0.000    0.000    0.000 
#
# Total GULP energy -50106.511586 kJ/mol
# GULP energy per Si atom -5567.390176 kJ/mol
# Density = 2.431186 g / cm^3
# Si number density = 24.367320 Si / 1000 Ang^3
#
#
#
# Elastic Constant Matrix: (Units=GPa)
#
#
# Indices 1 2 3 4 5 6 
#
# 1 145.9075 99.3253 57.5748 0.0002 35.6144 0.0000
# 2 99.3253 160.1669 55.3168 0.0005 34.6369 0.0002
# 3 57.5748 55.3168 43.5380 0.0009 5.5199 0.0004
# 4 0.0002 0.0005 0.0009 49.9250 0.0004 28.3844
# 5 35.6144 34.6369 5.5199 0.0004 38.4120 0.0001
# 6 0.0000 0.0002 0.0004 28.3844 0.0001 53.4381
#
#
#
# Elastic Compliance Matrix: (Units=1/GPa)
#
#
# Indices 1 2 3 4 5 6 
#
# 1 0.020796 -0.001622 -0.023610 0.000001 -0.014425 0.000000
# 2 -0.001622 0.014484 -0.015066 0.000000 -0.009391 0.000000
# 3 -0.023610 -0.015066 0.070112 -0.000001 0.025401 0.000000
# 4 0.000001 0.000000 -0.000001 0.028696 -0.000001 -0.015242
# 5 -0.014425 -0.009391 0.025401 -0.000001 0.044226 0.000000
# 6 0.000000 0.000000 0.000000 -0.015242 0.000000 0.026809
#
#
# Mechanical properties :
#
#
# Convention : Reuss Voigt Hill
#
# Bulk Modulus (GPa) = 40.33159 86.00513 63.16836
# Shear Modulus (GPa) = 17.00766 37.51472 27.26119
#
# Velocity S-wave (km/s) = 2.64478 3.92797 3.34842
# Velocity P-wave (km/s) = 5.09057 7.47956 6.39757
#
# Compressibility (1/GPa) = 0.02479446
#
# Stress axis : x y z
#
# Youngs Moduli (GPa) = 48.08725 69.04199 14.26286
#
# Poissons Ratio (x) = 0.11201 0.33674
# Poissons Ratio (y) = 0.07802 0.21489
# Poissons Ratio (z) = 1.13533 1.04021
#
# Static dielectric constant tensor:
#      x y z
#    x 1.898340 0.000000 -0.019250 
#    y 0.000000 1.952980 0.000000 
#    z -0.019250 0.000000 2.092120 
# 
# From -- ./inp_files/60321.got.cif
#   From: 2010.05.17/outbox.cif.g08.bks.cpg/sg5_31_cif.got.tgz:60321.got - 2010.06.03 18:56:24.
