data_PCOD9130829
_publ_section_title
;
Structure prediction by ZEFSAII (Michael W. Deem and Ramdas Pophale) SiO2 
 PCOD9130829
Probable space group: P M
;
_chemical_formula_sum "Si O2"
_cell_formula_units_Z 14
_cell_length_a 17.974624
_cell_length_b 7.646140
_cell_length_c 17.178018
_cell_angle_alpha 90.000000
_cell_angle_beta 162.875081
_cell_angle_gamma 90.000000
_cell_volume 695.177178
_symmetry_space_group_name_H-M "P M"
_symmetry_group_IT_number 6
_symmetry_cell_setting 'monoclinic'
loop_
_space_group_symop_operation_xyz
x,y,z
x,-y,z
loop_
_atom_site_type_symbol
_atom_site_label
_atom_site_fract_x
_atom_site_fract_y
_atom_site_fract_z
Si Si1 0.932700 0.211981 0.898680
Si Si2 0.431497 0.192375 0.758972
Si Si3 0.432757 0.788411 0.301841
Si Si4 0.930076 0.212119 0.528827
Si Si5 0.931490 0.704232 0.348969
Si Si6 0.432030 0.500000 0.634919
Si Si7 0.932038 0.500000 0.029953
Si Si8 0.430042 0.785902 0.120910
O O1 0.684914 0.259091 0.600651
O O2 0.932458 0.000000 0.911967
O O3 0.931629 0.327893 0.974990
O O4 0.181768 0.259080 0.098118
O O5 0.431501 0.334254 0.691425
O O6 0.183771 0.215508 0.564460
O O7 0.431371 0.000000 0.723949
O O8 0.679394 0.215436 0.060001
O O9 0.431269 0.725400 0.211451
O O10 0.432745 0.000000 0.297714
O O11 0.931169 0.274252 0.441340
O O12 0.679777 0.268831 0.324368
O O13 0.930101 0.000000 0.527042
O O14 0.179388 0.268853 0.824485
O O15 0.931476 0.500000 0.328718
O O16 0.182469 0.500000 0.332756
O O17 0.682486 0.500000 0.833172
O O18 0.430008 0.000000 0.122072
#
# Coordination Sequence:
#
# PCOD9130829 Si02
#       8
#     2   2   2   2   2   1   1   2
#     4  10  21  38  62  90 120 161 206 247 303 373
#     4  12  25  45  71  97 127 169 216 259 315 385
#     4   9  17  33  59  86 118 162 209 255 303 358
#     4  10  19  31  53  86 119 160 213 258 308 364
#     4  12  23  42  65  91 133 173 215 267 320 373
#     4  12  26  46  66  98 126 160 196 258 320 384
#     4  12  26  42  68  92 130 156 196 250 320 380
#     4   9  17  30  52  83 118 158 209 264 307 353
#
# _framework density 20.138753000000001
#
# number of rings (size 3 to 8) (size 9 to 14) (size 15 to 20)
#    0.000    1.429    1.429    4.714    0.000    5.714 
#    0.000    0.000    9.429    0.000    0.000    0.000 
#    0.000    0.000    0.000    0.000    0.000    0.000 
#
# Total GULP energy -78314.222721 kJ/mol
# GULP energy per Si atom -5593.873052 kJ/mol
# Density = 2.009292 g / cm^3
# Si number density = 20.138753 Si / 1000 Ang^3
#
#
#
# Elastic Constant Matrix: (Units=GPa)
#
#
# Indices 1 2 3 4 5 6 
#
# 1 184.5472 51.2782 114.1757 0.0000 3.2773 0.0000
# 2 51.2782 103.5892 40.0121 0.0000 -2.9737 0.0000
# 3 114.1757 40.0121 222.5442 0.0000 8.4076 0.0000
# 4 0.0000 0.0000 0.0000 21.2926 0.0000 -2.8877
# 5 3.2773 -2.9737 8.4076 0.0000 41.7163 0.0000
# 6 0.0000 0.0000 0.0000 -2.8877 0.0000 32.4094
#
#
#
# Elastic Compliance Matrix: (Units=1/GPa)
#
#
# Indices 1 2 3 4 5 6 
#
# 1 0.008609 -0.002750 -0.003919 0.000000 -0.000082 0.000000
# 2 -0.002750 0.011305 -0.000665 0.000000 0.001156 0.000000
# 3 -0.003919 -0.000665 0.006665 0.000000 -0.001083 0.000000
# 4 0.000000 0.000000 0.000000 0.047539 0.000000 0.004236
# 5 -0.000082 0.001156 -0.001083 0.000000 0.024279 0.000000
# 6 0.000000 0.000000 0.000000 0.004236 0.000000 0.031233
#
#
# Mechanical properties :
#
#
# Convention : Reuss Voigt Hill
#
# Bulk Modulus (GPa) = 83.96690 102.40139 93.18414
# Shear Modulus (GPa) = 33.72259 39.43129 36.57694
#
# Velocity S-wave (km/s) = 4.09652 4.42971 4.26637
# Velocity P-wave (km/s) = 8.00999 8.78188 8.40480
#
# Compressibility (1/GPa) = 0.01190946
#
# Stress axis : x y z
#
# Youngs Moduli (GPa) = 116.15658 88.45616 150.04219
#
# Poissons Ratio (x) = 0.24327 0.58806
# Poissons Ratio (y) = 0.31945 0.09982
# Poissons Ratio (z) = 0.45525 0.05885
#
# Static dielectric constant tensor:
#      x y z
#    x 1.655370 0.000000 0.007640 
#    y 0.000000 1.723650 0.000000 
#    z 0.007640 0.000000 1.683040 
# 
# From -- ./inp_files/5579.got.cif
#   From: 2010.05.17/outbox.cif.g08.bks.cpg/sg6_3_cif.got.tgz:5579.got - 2010.06.03 19:42:10.
