data_PCOD9130471
_publ_section_title
;
Structure prediction by ZEFSAII (Michael W. Deem and Ramdas Pophale) SiO2 
 PCOD9130471
Probable space group: C 2
;
_chemical_formula_sum "Si O2"
_cell_formula_units_Z 20
_cell_length_a 20.161650
_cell_length_b 6.105787
_cell_length_c 10.985670
_cell_angle_alpha 90.000000
_cell_angle_beta 144.826245
_cell_angle_gamma 90.000000
_cell_volume 779.041237
_symmetry_space_group_name_H-M "C 2"
_symmetry_group_IT_number 5
_symmetry_cell_setting 'monoclinic'
loop_
_space_group_symop_operation_xyz
x,y,z
-x,y,-z
1/2+x,1/2+y,z
1/2-x,1/2+y,-z
loop_
_atom_site_type_symbol
_atom_site_label
_atom_site_fract_x
_atom_site_fract_y
_atom_site_fract_z
Si Si1 0.500000 0.313350 0.500000
Si Si2 0.668238 0.244223 0.246244
Si Si3 0.516013 0.002556 0.200221
Si Si4 0.500000 0.616726 0.000000
Si Si5 0.800438 0.463321 0.251783
Si Si6 0.598637 0.689842 0.809716
O O1 0.393244 0.160006 0.380225
O O2 0.528012 0.481499 0.652893
O O3 0.784794 0.320745 0.353694
O O4 0.633894 0.104897 0.316901
O O5 0.610260 0.472829 0.186452
O O6 0.586890 0.142949 0.016969
O O7 0.472567 0.913451 0.265135
O O8 0.502676 0.770681 0.117361
O O9 0.824831 0.279176 0.187368
O O10 0.683618 0.590148 0.038641
#
# Coordination Sequence:
#
# PCOD9130471 Si02
#       6
#     2   4   4   2   4   4
#     4  12  30  44  72 120 152 200 262 326 360 468
#     4   9  19  34  67 113 144 192 249 301 378 459
#     4   9  19  34  67 113 144 192 249 301 378 459
#     4   8  14  32  56 110 132 184 254 284 348 478
#     4  12  24  45  74 116 153 200 255 320 385 446
#     4  12  24  45  74 116 153 200 255 320 385 446
#
# _framework density 25.672585000000002
#
# number of rings (size 3 to 8) (size 9 to 14) (size 15 to 20)
#    0.000    2.000    4.000    1.800    0.000    0.000 
#    0.000    0.000    0.000    0.000   78.000    0.000 
#    0.000    0.000    0.000    0.000    0.000    0.000 
#
# Total GULP energy -55691.113959 kJ/mol
# GULP energy per Si atom -5569.111396 kJ/mol
# Density = 2.561415 g / cm^3
# Si number density = 25.672585 Si / 1000 Ang^3
#
#
#
# Elastic Constant Matrix: (Units=GPa)
#
#
# Indices 1 2 3 4 5 6 
#
# 1 156.6683 47.2531 27.5450 0.0000 15.0872 0.0000
# 2 47.2531 124.4726 48.0338 0.0000 14.3745 0.0000
# 3 27.5450 48.0338 95.0947 0.0000 6.3448 0.0000
# 4 0.0000 0.0000 0.0000 68.7747 0.0000 -36.3053
# 5 15.0872 14.3745 6.3448 0.0000 28.1289 0.0000
# 6 0.0000 0.0000 0.0000 -36.3053 0.0000 97.1124
#
#
#
# Elastic Compliance Matrix: (Units=1/GPa)
#
#
# Indices 1 2 3 4 5 6 
#
# 1 0.007454 -0.002180 -0.000878 0.000000 -0.002685 0.000000
# 2 -0.002180 0.011086 -0.004740 0.000000 -0.003427 0.000000
# 3 -0.000878 -0.004740 0.013170 0.000000 -0.000077 0.000000
# 4 0.000000 0.000000 0.000000 0.018115 0.000000 0.006772
# 5 -0.002685 -0.003427 -0.000077 0.000000 0.038760 0.000000
# 6 0.000000 0.000000 0.000000 0.006772 0.000000 0.012829
#
#
# Mechanical properties :
#
#
# Convention : Reuss Voigt Hill
#
# Bulk Modulus (GPa) = 62.06416 69.09992 65.58204
# Shear Modulus (GPa) = 40.85579 55.69679 48.27629
#
# Velocity S-wave (km/s) = 3.99358 4.66285 4.34113
# Velocity P-wave (km/s) = 6.74483 7.48090 7.12238
#
# Compressibility (1/GPa) = 0.01611236
#
# Stress axis : x y z
#
# Youngs Moduli (GPa) = 134.16293 90.20024 75.93286
#
# Poissons Ratio (x) = 0.19668 0.06670
# Poissons Ratio (y) = 0.29254 0.35990
# Poissons Ratio (z) = 0.11785 0.42752
#
# Static dielectric constant tensor:
#      x y z
#    x 1.663040 0.000000 0.261160 
#    y 0.000000 1.963030 0.000000 
#    z 0.261160 0.000000 1.917610 
# 
# From -- ./inp_files/45565.got.cif
#   From: 2010.05.17/outbox.cif.g08.bks.cpg/sg5_23_cif.got.tgz:45565.got - 2010.06.03 18:56:24.
