data_PCOD9130040
_publ_section_title
;
Structure prediction by ZEFSAII (Michael W. Deem and Ramdas Pophale) SiO2 
 PCOD9130040
Probable space group: C 2
;
_chemical_formula_sum "Si O2"
_cell_formula_units_Z 16
_cell_length_a 10.757409
_cell_length_b 11.857744
_cell_length_c 11.034546
_cell_angle_alpha 90.000000
_cell_angle_beta 153.002436
_cell_angle_gamma 90.000000
_cell_volume 638.961579
_symmetry_space_group_name_H-M "C 2"
_symmetry_group_IT_number 5
_symmetry_cell_setting 'monoclinic'
loop_
_space_group_symop_operation_xyz
x,y,z
-x,y,-z
1/2+x,1/2+y,z
1/2-x,1/2+y,-z
loop_
_atom_site_type_symbol
_atom_site_label
_atom_site_fract_x
_atom_site_fract_y
_atom_site_fract_z
Si Si1 0.015842 0.432630 0.649470
Si Si2 0.210664 0.477766 0.283586
Si Si3 0.231268 0.696590 0.422779
Si Si4 0.367955 0.629033 0.011946
O O1 0.298369 0.494487 0.938487
O O2 0.000000 0.485418 0.500000
O O3 0.856096 0.453375 0.636420
O O4 0.887816 0.308952 0.519594
O O5 0.500000 0.429183 0.500000
O O6 0.217984 0.613544 0.296174
O O7 0.000000 0.440325 0.000000
O O8 0.917677 0.693507 0.202456
O O9 0.421320 0.648957 0.696490
O O10 0.500000 0.666741 0.000000
#
# Coordination Sequence:
#
# PCOD9130040 Si02
#       4
#     4   4   4   4
#     4  11  26  46  74 107 144 190 243 296 358 428
#     4  11  24  46  69 100 144 189 235 295 358 426
#     4  11  25  44  72 106 141 190 243 297 357 427
#     4  11  24  46  72 107 149 189 237 300 361 427
#
# _framework density 25.040627000000001
#
# number of rings (size 3 to 8) (size 9 to 14) (size 15 to 20)
#    0.000    1.000    0.000    7.500    0.000   11.000 
#    0.000    1.250    0.000    0.000    0.000    0.000 
#    0.000    0.000    0.000    0.000    0.000    0.000 
#
# Total GULP energy -44556.710461 kJ/mol
# GULP energy per Si atom -5569.588808 kJ/mol
# Density = 2.498363 g / cm^3
# Si number density = 25.040627 Si / 1000 Ang^3
#
#
#
# Elastic Constant Matrix: (Units=GPa)
#
#
# Indices 1 2 3 4 5 6 
#
# 1 196.8072 11.0164 93.1294 0.0020 12.9694 0.0006
# 2 11.0164 63.5534 10.6247 0.0024 7.6079 0.0011
# 3 93.1294 10.6247 207.0025 0.0054 -3.5764 0.0041
# 4 0.0020 0.0024 0.0054 -13.3266 0.0028 -15.5550
# 5 12.9694 7.6079 -3.5764 0.0028 40.3199 0.0014
# 6 0.0006 0.0011 0.0041 -15.5550 0.0014 11.3840
#
#
#
# Elastic Compliance Matrix: (Units=1/GPa)
#
#
# Indices 1 2 3 4 5 6 
#
# 1 0.006692 -0.000372 -0.003032 -0.000001 -0.002351 0.000000
# 2 -0.000372 0.016281 -0.000721 0.000001 -0.003016 0.000001
# 3 -0.003032 -0.000721 0.006261 0.000002 0.001667 0.000000
# 4 -0.000001 0.000001 0.000002 -0.028918 0.000004 -0.039513
# 5 -0.002351 -0.003016 0.001667 0.000004 0.026275 0.000002
# 6 0.000000 0.000001 0.000000 -0.039513 0.000002 0.033852
#
#
# Mechanical properties :
#
#
# Convention : Reuss Voigt Hill
#
# Bulk Modulus (GPa) = 47.65378 77.43379 62.54378
# Shear Modulus (GPa) = 66.06236 31.18164 48.62200
#
# Velocity S-wave (km/s) = 5.14192 3.53263 4.41128
# Velocity P-wave (km/s) = 7.37051 6.90142 7.13982
#
# Compressibility (1/GPa) = 0.02098469
#
# Stress axis : x y z
#
# Youngs Moduli (GPa) = 149.43993 61.42219 159.72499
#
# Poissons Ratio (x) = 0.02282 0.48430
# Poissons Ratio (y) = 0.05553 0.11509
# Poissons Ratio (z) = 0.45312 0.04426
#
# Static dielectric constant tensor:
#      x y z
#    x 2.025590 0.000000 0.073210 
#    y 0.000000 2.237730 0.000000 
#    z 0.073210 0.000000 1.943900 
# 
# From -- ./inp_files/40112.got.cif
#   From: 2010.05.17/outbox.cif.g08.bks.cpg/sg5_21_cif.got.tgz:40112.got - 2010.06.03 18:56:24.
