data_PCOD9130989
_publ_section_title
;
Structure prediction by ZEFSAII (Michael W. Deem and Ramdas Pophale) SiO2 
 PCOD9130989
Probable space group: P M
;
_chemical_formula_sum "Si O2"
_cell_formula_units_Z 16
_cell_length_a 4.945609
_cell_length_b 21.492442
_cell_length_c 6.778056
_cell_angle_alpha 90.000000
_cell_angle_beta 47.496887
_cell_angle_gamma 90.000000
_cell_volume 531.153387
_symmetry_space_group_name_H-M "P M"
_symmetry_group_IT_number 6
_symmetry_cell_setting 'monoclinic'
loop_
_space_group_symop_operation_xyz
x,y,z
x,-y,z
loop_
_atom_site_type_symbol
_atom_site_label
_atom_site_fract_x
_atom_site_fract_y
_atom_site_fract_z
Si Si1 0.779920 0.833948 0.959270
Si Si2 0.651581 0.168157 0.535691
Si Si3 0.605110 0.703843 0.138034
Si Si4 0.571705 0.567512 0.991482
Si Si5 0.614560 0.930976 0.794941
Si Si6 0.445864 0.297827 0.635054
Si Si7 0.405596 0.433684 0.644979
Si Si8 0.739339 0.929734 0.234234
O O1 0.773291 0.856096 0.709277
O O2 0.211820 0.827035 0.760176
O O3 0.564324 0.769371 0.043831
O O4 0.637354 0.909061 0.043377
O O5 0.669364 0.083043 0.512617
O O6 0.731465 0.242246 0.526816
O O7 0.725536 0.155649 0.253225
O O8 0.358663 0.712619 0.449956
O O9 0.509941 0.635542 0.108700
O O10 0.056462 0.701242 0.942208
O O11 0.518185 0.500000 0.120719
O O12 0.330093 0.564118 0.915510
O O13 0.013412 0.569095 0.729656
O O14 0.783860 0.000000 0.727589
O O15 0.177577 0.935855 0.007910
O O16 0.608450 0.367693 0.538919
O O17 0.590697 0.500000 0.510343
O O18 0.578067 0.000000 0.304059
#
# Coordination Sequence:
#
# PCOD9130989 Si02
#       8
#     2   2   2   2   2   2   2   2
#     4  10  21  38  59  83 117 159 207 257 317 386
#     4  10  21  38  59  83 117 159 206 258 317 385
#     4  10  21  40  64  94 128 169 220 271 328 394
#     4   9  19  38  65  98 136 178 224 275 332 395
#     4  10  22  37  56  86 117 155 207 262 323 386
#     4  10  21  40  65  93 128 170 219 271 328 394
#     4   9  19  38  65  98 136 178 224 275 332 395
#     4  10  20  37  57  81 115 154 201 261 319 379
#
# _framework density 30.123127
#
# number of rings (size 3 to 8) (size 9 to 14) (size 15 to 20)
#    0.000    2.250    1.250    0.750    1.750    3.000 
#    0.000    5.000    0.000   13.500    0.000    0.000 
#    0.000    0.000    0.000    0.000    0.000    0.000 
#
# Total GULP energy -89223.613695 kJ/mol
# GULP energy per Si atom -5576.475856 kJ/mol
# Density = 3.005457 g / cm^3
# Si number density = 30.123127 Si / 1000 Ang^3
#
#
#
# Elastic Constant Matrix: (Units=GPa)
#
#
# Indices 1 2 3 4 5 6 
#
# 1 118.5126 40.4908 49.4375 0.0000 10.5266 0.0000
# 2 40.4908 329.4544 46.0015 0.0000 37.4638 0.0000
# 3 49.4375 46.0015 180.1044 0.0000 14.4946 0.0000
# 4 0.0000 0.0000 0.0000 14.6215 0.0000 23.8725
# 5 10.5266 37.4638 14.4946 0.0000 63.8556 0.0000
# 6 0.0000 0.0000 0.0000 23.8725 0.0000 43.6808
#
#
#
# Elastic Compliance Matrix: (Units=1/GPa)
#
#
# Indices 1 2 3 4 5 6 
#
# 1 0.009777 -0.000794 -0.002433 0.000000 -0.000593 0.000000
# 2 -0.000794 0.003403 -0.000510 0.000000 -0.001750 0.000000
# 3 -0.002433 -0.000510 0.006411 0.000000 -0.000755 0.000000
# 4 0.000000 0.000000 0.000000 0.635057 0.000000 -0.347073
# 5 -0.000593 -0.001750 -0.000755 0.000000 0.016956 0.000000
# 6 0.000000 0.000000 0.000000 -0.347073 0.000000 0.212577
#
#
# Mechanical properties :
#
#
# Convention : Reuss Voigt Hill
#
# Bulk Modulus (GPa) = 82.53657 99.99234 91.26445
# Shear Modulus (GPa) = 5.58226 57.24103 31.41164
#
# Velocity S-wave (km/s) = 1.36278 4.36390 3.23271
# Velocity P-wave (km/s) = 5.47133 7.65886 6.65558
#
# Compressibility (1/GPa) = 0.01211584
#
# Stress axis : x y z
#
# Youngs Moduli (GPa) = 102.28090 293.84123 155.97479
#
# Poissons Ratio (x) = 0.23343 0.37950
# Poissons Ratio (y) = 0.08125 0.07960
# Poissons Ratio (z) = 0.24886 0.14996
#
# Static dielectric constant tensor:
#      x y z
#    x 2.347240 0.000000 0.375560 
#    y 0.000000 2.743810 0.000000 
#    z 0.375560 0.000000 2.349690 
# 
# From -- ./inp_files/1403.got.cif
#   From: 2010.05.17/outbox.cif.g08.bks.cpg/sg6_1_cif.got.tgz:1403.got - 2010.06.03 19:42:10.
