data_PCOD9130527
_publ_section_title
;
Structure prediction by ZEFSAII (Michael W. Deem and Ramdas Pophale) SiO2 
 PCOD9130527
Probable space group: C 2
;
_chemical_formula_sum "Si O2"
_cell_formula_units_Z 28
_cell_length_a 8.163906
_cell_length_b 13.607132
_cell_length_c 11.054844
_cell_angle_alpha 90.000000
_cell_angle_beta 64.532128
_cell_angle_gamma 90.000000
_cell_volume 1108.719108
_symmetry_space_group_name_H-M "C 2"
_symmetry_group_IT_number 5
_symmetry_cell_setting 'monoclinic'
loop_
_space_group_symop_operation_xyz
x,y,z
-x,y,-z
1/2+x,1/2+y,z
1/2-x,1/2+y,-z
loop_
_atom_site_type_symbol
_atom_site_label
_atom_site_fract_x
_atom_site_fract_y
_atom_site_fract_z
Si Si1 0.205813 0.893810 0.986385
Si Si2 0.266681 0.233643 0.225057
Si Si3 0.648286 0.307819 0.554538
Si Si4 0.189651 0.232578 0.871702
Si Si5 0.118587 0.156882 0.625387
Si Si6 0.481043 0.067408 0.844285
Si Si7 0.338309 0.999650 0.462234
O O1 0.263662 0.809702 0.872665
O O2 0.355548 0.979910 0.934837
O O3 0.233851 0.838248 0.106640
O O4 0.000000 0.920976 0.000000
O O5 0.374017 0.294853 0.294599
O O6 0.368122 0.137188 0.140388
O O7 0.081338 0.192827 0.340886
O O8 0.500000 0.333144 0.500000
O O9 0.714972 0.199323 0.502825
O O10 0.809369 0.383169 0.478345
O O11 0.152968 0.206534 0.744191
O O12 0.333971 0.149444 0.857679
O O13 0.000000 0.217773 0.000000
O O14 0.153143 0.042814 0.583430
O O15 0.594669 0.027151 0.692817
O O16 0.500000 0.026832 0.500000
#
# Coordination Sequence:
#
# PCOD9130527 Si02
#       7
#     4   4   4   4   4   4   4
#     4  12  27  52  81 116 163 218 279 340 406 497
#     4  12  26  51  78 112 163 213 266 334 416 487
#     4  12  27  45  74 116 157 201 264 337 403 483
#     4  12  26  51  76 115 158 210 278 334 405 491
#     4  12  25  48  81 113 157 208 259 336 405 488
#     4  12  26  49  79 114 159 213 272 340 412 482
#     4  12  25  46  77 115 154 203 264 333 415 481
#
# _framework density 25.254367999999999
#
# number of rings (size 3 to 8) (size 9 to 14) (size 15 to 20)
#    0.000    0.000    5.714    4.714    2.000    0.000 
#    2.571    0.000    0.000    0.000    0.000    0.000 
#    0.000    0.000    0.000    0.000    0.000    0.000 
#
# Total GULP energy -78169.831875 kJ/mol
# GULP energy per Si atom -5583.559420 kJ/mol
# Density = 2.519689 g / cm^3
# Si number density = 25.254368 Si / 1000 Ang^3
#
#
#
# Elastic Constant Matrix: (Units=GPa)
#
#
# Indices 1 2 3 4 5 6 
#
# 1 114.6583 35.8609 29.3929 0.0000 -1.5605 0.0000
# 2 35.8609 119.3705 13.7708 0.0000 -8.4858 0.0000
# 3 29.3929 13.7708 68.3329 0.0000 0.0933 0.0000
# 4 0.0000 0.0000 0.0000 49.4043 0.0000 -20.9111
# 5 -1.5605 -8.4858 0.0933 0.0000 55.9980 0.0000
# 6 0.0000 0.0000 0.0000 -20.9111 0.0000 47.8726
#
#
#
# Elastic Compliance Matrix: (Units=1/GPa)
#
#
# Indices 1 2 3 4 5 6 
#
# 1 0.010602 -0.002730 -0.004010 0.000000 -0.000112 0.000000
# 2 -0.002730 0.009376 -0.000717 0.000000 0.001346 0.000000
# 3 -0.004010 -0.000717 0.016504 0.000000 -0.000248 0.000000
# 4 0.000000 0.000000 0.000000 0.024832 0.000000 0.010847
# 5 -0.000112 0.001346 -0.000248 0.000000 0.018059 0.000000
# 6 0.000000 0.000000 0.000000 0.010847 0.000000 0.025627
#
#
# Mechanical properties :
#
#
# Convention : Reuss Voigt Hill
#
# Bulk Modulus (GPa) = 46.36634 51.15678 48.76156
# Shear Modulus (GPa) = 39.33805 45.54411 42.44108
#
# Velocity S-wave (km/s) = 3.95102 4.25127 4.10389
# Velocity P-wave (km/s) = 6.26208 6.66321 6.46575
#
# Compressibility (1/GPa) = 0.02156737
#
# Stress axis : x y z
#
# Youngs Moduli (GPa) = 94.32216 106.65649 60.59171
#
# Poissons Ratio (x) = 0.29121 0.24297
# Poissons Ratio (y) = 0.25753 0.04344
# Poissons Ratio (z) = 0.37823 0.07646
#
# Static dielectric constant tensor:
#      x y z
#    x 2.035880 0.000000 0.044010 
#    y 0.000000 1.905160 0.000000 
#    z 0.044010 0.000000 2.059360 
# 
# From -- ./inp_files/36305.got.cif
#   From: 2010.05.17/outbox.cif.g08.bks.cpg/sg5_19_cif.got.tgz:36305.got - 2010.06.03 18:56:24.
