data_PCOD9130481
_publ_section_title
;
Structure prediction by ZEFSAII (Michael W. Deem and Ramdas Pophale) SiO2 
 PCOD9130481
Probable space group: C 2
;
_chemical_formula_sum "Si O2"
_cell_formula_units_Z 28
_cell_length_a 21.721086
_cell_length_b 5.851906
_cell_length_c 9.861879
_cell_angle_alpha 90.000000
_cell_angle_beta 70.653291
_cell_angle_gamma 90.000000
_cell_volume 1182.755045
_symmetry_space_group_name_H-M "C 2"
_symmetry_group_IT_number 5
_symmetry_cell_setting 'monoclinic'
loop_
_space_group_symop_operation_xyz
x,y,z
-x,y,-z
1/2+x,1/2+y,z
1/2-x,1/2+y,-z
loop_
_atom_site_type_symbol
_atom_site_label
_atom_site_fract_x
_atom_site_fract_y
_atom_site_fract_z
Si Si1 0.144716 0.739670 0.603755
Si Si2 0.738651 0.982286 0.938953
Si Si3 0.000000 0.103773 0.500000
Si Si4 0.120621 0.442234 0.367919
Si Si5 0.980789 0.916463 0.217654
Si Si6 0.902690 0.607696 0.919013
Si Si7 0.779130 0.083367 0.627417
Si Si8 0.500000 0.781406 0.000000
O O1 0.116351 0.619783 0.491633
O O2 0.082830 0.757814 0.747986
O O3 0.206920 0.612091 0.620659
O O4 0.175012 0.975855 0.522324
O O5 0.775869 0.940898 0.769726
O O6 0.767285 0.221038 0.991326
O O7 0.667127 0.085429 0.961241
O O8 0.936771 0.258829 0.572241
O O9 0.989073 0.965113 0.370375
O O10 0.112376 0.550369 0.226838
O O11 0.189552 0.318878 0.343739
O O12 0.050738 0.828474 0.113599
O O13 0.964391 0.134522 0.140766
O O14 0.948531 0.422983 0.953357
#
# Coordination Sequence:
#
# PCOD9130481 Si02
#       8
#     4   4   2   4   4   4   4   2
#     4  12  27  48  77 111 152 199 264 334 404 479
#     4  12  30  51  82 116 160 217 270 334 405 493
#     4  12  24  46  80 108 150 196 266 320 394 484
#     4  12  24  49  74 111 153 201 255 324 399 478
#     4  12  28  48  78 114 151 206 262 335 403 481
#     4  12  28  50  76 113 160 208 268 322 411 488
#     4  12  27  47  74 112 153 203 264 331 405 480
#     4  12  30  50  76 112 160 202 262 342 398 484
#
# _framework density 23.673541
#
# number of rings (size 3 to 8) (size 9 to 14) (size 15 to 20)
#    0.000    0.000    5.714    3.000    8.000    1.143 
#    0.000    0.000    0.000    0.000    0.000    0.000 
#    0.000    0.000    0.000    0.000    0.000    0.000 
#
# Total GULP energy -78233.735707 kJ/mol
# GULP energy per Si atom -5588.123979 kJ/mol
# Density = 2.361966 g / cm^3
# Si number density = 23.673541 Si / 1000 Ang^3
#
#
#
# Elastic Constant Matrix: (Units=GPa)
#
#
# Indices 1 2 3 4 5 6 
#
# 1 116.2224 20.5876 6.3793 0.0000 5.3489 0.0000
# 2 20.5876 50.6617 0.8714 0.0000 17.9729 0.0000
# 3 6.3793 0.8714 63.8218 0.0000 11.9234 0.0000
# 4 0.0000 0.0000 0.0000 39.7875 0.0000 -8.6033
# 5 5.3489 17.9729 11.9234 0.0000 43.4825 0.0000
# 6 0.0000 0.0000 0.0000 -8.6033 0.0000 29.5071
#
#
#
# Elastic Compliance Matrix: (Units=1/GPa)
#
#
# Indices 1 2 3 4 5 6 
#
# 1 0.009344 -0.004069 -0.001031 0.000000 0.000815 0.000000
# 2 -0.004069 0.025048 0.002008 0.000000 -0.010404 0.000000
# 3 -0.001031 0.002008 0.016733 0.000000 -0.005292 0.000000
# 4 0.000000 0.000000 0.000000 0.026825 0.000000 0.007821
# 5 0.000815 -0.010404 -0.005292 0.000000 0.028649 0.000000
# 6 0.000000 0.000000 0.000000 0.007821 0.000000 0.036171
#
#
# Mechanical properties :
#
#
# Convention : Reuss Voigt Hill
#
# Bulk Modulus (GPa) = 22.25018 31.82030 27.03524
# Shear Modulus (GPa) = 30.50042 36.07992 33.29017
#
# Velocity S-wave (km/s) = 3.59329 3.90816 3.75403
# Velocity P-wave (km/s) = 5.16089 5.81682 5.49865
#
# Compressibility (1/GPa) = 0.04494345
#
# Stress axis : x y z
#
# Youngs Moduli (GPa) = 107.02106 39.92268 59.76274
#
# Poissons Ratio (x) = 0.16243 0.06160
# Poissons Ratio (y) = 0.43542 -0.12002
# Poissons Ratio (z) = 0.11030 -0.08018
#
# Static dielectric constant tensor:
#      x y z
#    x 1.908890 0.000000 -0.036300 
#    y 0.000000 1.960280 0.000000 
#    z -0.036300 0.000000 1.898750 
# 
# From -- ./inp_files/45657.got.cif
#   From: 2010.05.17/outbox.cif.g08.bks.cpg/sg5_23_cif.got.tgz:45657.got - 2010.06.03 18:56:24.
