data_PCOD9130530
_publ_section_title
;
Structure prediction by ZEFSAII (Michael W. Deem and Ramdas Pophale) SiO2 
 PCOD9130530
Probable space group: C 2
;
_chemical_formula_sum "Si O2"
_cell_formula_units_Z 16
_cell_length_a 13.085234
_cell_length_b 8.306910
_cell_length_c 5.259029
_cell_angle_alpha 90.000000
_cell_angle_beta 92.095119
_cell_angle_gamma 90.000000
_cell_volume 571.263066
_symmetry_space_group_name_H-M "C 2"
_symmetry_group_IT_number 5
_symmetry_cell_setting 'monoclinic'
loop_
_space_group_symop_operation_xyz
x,y,z
-x,y,-z
1/2+x,1/2+y,z
1/2-x,1/2+y,-z
loop_
_atom_site_type_symbol
_atom_site_label
_atom_site_fract_x
_atom_site_fract_y
_atom_site_fract_z
Si Si1 0.877940 0.087860 0.723310
Si Si2 0.922042 0.290531 0.311758
Si Si3 0.688917 0.061430 0.003779
Si Si4 0.621134 0.238113 0.497696
O O1 0.842741 0.222248 0.512580
O O2 0.811403 0.067389 0.971973
O O3 0.996257 0.148078 0.754231
O O4 0.856417 0.919782 0.585809
O O5 0.868946 0.397180 0.091331
O O6 0.000000 0.392888 0.500000
O O7 0.655990 0.186256 0.780712
O O8 0.655516 0.118898 0.274681
O O9 0.500000 0.239268 0.500000
#
# Coordination Sequence:
#
# PCOD9130530 Si02
#       4
#     4   4   4   4
#     4   9  22  48  79 111 157 202 264 320 393 468
#     4   8  20  47  77 111 153 201 257 317 390 458
#     4  12  25  46  81 112 153 202 265 319 398 462
#     4  12  26  50  73 116 152 202 256 329 386 471
#
# _framework density 28.008109000000001
#
# number of rings (size 3 to 8) (size 9 to 14) (size 15 to 20)
#    1.500    0.000    2.500    3.000    0.000    4.000 
#    4.500    5.000    0.000    0.000    0.000    0.000 
#    0.000    0.000    0.000    0.000    0.000    0.000 
#
# Total GULP energy -44726.992096 kJ/mol
# GULP energy per Si atom -5590.874012 kJ/mol
# Density = 2.794436 g / cm^3
# Si number density = 28.008109 Si / 1000 Ang^3
#
#
#
# Elastic Constant Matrix: (Units=GPa)
#
#
# Indices 1 2 3 4 5 6 
#
# 1 145.6745 30.6181 40.6879 0.0000 -3.3518 0.0000
# 2 30.6181 161.9583 18.2582 0.0000 -1.9698 0.0000
# 3 40.6879 18.2582 130.5900 0.0000 -7.1299 0.0000
# 4 0.0000 0.0000 0.0000 38.1056 0.0000 -2.1928
# 5 -3.3518 -1.9698 -7.1299 0.0000 49.5625 0.0000
# 6 0.0000 0.0000 0.0000 -2.1928 0.0000 39.9268
#
#
#
# Elastic Compliance Matrix: (Units=1/GPa)
#
#
# Indices 1 2 3 4 5 6 
#
# 1 0.007747 -0.001211 -0.002236 0.000000 0.000154 0.000000
# 2 -0.001211 0.006463 -0.000521 0.000000 0.000100 0.000000
# 3 -0.002236 -0.000521 0.008484 0.000000 0.001049 0.000000
# 4 0.000000 0.000000 0.000000 0.026326 0.000000 0.001446
# 5 0.000154 0.000100 0.001049 0.000000 0.020342 0.000000
# 6 0.000000 0.000000 0.000000 0.001446 0.000000 0.025125
#
#
# Mechanical properties :
#
#
# Convention : Reuss Voigt Hill
#
# Bulk Modulus (GPa) = 67.75382 68.59456 68.17419
# Shear Modulus (GPa) = 46.57959 48.76288 47.67123
#
# Velocity S-wave (km/s) = 4.08251 4.17709 4.13007
# Velocity P-wave (km/s) = 6.81658 6.91435 6.86564
#
# Compressibility (1/GPa) = 0.01475932
#
# Stress axis : x y z
#
# Youngs Moduli (GPa) = 129.07924 154.72097 117.86404
#
# Poissons Ratio (x) = 0.18731 0.26356
# Poissons Ratio (y) = 0.15627 0.06141
# Poissons Ratio (z) = 0.28864 0.08061
#
# Static dielectric constant tensor:
#      x y z
#    x 2.277910 0.000000 0.026820 
#    y 0.000000 2.208790 0.000000 
#    z 0.026820 0.000000 2.293260 
# 
# From -- ./inp_files/7884.got.cif
#   From: 2010.05.17/outbox.cif.g08.bks.cpg/sg5_4_cif.got.tgz:7884.got - 2010.06.03 18:56:24.
