data_PCOD9130969
_publ_section_title
;
Structure prediction by ZEFSAII (Michael W. Deem and Ramdas Pophale) SiO2 
 PCOD9130969
Probable space group: P M
;
_chemical_formula_sum "Si O2"
_cell_formula_units_Z 16
_cell_length_a 17.539236
_cell_length_b 7.628389
_cell_length_c 10.008009
_cell_angle_alpha 90.000000
_cell_angle_beta 29.655548
_cell_angle_gamma 90.000000
_cell_volume 662.532778
_symmetry_space_group_name_H-M "P M"
_symmetry_group_IT_number 6
_symmetry_cell_setting 'monoclinic'
loop_
_space_group_symop_operation_xyz
x,y,z
x,-y,z
loop_
_atom_site_type_symbol
_atom_site_label
_atom_site_fract_x
_atom_site_fract_y
_atom_site_fract_z
Si Si1 0.767580 0.784867 0.536250
Si Si2 0.991526 0.798483 0.410938
Si Si3 0.435142 0.712012 0.582556
Si Si4 0.882415 0.797764 0.086246
Si Si5 0.302524 0.208092 0.056207
Si Si6 0.205404 0.297800 0.716913
Si Si7 0.434698 0.786716 0.135621
Si Si8 0.764689 0.701451 0.983707
O O1 0.914778 0.721436 0.395513
O O2 0.770776 0.000000 0.528760
O O3 0.612326 0.734588 0.848491
O O4 0.778834 0.727262 0.365942
O O5 0.143499 0.714507 0.241894
O O6 0.029413 0.000000 0.320895
O O7 0.861263 0.797327 0.723545
O O8 0.435350 0.500000 0.576285
O O9 0.283498 0.774732 0.733202
O O10 0.593626 0.772830 0.273341
O O11 0.425076 0.765895 0.751794
O O12 0.056474 0.790522 0.878095
O O13 0.841850 0.000000 0.124195
O O14 0.855598 0.706597 0.986168
O O15 0.353122 0.274085 0.122964
O O16 0.280823 0.000000 0.108810
O O17 0.163593 0.500000 0.801837
O O18 0.344181 0.286568 0.398937
O O19 0.428958 0.000000 0.152314
O O20 0.750457 0.500000 0.962040
#
# Coordination Sequence:
#
# PCOD9130969 Si02
#       8
#     2   2   2   2   2   2   2   2
#     4   9  19  35  57  83 111 143 188 239 284 330
#     4  10  20  36  57  83 112 146 188 235 282 334
#     4  10  23  40  58  83 118 154 191 232 280 338
#     4  11  22  39  62  87 114 149 190 237 288 338
#     4  10  21  36  57  83 111 144 189 236 280 332
#     4  11  23  39  58  85 118 153 191 233 280 338
#     4  10  20  36  57  83 112 146 188 235 282 334
#     4  11  23  39  58  85 118 153 191 233 280 338
#
# _framework density 24.149747999999999
#
# number of rings (size 3 to 8) (size 9 to 14) (size 15 to 20)
#    0.000    1.750    0.000    4.125    0.000    6.000 
#    0.000    2.500    0.000    0.000    0.000    0.000 
#    0.000    0.000    0.000    0.000    0.000    0.000 
#
# Total GULP energy -89535.121139 kJ/mol
# GULP energy per Si atom -5595.945071 kJ/mol
# Density = 2.409478 g / cm^3
# Si number density = 24.149748 Si / 1000 Ang^3
#
#
#
# Elastic Constant Matrix: (Units=GPa)
#
#
# Indices 1 2 3 4 5 6 
#
# 1 110.0405 1.3240 -2.1724 0.0000 0.4780 0.0000
# 2 1.3240 60.9561 -6.8119 0.0000 -3.1767 0.0000
# 3 -2.1724 -6.8119 79.5594 0.0000 -3.1377 0.0000
# 4 0.0000 0.0000 0.0000 -11.9424 0.0000 -2.5366
# 5 0.4780 -3.1767 -3.1377 0.0000 44.6102 0.0000
# 6 0.0000 0.0000 0.0000 -2.5366 0.0000 -2.0380
#
#
#
# Elastic Compliance Matrix: (Units=1/GPa)
#
#
# Indices 1 2 3 4 5 6 
#
# 1 0.009095 -0.000177 0.000229 0.000000 -0.000094 0.000000
# 2 -0.000177 0.016641 0.001471 0.000000 0.001290 0.000000
# 3 0.000229 0.001471 0.012741 0.000000 0.000998 0.000000
# 4 0.000000 0.000000 0.000000 -0.113826 0.000000 0.141672
# 5 -0.000094 0.001290 0.000998 0.000000 0.022580 0.000000
# 6 0.000000 0.000000 0.000000 0.141672 0.000000 -0.667007
#
#
# Mechanical properties :
#
#
# Convention : Reuss Voigt Hill
#
# Bulk Modulus (GPa) = 24.08290 26.13726 25.11008
# Shear Modulus (GPa) = -7.05235 23.34038 8.14402
#
# Velocity S-wave (km/s) = -1.71073 3.11221 1.83837
# Velocity P-wave (km/s) = 2.46817 4.87452 3.86347
#
# Compressibility (1/GPa) = 0.04152323
#
# Stress axis : x y z
#
# Youngs Moduli (GPa) = 109.95499 60.09360 78.48800
#
# Poissons Ratio (x) = 0.01062 -0.01801
# Poissons Ratio (y) = 0.01944 -0.11544
# Poissons Ratio (z) = -0.02523 -0.08839
#
# Static dielectric constant tensor:
#      x y z
#    x 1.913020 0.000000 -0.031500 
#    y 0.000000 1.885570 0.000000 
#    z -0.031500 0.000000 1.893900 
# 
# From -- ./inp_files/4217.got.cif
#   From: 2010.05.17/outbox.cif.g08.bks.cpg/sg6_3_cif.got.tgz:4217.got - 2010.06.03 19:42:10.
