data_PCOD9130702
_publ_section_title
;
Structure prediction by ZEFSAII (Michael W. Deem and Ramdas Pophale) SiO2 
 PCOD9130702
Probable space group: C 2
;
_chemical_formula_sum "Si O2"
_cell_formula_units_Z 16
_cell_length_a 12.000000
_cell_length_b 15.000000
_cell_length_c 9.000000
_cell_angle_alpha 90.000000
_cell_angle_beta 90.000000
_cell_angle_gamma 90.000000
_cell_volume 1620.000000
_symmetry_space_group_name_H-M "C 2"
_symmetry_group_IT_number 5
_symmetry_cell_setting 'monoclinic'
loop_
_space_group_symop_operation_xyz
x,y,z
-x,y,-z
1/2+x,1/2+y,z
1/2-x,1/2+y,-z
loop_
_atom_site_type_symbol
_atom_site_label
_atom_site_fract_x
_atom_site_fract_y
_atom_site_fract_z
Si Si1 0.929239 0.029380 0.356587
Si Si2 0.289003 0.397739 0.798621
Si Si3 0.260353 0.594771 0.146811
Si Si4 0.375545 0.918213 0.950534
Si Si5 0.213159 0.263734 0.242965
Si Si6 0.124285 0.082032 0.161057
Si Si7 0.378425 0.249851 0.967436
Si Si8 0.626389 0.335824 0.518500
O O1 0.821102 0.082226 0.303542
O O2 0.000000 0.059774 0.500000
O O3 0.011001 0.037240 0.216011
O O4 0.895582 0.927951 0.391354
O O5 0.290173 0.504426 0.792600
O O6 0.382774 0.349006 0.899492
O O7 0.315986 0.361468 0.636781
O O8 0.181732 0.376898 0.900192
O O9 0.189632 0.506476 0.104393
O O10 0.185179 0.682566 0.141750
O O11 0.349590 0.602481 0.010800
O O12 0.360559 0.845666 0.819348
O O13 0.500000 0.938966 0.000000
O O14 0.141756 0.174139 0.246183
O O15 0.283259 0.280965 0.390190
O O16 0.307837 0.251256 0.117291
O O17 0.500000 0.215103 0.000000
O O18 0.500000 0.297518 0.500000
#
# Coordination Sequence:
#
# PCOD9130702 Si02
#       8
#     4   4   4   4   4   4   4   4
#     4  11  21  36  62  89 121 158 206 249 308 362
#     4  10  21  37  59  88 118 160 207 254 303 368
#     4  10  21  37  60  88 123 160 206 258 308 367
#     4  10  21  39  61  83 119 165 205 257 315 368
#     4  10  22  38  60  89 124 159 206 261 307 373
#     4  10  21  37  58  89 120 157 203 258 309 357
#     4  10  21  36  60  92 120 156 212 261 311 363
#     4  11  20  38  62  90 125 163 207 252 308 368
#
# _framework density 9.8765429999999999
#
# number of rings (size 3 to 8) (size 9 to 14) (size 15 to 20)
#    0.000    1.750    3.750    1.500    0.000    4.000 
#    0.000    0.625    0.000    0.000    0.000    0.000 
#    0.000    0.000    0.000    0.000    0.000    0.000 
#
# Total GULP energy -89128.180855 kJ/mol
# GULP energy per Si atom -5570.511303 kJ/mol
# Density = 0.985406 g / cm^3
# Si number density = 9.876543 Si / 1000 Ang^3
#
#
#
# Elastic Constant Matrix: (Units=GPa)
#
#
# Indices 1 2 3 4 5 6 
#
# 1 58.3083 0.8341 28.2014 0.0000 15.3572 0.0000
# 2 0.8341 52.6598 21.8454 0.0000 -3.8571 0.0000
# 3 28.2014 21.8454 39.6158 0.0000 13.8401 0.0000
# 4 0.0000 0.0000 0.0000 13.5521 0.0000 -9.6091
# 5 15.3572 -3.8571 13.8401 0.0000 26.5777 0.0000
# 6 0.0000 0.0000 0.0000 -9.6091 0.0000 -3.2595
#
#
#
# Elastic Compliance Matrix: (Units=1/GPa)
#
#
# Indices 1 2 3 4 5 6 
#
# 1 0.030486 0.010421 -0.026676 0.000000 -0.002212 0.000000
# 2 0.010421 0.032512 -0.030427 0.000000 0.014541 0.000000
# 3 -0.026676 -0.030427 0.069882 0.000000 -0.025392 0.000000
# 4 0.000000 0.000000 0.000000 0.023878 0.000000 -0.070392
# 5 -0.002212 0.014541 -0.025392 0.000000 0.054237 0.000000
# 6 0.000000 0.000000 0.000000 -0.070392 0.000000 -0.099277
#
#
# Mechanical properties :
#
#
# Convention : Reuss Voigt Hill
#
# Bulk Modulus (GPa) = 25.30598 28.03842 26.67220
# Shear Modulus (GPa) = 22.90916 14.02090 18.46503
#
# Velocity S-wave (km/s) = 3.40924 2.66711 3.06075
# Velocity P-wave (km/s) = 5.32318 4.86928 5.10128
#
# Compressibility (1/GPa) = 0.03951636
#
# Stress axis : x y z
#
# Youngs Moduli (GPa) = 32.80218 30.75767 14.30986
#
# Poissons Ratio (x) = -0.32054 0.38173
# Poissons Ratio (y) = -0.34184 0.43541
# Poissons Ratio (z) = 0.87503 0.93587
#
# Static dielectric constant tensor:
#      x y z
#    x 1.727510 0.000000 0.002270 
#    y 0.000000 1.713520 0.000000 
#    z 0.002270 0.000000 1.702850 
# 
# From -- ./inp_files/20640.got.cif
#   From: 2010.05.17/outbox.ucp.g08.bks.cvg/sg5_11_cif.got.tgz:20640.got - 2010.06.11 12:53:14.
