data_PCOD9130658
_publ_section_title
;
Structure prediction by ZEFSAII (Michael W. Deem and Ramdas Pophale) SiO2 
 PCOD9130658
Probable space group: C 2
;
_chemical_formula_sum "Si O2"
_cell_formula_units_Z 32
_cell_length_a 8.049261
_cell_length_b 25.080349
_cell_length_c 12.310524
_cell_angle_alpha 90.000000
_cell_angle_beta 33.073680
_cell_angle_gamma 90.000000
_cell_volume 1356.231013
_symmetry_space_group_name_H-M "C 2"
_symmetry_group_IT_number 5
_symmetry_cell_setting 'monoclinic'
loop_
_space_group_symop_operation_xyz
x,y,z
-x,y,-z
1/2+x,1/2+y,z
1/2-x,1/2+y,-z
loop_
_atom_site_type_symbol
_atom_site_label
_atom_site_fract_x
_atom_site_fract_y
_atom_site_fract_z
Si Si1 0.783885 0.804270 0.919712
Si Si2 0.668538 0.917323 0.624194
Si Si3 0.232727 0.925748 0.068967
Si Si4 0.159960 0.303083 0.636401
Si Si5 0.050308 0.695717 0.788363
Si Si6 0.721571 0.122770 0.240847
Si Si7 0.755971 0.999982 0.233401
Si Si8 0.480474 0.685979 0.737050
O O1 0.858528 0.865270 0.847063
O O2 0.623889 0.806755 0.124258
O O3 0.500000 0.785468 0.000000
O O4 0.047639 0.759996 0.768135
O O5 0.412730 0.917934 0.858299
O O6 0.638403 0.859036 0.585365
O O7 0.546678 0.965700 0.620592
O O8 0.000000 0.923516 0.500000
O O9 0.500000 0.946032 0.000000
O O10 0.961076 0.967331 0.207288
O O11 0.500000 0.306610 0.500000
O O12 0.128412 0.242026 0.621745
O O13 0.998861 0.661874 0.707359
O O14 0.314334 0.670082 0.717039
O O15 0.771755 0.694357 0.028588
O O16 0.808017 0.147028 0.310489
O O17 0.654593 0.060998 0.299088
O O18 0.000000 0.122221 0.000000
O O19 0.000000 0.000630 0.000000
#
# Coordination Sequence:
#
# PCOD9130658 Si02
#       8
#     4   4   4   4   4   4   4   4
#     4   9  16  28  50  75 105 131 162 213 264 308
#     4   9  18  33  54  77 103 142 174 207 266 325
#     4   9  18  32  51  82 106 131 173 223 265 303
#     4   9  17  29  49  74 105 132 164 211 259 314
#     4   9  16  27  48  76  99 127 170 212 256 303
#     4   9  17  32  48  73 105 132 171 218 256 302
#     4   9  18  33  52  74 103 138 175 219 258 305
#     4   9  17  28  47  74  96 133 169 208 257 306
#
# _framework density 23.594799999999999
#
# number of rings (size 3 to 8) (size 9 to 14) (size 15 to 20)
#    0.000    3.000    0.000    1.875    1.750    0.000 
#    9.000    0.625    2.750    2.250    0.000    0.000 
#    0.000    0.000    0.000    0.000    0.000    0.000 
#
# Total GULP energy -89124.703761 kJ/mol
# GULP energy per Si atom -5570.293985 kJ/mol
# Density = 2.354110 g / cm^3
# Si number density = 23.594800 Si / 1000 Ang^3
#
#
#
# Elastic Constant Matrix: (Units=GPa)
#
#
# Indices 1 2 3 4 5 6 
#
# 1 116.6645 101.5007 28.8140 0.0000 -22.1690 0.0000
# 2 101.5007 201.5949 55.1348 0.0000 -38.2239 0.0000
# 3 28.8140 55.1348 93.4375 0.0000 11.2018 0.0000
# 4 0.0000 0.0000 0.0000 -232.4056 0.0000 51.2553
# 5 -22.1690 -38.2239 11.2018 0.0000 43.0737 0.0000
# 6 0.0000 0.0000 0.0000 51.2553 0.0000 -4.2316
#
#
#
# Elastic Compliance Matrix: (Units=1/GPa)
#
#
# Indices 1 2 3 4 5 6 
#
# 1 0.015338 -0.007228 -0.000663 0.000000 0.001652 0.000000
# 2 -0.007228 0.011678 -0.005634 0.000000 0.008108 0.000000
# 3 -0.000663 -0.005634 0.015350 0.000000 -0.009333 0.000000
# 4 0.000000 0.000000 0.000000 0.002575 0.000000 0.031184
# 5 0.001652 0.008108 -0.009333 0.000000 0.033689 0.000000
# 6 0.000000 0.000000 0.000000 0.031184 0.000000 0.141396
#
#
# Mechanical properties :
#
#
# Convention : Reuss Voigt Hill
#
# Bulk Modulus (GPa) = 65.29033 86.95510 76.12272
# Shear Modulus (GPa) = 19.82720 -23.62957 -1.90118
#
# Velocity S-wave (km/s) = 2.90197 -3.16804 -0.89862
# Velocity P-wave (km/s) = 6.24181 4.85299 5.59069
#
# Compressibility (1/GPa) = 0.01531620
#
# Stress axis : x y z
#
# Youngs Moduli (GPa) = 65.19950 85.63368 65.14631
#
# Poissons Ratio (x) = 0.61893 0.04319
# Poissons Ratio (y) = 0.47124 0.36703
# Poissons Ratio (z) = 0.04323 0.48245
#
# Static dielectric constant tensor:
#      x y z
#    x 2.041250 0.000000 -0.012070 
#    y 0.000000 1.884750 0.000000 
#    z -0.012070 0.000000 1.988790 
# 
# From -- ./inp_files/59921.got.cif
#   From: 2010.05.17/outbox.cif.g08.bks.cpg/sg5_30_cif.got.tgz:59921.got - 2010.06.03 18:56:24.
