data_PCOD9130916
_publ_section_title
;
Structure prediction by ZEFSAII (Michael W. Deem and Ramdas Pophale) SiO2 
 PCOD9130916
Probable space group: P M
;
_chemical_formula_sum "Si O2"
_cell_formula_units_Z 16
_cell_length_a 10.946104
_cell_length_b 9.227772
_cell_length_c 7.283384
_cell_angle_alpha 90.000000
_cell_angle_beta 79.524252
_cell_angle_gamma 90.000000
_cell_volume 723.418792
_symmetry_space_group_name_H-M "P M"
_symmetry_group_IT_number 6
_symmetry_cell_setting 'monoclinic'
loop_
_space_group_symop_operation_xyz
x,y,z
x,-y,z
loop_
_atom_site_type_symbol
_atom_site_label
_atom_site_fract_x
_atom_site_fract_y
_atom_site_fract_z
Si Si1 0.040390 0.663734 0.835470
Si Si2 0.726288 0.332008 0.500869
Si Si3 0.631593 0.673571 0.140972
Si Si4 0.805950 0.829038 0.826032
Si Si5 0.008775 0.336740 0.281974
Si Si6 0.327521 0.668555 0.635547
Si Si7 0.427975 0.831429 0.950036
Si Si8 0.241623 0.165809 0.320093
O O1 0.000200 0.500000 0.793791
O O2 0.183954 0.679058 0.743409
O O3 0.947858 0.776883 0.767442
O O4 0.024905 0.676923 0.058778
O O5 0.705697 0.500000 0.562404
O O6 0.726947 0.227326 0.674154
O O7 0.866027 0.322979 0.379332
O O8 0.635125 0.295647 0.357600
O O9 0.633181 0.500000 0.119746
O O10 0.753194 0.743924 0.015918
O O11 0.522712 0.746006 0.054367
O O12 0.796985 0.000000 0.850558
O O13 0.050248 0.500000 0.321538
O O14 0.102495 0.225582 0.349188
O O15 0.363041 0.500000 0.620089
O O16 0.322814 0.738379 0.436348
O O17 0.409080 0.754457 0.760885
O O18 0.299715 0.826846 0.100818
O O19 0.464266 0.000000 0.921026
O O20 0.245347 0.000000 0.381651
#
# Coordination Sequence:
#
# PCOD9130916 Si02
#       8
#     2   2   2   2   2   2   2   2
#     4  10  20  38  63  92 126 165 209 253 301 363
#     4  10  22  41  65  91 122 162 207 257 305 361
#     4  11  24  45  69  90 117 161 214 262 304 361
#     4  12  25  39  62  95 131 165 199 251 315 376
#     4  10  19  37  64  92 124 162 207 255 304 364
#     4  11  23  40  66  94 124 166 212 256 300 363
#     4  11  25  44  64  90 125 163 204 259 316 367
#     4  11  24  40  61  92 131 166 200 253 315 373
#
# _framework density 22.117203
#
# number of rings (size 3 to 8) (size 9 to 14) (size 15 to 20)
#    0.000    1.250    2.500    3.375    0.000    8.500 
#    0.000    2.500    0.000    0.000    0.000    0.000 
#    0.000    0.000    0.000    0.000    0.000    0.000 
#
# Total GULP energy -89564.322763 kJ/mol
# GULP energy per Si atom -5597.770173 kJ/mol
# Density = 2.206686 g / cm^3
# Si number density = 22.117203 Si / 1000 Ang^3
#
#
#
# Elastic Constant Matrix: (Units=GPa)
#
#
# Indices 1 2 3 4 5 6 
#
# 1 63.6094 35.7401 -0.5465 0.0000 17.6339 0.0000
# 2 35.7401 144.7978 56.1742 0.0000 32.4816 0.0000
# 3 -0.5465 56.1742 98.3385 0.0000 24.1906 0.0000
# 4 0.0000 0.0000 0.0000 4569.3113 0.000038540.4651
# 5 17.6339 32.4816 24.1906 0.0000 40.1857 0.0000
# 6 0.0000 0.0000 0.000038540.4651 0.0000**********
#
#
#
# Elastic Compliance Matrix: (Units=1/GPa)
#
#
# Indices 1 2 3 4 5 6 
#
# 1 0.021006 -0.005402 0.005160 0.000000 -0.007958 0.000000
# 2 -0.005402 0.011142 -0.005590 0.000000 -0.003270 0.000000
# 3 0.005160 -0.005590 0.015068 0.000000 -0.006816 0.000000
# 4 0.000000 0.000000 0.000000 0.037091 0.000000 -0.004372
# 5 -0.007958 -0.003270 -0.006816 0.000000 0.035123 0.000000
# 6 0.000000 0.000000 0.000000 -0.004372 0.000000 0.000518
#
#
# Mechanical properties :
#
#
# Convention : Reuss Voigt Hill
#
# Bulk Modulus (GPa) = 28.12771 54.38683 41.25727
# Shear Modulus (GPa) = 34.85238 66337.08410 33185.96824
#
# Velocity S-wave (km/s) = 3.97395 173.37401 122.62614
# Velocity P-wave (km/s) = 5.81391 200.25660 141.66246
#
# Compressibility (1/GPa) = 0.03555213
#
# Stress axis : x y z
#
# Youngs Moduli (GPa) = 47.60468 89.75282 66.36782
#
# Poissons Ratio (x) = 0.48481 -0.34245
# Poissons Ratio (y) = 0.25714 0.37100
# Poissons Ratio (z) = -0.24563 0.50172
#
# Static dielectric constant tensor:
#      x y z
#    x 1.857070 0.000000 -0.035970 
#    y 0.000000 -18.364240 0.000000 
#    z -0.035970 0.000000 1.809580 
# 
# From -- ./inp_files/3604.got.cif
#   From: 2010.05.17/outbox.cif.g08.bks.cpg/sg6_2_cif.got.tgz:3604.got - 2010.06.03 19:42:10.
