data_PCOD9130669
_publ_section_title
;
Structure prediction by ZEFSAII (Michael W. Deem and Ramdas Pophale) SiO2 
 PCOD9130669
Probable space group: C 2
;
_chemical_formula_sum "Si O2"
_cell_formula_units_Z 15
_cell_length_a 21.000000
_cell_length_b 9.000000
_cell_length_c 9.000000
_cell_angle_alpha 90.000000
_cell_angle_beta 100.000000
_cell_angle_gamma 90.000000
_cell_volume 1675.157988
_symmetry_space_group_name_H-M "C 2"
_symmetry_group_IT_number 5
_symmetry_cell_setting 'monoclinic'
loop_
_space_group_symop_operation_xyz
x,y,z
-x,y,-z
1/2+x,1/2+y,z
1/2-x,1/2+y,-z
loop_
_atom_site_type_symbol
_atom_site_label
_atom_site_fract_x
_atom_site_fract_y
_atom_site_fract_z
Si Si1 0.500000 0.291250 0.000000
Si Si2 0.916384 0.362354 0.819819
Si Si3 0.281823 0.630774 0.033291
Si Si4 0.046621 0.505676 0.846413
Si Si5 0.719766 0.020148 0.313907
Si Si6 0.185831 0.448857 0.815103
Si Si7 0.217127 0.859707 0.396151
Si Si8 0.387995 0.518191 0.853495
O O1 0.470666 0.174571 0.109964
O O2 0.555828 0.400214 0.085049
O O3 0.848359 0.435284 0.741840
O O4 0.912422 0.183004 0.815742
O O5 0.980561 0.427084 0.764456
O O6 0.930265 0.421107 0.992984
O O7 0.257052 0.558911 0.176450
O O8 0.298660 0.803691 0.073298
O O9 0.222863 0.592441 0.897443
O O10 0.343085 0.551738 0.980101
O O11 0.110116 0.485439 0.772108
O O12 0.766278 0.921139 0.435314
O O13 0.707210 0.182356 0.382662
O O14 0.219727 0.402761 0.675957
O O15 0.158107 0.944467 0.290324
#
# Coordination Sequence:
#
# PCOD9130669 Si02
#       8
#     2   4   4   4   4   4   4   4
#     4  10  22  32  56  82 120 142 184 230 280 336
#     4  10  19  33  59  78 114 145 185 223 285 326
#     4  10  20  32  58  80 115 137 189 228 282 318
#     4  10  19  35  53  84 113 150 176 233 279 333
#     4  11  20  39  54  85 111 157 179 235 277 336
#     4  10  20  35  55  86 109 145 184 237 273 331
#     4  10  23  35  58  81 117 143 194 225 286 327
#     4  11  20  36  55  92 105 146 185 238 275 333
#
# _framework density 8.9543789999999994
#
# number of rings (size 3 to 8) (size 9 to 14) (size 15 to 20)
#    0.000    1.867    2.667    3.200    3.733    1.067 
#    0.000    0.667    0.000    0.800    0.000    0.000 
#    0.000    0.000    0.000    0.000    0.000    0.000 
#
# Total GULP energy -83670.057929 kJ/mol
# GULP energy per Si atom -5578.003862 kJ/mol
# Density = 0.893400 g / cm^3
# Si number density = 8.954379 Si / 1000 Ang^3
#
#
#
# Elastic Constant Matrix: (Units=GPa)
#
#
# Indices 1 2 3 4 5 6 
#
# 1 146.2760 56.8347 19.8398 0.0000 17.9032 0.0000
# 2 56.8347 142.0042 19.3722 0.0000 17.2894 0.0000
# 3 19.8398 19.3722 32.4994 0.0000 14.8357 0.0000
# 4 0.0000 0.0000 0.0000 22.7385 0.0000 7.6490
# 5 17.9032 17.2894 14.8357 0.0000 23.6228 0.0000
# 6 0.0000 0.0000 0.0000 7.6490 0.0000 37.4425
#
#
#
# Elastic Compliance Matrix: (Units=1/GPa)
#
#
# Indices 1 2 3 4 5 6 
#
# 1 0.008585 -0.002760 -0.002170 0.000000 -0.003124 0.000000
# 2 -0.002760 0.008810 -0.002212 0.000000 -0.002967 0.000000
# 3 -0.002170 -0.002212 0.044754 0.000000 -0.024843 0.000000
# 4 0.000000 0.000000 0.000000 0.047224 0.000000 -0.009647
# 5 -0.003124 -0.002967 -0.024843 0.000000 0.062473 0.000000
# 6 0.000000 0.000000 0.000000 -0.009647 0.000000 0.028678
#
#
# Mechanical properties :
#
#
# Convention : Reuss Voigt Hill
#
# Bulk Modulus (GPa) = 20.89206 56.98587 38.93897
# Shear Modulus (GPa) = 21.66731 31.74294 26.70512
#
# Velocity S-wave (km/s) = 3.48209 4.21465 3.86576
# Velocity P-wave (km/s) = 5.27805 7.45477 6.45877
#
# Compressibility (1/GPa) = 0.04786508
#
# Stress axis : x y z
#
# Youngs Moduli (GPa) = 116.47747 113.51264 22.34449
#
# Poissons Ratio (x) = 0.31327 0.04849
# Poissons Ratio (y) = 0.32145 0.04943
# Poissons Ratio (z) = 0.25275 0.25110
#
# Static dielectric constant tensor:
#      x y z
#    x 1.643720 0.000000 -0.028200 
#    y 0.000000 1.609590 0.000000 
#    z -0.028200 0.000000 1.615710 
# 
# From -- ./inp_files/28985.got.cif
#   From: 2010.05.17/outbox.ucp.g08.bks.cvg/sg5_15_cif.got.tgz:28985.got - 2010.06.11 12:53:14.
