data_PCOD9130108
_publ_section_title
;
Structure prediction by ZEFSAII (Michael W. Deem and Ramdas Pophale) SiO2 
 PCOD9130108
Probable space group: C 2
;
_chemical_formula_sum "Si O2"
_cell_formula_units_Z 16
_cell_length_a 16.747020
_cell_length_b 6.923927
_cell_length_c 12.663844
_cell_angle_alpha 90.000000
_cell_angle_beta 23.024842
_cell_angle_gamma 90.000000
_cell_volume 574.350391
_symmetry_space_group_name_H-M "C 2"
_symmetry_group_IT_number 5
_symmetry_cell_setting 'monoclinic'
loop_
_space_group_symop_operation_xyz
x,y,z
-x,y,-z
1/2+x,1/2+y,z
1/2-x,1/2+y,-z
loop_
_atom_site_type_symbol
_atom_site_label
_atom_site_fract_x
_atom_site_fract_y
_atom_site_fract_z
Si Si1 0.813858 0.750000 0.086977
Si Si2 0.318683 0.048983 0.571033
Si Si3 0.422641 0.883029 0.230791
Si Si4 0.804765 0.097759 0.967879
O O1 0.969684 0.584094 0.930178
O O2 0.890130 0.892977 0.901142
O O3 0.196857 0.251497 0.708312
O O4 0.753611 0.897510 0.252324
O O5 0.286905 0.946776 0.496556
O O6 0.561697 0.078916 0.285946
O O7 0.850537 0.138735 0.788668
O O8 0.594689 0.752937 0.078176
#
# Coordination Sequence:
#
# PCOD9130108 Si02
#       4
#     4   4   4   4
#     4  11  24  54  85 122 170 218 284 348 422 504
#     4  11  27  53  85 124 168 226 275 350 441 482
#     4  11  28  52  84 124 174 213 290 352 404 526
#     4  11  24  51  84 122 166 214 286 346 406 518
#
# _framework density 27.857559999999999
#
# number of rings (size 3 to 8) (size 9 to 14) (size 15 to 20)
#    0.000    1.000    5.000    0.750    7.000    1.000 
#    9.000    7.500    0.000    0.000    0.000    0.000 
#    0.000    0.000    0.000    0.000    0.000    0.000 
#
# Total GULP energy -44783.251140 kJ/mol
# GULP energy per Si atom -5597.906393 kJ/mol
# Density = 2.779415 g / cm^3
# Si number density = 27.857560 Si / 1000 Ang^3
#
#
#
# Elastic Constant Matrix: (Units=GPa)
#
#
# Indices 1 2 3 4 5 6 
#
# 1 161.2022 74.7231 74.2154 -0.0004 2.9981 0.0001
# 2 74.7231 245.9307 82.1593 -0.0010 1.2191 0.0004
# 3 74.2154 82.1593 115.3798 -0.0008 -12.2483 0.0005
# 4 -0.0004 -0.0010 -0.0008 60.9577 0.0002 7.6213
# 5 2.9981 1.2191 -12.2483 0.0002 67.8345 0.0000
# 6 0.0001 0.0004 0.0005 7.6213 0.0000 78.7639
#
#
#
# Elastic Compliance Matrix: (Units=1/GPa)
#
#
# Indices 1 2 3 4 5 6 
#
# 1 0.009134 -0.000995 -0.005310 0.000000 -0.001345 0.000000
# 2 -0.000995 0.005486 -0.003337 0.000000 -0.000657 0.000000
# 3 -0.005310 -0.003337 0.014773 0.000000 0.002962 0.000000
# 4 0.000000 0.000000 0.000000 0.016606 0.000000 -0.001607
# 5 -0.001345 -0.000657 0.002962 0.000000 0.015348 0.000000
# 6 0.000000 0.000000 0.000000 -0.001607 0.000000 0.012852
#
#
# Mechanical properties :
#
#
# Convention : Reuss Voigt Hill
#
# Bulk Modulus (GPa) = 98.90168 109.41203 104.15685
# Shear Modulus (GPa) = 51.62599 60.93888 56.28244
#
# Velocity S-wave (km/s) = 4.30957 4.68216 4.49972
# Velocity P-wave (km/s) = 7.76807 8.28197 8.02913
#
# Compressibility (1/GPa) = 0.01011105
#
# Stress axis : x y z
#
# Youngs Moduli (GPa) = 109.48133 182.26981 67.69271
#
# Poissons Ratio (x) = 0.18132 0.35942
# Poissons Ratio (y) = 0.10891 0.22586
# Poissons Ratio (z) = 0.58130 0.60816
#
# Static dielectric constant tensor:
#      x y z
#    x 2.279750 0.000000 -0.014340 
#    y 0.000000 2.234170 0.000000 
#    z -0.014340 0.000000 2.276760 
# 
# From -- ./inp_files/56710.got.cif
#   From: 2010.05.17/outbox.cif.g08.bks.cpg/sg5_29_cif.got.tgz:56710.got - 2010.06.03 18:56:24.
