data_PCOD9130432
_publ_section_title
;
Structure prediction by ZEFSAII (Michael W. Deem and Ramdas Pophale) SiO2 
 PCOD9130432
Probable space group: C 2
;
_chemical_formula_sum "Si O2"
_cell_formula_units_Z 22
_cell_length_a 10.166302
_cell_length_b 16.896702
_cell_length_c 7.702196
_cell_angle_alpha 90.000000
_cell_angle_beta 128.556141
_cell_angle_gamma 90.000000
_cell_volume 1034.629974
_symmetry_space_group_name_H-M "C 2"
_symmetry_group_IT_number 5
_symmetry_cell_setting 'monoclinic'
loop_
_space_group_symop_operation_xyz
x,y,z
-x,y,-z
1/2+x,1/2+y,z
1/2-x,1/2+y,-z
loop_
_atom_site_type_symbol
_atom_site_label
_atom_site_fract_x
_atom_site_fract_y
_atom_site_fract_z
Si Si1 0.500000 0.604400 0.500000
Si Si2 0.920066 0.989185 0.123832
Si Si3 0.808743 0.200908 0.818597
Si Si4 0.062956 0.809245 0.751918
Si Si5 0.924193 0.555373 0.258374
Si Si6 0.178606 0.678589 0.333878
O O1 0.504485 0.547285 0.335109
O O2 0.332333 0.657172 0.335239
O O3 0.952106 0.898522 0.200834
O O4 0.000000 0.002955 0.000000
O O5 0.717418 0.002667 0.949750
O O6 0.751852 0.276273 0.884833
O O7 0.684111 0.131432 0.772531
O O8 0.775920 0.205406 0.587685
O O9 0.000000 0.181671 0.000000
O O10 0.000000 0.802163 0.500000
O O11 0.956512 0.749301 0.785126
O O12 0.000000 0.519904 0.500000
O O13 0.074222 0.596430 0.273262
#
# Coordination Sequence:
#
# PCOD9130432 Si02
#       6
#     2   4   4   4   4   4
#     4  12  24  42  74 102 124 170 228 270 322 390
#     4  12  24  42  66  96 137 173 211 274 331 383
#     4   9  16  35  65  93 123 169 220 264 319 386
#     4   9  20  43  65  91 137 174 208 270 334 381
#     4   9  18  37  64  93 124 169 216 270 320 379
#     4   9  20  39  65  94 129 167 222 269 315 390
#
# _framework density 21.263639999999999
#
# number of rings (size 3 to 8) (size 9 to 14) (size 15 to 20)
#    0.000    2.182    0.909    6.000    0.000    0.727 
#   13.091    1.818    0.000    0.000    0.000    0.000 
#    0.000    0.000    0.000    0.000    0.000    0.000 
#
# Total GULP energy -61354.387799 kJ/mol
# GULP energy per Si atom -5577.671618 kJ/mol
# Density = 2.121524 g / cm^3
# Si number density = 21.263640 Si / 1000 Ang^3
#
#
#
# Elastic Constant Matrix: (Units=GPa)
#
#
# Indices 1 2 3 4 5 6 
#
# 1 91.4470 32.8767 21.9407 0.0000 2.7282 0.0000
# 2 32.8767 94.4173 6.1080 0.0000 -11.2836 0.0000
# 3 21.9407 6.1080 88.8631 0.0000 -3.2356 0.0000
# 4 0.0000 0.0000 0.0000 28.3259 0.0000 -1.4580
# 5 2.7282 -11.2836 -3.2356 0.0000 37.1973 0.0000
# 6 0.0000 0.0000 0.0000 -1.4580 0.0000 13.9311
#
#
#
# Elastic Compliance Matrix: (Units=1/GPa)
#
#
# Indices 1 2 3 4 5 6 
#
# 1 0.013494 -0.004824 -0.003099 0.000000 -0.002723 0.000000
# 2 -0.004824 0.012750 0.000470 0.000000 0.004262 0.000000
# 3 -0.003099 0.000470 0.012038 0.000000 0.001417 0.000000
# 4 0.000000 0.000000 0.000000 0.035495 0.000000 0.003715
# 5 -0.002723 0.004262 0.001417 0.000000 0.028500 0.000000
# 6 0.000000 0.000000 0.000000 0.003715 0.000000 0.072171
#
#
# Mechanical properties :
#
#
# Convention : Reuss Voigt Hill
#
# Bulk Modulus (GPa) = 42.77974 44.06426 43.42200
# Shear Modulus (GPa) = 25.36201 30.14431 27.75316
#
# Velocity S-wave (km/s) = 3.45735 3.76925 3.61667
# Velocity P-wave (km/s) = 6.00834 6.30165 6.15674
#
# Compressibility (1/GPa) = 0.02337555
#
# Stress axis : x y z
#
# Youngs Moduli (GPa) = 74.10514 78.43197 83.07152
#
# Poissons Ratio (x) = 0.37833 0.25747
# Poissons Ratio (y) = 0.35746 -0.03903
# Poissons Ratio (z) = 0.22968 -0.03685
#
# Static dielectric constant tensor:
#      x y z
#    x 1.813130 0.000000 -0.015770 
#    y 0.000000 1.765840 0.000000 
#    z -0.015770 0.000000 1.808150 
# 
# From -- ./inp_files/16217.got.cif
#   From: 2010.05.17/outbox.cif.g08.bks.cpg/sg5_9_cif.got.tgz:16217.got - 2010.06.03 18:56:24.
