data_PCOD9130006
_publ_section_title
;
Structure prediction by ZEFSAII (Michael W. Deem and Ramdas Pophale) SiO2 
 PCOD9130006
Probable space group: C 2
;
_chemical_formula_sum "Si O2"
_cell_formula_units_Z 20
_cell_length_a 17.376090
_cell_length_b 5.785112
_cell_length_c 10.362451
_cell_angle_alpha 90.000000
_cell_angle_beta 124.050490
_cell_angle_gamma 90.000000
_cell_volume 863.062302
_symmetry_space_group_name_H-M "C 2"
_symmetry_group_IT_number 5
_symmetry_cell_setting 'monoclinic'
loop_
_space_group_symop_operation_xyz
x,y,z
-x,y,-z
1/2+x,1/2+y,z
1/2-x,1/2+y,-z
loop_
_atom_site_type_symbol
_atom_site_label
_atom_site_fract_x
_atom_site_fract_y
_atom_site_fract_z
Si Si1 0.784509 0.753900 0.877388
Si Si2 0.475044 0.459806 0.116700
Si Si3 0.528236 0.166099 0.385156
Si Si4 0.275413 0.929350 0.457159
Si Si5 0.618243 0.876584 0.903404
O O1 0.768529 0.860669 0.722434
O O2 0.692972 0.765560 0.877488
O O3 0.866260 0.895183 0.024424
O O4 0.825093 0.495423 0.926960
O O5 0.540445 0.367117 0.290548
O O6 0.466016 0.731796 0.116170
O O7 0.500000 0.367560 0.000000
O O8 0.500000 0.253216 0.500000
O O9 0.616401 0.997227 0.466021
O O10 0.436877 0.045230 0.243728
O O11 0.263670 0.682227 0.525653
#
# Coordination Sequence:
#
# PCOD9130006 Si02
#       5
#     4   4   4   4   4
#     4  11  24  46  74 108 147 207 257 317 387 475
#     4  11  26  45  74 109 152 200 261 326 392 459
#     4  11  26  49  75 113 151 209 260 327 391 475
#     4  12  30  49  79 116 160 202 258 330 401 461
#     4  11  24  44  78 106 150 202 268 320 389 473
#
# _framework density 23.173297000000002
#
# number of rings (size 3 to 8) (size 9 to 14) (size 15 to 20)
#    0.000    0.800    4.000    1.200    8.400    5.600 
#    0.000    0.000    0.000    0.000    0.000    0.000 
#    0.000    0.000    0.000    0.000    0.000    0.000 
#
# Total GULP energy -55711.136608 kJ/mol
# GULP energy per Si atom -5571.113661 kJ/mol
# Density = 2.312055 g / cm^3
# Si number density = 23.173297 Si / 1000 Ang^3
#
#
#
# Elastic Constant Matrix: (Units=GPa)
#
#
# Indices 1 2 3 4 5 6 
#
# 1 85.0277 31.6219 43.8248 0.0000 -10.5097 0.0000
# 2 31.6219 92.6610 65.8510 0.0000 -18.0569 0.0000
# 3 43.8248 65.8510 158.1239 0.0000 -5.6255 0.0000
# 4 0.0000 0.0000 0.0000 26.9272 0.0000 1.4969
# 5 -10.5097 -18.0569 -5.6255 0.0000 34.8704 0.0000
# 6 0.0000 0.0000 0.0000 1.4969 0.0000 28.7243
#
#
#
# Elastic Compliance Matrix: (Units=1/GPa)
#
#
# Indices 1 2 3 4 5 6 
#
# 1 0.014476 -0.002320 -0.002950 0.000000 0.002686 0.000000
# 2 -0.002320 0.017579 -0.006416 0.000000 0.007369 0.000000
# 3 -0.002950 -0.006416 0.009720 0.000000 -0.002643 0.000000
# 4 0.000000 0.000000 0.000000 0.037245 0.000000 -0.001941
# 5 0.002686 0.007369 -0.002643 0.000000 0.032876 0.000000
# 6 0.000000 0.000000 0.000000 -0.001941 0.000000 0.034915
#
#
# Mechanical properties :
#
#
# Convention : Reuss Voigt Hill
#
# Bulk Modulus (GPa) = 54.33981 68.71201 61.52591
# Shear Modulus (GPa) = 28.35779 31.07203 29.71491
#
# Velocity S-wave (km/s) = 3.50198 3.66574 3.58479
# Velocity P-wave (km/s) = 6.31284 6.90164 6.61380
#
# Compressibility (1/GPa) = 0.01840271
#
# Stress axis : x y z
#
# Youngs Moduli (GPa) = 69.07788 56.88551 102.88424
#
# Poissons Ratio (x) = 0.13198 0.30355
# Poissons Ratio (y) = 0.16027 0.66007
# Poissons Ratio (z) = 0.20381 0.36496
#
# Static dielectric constant tensor:
#      x y z
#    x 1.941370 0.000000 -0.076840 
#    y 0.000000 2.221740 0.000000 
#    z -0.076840 0.000000 1.857740 
# 
# From -- ./inp_files/28389.got.cif
#   From: 2010.05.17/outbox.cif.g08.bks.cpg/sg5_15_cif.got.tgz:28389.got - 2010.06.03 18:56:24.
