data_PCOD9130758
_publ_section_title
;
Structure prediction by ZEFSAII (Michael W. Deem and Ramdas Pophale) SiO2 
 PCOD9130758
Probable space group: P M
;
_chemical_formula_sum "Si O2"
_cell_formula_units_Z 16
_cell_length_a 17.670816
_cell_length_b 9.050941
_cell_length_c 11.748105
_cell_angle_alpha 90.000000
_cell_angle_beta 31.239758
_cell_angle_gamma 90.000000
_cell_volume 974.468439
_symmetry_space_group_name_H-M "P M"
_symmetry_group_IT_number 6
_symmetry_cell_setting 'monoclinic'
loop_
_space_group_symop_operation_xyz
x,y,z
x,-y,z
loop_
_atom_site_type_symbol
_atom_site_label
_atom_site_fract_x
_atom_site_fract_y
_atom_site_fract_z
Si Si1 0.930840 0.669632 0.420140
Si Si2 0.847477 0.826850 0.304788
Si Si3 0.423565 0.823220 0.608232
Si Si4 0.719877 0.675164 0.250934
Si Si5 0.075270 0.176131 0.433342
Si Si6 0.263013 0.669574 0.017066
Si Si7 0.030839 0.325611 0.731861
Si Si8 0.160116 0.172826 0.778845
O O1 0.884608 0.500000 0.496068
O O2 0.844312 0.751295 0.432252
O O3 0.945504 0.758047 0.519943
O O4 0.102728 0.665983 0.163220
O O5 0.750383 0.744108 0.336088
O O6 0.810468 0.000000 0.358572
O O7 0.013578 0.815498 0.043602
O O8 0.579812 0.754830 0.378978
O O9 0.300459 0.786547 0.673018
O O10 0.430873 0.000000 0.608415
O O11 0.371609 0.753596 0.794658
O O12 0.696072 0.500000 0.290762
O O13 0.866089 0.699932 0.989279
O O14 0.220847 0.243711 0.186513
O O15 0.058565 0.235831 0.581478
O O16 0.076560 0.000000 0.425762
O O17 0.306647 0.500000 0.981839
O O18 0.049133 0.500000 0.687631
O O19 0.134526 0.270610 0.700426
O O20 0.172762 0.000000 0.729731
#
# Coordination Sequence:
#
# PCOD9130758 Si02
#       8
#     2   2   2   2   2   2   2   2
#     4   9  17  28  47  74 101 128 160 202 248 296
#     4  10  17  30  50  74 102 130 167 210 254 299
#     4  11  20  33  52  77 106 135 169 207 254 305
#     4  10  22  35  49  72 106 141 171 205 252 306
#     4  10  18  30  50  75 101 129 167 212 254 295
#     4   9  18  30  49  75 102 130 163 204 249 297
#     4  10  20  34  51  73 100 133 172 211 250 298
#     4   9  18  30  48  72  98 128 165 209 251 296
#
# _framework density 16.419208000000001
#
# number of rings (size 3 to 8) (size 9 to 14) (size 15 to 20)
#    0.750    1.500    1.250    3.000    0.000    3.000 
#    0.000    0.000    0.000    1.500    0.000    7.000 
#    0.000    0.000    0.000    0.000    0.000    0.000 
#
# Total GULP energy -89111.732158 kJ/mol
# GULP energy per Si atom -5569.483260 kJ/mol
# Density = 1.638184 g / cm^3
# Si number density = 16.419208 Si / 1000 Ang^3
#
#
#
# Elastic Constant Matrix: (Units=GPa)
#
#
# Indices 1 2 3 4 5 6 
#
# 1 89.0125 68.6035 40.3597 0.0000 8.2834 0.0000
# 2 68.6035 132.7521 47.4332 0.0000 14.7907 0.0000
# 3 40.3597 47.4332 42.5812 0.0000 2.1452 0.0000
# 4 0.0000 0.0000 0.0000 23.2879 0.0000 1.7477
# 5 8.2834 14.7907 2.1452 0.0000 30.2177 0.0000
# 6 0.0000 0.0000 0.0000 1.7477 0.0000 29.1121
#
#
#
# Elastic Compliance Matrix: (Units=1/GPa)
#
#
# Indices 1 2 3 4 5 6 
#
# 1 0.022975 -0.006471 -0.014462 0.000000 -0.002104 0.000000
# 2 -0.006471 0.015191 -0.010540 0.000000 -0.004913 0.000000
# 3 -0.014462 -0.010540 0.048647 0.000000 0.005670 0.000000
# 4 0.000000 0.000000 0.000000 0.043135 0.000000 -0.002589
# 5 -0.002104 -0.004913 0.005670 0.000000 0.035672 0.000000
# 6 0.000000 0.000000 0.000000 -0.002589 0.000000 0.034505
#
#
# Mechanical properties :
#
#
# Convention : Reuss Voigt Hill
#
# Bulk Modulus (GPa) = 41.89987 64.12651 53.01319
# Shear Modulus (GPa) = 18.44835 23.72016 21.08425
#
# Velocity S-wave (km/s) = 3.35563 3.80499 3.58735
# Velocity P-wave (km/s) = 6.37086 7.64490 7.03677
#
# Compressibility (1/GPa) = 0.02386642
#
# Stress axis : x y z
#
# Youngs Moduli (GPa) = 43.52596 65.83027 20.55616
#
# Poissons Ratio (x) = 0.42601 0.29727
# Poissons Ratio (y) = 0.28167 0.21667
# Poissons Ratio (z) = 0.62945 0.69387
#
# Static dielectric constant tensor:
#      x y z
#    x 1.540160 0.000000 -0.010200 
#    y 0.000000 1.549150 0.000000 
#    z -0.010200 0.000000 1.540640 
# 
# From -- ./inp_files/5341.got.cif
#   From: 2010.05.17/outbox.cif.g08.bks.cpg/sg6_3_cif.got.tgz:5341.got - 2010.06.03 19:42:10.
