data_PCOD9130390
_publ_section_title
;
Structure prediction by ZEFSAII (Michael W. Deem and Ramdas Pophale) SiO2 
 PCOD9130390
Probable space group: C 2
;
_chemical_formula_sum "Si O2"
_cell_formula_units_Z 24
_cell_length_a 26.992830
_cell_length_b 6.476947
_cell_length_c 15.224071
_cell_angle_alpha 90.000000
_cell_angle_beta 25.634741
_cell_angle_gamma 90.000000
_cell_volume 1151.512603
_symmetry_space_group_name_H-M "C 2"
_symmetry_group_IT_number 5
_symmetry_cell_setting 'monoclinic'
loop_
_space_group_symop_operation_xyz
x,y,z
-x,y,-z
1/2+x,1/2+y,z
1/2-x,1/2+y,-z
loop_
_atom_site_type_symbol
_atom_site_label
_atom_site_fract_x
_atom_site_fract_y
_atom_site_fract_z
Si Si1 0.809884 0.633470 0.794162
Si Si2 0.000000 0.154643 0.000000
Si Si3 0.860625 0.468228 0.524336
Si Si4 0.424585 0.037589 0.232386
Si Si5 0.000000 0.972722 0.500000
Si Si6 0.356209 0.269875 0.170347
Si Si7 0.916158 0.299535 0.758930
O O1 0.819214 0.591500 0.675814
O O2 0.890788 0.828095 0.682037
O O3 0.860282 0.443099 0.771720
O O4 0.684036 0.692038 0.026800
O O5 0.946998 0.306955 0.158809
O O6 0.907016 0.000142 0.105306
O O7 0.858719 0.554613 0.428767
O O8 0.770483 0.279489 0.665226
O O9 0.994643 0.426861 0.326159
O O10 0.358954 0.158324 0.260176
O O11 0.549487 0.147092 0.037067
O O12 0.995140 0.124351 0.589819
#
# Coordination Sequence:
#
# PCOD9130390 Si02
#       7
#     4   2   4   4   2   4   4
#     4  12  26  46  70 101 137 178 231 287 342 410
#     4   8  18  44  68  86 130 192 214 276 336 374
#     4  12  25  42  69 108 130 177 237 266 344 406
#     4   9  22  44  64  95 140 175 224 279 326 397
#     4  12  22  48  70  88 136 182 210 288 352 392
#     4   9  22  44  64  95 140 175 224 279 326 397
#     4  12  26  46  70 101 137 178 231 287 342 410
#
# _framework density 20.842151999999999
#
# number of rings (size 3 to 8) (size 9 to 14) (size 15 to 20)
#    0.000    1.667    5.000    0.000    4.667    4.000 
#    6.000    0.000    0.000    0.000    0.000    0.000 
#    0.000    0.000    0.000    0.000    0.000    0.000 
#
# Total GULP energy -66973.177677 kJ/mol
# GULP energy per Si atom -5581.098140 kJ/mol
# Density = 2.079471 g / cm^3
# Si number density = 20.842152 Si / 1000 Ang^3
#
#
#
# Elastic Constant Matrix: (Units=GPa)
#
#
# Indices 1 2 3 4 5 6 
#
# 1 -17.3972 29.0851 102.9165 0.0000 86.0766 0.0000
# 2 29.0851 87.2286 10.0687 0.0000 3.0845 0.0000
# 3 102.9165 10.0687 -6.1356 0.0000 -94.8799 0.0000
# 4 0.0000 0.0000 0.0000 56.3067 0.0000 8.8833
# 5 86.0766 3.0845 -94.8799 0.0000 -61.0027 0.0000
# 6 0.0000 0.0000 0.0000 8.8833 0.0000 15.5164
#
#
#
# Elastic Compliance Matrix: (Units=1/GPa)
#
#
# Indices 1 2 3 4 5 6 
#
# 1 0.011968 -0.004748 0.002797 0.000000 0.012297 0.000000
# 2 -0.004748 0.013353 -0.001537 0.000000 -0.003634 0.000000
# 3 0.002797 -0.001537 0.007740 0.000000 -0.008170 0.000000
# 4 0.000000 0.000000 0.000000 0.019523 0.000000 -0.011177
# 5 0.012297 -0.003634 -0.008170 0.000000 0.013481 0.000000
# 6 0.000000 0.000000 0.000000 -0.011177 0.000000 0.070847
#
#
# Mechanical properties :
#
#
# Convention : Reuss Voigt Hill
#
# Bulk Modulus (GPa) = 38.33737 38.64849 38.49293
# Shear Modulus (GPa) = 32.76885 -3.06089 14.85398
#
# Velocity S-wave (km/s) = 3.96945 -1.21318 2.67252
# Velocity P-wave (km/s) = 6.28035 4.07692 5.29453
#
# Compressibility (1/GPa) = 0.02608421
#
# Stress axis : x y z
#
# Youngs Moduli (GPa) = 83.55763 74.88813 129.19985
#
# Poissons Ratio (x) = 0.35558 -0.36135
# Poissons Ratio (y) = 0.39674 0.19859
# Poissons Ratio (z) = -0.23370 0.11511
#
# Static dielectric constant tensor:
#      x y z
#    x 1.737800 0.000000 -0.077810 
#    y 0.000000 1.784340 0.000000 
#    z -0.077810 0.000000 1.535000 
# 
# From -- ./inp_files/53911.got.cif
#   From: 2010.05.17/outbox.cif.g08.bks.cpg/sg5_27_cif.got.tgz:53911.got - 2010.06.03 18:56:24.
