data_PCOD9130026
_publ_section_title
;
Structure prediction by ZEFSAII (Michael W. Deem and Ramdas Pophale) SiO2 
 PCOD9130026
Probable space group: C 2
;
_chemical_formula_sum "Si O2"
_cell_formula_units_Z 22
_cell_length_a 12.504730
_cell_length_b 8.662878
_cell_length_c 9.600636
_cell_angle_alpha 90.000000
_cell_angle_beta 65.328093
_cell_angle_gamma 90.000000
_cell_volume 945.068397
_symmetry_space_group_name_H-M "C 2"
_symmetry_group_IT_number 5
_symmetry_cell_setting 'monoclinic'
loop_
_space_group_symop_operation_xyz
x,y,z
-x,y,-z
1/2+x,1/2+y,z
1/2-x,1/2+y,-z
loop_
_atom_site_type_symbol
_atom_site_label
_atom_site_fract_x
_atom_site_fract_y
_atom_site_fract_z
Si Si1 0.192565 0.791240 0.941038
Si Si2 0.165220 0.436845 0.481644
Si Si3 0.000000 0.061672 0.000000
Si Si4 0.100565 0.627999 0.240208
Si Si5 0.860134 0.696992 0.307237
Si Si6 0.967295 0.304096 0.776275
O O1 0.126822 0.686085 0.864452
O O2 0.329363 0.771215 0.821352
O O3 0.115707 0.951220 0.965968
O O4 0.187915 0.729039 0.101120
O O5 0.193883 0.546261 0.595287
O O6 0.276112 0.338787 0.381123
O O7 0.864325 0.549908 0.633150
O O8 0.059826 0.328159 0.599089
O O9 0.012776 0.177970 0.861241
O O10 0.053892 0.483965 0.170977
O O11 0.983093 0.727354 0.316940
#
# Coordination Sequence:
#
# PCOD9130026 Si02
#       6
#     4   4   2   4   4   4
#     4  12  25  48  75 109 148 193 255 308 370 446
#     4  11  27  48  74 108 150 200 249 302 378 446
#     4  12  28  46  74 116 146 190 258 308 366 444
#     4  11  24  48  73 102 149 196 243 314 372 441
#     4  11  24  45  74 103 150 194 248 307 373 442
#     4  11  26  44  77 107 151 193 248 313 365 445
#
# _framework density 23.278739999999999
#
# number of rings (size 3 to 8) (size 9 to 14) (size 15 to 20)
#    0.000    0.727    3.636    3.273    7.636    0.000 
#    3.273    0.000    0.000    0.000    0.000    0.000 
#    0.000    0.000    0.000    0.000    0.000    0.000 
#
# Total GULP energy -61255.227348 kJ/mol
# GULP energy per Si atom -5568.657032 kJ/mol
# Density = 2.322576 g / cm^3
# Si number density = 23.278740 Si / 1000 Ang^3
#
#
#
# Elastic Constant Matrix: (Units=GPa)
#
#
# Indices 1 2 3 4 5 6 
#
# 1 98.1476 57.1005 41.5301 0.0000 -1.3986 0.0000
# 2 57.1005 68.0771 64.1712 0.0000 17.2087 0.0000
# 3 41.5301 64.1712 115.1122 0.0000 18.2607 0.0000
# 4 0.0000 0.0000 0.0000 59.5327 0.0000 3.4674
# 5 -1.3986 17.2087 18.2607 0.0000 26.9818 0.0000
# 6 0.0000 0.0000 0.0000 3.4674 0.0000 44.9692
#
#
#
# Elastic Compliance Matrix: (Units=1/GPa)
#
#
# Indices 1 2 3 4 5 6 
#
# 1 0.027021 -0.032405 0.005394 0.000000 0.018417 0.000000
# 2 -0.032405 0.071916 -0.023366 0.000000 -0.031734 0.000000
# 3 0.005394 -0.023366 0.019446 0.000000 0.002021 0.000000
# 4 0.000000 0.000000 0.000000 0.016873 0.000000 -0.001301
# 5 0.018417 -0.031734 0.002021 0.000000 0.056888 0.000000
# 6 0.000000 0.000000 0.000000 -0.001301 0.000000 0.022338
#
#
# Mechanical properties :
#
#
# Convention : Reuss Voigt Hill
#
# Bulk Modulus (GPa) = 56.71930 67.43783 62.07857
# Shear Modulus (GPa) = 15.57090 34.19907 24.88498
#
# Velocity S-wave (km/s) = 2.58909 3.83706 3.27310
# Velocity P-wave (km/s) = 5.77547 6.97591 6.40388
#
# Compressibility (1/GPa) = 0.01763068
#
# Stress axis : x y z
#
# Youngs Moduli (GPa) = 37.00800 13.90509 51.42432
#
# Poissons Ratio (x) = 0.45059 -0.27740
# Poissons Ratio (y) = 1.19923 1.20157
# Poissons Ratio (z) = -0.19963 0.32490
#
# Static dielectric constant tensor:
#      x y z
#    x 2.037960 0.000000 -0.066860 
#    y 0.000000 1.927160 0.000000 
#    z -0.066860 0.000000 1.964800 
# 
# From -- ./inp_files/38067.got.cif
#   From: 2010.05.17/outbox.cif.g08.bks.cpg/sg5_20_cif.got.tgz:38067.got - 2010.06.03 18:56:24.
