data_PCOD9130510
_publ_section_title
;
Structure prediction by ZEFSAII (Michael W. Deem and Ramdas Pophale) SiO2 
 PCOD9130510
Probable space group: C 2
;
_chemical_formula_sum "Si O2"
_cell_formula_units_Z 14
_cell_length_a 4.876861
_cell_length_b 13.999417
_cell_length_c 7.997996
_cell_angle_alpha 90.000000
_cell_angle_beta 113.308829
_cell_angle_gamma 90.000000
_cell_volume 501.483317
_symmetry_space_group_name_H-M "C 2"
_symmetry_group_IT_number 5
_symmetry_cell_setting 'monoclinic'
loop_
_space_group_symop_operation_xyz
x,y,z
-x,y,-z
1/2+x,1/2+y,z
1/2-x,1/2+y,-z
loop_
_atom_site_type_symbol
_atom_site_label
_atom_site_fract_x
_atom_site_fract_y
_atom_site_fract_z
Si Si1 0.746180 0.741770 0.707715
Si Si2 0.000000 0.986949 0.500000
Si Si3 0.928709 0.424151 0.170285
Si Si4 0.303454 0.615313 0.758829
O O1 0.500000 0.745212 0.500000
O O2 0.777684 0.847603 0.787224
O O3 0.607053 0.676922 0.824195
O O4 0.041937 0.692630 0.711019
O O5 0.159582 0.054629 0.403279
O O6 0.262024 0.929412 0.652090
O O7 0.787375 0.529810 0.139019
O O8 0.000000 0.395828 0.000000
#
# Coordination Sequence:
#
# PCOD9130510 Si02
#       4
#     4   2   4   4
#     4  12  25  46  81 113 157 209 261 321 396 472
#     4  12  24  56  86 110 162 214 260 338 396 464
#     4  12  30  50  80 119 162 205 266 326 400 473
#     4  12  26  50  81 116 155 208 264 325 397 464
#
# _framework density 27.917183000000001
#
# number of rings (size 3 to 8) (size 9 to 14) (size 15 to 20)
#    0.000    0.000    4.286    5.143    8.000    3.429 
#    0.000    0.000    0.000    0.000    0.000    0.000 
#    0.000    0.000    0.000    0.000    0.000    0.000 
#
# Total GULP energy -39339.235267 kJ/mol
# GULP energy per Si atom -5619.890752 kJ/mol
# Density = 2.785364 g / cm^3
# Si number density = 27.917183 Si / 1000 Ang^3
#
#
#
# Elastic Constant Matrix: (Units=GPa)
#
#
# Indices 1 2 3 4 5 6 
#
# 1 206.4845 64.7811 41.8819 0.0000 -13.3827 0.0000
# 2 64.7811 187.8269 34.0343 0.0000 -14.5658 0.0000
# 3 41.8819 34.0343 97.9408 0.0000 11.0706 0.0000
# 4 0.0000 0.0000 0.0000 39.4148 0.0000 -26.4814
# 5 -13.3827 -14.5658 11.0706 0.0000 48.3721 0.0000
# 6 0.0000 0.0000 0.0000 -26.4814 0.0000 53.2725
#
#
#
# Elastic Compliance Matrix: (Units=1/GPa)
#
#
# Indices 1 2 3 4 5 6 
#
# 1 0.005862 -0.001498 -0.002175 0.000000 0.001668 0.000000
# 2 -0.001498 0.006307 -0.001764 0.000000 0.001888 0.000000
# 3 -0.002175 -0.001764 0.012197 0.000000 -0.003924 0.000000
# 4 0.000000 0.000000 0.000000 0.038094 0.000000 0.018936
# 5 0.001668 0.001888 -0.003924 0.000000 0.022601 0.000000
# 6 0.000000 0.000000 0.000000 0.018936 0.000000 0.028184
#
#
# Mechanical properties :
#
#
# Convention : Reuss Voigt Hill
#
# Bulk Modulus (GPa) = 74.12271 85.96078 80.04175
# Shear Modulus (GPa) = 38.87478 51.64886 45.26182
#
# Velocity S-wave (km/s) = 3.73567 4.30592 4.03089
# Velocity P-wave (km/s) = 6.72425 7.45516 7.09912
#
# Compressibility (1/GPa) = 0.01349114
#
# Stress axis : x y z
#
# Youngs Moduli (GPa) = 170.58034 158.55375 81.98795
#
# Poissons Ratio (x) = 0.23759 0.17830
# Poissons Ratio (y) = 0.25561 0.14466
# Poissons Ratio (z) = 0.37097 0.27974
#
# Static dielectric constant tensor:
#      x y z
#    x 2.087050 0.000000 0.061390 
#    y 0.000000 2.114360 0.000000 
#    z 0.061390 0.000000 2.306870 
# 
# From -- ./inp_files/11632.got.cif
#   From: 2010.05.17/outbox.cif.g08.bks.cpg/sg5_6_cif.got.tgz:11632.got - 2010.06.03 18:56:24.
