data_PCOD9130456
_publ_section_title
;
Structure prediction by ZEFSAII (Michael W. Deem and Ramdas Pophale) SiO2 
 PCOD9130456
Probable space group: C 2
;
_chemical_formula_sum "Si O2"
_cell_formula_units_Z 26
_cell_length_a 27.352011
_cell_length_b 8.283073
_cell_length_c 5.186237
_cell_angle_alpha 90.000000
_cell_angle_beta 85.997578
_cell_angle_gamma 90.000000
_cell_volume 1172.121457
_symmetry_space_group_name_H-M "C 2"
_symmetry_group_IT_number 5
_symmetry_cell_setting 'monoclinic'
loop_
_space_group_symop_operation_xyz
x,y,z
-x,y,-z
1/2+x,1/2+y,z
1/2-x,1/2+y,-z
loop_
_atom_site_type_symbol
_atom_site_label
_atom_site_fract_x
_atom_site_fract_y
_atom_site_fract_z
Si Si1 0.549239 0.272280 0.085423
Si Si2 0.186800 0.664795 0.682036
Si Si3 0.000000 0.528356 0.500000
Si Si4 0.152687 0.841112 0.205161
Si Si5 0.341822 0.821036 0.066388
Si Si6 0.697803 0.664376 0.420366
Si Si7 0.944458 0.432931 0.124494
O O1 0.528020 0.154411 0.309798
O O2 0.595457 0.371585 0.161637
O O3 0.500000 0.358478 0.000000
O O4 0.567495 0.126414 0.890258
O O5 0.157132 0.708787 0.432723
O O6 0.175199 0.489398 0.801591
O O7 0.243782 0.672573 0.585160
O O8 0.176293 0.783532 0.927321
O O9 0.043859 0.413771 0.580097
O O10 0.179907 0.994777 0.311652
O O11 0.324751 0.692929 0.288478
O O12 0.400683 0.831179 0.032040
O O13 0.319872 0.790681 0.792639
O O14 0.000000 0.406324 0.000000
#
# Coordination Sequence:
#
# PCOD9130456 Si02
#       7
#     4   4   2   4   4   4   4
#     4   9  19  36  63  98 123 166 222 278 308 394
#     4  12  24  44  72  95 127 182 237 264 317 398
#     4   8  16  32  62  94 126 146 236 268 316 346
#     4  12  25  44  70  99 133 177 220 273 340 387
#     4  12  25  44  69  99 134 176 220 274 340 387
#     4  12  27  43  63 100 145 170 214 282 338 394
#     4   9  19  35  64  98 123 166 222 278 310 393
#
# _framework density 22.181999000000001
#
# number of rings (size 3 to 8) (size 9 to 14) (size 15 to 20)
#    0.000    1.538    1.538    5.538    6.462    0.000 
#    0.000    0.769    0.000    0.000    0.000    0.000 
#    0.000    0.000    0.000    0.000    0.000    0.000 
#
# Total GULP energy -72483.363222 kJ/mol
# GULP energy per Si atom -5575.643325 kJ/mol
# Density = 2.213151 g / cm^3
# Si number density = 22.181999 Si / 1000 Ang^3
#
#
#
# Elastic Constant Matrix: (Units=GPa)
#
#
# Indices 1 2 3 4 5 6 
#
# 1 133.1326 1.1897 18.0959 0.0000 14.0653 0.0000
# 2 1.1897 33.8603 -8.8971 0.0000 -2.2909 0.0000
# 3 18.0959 -8.8971 64.8852 0.0000 2.5330 0.0000
# 4 0.0000 0.0000 0.0000 -4.2803 0.0000 -82.4260
# 5 14.0653 -2.2909 2.5330 0.0000 31.7330 0.0000
# 6 0.0000 0.0000 0.0000 -82.4260 0.0000 -170.6975
#
#
#
# Elastic Compliance Matrix: (Units=1/GPa)
#
#
# Indices 1 2 3 4 5 6 
#
# 1 0.008209 -0.001134 -0.002307 0.000000 -0.003536 0.000000
# 2 -0.001134 0.030906 0.004461 0.000000 0.002378 0.000000
# 3 -0.002307 0.004461 0.016666 0.000000 0.000014 0.000000
# 4 0.000000 0.000000 0.000000 0.028152 0.000000 -0.013594
# 5 -0.003536 0.002378 0.000014 0.000000 0.033251 0.000000
# 6 0.000000 0.000000 0.000000 -0.013594 0.000000 0.000706
#
#
# Mechanical properties :
#
#
# Convention : Reuss Voigt Hill
#
# Bulk Modulus (GPa) = 17.29432 28.07279 22.68355
# Shear Modulus (GPa) = 37.00351 -13.88299 11.56026
#
# Velocity S-wave (km/s) = 4.08876 -2.50445 2.28536
# Velocity P-wave (km/s) = 5.48672 2.07849 4.14875
#
# Compressibility (1/GPa) = 0.05782247
#
# Stress axis : x y z
#
# Youngs Moduli (GPa) = 121.82404 32.35612 60.00119
#
# Poissons Ratio (x) = 0.03668 0.13841
# Poissons Ratio (y) = 0.13812 -0.26768
# Poissons Ratio (z) = 0.28101 -0.14435
#
# Static dielectric constant tensor:
#      x y z
#    x 1.847240 0.000000 -0.034940 
#    y 0.000000 1.840730 0.000000 
#    z -0.034940 0.000000 2.422040 
# 
# From -- ./inp_files/10806.got.cif
#   From: 2010.05.17/outbox.cif.g08.bks.cpg/sg5_6_cif.got.tgz:10806.got - 2010.06.03 18:56:24.
