data_PCOD9130494
_publ_section_title
;
Structure prediction by ZEFSAII (Michael W. Deem and Ramdas Pophale) SiO2 
 PCOD9130494
Probable space group: C 2
;
_chemical_formula_sum "Si O2"
_cell_formula_units_Z 20
_cell_length_a 7.447371
_cell_length_b 11.754370
_cell_length_c 10.198990
_cell_angle_alpha 90.000000
_cell_angle_beta 115.354952
_cell_angle_gamma 90.000000
_cell_volume 806.808495
_symmetry_space_group_name_H-M "C 2"
_symmetry_group_IT_number 5
_symmetry_cell_setting 'monoclinic'
loop_
_space_group_symop_operation_xyz
x,y,z
-x,y,-z
1/2+x,1/2+y,z
1/2-x,1/2+y,-z
loop_
_atom_site_type_symbol
_atom_site_label
_atom_site_fract_x
_atom_site_fract_y
_atom_site_fract_z
Si Si1 0.844830 0.001420 0.054640
Si Si2 0.978358 0.381350 0.224552
Si Si3 0.000000 0.234767 0.500000
Si Si4 0.904800 0.605802 0.596953
Si Si5 0.000000 0.667498 0.000000
Si Si6 0.627884 0.304445 0.785134
O O1 0.286872 0.912403 0.075046
O O2 0.944014 0.932084 0.204634
O O3 0.695675 0.090698 0.069236
O O4 0.000000 0.052058 0.000000
O O5 0.061281 0.506833 0.286580
O O6 0.142852 0.319251 0.185279
O O7 0.953370 0.309220 0.352261
O O8 0.816311 0.152346 0.474361
O O9 0.000000 0.548828 0.500000
O O10 0.032808 0.721339 0.650994
O O11 0.049812 0.740341 0.889453
#
# Coordination Sequence:
#
# PCOD9130494 Si02
#       6
#     4   4   2   4   2   4
#     4  12  25  47  77 113 156 202 247 316 379 454
#     4  12  26  51  76 112 156 195 261 309 376 458
#     4  12  28  46  80 108 150 206 244 314 386 440
#     4  12  26  51  77 112 149 201 255 311 378 454
#     4  12  26  48  72 112 150 196 254 304 384 440
#     4  12  24  50  76 106 157 195 250 315 372 451
#
# _framework density 24.789031000000001
#
# number of rings (size 3 to 8) (size 9 to 14) (size 15 to 20)
#    0.000    0.000    8.000    1.200    0.000    3.200 
#   10.800    0.000    0.000    0.000    0.000    0.000 
#    0.000    0.000    0.000    0.000    0.000    0.000 
#
# Total GULP energy -55876.541509 kJ/mol
# GULP energy per Si atom -5587.654151 kJ/mol
# Density = 2.473261 g / cm^3
# Si number density = 24.789031 Si / 1000 Ang^3
#
#
#
# Elastic Constant Matrix: (Units=GPa)
#
#
# Indices 1 2 3 4 5 6 
#
# 1 145.8810 51.4402 39.5793 0.0000 -31.6439 0.0000
# 2 51.4402 100.4257 22.3318 0.0000 -2.9234 0.0000
# 3 39.5793 22.3318 119.1358 0.0000 -37.7573 0.0000
# 4 0.0000 0.0000 0.0000 77.0014 0.0000 39.6295
# 5 -31.6439 -2.9234 -37.7573 0.0000 53.1715 0.0000
# 6 0.0000 0.0000 0.0000 39.6295 0.0000 113.7986
#
#
#
# Elastic Compliance Matrix: (Units=1/GPa)
#
#
# Indices 1 2 3 4 5 6 
#
# 1 0.009819 -0.004708 -0.000787 0.000000 0.005026 0.000000
# 2 -0.004708 0.012694 -0.001913 0.000000 -0.003462 0.000000
# 3 -0.000787 -0.001913 0.011397 0.000000 0.007520 0.000000
# 4 0.000000 0.000000 0.000000 0.015823 0.000000 -0.005510
# 5 0.005026 -0.003462 0.007520 0.000000 0.026948 0.000000
# 6 0.000000 0.000000 0.000000 -0.005510 0.000000 0.010706
#
#
# Mechanical properties :
#
#
# Convention : Reuss Voigt Hill
#
# Bulk Modulus (GPa) = 52.37041 65.79391 59.08216
# Shear Modulus (GPa) = 46.05533 65.60036 55.82785
#
# Velocity S-wave (km/s) = 4.31500 5.14985 4.75080
# Velocity P-wave (km/s) = 6.78218 7.87149 7.34705
#
# Compressibility (1/GPa) = 0.01909475
#
# Stress axis : x y z
#
# Youngs Moduli (GPa) = 101.84647 78.77903 87.74420
#
# Poissons Ratio (x) = 0.37090 0.06902
# Poissons Ratio (y) = 0.47951 0.16781
# Poissons Ratio (z) = 0.08011 0.15067
#
# Static dielectric constant tensor:
#      x y z
#    x 1.949340 0.000000 -0.034190 
#    y 0.000000 1.978550 0.000000 
#    z -0.034190 0.000000 1.915060 
# 
# From -- ./inp_files/34992.got.cif
#   From: 2010.05.17/outbox.cif.g08.bks.cpg/sg5_18_cif.got.tgz:34992.got - 2010.06.03 18:56:24.
