data_PCOD9130701
_publ_section_title
;
Structure prediction by ZEFSAII (Michael W. Deem and Ramdas Pophale) SiO2 
 PCOD9130701
Probable space group: C 2
;
_chemical_formula_sum "Si O2"
_cell_formula_units_Z 14
_cell_length_a 27.000000
_cell_length_b 9.000000
_cell_length_c 9.000000
_cell_angle_alpha 90.000000
_cell_angle_beta 40.000000
_cell_angle_gamma 90.000000
_cell_volume 1405.776502
_symmetry_space_group_name_H-M "C 2"
_symmetry_group_IT_number 5
_symmetry_cell_setting 'monoclinic'
loop_
_space_group_symop_operation_xyz
x,y,z
-x,y,-z
1/2+x,1/2+y,z
1/2-x,1/2+y,-z
loop_
_atom_site_type_symbol
_atom_site_label
_atom_site_fract_x
_atom_site_fract_y
_atom_site_fract_z
Si Si1 0.742514 0.346860 0.750526
Si Si2 0.727723 0.534644 0.490155
Si Si3 0.936942 0.965336 0.269183
Si Si4 0.389100 0.941386 0.606163
Si Si5 0.657407 0.272515 0.265532
Si Si6 0.314974 0.810484 0.071178
Si Si7 0.018588 0.203939 0.287369
O O1 0.731071 0.482654 0.656796
O O2 0.745309 0.196135 0.640287
O O3 0.825784 0.378465 0.634842
O O4 0.684123 0.324657 0.032840
O O5 0.638759 0.516088 0.646786
O O6 0.780869 0.415586 0.278076
O O7 0.981862 0.096838 0.249479
O O8 0.895323 0.878044 0.505947
O O9 0.000000 0.902201 0.000000
O O10 0.388747 0.118390 0.617829
O O11 0.470560 0.859769 0.390487
O O12 0.355658 0.898643 0.843788
O O13 0.739171 0.243636 0.163686
O O14 0.389456 0.715645 0.950154
O O15 0.000000 0.150371 0.500000
#
# Coordination Sequence:
#
# PCOD9130701 Si02
#       7
#     4   4   4   4   4   4   4
#     4  11  24  41  71 103 140 187 234 287 345 418
#     4  11  24  44  65 106 139 185 234 285 343 414
#     4  11  26  46  67 101 145 178 230 293 353 416
#     4  10  20  42  70  98 135 178 232 287 346 409
#     4  10  23  45  71 100 136 182 232 290 351 407
#     4   9  21  39  70  98 132 175 233 283 338 419
#     4  10  22  41  70 100 134 184 228 282 350 417
#
# _framework density 9.9589090000000002
#
# number of rings (size 3 to 8) (size 9 to 14) (size 15 to 20)
#    0.000    1.714    2.857    0.000    6.000    1.143 
#    2.571    2.857    0.000    0.000    0.000    0.000 
#    0.000    0.000    0.000    0.000    0.000    0.000 
#
# Total GULP energy -77968.688262 kJ/mol
# GULP energy per Si atom -5569.192019 kJ/mol
# Density = 0.993624 g / cm^3
# Si number density = 9.958909 Si / 1000 Ang^3
#
#
#
# Elastic Constant Matrix: (Units=GPa)
#
#
# Indices 1 2 3 4 5 6 
#
# 1 120.4527 38.4007 51.4311 0.0000 8.5232 0.0000
# 2 38.4007 58.4692 45.6628 0.0000 11.7838 0.0000
# 3 51.4311 45.6628 150.2882 0.0000 0.7694 0.0000
# 4 0.0000 0.0000 0.0000 33.6555 0.0000 5.2354
# 5 8.5232 11.7838 0.7694 0.0000 43.1561 0.0000
# 6 0.0000 0.0000 0.0000 5.2354 0.0000 35.5072
#
#
#
# Elastic Compliance Matrix: (Units=1/GPa)
#
#
# Indices 1 2 3 4 5 6 
#
# 1 0.010979 -0.005440 -0.002101 0.000000 -0.000646 0.000000
# 2 -0.005440 0.026789 -0.006247 0.000000 -0.006129 0.000000
# 3 -0.002101 -0.006247 0.009261 0.000000 0.001955 0.000000
# 4 0.000000 0.000000 0.000000 0.030410 0.000000 -0.004484
# 5 -0.000646 -0.006129 0.001955 0.000000 0.024938 0.000000
# 6 0.000000 0.000000 0.000000 -0.004484 0.000000 0.028824
#
#
# Mechanical properties :
#
#
# Convention : Reuss Voigt Hill
#
# Bulk Modulus (GPa) = 51.40228 66.68882 59.04555
# Shear Modulus (GPa) = 30.25510 35.37813 32.81662
#
# Velocity S-wave (km/s) = 3.90166 4.21908 4.06347
# Velocity P-wave (km/s) = 6.79415 7.56894 7.19199
#
# Compressibility (1/GPa) = 0.01945439
#
# Stress axis : x y z
#
# Youngs Moduli (GPa) = 91.08286 37.32832 107.98139
#
# Poissons Ratio (x) = 0.20305 0.22688
# Poissons Ratio (y) = 0.49546 0.67452
# Poissons Ratio (z) = 0.19138 0.23318
#
# Static dielectric constant tensor:
#      x y z
#    x 1.732780 0.000000 0.023450 
#    y 0.000000 1.778510 0.000000 
#    z 0.023450 0.000000 1.691800 
# 
# From -- ./inp_files/31727.got.cif
#   From: 2010.05.17/outbox.ucp.g08.bks.cvg/sg5_16_cif.got.tgz:31727.got - 2010.06.11 12:53:14.
