data_PCOD9130545
_publ_section_title
;
Structure prediction by ZEFSAII (Michael W. Deem and Ramdas Pophale) SiO2 
 PCOD9130545
Probable space group: C 2
;
_chemical_formula_sum "Si O2"
_cell_formula_units_Z 24
_cell_length_a 17.836402
_cell_length_b 9.191811
_cell_length_c 13.269655
_cell_angle_alpha 90.000000
_cell_angle_beta 151.586866
_cell_angle_gamma 90.000000
_cell_volume 1035.180285
_symmetry_space_group_name_H-M "C 2"
_symmetry_group_IT_number 5
_symmetry_cell_setting 'monoclinic'
loop_
_space_group_symop_operation_xyz
x,y,z
-x,y,-z
1/2+x,1/2+y,z
1/2-x,1/2+y,-z
loop_
_atom_site_type_symbol
_atom_site_label
_atom_site_fract_x
_atom_site_fract_y
_atom_site_fract_z
Si Si1 0.181390 0.732650 0.703196
Si Si2 0.137682 0.768719 0.089794
Si Si3 0.685990 0.806934 0.342039
Si Si4 0.370273 0.961647 0.004447
Si Si5 0.314610 0.515112 0.021661
Si Si6 0.149858 0.120028 0.495219
O O1 0.252857 0.707952 0.677454
O O2 0.000000 0.698693 0.500000
O O3 0.213045 0.901721 0.765462
O O4 0.263430 0.642918 0.887528
O O5 0.288726 0.712116 0.334539
O O6 0.078049 0.617837 0.972304
O O7 0.158502 0.879514 0.021995
O O8 0.000000 0.826712 0.000000
O O9 0.502969 0.850166 0.125378
O O10 0.705948 0.722625 0.469457
O O11 0.771010 0.962258 0.430042
O O12 0.325314 0.972283 0.067685
O O13 0.464659 0.577762 0.261856
#
# Coordination Sequence:
#
# PCOD9130545 Si02
#       6
#     4   4   4   4   4   4
#     4  12  27  50  77 107 153 200 256 320 394 462
#     4  12  26  49  78 112 155 204 261 321 392 470
#     4  12  27  49  77 110 151 201 254 322 390 467
#     4  12  25  52  73 109 150 199 253 318 390 467
#     4  12  30  47  77 115 156 198 264 322 390 473
#     4  12  27  47  79 111 154 206 261 322 394 466
#
# _framework density 23.184367000000002
#
# number of rings (size 3 to 8) (size 9 to 14) (size 15 to 20)
#    0.000    0.000    5.000    3.500    7.000    0.000 
#    0.000    0.000    0.000    0.000    0.000    0.000 
#    0.000    0.000    0.000    0.000    0.000    0.000 
#
# Total GULP energy -67068.270683 kJ/mol
# GULP energy per Si atom -5589.022557 kJ/mol
# Density = 2.313160 g / cm^3
# Si number density = 23.184367 Si / 1000 Ang^3
#
#
#
# Elastic Constant Matrix: (Units=GPa)
#
#
# Indices 1 2 3 4 5 6 
#
# 1 130.7114 13.5034 16.5420 0.0000 4.4595 0.0000
# 2 13.5034 44.1949 17.3267 0.0000 -2.9582 0.0000
# 3 16.5420 17.3267 118.8932 0.0000 8.9837 0.0000
# 4 0.0000 0.0000 0.0000 11.4664 0.0000 -15.3369
# 5 4.4595 -2.9582 8.9837 0.0000 29.7617 0.0000
# 6 0.0000 0.0000 0.0000 -15.3369 0.0000 40.8036
#
#
#
# Elastic Compliance Matrix: (Units=1/GPa)
#
#
# Indices 1 2 3 4 5 6 
#
# 1 0.008013 -0.002258 -0.000694 0.000000 -0.001216 0.000000
# 2 -0.002258 0.025000 -0.003625 0.000000 0.003918 0.000000
# 3 -0.000694 -0.003625 0.009267 0.000000 -0.003053 0.000000
# 4 0.000000 0.000000 0.000000 0.175387 0.000000 0.065923
# 5 -0.001216 0.003918 -0.003053 0.000000 0.035093 0.000000
# 6 0.000000 0.000000 0.000000 0.065923 0.000000 0.049286
#
#
# Mechanical properties :
#
#
# Convention : Reuss Voigt Hill
#
# Bulk Modulus (GPa) = 34.33349 43.17152 38.75250
# Shear Modulus (GPa) = 15.38894 32.83483 24.11189
#
# Velocity S-wave (km/s) = 2.57916 3.76739 3.22841
# Velocity P-wave (km/s) = 4.86934 6.13072 5.53607
#
# Compressibility (1/GPa) = 0.02912608
#
# Stress axis : x y z
#
# Youngs Moduli (GPa) = 124.79769 39.99940 107.91537
#
# Poissons Ratio (x) = 0.09030 0.07489
# Poissons Ratio (y) = 0.28174 0.39123
# Poissons Ratio (z) = 0.08661 0.14501
#
# Static dielectric constant tensor:
#      x y z
#    x 1.876580 0.000000 -0.019810 
#    y 0.000000 1.881000 0.000000 
#    z -0.019810 0.000000 1.972300 
# 
# From -- ./inp_files/55802.got.cif
#   From: 2010.05.17/outbox.cif.g08.bks.cpg/sg5_28_cif.got.tgz:55802.got - 2010.06.03 18:56:24.
