data_PCOD9130092
_publ_section_title
;
Structure prediction by ZEFSAII (Michael W. Deem and Ramdas Pophale) SiO2 
 PCOD9130092
Probable space group: C 2
;
_chemical_formula_sum "Si O2"
_cell_formula_units_Z 16
_cell_length_a 9.956454
_cell_length_b 12.178477
_cell_length_c 5.507005
_cell_angle_alpha 90.000000
_cell_angle_beta 71.339787
_cell_angle_gamma 90.000000
_cell_volume 632.647079
_symmetry_space_group_name_H-M "C 2"
_symmetry_group_IT_number 5
_symmetry_cell_setting 'monoclinic'
loop_
_space_group_symop_operation_xyz
x,y,z
-x,y,-z
1/2+x,1/2+y,z
1/2-x,1/2+y,-z
loop_
_atom_site_type_symbol
_atom_site_label
_atom_site_fract_x
_atom_site_fract_y
_atom_site_fract_z
Si Si1 0.843420 0.033090 0.689225
Si Si2 0.044311 0.588954 0.717691
Si Si3 0.584009 0.744891 0.193668
Si Si4 0.378686 0.319039 0.906294
O O1 0.714106 0.086907 0.617819
O O2 0.861485 0.119333 0.898957
O O3 0.000000 0.037733 0.500000
O O4 0.824607 0.904332 0.738924
O O5 0.000000 0.528941 0.500000
O O6 0.957197 0.706025 0.775076
O O7 0.000000 0.537251 0.000000
O O8 0.500000 0.753360 0.500000
O O9 0.500000 0.780365 0.000000
O O10 0.736343 0.801203 0.139422
O O11 0.500000 0.374430 0.000000
#
# Coordination Sequence:
#
# PCOD9130092 Si02
#       4
#     4   4   4   4
#     4  11  25  46  79 113 149 205 256 311 381 456
#     4  11  25  47  76 108 156 200 247 318 378 447
#     4  11  26  47  75 109 156 197 253 318 375 450
#     4  11  24  48  78 112 155 202 256 309 390 447
#
# _framework density 25.290558999999998
#
# number of rings (size 3 to 8) (size 9 to 14) (size 15 to 20)
#    0.000    1.000    5.000    1.500    7.000    5.000 
#    0.000    2.500    0.000    0.000    0.000    0.000 
#    0.000    0.000    0.000    0.000    0.000    0.000 
#
# Total GULP energy -44536.412643 kJ/mol
# GULP energy per Si atom -5567.051580 kJ/mol
# Density = 2.523300 g / cm^3
# Si number density = 25.290559 Si / 1000 Ang^3
#
#
#
# Elastic Constant Matrix: (Units=GPa)
#
#
# Indices 1 2 3 4 5 6 
#
# 1 208.6765 40.8945 84.1019 0.0000 -22.2255 0.0000
# 2 40.8945 93.2595 16.9382 0.0000 -13.4289 0.0000
# 3 84.1019 16.9382 142.3192 0.0000 -2.6125 0.0000
# 4 0.0000 0.0000 0.0000 243.2918 0.0000 20.6929
# 5 -22.2255 -13.4289 -2.6125 0.0000 56.9423 0.0000
# 6 0.0000 0.0000 0.0000 20.6929 0.0000 48.0315
#
#
#
# Elastic Compliance Matrix: (Units=1/GPa)
#
#
# Indices 1 2 3 4 5 6 
#
# 1 0.006958 -0.002060 -0.003829 0.000000 0.002054 0.000000
# 2 -0.002060 0.011945 -0.000168 0.000000 0.002005 0.000000
# 3 -0.003829 -0.000168 0.009289 0.000000 -0.001108 0.000000
# 4 0.000000 0.000000 0.000000 0.004267 0.000000 -0.001838
# 5 0.002054 0.002005 -0.001108 0.000000 0.018786 0.000000
# 6 0.000000 0.000000 0.000000 -0.001838 0.000000 0.021612
#
#
# Mechanical properties :
#
#
# Convention : Reuss Voigt Hill
#
# Bulk Modulus (GPa) = 62.19207 80.90273 71.54740
# Shear Modulus (GPa) = 55.35443 89.80784 72.58113
#
# Velocity S-wave (km/s) = 4.68347 5.96553 5.36295
# Velocity P-wave (km/s) = 7.34105 8.91677 8.16700
#
# Compressibility (1/GPa) = 0.01607922
#
# Stress axis : x y z
#
# Youngs Moduli (GPa) = 143.72787 83.71568 107.65904
#
# Poissons Ratio (x) = 0.17243 0.41219
# Poissons Ratio (y) = 0.29604 0.01805
# Poissons Ratio (z) = 0.55029 0.01404
#
# Static dielectric constant tensor:
#      x y z
#    x 1.056050 0.000000 1.374780 
#    y 0.000000 2.251490 0.000000 
#    z 1.374780 0.000000 0.091820 
# 
# From -- ./inp_files/1873.got.cif
#   From: 2010.05.17/outbox.cif.g08.bks.cpg/sg5_1_cif.got.tgz:1873.got - 2010.06.03 18:56:24.
