data_PCOD9130291
_publ_section_title
;
Structure prediction by ZEFSAII (Michael W. Deem and Ramdas Pophale) SiO2 
 PCOD9130291
Probable space group: C 2
;
_chemical_formula_sum "Si O2"
_cell_formula_units_Z 26
_cell_length_a 29.371491
_cell_length_b 4.792407
_cell_length_c 8.601991
_cell_angle_alpha 90.000000
_cell_angle_beta 56.320195
_cell_angle_gamma 90.000000
_cell_volume 1007.581300
_symmetry_space_group_name_H-M "C 2"
_symmetry_group_IT_number 5
_symmetry_cell_setting 'monoclinic'
loop_
_space_group_symop_operation_xyz
x,y,z
-x,y,-z
1/2+x,1/2+y,z
1/2-x,1/2+y,-z
loop_
_atom_site_type_symbol
_atom_site_label
_atom_site_fract_x
_atom_site_fract_y
_atom_site_fract_z
Si Si1 0.431926 0.152080 0.238179
Si Si2 0.112273 0.025076 0.243718
Si Si3 0.219207 0.357979 0.979821
Si Si4 0.743640 0.614544 0.410175
Si Si5 0.951610 0.648775 0.863595
Si Si6 0.370992 0.640981 0.468513
Si Si7 0.000000 0.266800 0.500000
O O1 0.490336 0.273594 0.187044
O O2 0.394317 0.421169 0.303627
O O3 0.410374 0.910899 0.393390
O O4 0.432499 0.021826 0.063658
O O5 0.139981 0.951282 0.355956
O O6 0.052335 0.078731 0.433019
O O7 0.094568 0.838927 0.130735
O O8 0.155095 0.268342 0.115426
O O9 0.226674 0.487034 0.795121
O O10 0.243567 0.586126 0.054153
O O11 0.726997 0.357170 0.551738
O O12 0.687621 0.757545 0.463296
O O13 0.973437 0.443447 0.689134
#
# Coordination Sequence:
#
# PCOD9130291 Si02
#       7
#     4   4   4   4   4   4   2
#     4  11  27  48  78 112 163 206 261 327 401 473
#     4  12  28  48  81 114 158 210 272 331 400 477
#     4  12  29  53  81 118 159 212 272 334 403 481
#     4  12  28  51  81 117 161 207 270 337 405 478
#     4  11  27  46  73 119 157 205 265 329 392 484
#     4  12  26  51  77 109 156 216 261 326 403 478
#     4  12  24  44  80 110 156 204 266 322 404 472
#
# _framework density 25.804368
#
# number of rings (size 3 to 8) (size 9 to 14) (size 15 to 20)
#    0.000    0.308    3.077    4.154    8.615    2.462 
#    0.000    0.000    0.000    0.000    0.000    0.000 
#    0.000    0.000    0.000    0.000    0.000    0.000 
#
# Total GULP energy -72531.852492 kJ/mol
# GULP energy per Si atom -5579.373269 kJ/mol
# Density = 2.574564 g / cm^3
# Si number density = 25.804368 Si / 1000 Ang^3
#
#
#
# Elastic Constant Matrix: (Units=GPa)
#
#
# Indices 1 2 3 4 5 6 
#
# 1 93.4631 27.6418 3.2741 0.0000 -11.0659 0.0000
# 2 27.6418 79.9770 6.3559 0.0000 -3.4544 0.0000
# 3 3.2741 6.3559 52.0896 0.0000 6.1353 0.0000
# 4 0.0000 0.0000 0.0000 -4.8662 0.0000 44.1424
# 5 -11.0659 -3.4544 6.1353 0.0000 48.6972 0.0000
# 6 0.0000 0.0000 0.0000 44.1424 0.0000 0.3379
#
#
#
# Elastic Compliance Matrix: (Units=1/GPa)
#
#
# Indices 1 2 3 4 5 6 
#
# 1 0.012226 -0.004069 -0.000574 0.000000 0.002562 0.000000
# 2 -0.004069 0.014039 -0.001488 0.000000 0.000259 0.000000
# 3 -0.000574 -0.001488 0.019736 0.000000 -0.002722 0.000000
# 4 0.000000 0.000000 0.000000 -0.000173 0.000000 0.022635
# 5 0.002562 0.000259 -0.002722 0.000000 0.021479 0.000000
# 6 0.000000 0.000000 0.000000 0.022635 0.000000 0.002495
#
#
# Mechanical properties :
#
#
# Convention : Reuss Voigt Hill
#
# Bulk Modulus (GPa) = 29.63842 33.34149 31.48996
# Shear Modulus (GPa) = 53.58435 21.38430 37.48433
#
# Velocity S-wave (km/s) = 4.56187 2.88185 3.81548
# Velocity P-wave (km/s) = 6.26565 4.90126 5.62498
#
# Compressibility (1/GPa) = 0.03373999
#
# Stress axis : x y z
#
# Youngs Moduli (GPa) = 81.79037 71.22767 50.66897
#
# Poissons Ratio (x) = 0.28986 0.02907
# Poissons Ratio (y) = 0.33284 0.07538
# Poissons Ratio (z) = 0.04692 0.10597
#
# Static dielectric constant tensor:
#      x y z
#    x 3.342960 0.000000 0.277230 
#    y 0.000000 2.101150 0.000000 
#    z 0.277230 0.000000 2.117290 
# 
# From -- ./inp_files/32109.got.cif
#   From: 2010.05.17/outbox.cif.g08.bks.cpg/sg5_17_cif.got.tgz:32109.got - 2010.06.03 18:56:24.
