data_PCOD9130845
_publ_section_title
;
Structure prediction by ZEFSAII (Michael W. Deem and Ramdas Pophale) SiO2 
 PCOD9130845
Probable space group: P M
;
_chemical_formula_sum "Si O2"
_cell_formula_units_Z 16
_cell_length_a 12.630889
_cell_length_b 8.654879
_cell_length_c 10.569398
_cell_angle_alpha 90.000000
_cell_angle_beta 128.019520
_cell_angle_gamma 90.000000
_cell_volume 910.252072
_symmetry_space_group_name_H-M "P M"
_symmetry_group_IT_number 6
_symmetry_cell_setting 'monoclinic'
loop_
_space_group_symop_operation_xyz
x,y,z
x,-y,z
loop_
_atom_site_type_symbol
_atom_site_label
_atom_site_fract_x
_atom_site_fract_y
_atom_site_fract_z
Si Si1 0.769940 0.313251 0.218940
Si Si2 0.051511 0.313815 0.325730
Si Si3 0.618389 0.815176 0.863066
Si Si4 0.353821 0.314456 0.558122
Si Si5 0.630480 0.685086 0.375684
Si Si6 0.783800 0.186428 0.731142
Si Si7 0.361734 0.185320 0.279993
Si Si8 0.058918 0.813983 0.048931
O O1 0.768242 0.500000 0.216398
O O2 0.702252 0.261836 0.299668
O O3 0.925050 0.262751 0.316086
O O4 0.687901 0.254252 0.037653
O O5 0.050772 0.500000 0.320120
O O6 0.200936 0.267127 0.479336
O O7 0.033032 0.252246 0.169698
O O8 0.467745 0.755035 0.731056
O O9 0.702412 0.771513 0.798764
O O10 0.619432 0.000000 0.872264
O O11 0.362765 0.500000 0.565150
O O12 0.378400 0.254052 0.433383
O O13 0.622620 0.500000 0.369307
O O14 0.715833 0.738820 0.559704
O O15 0.481325 0.752618 0.282103
O O16 0.776818 0.000000 0.713241
O O17 0.938565 0.233452 0.868029
O O18 0.211262 0.228922 0.124669
O O19 0.370131 0.000000 0.294939
O O20 0.053749 0.000000 0.054629
#
# Coordination Sequence:
#
# PCOD9130845 Si02
#       8
#     2   2   2   2   2   2   2   2
#     4  10  22  39  56  78 110 146 183 223 269 321
#     4   9  18  33  54  79 107 139 177 220 268 317
#     4  11  21  34  56  84 110 141 182 224 267 319
#     4  10  19  32  54  82 110 140 176 223 271 318
#     4  11  23  37  55  79 110 148 184 220 268 324
#     4  10  20  35  55  81 110 139 178 226 269 317
#     4  10  19  33  54  79 109 143 178 223 271 317
#     4   9  18  33  54  80 108 136 174 223 271 317
#
# _framework density 17.577548
#
# number of rings (size 3 to 8) (size 9 to 14) (size 15 to 20)
#    0.000    2.000    2.500    1.500    0.000    3.000 
#    0.000    1.250    0.000    4.500    0.000    0.000 
#    0.000    0.000    0.000    0.000    0.000    0.000 
#
# Total GULP energy -89287.721853 kJ/mol
# GULP energy per Si atom -5580.482616 kJ/mol
# Density = 1.753754 g / cm^3
# Si number density = 17.577548 Si / 1000 Ang^3
#
#
#
# Elastic Constant Matrix: (Units=GPa)
#
#
# Indices 1 2 3 4 5 6 
#
# 1 174.5134 32.1866 78.3903 0.0000 10.2166 0.0000
# 2 32.1866 17.5892 20.9626 0.0000 0.2286 0.0000
# 3 78.3903 20.9626 93.1729 0.0000 7.4355 0.0000
# 4 0.0000 0.0000 0.0000 31.6422 0.0000 -6.0865
# 5 10.2166 0.2286 7.4355 0.0000 30.4177 0.0000
# 6 0.0000 0.0000 0.0000 -6.0865 0.0000 31.9342
#
#
#
# Elastic Compliance Matrix: (Units=1/GPa)
#
#
# Indices 1 2 3 4 5 6 
#
# 1 0.010982 -0.012645 -0.006229 0.000000 -0.002071 0.000000
# 2 -0.012645 0.092666 -0.010702 0.000000 0.006167 0.000000
# 3 -0.006229 -0.010702 0.018570 0.000000 -0.002367 0.000000
# 4 0.000000 0.000000 0.000000 0.032806 0.000000 0.006253
# 5 -0.002071 0.006167 -0.002367 0.000000 0.034103 0.000000
# 6 0.000000 0.000000 0.000000 0.006253 0.000000 0.032506
#
#
# Mechanical properties :
#
#
# Convention : Reuss Voigt Hill
#
# Bulk Modulus (GPa) = 15.85642 60.92829 38.39235
# Shear Modulus (GPa) = 16.56682 29.04790 22.80736
#
# Velocity S-wave (km/s) = 3.07334 4.06958 3.60603
# Velocity P-wave (km/s) = 4.65127 7.53789 6.26315
#
# Compressibility (1/GPa) = 0.06306595
#
# Stress axis : x y z
#
# Youngs Moduli (GPa) = 91.06037 10.79143 53.84909
#
# Poissons Ratio (x) = 0.13645 0.33544
# Poissons Ratio (y) = 1.15143 0.57631
# Poissons Ratio (z) = 0.56724 0.11549
#
# Static dielectric constant tensor:
#      x y z
#    x 1.620020 0.000000 0.031050 
#    y 0.000000 1.590450 0.000000 
#    z 0.031050 0.000000 1.566740 
# 
# From -- ./inp_files/3486.got.cif
#   From: 2010.05.17/outbox.cif.g08.bks.cpg/sg6_2_cif.got.tgz:3486.got - 2010.06.03 19:42:10.
