data_PCOD9130283
_publ_section_title
;
Structure prediction by ZEFSAII (Michael W. Deem and Ramdas Pophale) SiO2 
 PCOD9130283
Probable space group: C 2
;
_chemical_formula_sum "Si O2"
_cell_formula_units_Z 30
_cell_length_a 9.137261
_cell_length_b 11.991922
_cell_length_c 12.249603
_cell_angle_alpha 90.000000
_cell_angle_beta 110.145378
_cell_angle_gamma 90.000000
_cell_volume 1260.114462
_symmetry_space_group_name_H-M "C 2"
_symmetry_group_IT_number 5
_symmetry_cell_setting 'monoclinic'
loop_
_space_group_symop_operation_xyz
x,y,z
-x,y,-z
1/2+x,1/2+y,z
1/2-x,1/2+y,-z
loop_
_atom_site_type_symbol
_atom_site_label
_atom_site_fract_x
_atom_site_fract_y
_atom_site_fract_z
Si Si1 0.481595 0.063460 0.181078
Si Si2 0.470783 0.392797 0.624992
Si Si3 0.189961 0.866670 0.875417
Si Si4 0.731462 0.182492 0.386107
Si Si5 0.000000 0.721495 0.000000
Si Si6 0.506253 0.801875 0.152137
Si Si7 0.935789 0.144343 0.644615
Si Si8 0.835308 0.100515 0.016203
O O1 0.303538 0.102137 0.109508
O O2 0.587817 0.104680 0.309108
O O3 0.469014 0.929343 0.175341
O O4 0.567659 0.130484 0.103880
O O5 0.500000 0.399546 0.500000
O O6 0.617038 0.355784 0.736127
O O7 0.335701 0.306635 0.621266
O O8 0.434773 0.513338 0.666751
O O9 0.364763 0.822027 0.907948
O O10 0.193703 0.993746 0.915814
O O11 0.799490 0.154707 0.521429
O O12 0.888563 0.169812 0.354670
O O13 0.087937 0.803681 0.939679
O O14 0.591795 0.733020 0.269037
O O15 0.366521 0.714204 0.092409
O O16 0.000000 0.082305 0.000000
#
# Coordination Sequence:
#
# PCOD9130283 Si02
#       8
#     4   4   4   4   2   4   4   4
#     4  12  29  48  79 115 166 219 273 344 415 494
#     4  12  24  49  87 117 165 213 272 349 422 488
#     4  12  26  51  82 120 162 224 273 341 417 496
#     4  11  26  50  79 121 157 218 275 333 421 487
#     4  12  26  50  74 114 172 210 270 336 414 478
#     4  12  29  50  83 118 163 219 284 343 413 506
#     4  11  26  52  83 116 165 215 276 354 411 487
#     4  12  29  49  76 116 162 212 276 335 410 502
#
# _framework density 23.807359999999999
#
# number of rings (size 3 to 8) (size 9 to 14) (size 15 to 20)
#    0.000    0.267    4.667    3.200    8.400    1.067 
#    2.400    0.000    0.000    0.000    0.000    0.000 
#    0.000    0.000    0.000    0.000    0.000    0.000 
#
# Total GULP energy -83737.189785 kJ/mol
# GULP energy per Si atom -5582.479319 kJ/mol
# Density = 2.375317 g / cm^3
# Si number density = 23.807360 Si / 1000 Ang^3
#
#
#
# Elastic Constant Matrix: (Units=GPa)
#
#
# Indices 1 2 3 4 5 6 
#
# 1 109.2629 88.1680 62.4772 0.0000 31.7256 0.0000
# 2 88.1680 234.9956 52.3242 0.0000 9.2345 0.0000
# 3 62.4772 52.3242 151.6712 0.0000 37.8107 0.0000
# 4 0.0000 0.0000 0.0000 41.6319 0.0000 -3.2391
# 5 31.7256 9.2345 37.8107 0.0000 36.4471 0.0000
# 6 0.0000 0.0000 0.0000 -3.2391 0.0000 55.3851
#
#
#
# Elastic Compliance Matrix: (Units=1/GPa)
#
#
# Indices 1 2 3 4 5 6 
#
# 1 0.019252 -0.006129 -0.002732 0.000000 -0.012371 0.000000
# 2 -0.006129 0.006572 -0.000887 0.000000 0.004590 0.000000
# 3 -0.002732 -0.000887 0.009949 0.000000 -0.007718 0.000000
# 4 0.000000 0.000000 0.000000 0.024130 0.000000 0.001411
# 5 -0.012371 0.004590 -0.007718 0.000000 0.045049 0.000000
# 6 0.000000 0.000000 0.000000 0.001411 0.000000 0.018138
#
#
# Mechanical properties :
#
#
# Convention : Reuss Voigt Hill
#
# Bulk Modulus (GPa) = 61.43529 100.20762 80.82145
# Shear Modulus (GPa) = 33.78145 46.22350 40.00247
#
# Velocity S-wave (km/s) = 3.77098 4.41110 4.10354
# Velocity P-wave (km/s) = 6.69489 8.25385 7.51491
#
# Compressibility (1/GPa) = 0.01627729
#
# Stress axis : x y z
#
# Youngs Moduli (GPa) = 51.94300 152.16270 100.51657
#
# Poissons Ratio (x) = 0.93255 0.27462
# Poissons Ratio (y) = 0.31834 0.08914
# Poissons Ratio (z) = 0.14191 0.13494
#
# Static dielectric constant tensor:
#      x y z
#    x 1.948930 0.000000 0.026090 
#    y 0.000000 1.934720 0.000000 
#    z 0.026090 0.000000 2.004730 
# 
# From -- ./inp_files/52493.got.cif
#   From: 2010.05.17/outbox.cif.g08.bks.cpg/sg5_27_cif.got.tgz:52493.got - 2010.06.03 18:56:24.
