data_PCOD9130647
_publ_section_title
;
Structure prediction by ZEFSAII (Michael W. Deem and Ramdas Pophale) SiO2 
 PCOD9130647
Probable space group: C 2
;
_chemical_formula_sum "Si O2"
_cell_formula_units_Z 16
_cell_length_a 7.366051
_cell_length_b 6.881837
_cell_length_c 15.139488
_cell_angle_alpha 90.000000
_cell_angle_beta 52.255677
_cell_angle_gamma 90.000000
_cell_volume 606.861545
_symmetry_space_group_name_H-M "C 2"
_symmetry_group_IT_number 5
_symmetry_cell_setting 'monoclinic'
loop_
_space_group_symop_operation_xyz
x,y,z
-x,y,-z
1/2+x,1/2+y,z
1/2-x,1/2+y,-z
loop_
_atom_site_type_symbol
_atom_site_label
_atom_site_fract_x
_atom_site_fract_y
_atom_site_fract_z
Si Si1 0.000000 0.738350 0.000000
Si Si2 0.596087 0.851045 0.325400
Si Si3 0.500000 0.108871 0.500000
Si Si4 0.886069 0.928155 0.848041
Si Si5 0.246648 0.904272 0.294740
O O1 0.782828 0.608937 0.092487
O O2 0.084357 0.846429 0.062682
O O3 0.425152 0.950606 0.447668
O O4 0.851342 0.934654 0.263742
O O5 0.628414 0.618413 0.327969
O O6 0.501183 0.915178 0.258568
O O7 0.632059 0.259071 0.397977
O O8 0.763390 0.821921 0.801565
#
# Coordination Sequence:
#
# PCOD9130647 Si02
#       5
#     2   4   2   4   4
#     4  12  32  52  96 114 170 218 284 362 420 500
#     4  12  29  54  84 125 175 229 277 352 413 516
#     4  12  30  44  90 128 180 222 290 324 442 492
#     4  12  30  60  82 130 164 220 288 348 432 494
#     4  12  29  54  84 125 175 229 277 352 413 516
#
# _framework density 26.365158999999998
#
# number of rings (size 3 to 8) (size 9 to 14) (size 15 to 20)
#    0.000    0.000    2.500    3.750   14.000    5.000 
#    0.000    0.000    0.000    0.000    0.000    0.000 
#    0.000    0.000    0.000    0.000    0.000    0.000 
#
# Total GULP energy -44689.950410 kJ/mol
# GULP energy per Si atom -5586.243801 kJ/mol
# Density = 2.630515 g / cm^3
# Si number density = 26.365159 Si / 1000 Ang^3
#
#
#
# Elastic Constant Matrix: (Units=GPa)
#
#
# Indices 1 2 3 4 5 6 
#
# 1 191.6175 50.8490 32.0962 0.0000 61.1530 0.0000
# 2 50.8490 170.0360 49.0623 0.0000 14.9571 0.0000
# 3 32.0962 49.0623 120.0881 0.0000 41.5649 0.0000
# 4 0.0000 0.0000 0.0000 62.0469 0.0000 -2.8817
# 5 61.1530 14.9571 41.5649 0.0000 49.0940 0.0000
# 6 0.0000 0.0000 0.0000 -2.8817 0.0000 -1.3287
#
#
#
# Elastic Compliance Matrix: (Units=1/GPa)
#
#
# Indices 1 2 3 4 5 6 
#
# 1 0.010015 -0.002717 0.003486 0.000000 -0.014598 0.000000
# 2 -0.002717 0.007409 -0.003806 0.000000 0.004349 0.000000
# 3 0.003486 -0.003806 0.014219 0.000000 -0.015221 0.000000
# 4 0.000000 0.000000 0.000000 0.014642 0.000000 -0.031756
# 5 -0.014598 0.004349 -0.015221 0.000000 0.050115 0.000000
# 6 0.000000 0.000000 0.000000 -0.031756 0.000000 -0.683741
#
#
# Mechanical properties :
#
#
# Convention : Reuss Voigt Hill
#
# Bulk Modulus (GPa) = 39.11007 82.86188 60.98597
# Shear Modulus (GPa) = -8.72989 45.27805 18.27408
#
# Velocity S-wave (km/s) = -1.82163 4.14858 2.63556
# Velocity P-wave (km/s) = 3.23137 7.37865 5.69588
#
# Compressibility (1/GPa) = 0.02556886
#
# Stress axis : x y z
#
# Youngs Moduli (GPa) = 99.85388 134.96724 70.32931
#
# Poissons Ratio (x) = 0.36665 -0.24517
# Poissons Ratio (y) = 0.27126 0.26769
# Poissons Ratio (z) = -0.34809 0.51373
#
# Static dielectric constant tensor:
#      x y z
#    x 2.106920 0.000000 0.022470 
#    y 0.000000 2.145600 0.000000 
#    z 0.022470 0.000000 2.162780 
# 
# From -- ./inp_files/48504.got.cif
#   From: 2010.05.17/outbox.cif.g08.bks.cpg/sg5_25_cif.got.tgz:48504.got - 2010.06.03 18:56:24.
