data_PCOD9130556
_publ_section_title
;
Structure prediction by ZEFSAII (Michael W. Deem and Ramdas Pophale) SiO2 
 PCOD9130556
Probable space group: C 2
;
_chemical_formula_sum "Si O2"
_cell_formula_units_Z 24
_cell_length_a 17.047512
_cell_length_b 4.976837
_cell_length_c 12.916159
_cell_angle_alpha 90.000000
_cell_angle_beta 120.218790
_cell_angle_gamma 90.000000
_cell_volume 946.927503
_symmetry_space_group_name_H-M "C 2"
_symmetry_group_IT_number 5
_symmetry_cell_setting 'monoclinic'
loop_
_space_group_symop_operation_xyz
x,y,z
-x,y,-z
1/2+x,1/2+y,z
1/2-x,1/2+y,-z
loop_
_atom_site_type_symbol
_atom_site_label
_atom_site_fract_x
_atom_site_fract_y
_atom_site_fract_z
Si Si1 0.048743 0.916060 0.866848
Si Si2 0.733705 0.079373 0.268761
Si Si3 0.911677 0.180298 0.901692
Si Si4 0.216270 0.246061 0.914028
Si Si5 0.422899 0.100539 0.669266
Si Si6 0.915841 0.097836 0.516627
O O1 0.016193 0.635817 0.797972
O O2 0.119495 0.090979 0.849254
O O3 0.952500 0.065172 0.823276
O O4 0.089756 0.950500 0.010361
O O5 0.680133 0.835016 0.177235
O O6 0.827584 0.035531 0.389355
O O7 0.756575 0.272817 0.187752
O O8 0.661687 0.151874 0.310134
O O9 0.000000 0.353438 0.000000
O O10 0.221751 0.527426 0.980293
O O11 0.436177 0.332147 0.594184
O O12 0.597304 0.836014 0.409909
O O13 0.000000 0.170695 0.500000
#
# Coordination Sequence:
#
# PCOD9130556 Si02
#       6
#     4   4   4   4   4   4
#     4   9  22  45  74 110 163 203 269 321 409 476
#     4  12  26  46  82 110 171 203 276 333 402 482
#     4   8  20  44  74 114 154 216 255 325 407 470
#     4  12  27  45  71 114 160 211 264 325 404 480
#     4  12  27  49  82 113 156 211 274 335 398 487
#     4  12  29  53  80 119 152 216 276 337 409 475
#
# _framework density 25.345130999999999
#
# number of rings (size 3 to 8) (size 9 to 14) (size 15 to 20)
#    1.000    0.000    1.667    3.500    4.667    9.333 
#    0.000    0.000    0.000    0.000    0.000    0.000 
#    0.000    0.000    0.000    0.000    0.000    0.000 
#
# Total GULP energy -67026.319198 kJ/mol
# GULP energy per Si atom -5585.526600 kJ/mol
# Density = 2.528744 g / cm^3
# Si number density = 25.345131 Si / 1000 Ang^3
#
#
#
# Elastic Constant Matrix: (Units=GPa)
#
#
# Indices 1 2 3 4 5 6 
#
# 1 124.6758 -0.7806 56.2029 0.0000 6.1258 0.0000
# 2 -0.7806 78.2313 34.1827 0.0000 15.7623 0.0000
# 3 56.2029 34.1827 153.5752 0.0000 13.9157 0.0000
# 4 0.0000 0.0000 0.0000 41.3385 0.0000 9.1225
# 5 6.1258 15.7623 13.9157 0.0000 65.0176 0.0000
# 6 0.0000 0.0000 0.0000 9.1225 0.0000 22.6126
#
#
#
# Elastic Compliance Matrix: (Units=1/GPa)
#
#
# Indices 1 2 3 4 5 6 
#
# 1 0.009860 0.001954 -0.003994 0.000000 -0.000548 0.000000
# 2 0.001954 0.015070 -0.003795 0.000000 -0.003025 0.000000
# 3 -0.003994 -0.003795 0.008872 0.000000 -0.000603 0.000000
# 4 0.000000 0.000000 0.000000 0.026555 0.000000 -0.010713
# 5 -0.000548 -0.003025 -0.000603 0.000000 0.016294 0.000000
# 6 0.000000 0.000000 0.000000 -0.010713 0.000000 0.048545
#
#
# Mechanical properties :
#
#
# Convention : Reuss Voigt Hill
#
# Bulk Modulus (GPa) = 45.18264 59.52138 52.35201
# Shear Modulus (GPa) = 34.66349 43.58558 39.12453
#
# Velocity S-wave (km/s) = 3.70220 4.15140 3.93322
# Velocity P-wave (km/s) = 6.01171 6.82013 6.42864
#
# Compressibility (1/GPa) = 0.02213239
#
# Stress axis : x y z
#
# Youngs Moduli (GPa) = 101.41676 66.35745 112.70962
#
# Poissons Ratio (x) = -0.12965 0.45013
# Poissons Ratio (y) = -0.19815 0.42775
# Poissons Ratio (z) = 0.40503 0.25184
#
# Static dielectric constant tensor:
#      x y z
#    x 2.070560 0.000000 0.023900 
#    y 0.000000 2.037650 0.000000 
#    z 0.023900 0.000000 2.025600 
# 
# From -- ./inp_files/43796.got.cif
#   From: 2010.05.17/outbox.cif.g08.bks.cpg/sg5_22_cif.got.tgz:43796.got - 2010.06.03 18:56:24.
