data_PCOD9130601
_publ_section_title
;
Structure prediction by ZEFSAII (Michael W. Deem and Ramdas Pophale) SiO2 
 PCOD9130601
Probable space group: C 2
;
_chemical_formula_sum "Si O2"
_cell_formula_units_Z 24
_cell_length_a 13.897450
_cell_length_b 4.991952
_cell_length_c 24.745834
_cell_angle_alpha 90.000000
_cell_angle_beta 147.625286
_cell_angle_gamma 90.000000
_cell_volume 919.242047
_symmetry_space_group_name_H-M "C 2"
_symmetry_group_IT_number 5
_symmetry_cell_setting 'monoclinic'
loop_
_space_group_symop_operation_xyz
x,y,z
-x,y,-z
1/2+x,1/2+y,z
1/2-x,1/2+y,-z
loop_
_atom_site_type_symbol
_atom_site_label
_atom_site_fract_x
_atom_site_fract_y
_atom_site_fract_z
Si Si1 0.000000 0.571561 0.000000
Si Si2 0.244828 0.651513 0.527807
Si Si3 0.325780 0.215505 0.715568
Si Si4 0.347138 0.301779 0.199504
Si Si5 0.861369 0.300383 0.270045
Si Si6 0.500000 0.393499 0.500000
Si Si7 0.123627 0.680142 0.943436
O O1 0.980008 0.713509 0.048585
O O2 0.178578 0.393066 0.085040
O O3 0.294562 0.343203 0.542465
O O4 0.425381 0.808231 0.628223
O O5 0.094705 0.708701 0.500388
O O6 0.458848 0.353597 0.735622
O O7 0.222997 0.385458 0.713028
O O8 0.483709 0.089180 0.829696
O O9 0.163288 0.058777 0.607443
O O10 0.326525 0.488781 0.242277
O O11 0.318305 0.995561 0.200820
O O12 0.281607 0.462805 0.022367
#
# Coordination Sequence:
#
# PCOD9130601 Si02
#       7
#     2   4   4   4   4   2   4
#     4  12  28  50  84 116 158 204 260 328 402 460
#     4  12  27  49  75 110 151 205 262 320 379 457
#     4  12  28  50  82 117 162 208 265 321 393 470
#     4  12  29  48  79 116 155 203 259 327 393 465
#     4  12  28  49  77 110 158 204 262 319 387 459
#     4  12  28  50  80 120 160 216 260 320 390 474
#     4  12  30  51  81 117 155 205 265 327 393 467
#
# _framework density 26.108467000000001
#
# number of rings (size 3 to 8) (size 9 to 14) (size 15 to 20)
#    0.000    0.000    6.667    1.000    4.667    4.667 
#    0.000    0.000    0.000    0.000    0.000    0.000 
#    0.000    0.000    0.000    0.000    0.000    0.000 
#
# Total GULP energy -67034.807172 kJ/mol
# GULP energy per Si atom -5586.233931 kJ/mol
# Density = 2.604904 g / cm^3
# Si number density = 26.108467 Si / 1000 Ang^3
#
#
#
# Elastic Constant Matrix: (Units=GPa)
#
#
# Indices 1 2 3 4 5 6 
#
# 1 180.6373 15.7682 15.4040 -0.0007 19.8745 0.0049
# 2 15.7682 73.5580 9.2295 -0.0023 7.6583 0.0103
# 3 15.4040 9.2295 128.1096 0.0006 8.5789 0.0005
# 4 -0.0007 -0.0023 0.0006 37.3825 -0.0005 2.9387
# 5 19.8745 7.6583 8.5789 -0.0005 54.8850 -0.0003
# 6 0.0049 0.0103 0.0005 2.9387 -0.0003 -6.4849
#
#
#
# Elastic Compliance Matrix: (Units=1/GPa)
#
#
# Indices 1 2 3 4 5 6 
#
# 1 0.005876 -0.000997 -0.000507 0.000000 -0.001910 0.000003
# 2 -0.000997 0.014062 -0.000794 -0.000001 -0.001477 0.000021
# 3 -0.000507 -0.000794 0.007988 0.000000 -0.000954 -0.000001
# 4 0.000000 -0.000001 0.000000 0.025830 0.000000 0.011705
# 5 -0.001910 -0.001477 -0.000954 0.000000 0.019267 -0.000004
# 6 0.000003 0.000021 -0.000001 0.011705 -0.000004 -0.148900
#
#
# Mechanical properties :
#
#
# Convention : Reuss Voigt Hill
#
# Bulk Modulus (GPa) = 42.86452 51.45649 47.16050
# Shear Modulus (GPa) = -78.73530 39.95007 -19.39261
#
# Velocity S-wave (km/s) = -5.49750 3.91597 -2.72834
# Velocity P-wave (km/s) = 4.88294 6.34018 2.85961
#
# Compressibility (1/GPa) = 0.02332932
#
# Stress axis : x y z
#
# Youngs Moduli (GPa) = 170.17439 71.11416 125.18965
#
# Poissons Ratio (x) = 0.07092 0.06345
# Poissons Ratio (y) = 0.16971 0.09943
# Poissons Ratio (z) = 0.08625 0.05648
#
# Static dielectric constant tensor:
#      x y z
#    x 2.013160 0.000000 -0.107720 
#    y 0.000000 1.994060 0.000000 
#    z -0.107720 0.000000 2.344140 
# 
# From -- ./inp_files/70520.got.cif
#   From: 2010.05.17/outbox.cif.g08.bks.cpg/sg5_36_cif.got.tgz:70520.got - 2010.06.03 18:56:24.
