data_PCOD9130427
_publ_section_title
;
Structure prediction by ZEFSAII (Michael W. Deem and Ramdas Pophale) SiO2 
 PCOD9130427
Probable space group: C 2
;
_chemical_formula_sum "Si O2"
_cell_formula_units_Z 28
_cell_length_a 16.965673
_cell_length_b 5.686516
_cell_length_c 13.723515
_cell_angle_alpha 90.000000
_cell_angle_beta 104.010911
_cell_angle_gamma 90.000000
_cell_volume 1284.594945
_symmetry_space_group_name_H-M "C 2"
_symmetry_group_IT_number 5
_symmetry_cell_setting 'monoclinic'
loop_
_space_group_symop_operation_xyz
x,y,z
-x,y,-z
1/2+x,1/2+y,z
1/2-x,1/2+y,-z
loop_
_atom_site_type_symbol
_atom_site_label
_atom_site_fract_x
_atom_site_fract_y
_atom_site_fract_z
Si Si1 0.454131 0.616830 0.115980
Si Si2 0.500000 0.950428 0.500000
Si Si3 0.763111 0.804663 0.722956
Si Si4 0.500000 0.995979 0.000000
Si Si5 0.315735 0.310388 0.354556
Si Si6 0.964348 0.067440 0.344578
Si Si7 0.621956 0.295838 0.425129
Si Si8 0.111392 0.883112 0.083341
O O1 0.444899 0.618072 0.227111
O O2 0.549179 0.563229 0.117888
O O3 0.443338 0.862047 0.059391
O O4 0.398107 0.443309 0.034353
O O5 0.564626 0.089570 0.451535
O O6 0.448582 0.781675 0.412332
O O7 0.719062 0.549164 0.706523
O O8 0.833518 0.763173 0.663512
O O9 0.803378 0.859157 0.839843
O O10 0.718605 0.053279 0.682856
O O11 0.438190 0.144753 0.917565
O O12 0.411265 0.341337 0.358841
O O13 0.312316 0.343047 0.470453
O O14 0.058543 0.006502 0.388834
#
# Coordination Sequence:
#
# PCOD9130427 Si02
#       8
#     4   2   4   2   4   4   4   4
#     4   9  20  38  68  98 134 174 247 290 367 398
#     4  12  24  40  74 104 144 174 264 298 346 422
#     4  12  28  44  74 100 148 188 229 293 368 428
#     4   8  18  36  64 102 136 160 248 306 334 426
#     4  12  27  47  63 108 146 187 232 289 361 436
#     4  12  24  43  72 101 138 194 233 308 349 425
#     4  12  25  45  69  98 142 188 246 284 355 420
#     4   9  20  39  63 105 129 179 240 303 339 441
#
# _framework density 21.796755999999998
#
# number of rings (size 3 to 8) (size 9 to 14) (size 15 to 20)
#    0.000    1.429    4.286    1.714    8.000    0.000 
#    0.000    1.429    0.000    0.000    0.000    0.000 
#    0.000    0.000    0.000    0.000    0.000    0.000 
#
# Total GULP energy -78007.111882 kJ/mol
# GULP energy per Si atom -5571.936563 kJ/mol
# Density = 2.174715 g / cm^3
# Si number density = 21.796756 Si / 1000 Ang^3
#
#
#
# Elastic Constant Matrix: (Units=GPa)
#
#
# Indices 1 2 3 4 5 6 
#
# 1 37.7954 33.1272 13.6850 0.0000 6.1593 0.0000
# 2 33.1272 103.8458 39.0967 0.0000 9.5312 0.0000
# 3 13.6850 39.0967 150.1228 0.0000 6.8267 0.0000
# 4 0.0000 0.0000 0.0000 1.1743 0.0000 -1.1969
# 5 6.1593 9.5312 6.8267 0.0000 40.8806 0.0000
# 6 0.0000 0.0000 0.0000 -1.1969 0.0000 24.6718
#
#
#
# Elastic Compliance Matrix: (Units=1/GPa)
#
#
# Indices 1 2 3 4 5 6 
#
# 1 0.037068 -0.011462 -0.000263 0.000000 -0.002868 0.000000
# 2 -0.011462 0.014393 -0.002649 0.000000 -0.001186 0.000000
# 3 -0.000263 -0.002649 0.007402 0.000000 -0.000579 0.000000
# 4 0.000000 0.000000 0.000000 0.895840 0.000000 0.043460
# 5 -0.002868 -0.001186 -0.000579 0.000000 0.025267 0.000000
# 6 0.000000 0.000000 0.000000 0.043460 0.000000 0.042640
#
#
# Mechanical properties :
#
#
# Convention : Reuss Voigt Hill
#
# Bulk Modulus (GPa) = 33.21005 51.50908 42.35957
# Shear Modulus (GPa) = 4.71078 27.06903 15.88990
#
# Velocity S-wave (km/s) = 1.47171 3.52786 2.70293
# Velocity P-wave (km/s) = 4.26113 6.34643 5.40530
#
# Compressibility (1/GPa) = 0.03011136
#
# Stress axis : x y z
#
# Youngs Moduli (GPa) = 26.97773 69.48053 135.10709
#
# Poissons Ratio (x) = 0.79640 0.03560
# Poissons Ratio (y) = 0.30923 0.35796
# Poissons Ratio (z) = 0.00711 0.18408
#
# Static dielectric constant tensor:
#      x y z
#    x 1.824310 0.000000 0.034970 
#    y 0.000000 1.906490 0.000000 
#    z 0.034970 0.000000 1.817800 
# 
# From -- ./inp_files/55354.got.cif
#   From: 2010.05.17/outbox.cif.g08.bks.cpg/sg5_28_cif.got.tgz:55354.got - 2010.06.03 18:56:24.
