data_PCOD9130343
_publ_section_title
;
Structure prediction by ZEFSAII (Michael W. Deem and Ramdas Pophale) SiO2 
 PCOD9130343
Probable space group: C 2
;
_chemical_formula_sum "Si O2"
_cell_formula_units_Z 20
_cell_length_a 18.641953
_cell_length_b 5.015350
_cell_length_c 8.269757
_cell_angle_alpha 90.000000
_cell_angle_beta 81.959037
_cell_angle_gamma 90.000000
_cell_volume 765.586785
_symmetry_space_group_name_H-M "C 2"
_symmetry_group_IT_number 5
_symmetry_cell_setting 'monoclinic'
loop_
_space_group_symop_operation_xyz
x,y,z
-x,y,-z
1/2+x,1/2+y,z
1/2-x,1/2+y,-z
loop_
_atom_site_type_symbol
_atom_site_label
_atom_site_fract_x
_atom_site_fract_y
_atom_site_fract_z
Si Si1 0.790405 0.206520 0.443350
Si Si2 0.077680 0.846713 0.900242
Si Si3 0.880360 0.200826 0.731303
Si Si4 0.479207 0.181160 0.685938
Si Si5 0.163964 0.345370 0.929882
O O1 0.727500 0.395847 0.533583
O O2 0.853366 0.255608 0.557124
O O3 0.794511 0.283886 0.251610
O O4 0.141188 0.653260 0.937200
O O5 0.056839 0.780356 0.725846
O O6 0.095183 0.151997 0.919498
O O7 0.000000 0.776618 0.000000
O O8 0.941874 0.413426 0.760128
O O9 0.919048 0.913897 0.724638
O O10 0.818563 0.247328 0.891242
O O11 0.500000 0.117853 0.500000
#
# Coordination Sequence:
#
# PCOD9130343 Si02
#       5
#     4   4   4   4   4
#     4  12  28  48  68  92 126 169 226 287 328 361
#     4  12  21  39  65 100 139 168 203 252 317 395
#     4  12  24  43  66  94 128 170 219 262 320 388
#     4  12  23  38  63  98 137 172 206 253 314 394
#     4  12  24  43  68  98 132 172 217 262 316 395
#
# _framework density 26.123749
#
# number of rings (size 3 to 8) (size 9 to 14) (size 15 to 20)
#    0.000    0.000    4.000    7.200    0.000    1.600 
#    0.000    0.000    0.000    0.000    0.000    0.000 
#    0.000    0.000    0.000    0.000    0.000    0.000 
#
# Total GULP energy -55856.952563 kJ/mol
# GULP energy per Si atom -5585.695256 kJ/mol
# Density = 2.606429 g / cm^3
# Si number density = 26.123749 Si / 1000 Ang^3
#
#
#
# Elastic Constant Matrix: (Units=GPa)
#
#
# Indices 1 2 3 4 5 6 
#
# 1 51.8389 24.0565 7.2464 0.0000 9.5914 0.0000
# 2 24.0565 86.3388 1.7372 0.0000 -9.8991 0.0000
# 3 7.2464 1.7372 144.2900 0.0000 -17.1483 0.0000
# 4 0.0000 0.0000 0.0000 34.6681 0.0000 5.9421
# 5 9.5914 -9.8991 -17.1483 0.0000 36.3942 0.0000
# 6 0.0000 0.0000 0.0000 5.9421 0.0000 28.3053
#
#
#
# Elastic Compliance Matrix: (Units=1/GPa)
#
#
# Indices 1 2 3 4 5 6 
#
# 1 0.025236 -0.008127 -0.002355 0.000000 -0.009971 0.000000
# 2 -0.008127 0.014582 0.001015 0.000000 0.006586 0.000000
# 3 -0.002355 0.001015 0.007567 0.000000 0.004462 0.000000
# 4 0.000000 0.000000 0.000000 0.029922 0.000000 -0.006281
# 5 -0.009971 0.006586 0.004462 0.000000 0.033999 0.000000
# 6 0.000000 0.000000 0.000000 -0.006281 0.000000 0.036648
#
#
# Mechanical properties :
#
#
# Convention : Reuss Voigt Hill
#
# Bulk Modulus (GPa) = 35.14755 38.72754 36.93754
# Shear Modulus (GPa) = 28.34966 36.50203 32.42585
#
# Velocity S-wave (km/s) = 3.29782 3.74207 3.52695
# Velocity P-wave (km/s) = 5.29002 5.79030 5.54580
#
# Compressibility (1/GPa) = 0.02845149
#
# Stress axis : x y z
#
# Youngs Moduli (GPa) = 39.62579 68.57996 132.15619
#
# Poissons Ratio (x) = 0.55737 0.31117
# Poissons Ratio (y) = 0.32205 -0.13419
# Poissons Ratio (z) = 0.09330 -0.06963
#
# Static dielectric constant tensor:
#      x y z
#    x 2.262380 0.000000 0.239460 
#    y 0.000000 1.929960 0.000000 
#    z 0.239460 0.000000 2.525960 
# 
# From -- ./inp_files/28285.got.cif
#   From: 2010.05.17/outbox.cif.g08.bks.cpg/sg5_15_cif.got.tgz:28285.got - 2010.06.03 18:56:24.
