data_PCOD9130665
_publ_section_title
;
Structure prediction by ZEFSAII (Michael W. Deem and Ramdas Pophale) SiO2 
 PCOD9130665
Probable space group: C 2
;
_chemical_formula_sum "Si O2"
_cell_formula_units_Z 15
_cell_length_a 15.000000
_cell_length_b 12.000000
_cell_length_c 9.000000
_cell_angle_alpha 90.000000
_cell_angle_beta 90.000000
_cell_angle_gamma 90.000000
_cell_volume 1620.000000
_symmetry_space_group_name_H-M "C 2"
_symmetry_group_IT_number 5
_symmetry_cell_setting 'monoclinic'
loop_
_space_group_symop_operation_xyz
x,y,z
-x,y,-z
1/2+x,1/2+y,z
1/2-x,1/2+y,-z
loop_
_atom_site_type_symbol
_atom_site_label
_atom_site_fract_x
_atom_site_fract_y
_atom_site_fract_z
Si Si1 0.390541 0.123550 0.378712
Si Si2 0.796603 0.050422 0.713481
Si Si3 0.500000 0.925910 0.500000
Si Si4 0.776447 0.687200 0.663923
Si Si5 0.139023 0.854885 0.104118
Si Si6 0.060207 0.837787 0.786563
Si Si7 0.198872 0.957795 0.620064
Si Si8 0.842073 0.275112 0.593778
O O1 0.303590 0.095088 0.284014
O O2 0.353560 0.166596 0.538926
O O3 0.442301 0.221503 0.299704
O O4 0.445291 0.011063 0.397698
O O5 0.853865 0.161913 0.686183
O O6 0.817197 0.972103 0.850805
O O7 0.802237 0.981431 0.557261
O O8 0.429678 0.848474 0.583096
O O9 0.810178 0.759940 0.800840
O O10 0.741382 0.564203 0.700017
O O11 0.694898 0.741887 0.570448
O O12 0.038706 0.864474 0.164868
O O13 0.124994 0.831809 0.930363
O O14 0.101716 0.929163 0.677729
O O15 0.261812 0.852335 0.651924
#
# Coordination Sequence:
#
# PCOD9130665 Si02
#       8
#     4   4   2   4   4   4   4   4
#     4  10  19  34  60  83 111 147 177 236 284 333
#     4  10  20  37  59  78 115 148 185 226 285 338
#     4  12  18  30  58  94 112 136 180 246 284 322
#     4  10  19  37  59  83 112 141 187 227 286 339
#     4  11  23  37  53  86 111 151 191 232 269 332
#     4  11  23  36  55  81 116 148 193 230 272 328
#     4  10  18  37  56  81 110 143 182 229 278 336
#     4  10  19  33  56  89 109 136 181 230 280 334
#
# _framework density 9.2592590000000001
#
# number of rings (size 3 to 8) (size 9 to 14) (size 15 to 20)
#    0.000    1.867    6.667    0.800    0.000    4.800 
#    0.000    0.000    0.000    0.000    0.000    0.000 
#    0.000    0.000    0.000    0.000    0.000    0.000 
#
# Total GULP energy -83624.608156 kJ/mol
# GULP energy per Si atom -5574.973877 kJ/mol
# Density = 0.923818 g / cm^3
# Si number density = 9.259259 Si / 1000 Ang^3
#
#
#
# Elastic Constant Matrix: (Units=GPa)
#
#
# Indices 1 2 3 4 5 6 
#
# 1 40.4496 10.4405 -4.3568 0.0000 -6.3794 0.0000
# 2 10.4405 95.7819 3.0792 0.0000 5.5835 0.0000
# 3 -4.3568 3.0792 -25.9321 0.0000 -4.2220 0.0000
# 4 0.0000 0.0000 0.0000 -4.6438 0.0000 -65.4427
# 5 -6.3794 5.5835 -4.2220 0.0000 20.0692 0.0000
# 6 0.0000 0.0000 0.0000 -65.4427 0.0000 -274.8554
#
#
#
# Elastic Compliance Matrix: (Units=1/GPa)
#
#
# Indices 1 2 3 4 5 6 
#
# 1 0.026120 -0.003113 -0.006044 0.000000 0.007897 0.000000
# 2 -0.003113 0.010908 0.002392 0.000000 -0.003521 0.000000
# 3 -0.006044 0.002392 -0.035622 0.000000 -0.010080 0.000000
# 4 0.000000 0.000000 0.000000 0.091424 0.000000 -0.021768
# 5 0.007897 -0.003521 -0.010080 0.000000 0.051197 0.000000
# 6 0.000000 0.000000 0.000000 -0.021768 0.000000 0.001545
#
#
# Mechanical properties :
#
#
# Convention : Reuss Voigt Hill
#
# Bulk Modulus (GPa) = -82.47816 14.29170 -34.09323
# Shear Modulus (GPa) = 32.24523 -45.14356 -6.44916
#
# Velocity S-wave (km/s) = 4.17735 -4.94272 -1.86818
# Velocity P-wave (km/s) = 4.62255 4.98394 4.80664
#
# Compressibility (1/GPa) = -0.01212442
#
# Stress axis : x y z
#
# Youngs Moduli (GPa) = 38.28449 91.67484 -28.07276
#
# Poissons Ratio (x) = 0.28541 -0.16967
# Poissons Ratio (y) = 0.11919 0.06714
# Poissons Ratio (z) = 0.23139 -0.21925
#
# Static dielectric constant tensor:
#      x y z
#    x 1.885490 0.000000 -0.020020 
#    y 0.000000 1.668690 0.000000 
#    z -0.020020 0.000000 1.630840 
# 
# From -- ./inp_files/23654.got.cif
#   From: 2010.05.17/outbox.ucp.g08.bks.cvg/sg5_12_cif.got.tgz:23654.got - 2010.06.11 12:53:14.
