data_PCOD9130738
_publ_section_title
;
Structure prediction by ZEFSAII (Michael W. Deem and Ramdas Pophale) SiO2 
 PCOD9130738
Probable space group: C 2
;
_chemical_formula_sum "Si O2"
_cell_formula_units_Z 13
_cell_length_a 30.000000
_cell_length_b 9.000000
_cell_length_c 30.000000
_cell_angle_alpha 90.000000
_cell_angle_beta 170.000000
_cell_angle_gamma 90.000000
_cell_volume 1406.550239
_symmetry_space_group_name_H-M "C 2"
_symmetry_group_IT_number 5
_symmetry_cell_setting 'monoclinic'
loop_
_space_group_symop_operation_xyz
x,y,z
-x,y,-z
1/2+x,1/2+y,z
1/2-x,1/2+y,-z
loop_
_atom_site_type_symbol
_atom_site_label
_atom_site_fract_x
_atom_site_fract_y
_atom_site_fract_z
Si Si1 0.186592 0.004330 0.262189
Si Si2 0.835652 0.383543 0.210517
Si Si3 0.000000 0.776348 0.000000
Si Si4 0.455027 0.041769 0.234181
Si Si5 0.193354 0.353786 0.294846
Si Si6 0.556590 0.761276 0.265013
Si Si7 0.284039 0.567034 0.203988
O O1 0.198742 0.188534 0.275049
O O2 0.449107 0.948520 0.543645
O O3 0.939239 0.956974 0.048323
O O4 0.140671 0.895142 0.172913
O O5 0.919586 0.440941 0.244144
O O6 0.820341 0.204940 0.204581
O O7 0.813649 0.664495 0.847100
O O8 0.700890 0.155985 0.480210
O O9 0.502803 0.914780 0.241664
O O10 0.198982 0.152253 0.981570
O O11 0.133446 0.312043 0.288939
O O12 0.454984 0.457829 0.542189
O O13 0.953667 0.456705 0.042265
#
# Coordination Sequence:
#
# PCOD9130738 Si02
#       7
#     4   4   2   4   4   4   4
#     4  11  23  45  74  94 136 183 233 285 343 424
#     4  11  22  44  68  97 138 190 222 282 350 418
#     4  10  26  50  68 108 130 186 242 286 356 434
#     4  12  25  45  68 104 143 187 240 290 337 413
#     4  12  24  45  69 106 137 186 223 296 351 409
#     4  12  27  44  71 105 146 182 246 282 345 412
#     4  11  26  42  74  99 142 174 233 289 356 413
#
# _framework density 9.2424710000000001
#
# number of rings (size 3 to 8) (size 9 to 14) (size 15 to 20)
#    0.000    0.615    3.077    4.615    4.308    6.154 
#    0.000    3.077    0.000    0.000    0.000    0.000 
#    0.000    0.000    0.000    0.000    0.000    0.000 
#
# Total GULP energy -72414.544841 kJ/mol
# GULP energy per Si atom -5570.349603 kJ/mol
# Density = 0.922143 g / cm^3
# Si number density = 9.242471 Si / 1000 Ang^3
#
#
#
# Elastic Constant Matrix: (Units=GPa)
#
#
# Indices 1 2 3 4 5 6 
#
# 1 126.5131 47.9762 20.9321 0.2479 7.2816 0.0552
# 2 47.9762 205.5565 69.1605 0.1070 2.5867 -0.1541
# 3 20.9321 69.1605 159.0824 -0.8847 15.7920 -0.4766
# 4 0.2479 0.1070 -0.8847 61.0265 -0.3292 4.2220
# 5 7.2816 2.5867 15.7920 -0.3292 32.2450 0.0270
# 6 0.0552 -0.1541 -0.4766 4.2220 0.0270 61.6164
#
#
#
# Elastic Compliance Matrix: (Units=1/GPa)
#
#
# Indices 1 2 3 4 5 6 
#
# 1 0.008779 -0.001988 -0.000116 -0.000043 -0.001767 -0.000010
# 2 -0.001988 0.006168 -0.002539 -0.000033 0.001197 -0.000001
# 3 -0.000116 -0.002539 0.007760 0.000095 -0.003570 0.000049
# 4 -0.000043 -0.000033 0.000095 0.016467 0.000135 -0.001128
# 5 -0.001767 0.001197 -0.003570 0.000135 0.033065 -0.000047
# 6 -0.000010 -0.000001 0.000049 -0.001128 -0.000047 0.016307
#
#
# Mechanical properties :
#
#
# Convention : Reuss Voigt Hill
#
# Bulk Modulus (GPa) = 74.50476 85.25440 79.87958
# Shear Modulus (GPa) = 48.87328 54.51648 51.69488
#
# Velocity S-wave (km/s) = 5.14751 5.43658 5.29402
# Velocity P-wave (km/s) = 8.70186 9.25363 8.98198
#
# Compressibility (1/GPa) = 0.01342196
#
# Stress axis : x y z
#
# Youngs Moduli (GPa) = 113.90734 162.12735 128.86336
#
# Poissons Ratio (x) = 0.32227 0.01493
# Poissons Ratio (y) = 0.22642 0.32718
# Poissons Ratio (z) = 0.01320 0.41164
#
# Static dielectric constant tensor:
#      x y z
#    x 1.702040 -0.000100 -0.008890 
#    y -0.000100 1.652830 -0.000210 
#    z -0.008890 -0.000210 1.672260 
# 
# From -- ./inp_files/72445.got.cif
#   From: 2010.05.17/outbox.ucp.g08.bks.cvg/sg5_37_cif.got.tgz:72445.got - 2010.06.11 12:53:14.
