data_PCOD9130045
_publ_section_title
;
Structure prediction by ZEFSAII (Michael W. Deem and Ramdas Pophale) SiO2 
 PCOD9130045
Probable space group: C 2
;
_chemical_formula_sum "Si O2"
_cell_formula_units_Z 28
_cell_length_a 22.011421
_cell_length_b 9.300032
_cell_length_c 9.183840
_cell_angle_alpha 90.000000
_cell_angle_beta 44.794032
_cell_angle_gamma 90.000000
_cell_volume 1324.570255
_symmetry_space_group_name_H-M "C 2"
_symmetry_group_IT_number 5
_symmetry_cell_setting 'monoclinic'
loop_
_space_group_symop_operation_xyz
x,y,z
-x,y,-z
1/2+x,1/2+y,z
1/2-x,1/2+y,-z
loop_
_atom_site_type_symbol
_atom_site_label
_atom_site_fract_x
_atom_site_fract_y
_atom_site_fract_z
Si Si1 0.812646 0.216350 0.828912
Si Si2 0.141411 0.929373 0.704848
Si Si3 0.000000 0.313198 0.500000
Si Si4 0.719582 0.042068 0.734610
Si Si5 0.751707 0.014240 0.188731
Si Si6 0.880589 0.641567 0.358273
Si Si7 0.500000 0.661998 0.000000
Si Si8 0.534217 0.926763 0.136366
O O1 0.767160 0.124292 0.780858
O O2 0.779124 0.380521 0.860648
O O3 0.914411 0.220100 0.626827
O O4 0.793245 0.137421 0.015279
O O5 0.217021 0.933462 0.455047
O O6 0.186756 0.945104 0.788502
O O7 0.079196 0.066840 0.811027
O O8 0.083244 0.799455 0.737789
O O9 0.017556 0.413938 0.334090
O O10 0.690393 0.141204 0.649861
O O11 0.629980 0.980426 0.944248
O O12 0.671895 0.090621 0.409810
O O13 0.956598 0.526181 0.209749
O O14 0.472835 0.768817 0.918204
#
# Coordination Sequence:
#
# PCOD9130045 Si02
#       8
#     4   4   2   4   4   4   2   4
#     4  12  25  48  71 106 146 198 247 307 367 451
#     4  11  27  43  71 108 146 188 248 313 364 432
#     4  12  26  44  72 106 146 188 246 300 376 444
#     4  11  25  43  76 103 143 193 249 306 367 432
#     4  11  26  45  72 105 145 196 250 302 374 435
#     4  11  24  46  71 105 146 193 249 308 365 438
#     4  12  26  44  74 108 146 194 244 310 374 430
#     4  12  25  47  74 106 145 198 245 304 369 453
#
# _framework density 21.138930999999999
#
# number of rings (size 3 to 8) (size 9 to 14) (size 15 to 20)
#    0.000    0.571    4.286    2.571   10.000    0.000 
#    0.000    0.000    0.000    0.000    0.000    0.000 
#    0.000    0.000    0.000    0.000    0.000    0.000 
#
# Total GULP energy -78131.593946 kJ/mol
# GULP energy per Si atom -5580.828139 kJ/mol
# Density = 2.109082 g / cm^3
# Si number density = 21.138931 Si / 1000 Ang^3
#
#
#
# Elastic Constant Matrix: (Units=GPa)
#
#
# Indices 1 2 3 4 5 6 
#
# 1 91.3561 39.2841 36.2855 0.0000 -11.7182 0.0000
# 2 39.2841 122.1171 47.4783 0.0000 -1.5803 0.0000
# 3 36.2855 47.4783 146.3465 0.0000 -0.9713 0.0000
# 4 0.0000 0.0000 0.0000 128.6379 0.0000 -46.1120
# 5 -11.7182 -1.5803 -0.9713 0.0000 42.1640 0.0000
# 6 0.0000 0.0000 0.0000 -46.1120 0.0000 68.3131
#
#
#
# Elastic Compliance Matrix: (Units=1/GPa)
#
#
# Indices 1 2 3 4 5 6 
#
# 1 0.013828 -0.003522 -0.002262 0.000000 0.003659 0.000000
# 2 -0.003522 0.010271 -0.002463 0.000000 -0.000651 0.000000
# 3 -0.002262 -0.002463 0.008190 0.000000 -0.000532 0.000000
# 4 0.000000 0.000000 0.000000 0.010255 0.000000 0.006922
# 5 0.003659 -0.000651 -0.000532 0.000000 0.024697 0.000000
# 6 0.000000 0.000000 0.000000 0.006922 0.000000 0.019311
#
#
# Mechanical properties :
#
#
# Convention : Reuss Voigt Hill
#
# Bulk Modulus (GPa) = 63.31043 67.32395 65.31719
# Shear Modulus (GPa) = 46.16335 63.60779 54.88557
#
# Velocity S-wave (km/s) = 4.67819 5.49142 5.10104
# Velocity P-wave (km/s) = 7.69385 8.49265 8.10310
#
# Compressibility (1/GPa) = 0.01579519
#
# Stress axis : x y z
#
# Youngs Moduli (GPa) = 72.31570 97.36084 122.10733
#
# Poissons Ratio (x) = 0.34288 0.27618
# Poissons Ratio (y) = 0.25468 0.30079
# Poissons Ratio (z) = 0.16356 0.23983
#
# Static dielectric constant tensor:
#      x y z
#    x 1.327520 0.000000 -0.519630 
#    y 0.000000 1.913270 0.000000 
#    z -0.519630 0.000000 1.131900 
# 
# From -- ./inp_files/29121.got.cif
#   From: 2010.05.17/outbox.cif.g08.bks.cpg/sg5_15_cif.got.tgz:29121.got - 2010.06.03 18:56:24.
