data_PCOD9130149
_publ_section_title
;
Structure prediction by ZEFSAII (Michael W. Deem and Ramdas Pophale) SiO2 
 PCOD9130149
Probable space group: C 2
;
_chemical_formula_sum "Si O2"
_cell_formula_units_Z 20
_cell_length_a 11.583901
_cell_length_b 7.576847
_cell_length_c 17.723183
_cell_angle_alpha 90.000000
_cell_angle_beta 150.838373
_cell_angle_gamma 90.000000
_cell_volume 757.982429
_symmetry_space_group_name_H-M "C 2"
_symmetry_group_IT_number 5
_symmetry_cell_setting 'monoclinic'
loop_
_space_group_symop_operation_xyz
x,y,z
-x,y,-z
1/2+x,1/2+y,z
1/2-x,1/2+y,-z
loop_
_atom_site_type_symbol
_atom_site_label
_atom_site_fract_x
_atom_site_fract_y
_atom_site_fract_z
Si Si1 0.890683 0.964230 0.517501
Si Si2 0.006057 0.676939 0.119151
Si Si3 0.018602 0.253681 0.681591
Si Si4 0.669834 0.807529 0.171779
Si Si5 0.979744 0.040291 0.797946
O O1 0.614459 0.930293 0.373250
O O2 0.000000 0.907635 0.500000
O O3 0.053775 0.859117 0.672334
O O4 0.942662 0.170620 0.558589
O O5 0.198027 0.742631 0.166170
O O6 0.082551 0.472938 0.174147
O O7 0.007633 0.831205 0.182407
O O8 0.734153 0.640118 0.944901
O O9 0.891842 0.120912 0.669638
O O10 0.646689 0.624758 0.201825
O O11 0.500000 0.812010 0.000000
#
# Coordination Sequence:
#
# PCOD9130149 Si02
#       5
#     4   4   4   4   4
#     4  11  25  48  73 103 152 194 244 307 370 438
#     4  11  25  45  74 112 147 192 251 306 368 439
#     4  11  27  47  73 110 151 192 258 300 368 458
#     4  11  25  48  75 111 149 193 252 310 365 447
#     4  12  24  47  78 105 152 199 245 311 378 430
#
# _framework density 26.385836000000001
#
# number of rings (size 3 to 8) (size 9 to 14) (size 15 to 20)
#    0.000    0.800    4.000    3.000    2.800    5.600 
#    0.000    0.000    0.000    0.000    0.000    0.000 
#    0.000    0.000    0.000    0.000    0.000    0.000 
#
# Total GULP energy -55720.150770 kJ/mol
# GULP energy per Si atom -5572.015077 kJ/mol
# Density = 2.632578 g / cm^3
# Si number density = 26.385836 Si / 1000 Ang^3
#
#
#
# Elastic Constant Matrix: (Units=GPa)
#
#
# Indices 1 2 3 4 5 6 
#
# 1 97.3778 13.7325 32.1483 0.0001 5.5719 -0.0002
# 2 13.7325 89.9282 -8.0283 0.0010 -17.3761 0.0001
# 3 32.1483 -8.0283 62.4276 0.0052 0.3715 0.0017
# 4 0.0001 0.0010 0.0052 26.9771 0.0014 9.6620
# 5 5.5719 -17.3761 0.3715 0.0014 44.7184 0.0000
# 6 -0.0002 0.0001 0.0017 9.6620 0.0000 29.7965
#
#
#
# Elastic Compliance Matrix: (Units=1/GPa)
#
#
# Indices 1 2 3 4 5 6 
#
# 1 0.013275 -0.003223 -0.007234 0.000002 -0.002846 0.000000
# 2 -0.003223 0.012951 0.003293 -0.000001 0.005406 0.000000
# 3 -0.007234 0.003293 0.020155 -0.000004 0.002013 0.000000
# 4 0.000002 -0.000001 -0.000004 0.041939 -0.000002 -0.013599
# 5 -0.002846 0.005406 0.002013 -0.000002 0.024801 0.000000
# 6 0.000000 0.000000 0.000000 -0.013599 0.000000 0.037971
#
#
# Mechanical properties :
#
#
# Convention : Reuss Voigt Hill
#
# Bulk Modulus (GPa) = 31.19768 36.15986 33.67877
# Shear Modulus (GPa) = 28.39246 34.42380 31.40813
#
# Velocity S-wave (km/s) = 3.28388 3.61589 3.45387
# Velocity P-wave (km/s) = 5.12131 5.58273 5.35699
#
# Compressibility (1/GPa) = 0.03205366
#
# Stress axis : x y z
#
# Youngs Moduli (GPa) = 75.33104 77.21564 49.61513
#
# Poissons Ratio (x) = 0.24885 0.35890
# Poissons Ratio (y) = 0.24278 -0.16338
# Poissons Ratio (z) = 0.54492 -0.25427
#
# Static dielectric constant tensor:
#      x y z
#    x 2.185890 0.000000 -0.019340 
#    y 0.000000 2.060450 0.000000 
#    z -0.019340 0.000000 2.283550 
# 
# From -- ./inp_files/60325.got.cif
#   From: 2010.05.17/outbox.cif.g08.bks.cpg/sg5_31_cif.got.tgz:60325.got - 2010.06.03 18:56:24.
