data_PCOD9130400
_publ_section_title
;
Structure prediction by ZEFSAII (Michael W. Deem and Ramdas Pophale) SiO2 
 PCOD9130400
Probable space group: C 2
;
_chemical_formula_sum "Si O2"
_cell_formula_units_Z 32
_cell_length_a 23.843098
_cell_length_b 14.196979
_cell_length_c 8.589093
_cell_angle_alpha 90.000000
_cell_angle_beta 146.711006
_cell_angle_gamma 90.000000
_cell_volume 1595.766325
_symmetry_space_group_name_H-M "C 2"
_symmetry_group_IT_number 5
_symmetry_cell_setting 'monoclinic'
loop_
_space_group_symop_operation_xyz
x,y,z
-x,y,-z
1/2+x,1/2+y,z
1/2-x,1/2+y,-z
loop_
_atom_site_type_symbol
_atom_site_label
_atom_site_fract_x
_atom_site_fract_y
_atom_site_fract_z
Si Si1 0.296673 0.806130 0.301191
Si Si2 0.206210 0.954521 0.848449
Si Si3 0.435001 0.963800 0.700332
Si Si4 0.583707 0.026609 0.816431
Si Si5 0.186953 0.655408 0.611987
Si Si6 0.551249 0.302249 0.446999
Si Si7 0.379621 0.655565 0.246811
Si Si8 0.132792 0.708430 0.136020
O O1 0.376421 0.867111 0.584407
O O2 0.347377 0.734182 0.297575
O O3 0.225622 0.750648 0.254068
O O4 0.235466 0.884590 0.058377
O O5 0.119753 0.892441 0.561697
O O6 0.153669 0.052161 0.772101
O O7 0.312728 0.982705 0.011681
O O8 0.515094 0.950354 0.746632
O O9 0.356547 0.049008 0.481571
O O10 0.500000 0.991686 0.000000
O O11 0.500000 0.065368 0.500000
O O12 0.607841 0.108877 0.995103
O O13 0.129197 0.714505 0.612297
O O14 0.157062 0.694155 0.373082
O O15 0.306557 0.666668 0.926024
O O16 0.500000 0.311084 0.500000
O O17 0.462227 0.276923 0.119429
O O18 0.500000 0.659993 0.500000
#
# Coordination Sequence:
#
# PCOD9130400 Si02
#       8
#     4   4   4   4   4   4   4   4
#     4  12  26  44  69 104 140 187 237 285 344 429
#     4  12  25  42  70 103 137 179 243 288 343 408
#     4  12  25  43  73 106 142 180 235 292 359 411
#     4  12  23  41  72 100 136 188 237 292 339 413
#     4  12  24  46  72 108 141 179 234 306 350 408
#     4  12  23  41  74 104 135 181 238 286 343 415
#     4  12  27  46  70  99 143 187 234 292 352 420
#     4  12  25  44  72 103 144 182 232 295 356 406
#
# _framework density 20.053061
#
# number of rings (size 3 to 8) (size 9 to 14) (size 15 to 20)
#    0.000    0.000    8.750    1.125    1.750    2.000 
#    0.000    0.000    2.750    0.000    0.000    0.000 
#    0.000    0.000    0.000    0.000    0.000    0.000 
#
# Total GULP energy -89402.690493 kJ/mol
# GULP energy per Si atom -5587.668156 kJ/mol
# Density = 2.000742 g / cm^3
# Si number density = 20.053061 Si / 1000 Ang^3
#
#
#
# Elastic Constant Matrix: (Units=GPa)
#
#
# Indices 1 2 3 4 5 6 
#
# 1 99.6652 28.4067 67.5398 0.0000 19.5893 0.0000
# 2 28.4067 98.7148 42.3372 0.0000 9.5735 0.0000
# 3 67.5398 42.3372 143.8251 0.0000 23.1409 0.0000
# 4 0.0000 0.0000 0.0000 39.4404 0.0000 8.4070
# 5 19.5893 9.5735 23.1409 0.0000 32.7325 0.0000
# 6 0.0000 0.0000 0.0000 8.4070 0.0000 25.1830
#
#
#
# Elastic Compliance Matrix: (Units=1/GPa)
#
#
# Indices 1 2 3 4 5 6 
#
# 1 0.015471 -0.001384 -0.006130 0.000000 -0.004520 0.000000
# 2 -0.001384 0.011753 -0.002697 0.000000 -0.000703 0.000000
# 3 -0.006130 -0.002697 0.011180 0.000000 -0.003446 0.000000
# 4 0.000000 0.000000 0.000000 0.027297 0.000000 -0.009113
# 5 -0.004520 -0.000703 -0.003446 0.000000 0.035898 0.000000
# 6 0.000000 0.000000 0.000000 -0.009113 0.000000 0.042751
#
#
# Mechanical properties :
#
#
# Convention : Reuss Voigt Hill
#
# Bulk Modulus (GPa) = 55.61288 68.75248 62.18268
# Shear Modulus (GPa) = 29.27968 33.06595 31.17281
#
# Velocity S-wave (km/s) = 3.82528 4.06510 3.94701
# Velocity P-wave (km/s) = 6.87775 7.50953 7.20057
#
# Compressibility (1/GPa) = 0.01798145
#
# Stress axis : x y z
#
# Youngs Moduli (GPa) = 64.63754 85.08288 89.44580
#
# Poissons Ratio (x) = 0.11779 0.54833
# Poissons Ratio (y) = 0.08949 0.24120
# Poissons Ratio (z) = 0.39625 0.22943
#
# Static dielectric constant tensor:
#      x y z
#    x 1.713600 0.000000 -0.001550 
#    y 0.000000 1.705940 0.000000 
#    z -0.001550 0.000000 1.759330 
# 
# From -- ./inp_files/31081.got.cif
#   From: 2010.05.17/outbox.cif.g08.bks.cpg/sg5_16_cif.got.tgz:31081.got - 2010.06.03 18:56:24.
