data_PCOD9130814
_publ_section_title
;
Structure prediction by ZEFSAII (Michael W. Deem and Ramdas Pophale) SiO2 
 PCOD9130814
Probable space group: P M
;
_chemical_formula_sum "Si O2"
_cell_formula_units_Z 16
_cell_length_a 10.524206
_cell_length_b 8.808385
_cell_length_c 12.425702
_cell_angle_alpha 90.000000
_cell_angle_beta 52.642434
_cell_angle_gamma 90.000000
_cell_volume 915.586790
_symmetry_space_group_name_H-M "P M"
_symmetry_group_IT_number 6
_symmetry_cell_setting 'monoclinic'
loop_
_space_group_symop_operation_xyz
x,y,z
x,-y,z
loop_
_atom_site_type_symbol
_atom_site_label
_atom_site_fract_x
_atom_site_fract_y
_atom_site_fract_z
Si Si1 0.623200 0.818661 0.613950
Si Si2 0.445184 0.182857 0.069205
Si Si3 0.793459 0.320089 0.924115
Si Si4 0.953258 0.817526 0.052962
Si Si5 0.898619 0.180039 0.649860
Si Si6 0.850455 0.680328 0.326348
Si Si7 0.319017 0.184461 0.897681
Si Si8 0.118028 0.182333 0.344127
O O1 0.744625 0.794845 0.651932
O O2 0.698280 0.735331 0.473489
O O3 0.448707 0.767740 0.742312
O O4 0.622085 0.000000 0.594013
O O5 0.301873 0.217407 0.225698
O O6 0.469750 0.000000 0.055150
O O7 0.611208 0.261883 0.009731
O O8 0.381291 0.228938 0.983850
O O9 0.796993 0.500000 0.934117
O O10 0.878923 0.270544 0.769375
O O11 0.878253 0.242508 0.981798
O O12 0.860110 0.754440 0.204286
O O13 0.949781 0.000000 0.056723
O O14 0.138369 0.766500 0.969241
O O15 0.049892 0.220079 0.497000
O O16 0.904095 0.000000 0.671368
O O17 0.853516 0.500000 0.316926
O O18 0.004009 0.738475 0.315461
O O19 0.319119 0.000000 0.897374
O O20 0.096749 0.000000 0.340825
#
# Coordination Sequence:
#
# PCOD9130814 Si02
#       8
#     2   2   2   2   2   2   2   2
#     4   9  17  33  57  84 111 142 184 234 278 326
#     4  10  18  36  61  86 110 142 192 241 276 322
#     4  12  25  38  53  82 120 155 185 225 285 345
#     4  11  22  40  62  82 108 150 194 235 278 331
#     4   9  17  33  57  83 110 146 187 230 274 328
#     4  11  21  33  52  84 120 149 180 225 284 340
#     4   9  17  33  61  88 107 135 191 245 276 315
#     4   9  18  34  59  85 110 143 191 237 275 323
#
# _framework density 17.47513
#
# number of rings (size 3 to 8) (size 9 to 14) (size 15 to 20)
#    0.000    2.000    2.500    3.375    0.000    2.500 
#    0.000    2.500    0.000    3.000    0.000    0.000 
#    0.000    0.000    0.000    0.000    0.000    0.000 
#
# Total GULP energy -89310.949835 kJ/mol
# GULP energy per Si atom -5581.934365 kJ/mol
# Density = 1.743536 g / cm^3
# Si number density = 17.475130 Si / 1000 Ang^3
#
#
#
# Elastic Constant Matrix: (Units=GPa)
#
#
# Indices 1 2 3 4 5 6 
#
# 1 96.6581 39.7349 70.1129 0.0000 1.2605 0.0000
# 2 39.7349 64.0189 60.8828 0.0000 7.0854 0.0000
# 3 70.1129 60.8828 161.1146 0.0000 -1.7394 0.0000
# 4 0.0000 0.0000 0.0000 -18.2785 0.0000 -6.0887
# 5 1.2605 7.0854 -1.7394 0.0000 22.4301 0.0000
# 6 0.0000 0.0000 0.0000 -6.0887 0.0000 9.4452
#
#
#
# Elastic Compliance Matrix: (Units=1/GPa)
#
#
# Indices 1 2 3 4 5 6 
#
# 1 0.016165 -0.005289 -0.005032 0.000000 0.000372 0.000000
# 2 -0.005289 0.027815 -0.008308 0.000000 -0.009133 0.000000
# 3 -0.005032 -0.008308 0.011577 0.000000 0.003805 0.000000
# 4 0.000000 0.000000 0.000000 -0.045038 0.000000 -0.029033
# 5 0.000372 -0.009133 0.003805 0.000000 0.047742 0.000000
# 6 0.000000 0.000000 0.000000 -0.029033 0.000000 0.087158
#
#
# Mechanical properties :
#
#
# Convention : Reuss Voigt Hill
#
# Bulk Modulus (GPa) = 54.64649 73.69476 64.17062
# Shear Modulus (GPa) = 26.48633 12.79010 19.63822
#
# Velocity S-wave (km/s) = 3.89737 2.70831 3.35592
# Velocity P-wave (km/s) = 7.18273 7.21406 7.19841
#
# Compressibility (1/GPa) = 0.01829944
#
# Stress axis : x y z
#
# Youngs Moduli (GPa) = 61.86121 35.95218 86.37805
#
# Poissons Ratio (x) = 0.19015 0.43466
# Poissons Ratio (y) = 0.32718 0.71761
# Poissons Ratio (z) = 0.31129 0.29868
#
# Static dielectric constant tensor:
#      x y z
#    x 1.564580 0.000000 -0.016420 
#    y 0.000000 1.577760 0.000000 
#    z -0.016420 0.000000 1.606930 
# 
# From -- ./inp_files/3747.got.cif
#   From: 2010.05.17/outbox.cif.g08.bks.cpg/sg6_2_cif.got.tgz:3747.got - 2010.06.03 19:42:10.
