data_PCOD9130342
_publ_section_title
;
Structure prediction by ZEFSAII (Michael W. Deem and Ramdas Pophale) SiO2 
 PCOD9130342
Probable space group: C 2
;
_chemical_formula_sum "Si O2"
_cell_formula_units_Z 32
_cell_length_a 9.715002
_cell_length_b 19.253805
_cell_length_c 12.319931
_cell_angle_alpha 90.000000
_cell_angle_beta 51.776939
_cell_angle_gamma 90.000000
_cell_volume 1810.396058
_symmetry_space_group_name_H-M "C 2"
_symmetry_group_IT_number 5
_symmetry_cell_setting 'monoclinic'
loop_
_space_group_symop_operation_xyz
x,y,z
-x,y,-z
1/2+x,1/2+y,z
1/2-x,1/2+y,-z
loop_
_atom_site_type_symbol
_atom_site_label
_atom_site_fract_x
_atom_site_fract_y
_atom_site_fract_z
Si Si1 0.682463 0.212680 0.547546
Si Si2 0.987444 0.920022 0.133648
Si Si3 0.738392 0.215363 0.271739
Si Si4 0.269007 0.555404 0.274346
Si Si5 0.366806 0.055969 0.412009
Si Si6 0.697376 0.856423 0.872192
Si Si7 0.701267 0.850178 0.420894
Si Si8 0.794887 0.925771 0.599102
O O1 0.767534 0.226599 0.387189
O O2 0.472954 0.220016 0.635479
O O3 0.694024 0.134033 0.582832
O O4 0.760543 0.268670 0.589935
O O5 0.823519 0.882009 0.269469
O O6 0.158774 0.889896 0.114712
O O7 0.925788 0.001423 0.173674
O O8 0.000000 0.904569 0.000000
O O9 0.805742 0.136050 0.225693
O O10 0.799574 0.273177 0.155634
O O11 0.216962 0.545974 0.426864
O O12 0.076767 0.544745 0.313918
O O13 0.294375 0.999907 0.366014
O O14 0.740973 0.886935 0.733330
O O15 0.500000 0.875394 0.000000
O O16 0.500000 0.865923 0.500000
O O17 0.751446 0.882820 0.512190
O O18 0.000000 0.935851 0.500000
#
# Coordination Sequence:
#
# PCOD9130342 Si02
#       8
#     4   4   4   4   4   4   4   4
#     4   9  17  34  60  93 121 153 197 262 308 361
#     4  12  26  41  59  93 131 163 206 261 315 369
#     4   9  17  36  64  89 119 156 208 249 303 370
#     4   9  18  36  61  92 120 160 201 253 307 374
#     4   9  18  32  62  94 121 151 205 256 311 360
#     4  12  26  40  62  93 127 166 206 260 316 366
#     4  12  23  37  64  91 123 160 207 256 313 367
#     4  12  21  39  64  88 120 160 207 262 303 367
#
# _framework density 17.675692000000002
#
# number of rings (size 3 to 8) (size 9 to 14) (size 15 to 20)
#    0.000    1.500    5.000    2.250    3.500    1.000 
#    0.000    0.000    0.000    2.250    0.000    0.000 
#    0.000    0.000    0.000    0.000    0.000    0.000 
#
# Total GULP energy -89118.940934 kJ/mol
# GULP energy per Si atom -5569.933808 kJ/mol
# Density = 1.763546 g / cm^3
# Si number density = 17.675692 Si / 1000 Ang^3
#
#
#
# Elastic Constant Matrix: (Units=GPa)
#
#
# Indices 1 2 3 4 5 6 
#
# 1 74.3216 56.6270 28.0781 0.0000 -0.1295 0.0000
# 2 56.6270 97.6623 36.1549 0.0000 -0.4286 0.0000
# 3 28.0781 36.1549 70.8679 0.0000 4.2108 0.0000
# 4 0.0000 0.0000 0.0000 11.5181 0.0000 -5.2765
# 5 -0.1295 -0.4286 4.2108 0.0000 26.5480 0.0000
# 6 0.0000 0.0000 0.0000 -5.2765 0.0000 23.2462
#
#
#
# Elastic Compliance Matrix: (Units=1/GPa)
#
#
# Indices 1 2 3 4 5 6 
#
# 1 0.024630 -0.013140 -0.003079 0.000000 0.000396 0.000000
# 2 -0.013140 0.019674 -0.004892 0.000000 0.001029 0.000000
# 3 -0.003079 -0.004892 0.018002 0.000000 -0.002949 0.000000
# 4 0.000000 0.000000 0.000000 0.096895 0.000000 0.021994
# 5 0.000396 0.001029 -0.002949 0.000000 0.038154 0.000000
# 6 0.000000 0.000000 0.000000 0.021994 0.000000 0.048010
#
#
# Mechanical properties :
#
#
# Convention : Reuss Voigt Hill
#
# Bulk Modulus (GPa) = 49.78950 53.84130 51.81540
# Shear Modulus (GPa) = 16.99058 20.39524 18.69291
#
# Velocity S-wave (km/s) = 3.10375 3.40053 3.25553
# Velocity P-wave (km/s) = 6.40889 6.77827 6.59617
#
# Compressibility (1/GPa) = 0.02008456
#
# Stress axis : x y z
#
# Youngs Moduli (GPa) = 40.60045 50.82909 55.55069
#
# Poissons Ratio (x) = 0.66788 0.17102
# Poissons Ratio (y) = 0.53348 0.27176
# Poissons Ratio (z) = 0.12499 0.24866
#
# Static dielectric constant tensor:
#      x y z
#    x 1.585920 0.000000 -0.001670 
#    y 0.000000 1.670600 0.000000 
#    z -0.001670 0.000000 1.593020 
# 
# From -- ./inp_files/37358.got.cif
#   From: 2010.05.17/outbox.cif.g08.bks.cpg/sg5_19_cif.got.tgz:37358.got - 2010.06.03 18:56:24.
