data_PCOD9130642
_publ_section_title
;
Structure prediction by ZEFSAII (Michael W. Deem and Ramdas Pophale) SiO2 
 PCOD9130642
Probable space group: C 2
;
_chemical_formula_sum "Si O2"
_cell_formula_units_Z 20
_cell_length_a 29.768812
_cell_length_b 5.127150
_cell_length_c 5.131449
_cell_angle_alpha 90.000000
_cell_angle_beta 97.315412
_cell_angle_gamma 90.000000
_cell_volume 776.833632
_symmetry_space_group_name_H-M "C 2"
_symmetry_group_IT_number 5
_symmetry_cell_setting 'monoclinic'
loop_
_space_group_symop_operation_xyz
x,y,z
-x,y,-z
1/2+x,1/2+y,z
1/2-x,1/2+y,-z
loop_
_atom_site_type_symbol
_atom_site_label
_atom_site_fract_x
_atom_site_fract_y
_atom_site_fract_z
Si Si1 0.160059 0.353720 0.536334
Si Si2 0.923621 0.012205 0.720684
Si Si3 0.000000 0.365841 0.000000
Si Si4 0.000000 0.721530 0.500000
Si Si5 0.722101 0.548322 0.916466
Si Si6 0.853225 0.699242 0.955319
O O1 0.168661 0.536292 0.295600
O O2 0.203306 0.177396 0.639153
O O3 0.148446 0.534201 0.779823
O O4 0.116852 0.175530 0.437697
O O5 0.956067 0.893276 0.525980
O O6 0.901572 0.786857 0.881214
O O7 0.956123 0.189846 0.917977
O O8 0.993156 0.542605 0.245780
O O9 0.675929 0.460363 0.023936
O O10 0.749459 0.277556 0.926120
#
# Coordination Sequence:
#
# PCOD9130642 Si02
#       6
#     4   4   2   2   4   4
#     4  12  29  56  84 124 168 220 278 351 421 504
#     4  12  30  51  84 120 164 220 284 339 428 490
#     4  12  30  52  78 120 166 218 280 348 412 506
#     4  12  30  52  78 120 166 218 280 348 412 506
#     4  12  28  59  86 128 172 222 286 349 424 504
#     4  12  29  56  84 124 168 220 278 351 421 504
#
# _framework density 25.745539000000001
#
# number of rings (size 3 to 8) (size 9 to 14) (size 15 to 20)
#    0.000    0.000    2.000    4.800    0.000   24.000 
#   10.800    0.000    0.000    0.000    0.000    0.000 
#    0.000    0.000    0.000    0.000    0.000    0.000 
#
# Total GULP energy -56205.439501 kJ/mol
# GULP energy per Si atom -5620.543950 kJ/mol
# Density = 2.568694 g / cm^3
# Si number density = 25.745539 Si / 1000 Ang^3
#
#
#
# Elastic Constant Matrix: (Units=GPa)
#
#
# Indices 1 2 3 4 5 6 
#
# 1 81.4420 22.2837 12.4786 0.0000 13.5297 0.0000
# 2 22.2837 131.6855 51.5498 0.0000 12.3810 0.0000
# 3 12.4786 51.5498 165.2344 0.0000 5.5534 0.0000
# 4 0.0000 0.0000 0.0000 42.9037 0.0000 -4.3776
# 5 13.5297 12.3810 5.5534 0.0000 52.6885 0.0000
# 6 0.0000 0.0000 0.0000 -4.3776 0.0000 94.2565
#
#
#
# Elastic Compliance Matrix: (Units=1/GPa)
#
#
# Indices 1 2 3 4 5 6 
#
# 1 0.013325 -0.001848 -0.000331 0.000000 -0.002953 0.000000
# 2 -0.001848 0.009071 -0.002644 0.000000 -0.001378 0.000000
# 3 -0.000331 -0.002644 0.006903 0.000000 -0.000021 0.000000
# 4 0.000000 0.000000 0.000000 0.023419 0.000000 0.001088
# 5 -0.002953 -0.001378 -0.000021 0.000000 0.020064 0.000000
# 6 0.000000 0.000000 0.000000 0.001088 0.000000 0.010660
#
#
# Mechanical properties :
#
#
# Convention : Reuss Voigt Hill
#
# Bulk Modulus (GPa) = 50.88023 61.22068 56.05046
# Shear Modulus (GPa) = 50.18131 57.43971 53.81051
#
# Velocity S-wave (km/s) = 4.41968 4.72853 4.57671
# Velocity P-wave (km/s) = 6.77129 7.32412 7.05313
#
# Compressibility (1/GPa) = 0.01965400
#
# Stress axis : x y z
#
# Youngs Moduli (GPa) = 75.04431 110.23863 144.87258
#
# Poissons Ratio (x) = 0.20371 0.04790
# Poissons Ratio (y) = 0.13867 0.38307
# Poissons Ratio (z) = 0.02481 0.29149
#
# Static dielectric constant tensor:
#      x y z
#    x 2.009410 0.000000 0.000270 
#    y 0.000000 2.017100 0.000000 
#    z 0.000270 0.000000 1.968470 
# 
# From -- ./inp_files/10970.got.cif
#   From: 2010.05.17/outbox.cif.g08.bks.cpg/sg5_6_cif.got.tgz:10970.got - 2010.06.03 18:56:24.
