data_PCOD9130580
_publ_section_title
;
Structure prediction by ZEFSAII (Michael W. Deem and Ramdas Pophale) SiO2 
 PCOD9130580
Probable space group: C 2
;
_chemical_formula_sum "Si O2"
_cell_formula_units_Z 16
_cell_length_a 13.755334
_cell_length_b 4.817611
_cell_length_c 9.143929
_cell_angle_alpha 90.000000
_cell_angle_beta 104.838775
_cell_angle_gamma 90.000000
_cell_volume 585.740296
_symmetry_space_group_name_H-M "C 2"
_symmetry_group_IT_number 5
_symmetry_cell_setting 'monoclinic'
loop_
_space_group_symop_operation_xyz
x,y,z
-x,y,-z
1/2+x,1/2+y,z
1/2-x,1/2+y,-z
loop_
_atom_site_type_symbol
_atom_site_label
_atom_site_fract_x
_atom_site_fract_y
_atom_site_fract_z
Si Si1 0.009049 0.265690 0.786211
Si Si2 0.328885 0.460662 0.347973
Si Si3 0.694352 0.075054 0.917810
Si Si4 0.373153 0.282379 0.691909
O O1 0.078255 0.114261 0.692183
O O2 0.091361 0.418098 0.921398
O O3 0.932099 0.022713 0.803547
O O4 0.946810 0.521752 0.698999
O O5 0.314179 0.174279 0.253435
O O6 0.347552 0.413079 0.524913
O O7 0.227902 0.638263 0.289785
O O8 0.782409 0.865117 0.994912
#
# Coordination Sequence:
#
# PCOD9130580 Si02
#       4
#     4   4   4   4
#     4  12  27  48  78 114 157 206 248 326 382 469
#     4  12  29  47  82 114 164 196 247 341 376 469
#     4  12  26  50  81 107 156 219 258 306 385 456
#     4  12  29  44  80 124 150 195 263 309 421 443
#
# _framework density 27.315860000000001
#
# number of rings (size 3 to 8) (size 9 to 14) (size 15 to 20)
#    0.000    0.000    5.000    2.250   14.000    0.000 
#    0.000    1.250   16.500    0.000    0.000    0.000 
#    0.000    0.000    0.000    0.000    0.000    0.000 
#
# Total GULP energy -44900.237804 kJ/mol
# GULP energy per Si atom -5612.529725 kJ/mol
# Density = 2.725369 g / cm^3
# Si number density = 27.315860 Si / 1000 Ang^3
#
#
#
# Elastic Constant Matrix: (Units=GPa)
#
#
# Indices 1 2 3 4 5 6 
#
# 1 174.6515 82.6460 24.6336 0.0000 -12.2676 0.0000
# 2 82.6460 220.7435 19.3636 0.0000 0.1610 0.0000
# 3 24.6336 19.3636 62.2205 0.0000 -1.2362 0.0000
# 4 0.0000 0.0000 0.0000 57.7716 0.0000 13.2150
# 5 -12.2676 0.1610 -1.2362 0.0000 30.0232 0.0000
# 6 0.0000 0.0000 0.0000 13.2150 0.0000 89.6188
#
#
#
# Elastic Compliance Matrix: (Units=1/GPa)
#
#
# Indices 1 2 3 4 5 6 
#
# 1 0.007466 -0.002615 -0.002083 0.000000 0.002979 0.000000
# 2 -0.002615 0.005573 -0.000722 0.000000 -0.001128 0.000000
# 3 -0.002083 -0.000722 0.017118 0.000000 -0.000142 0.000000
# 4 0.000000 0.000000 0.000000 0.017914 0.000000 -0.002642
# 5 0.002979 -0.001128 -0.000142 0.000000 0.034525 0.000000
# 6 0.000000 0.000000 0.000000 -0.002642 0.000000 0.011548
#
#
# Mechanical properties :
#
#
# Convention : Reuss Voigt Hill
#
# Bulk Modulus (GPa) = 51.76290 78.98912 65.37601
# Shear Modulus (GPa) = 44.87426 57.54754 51.21090
#
# Velocity S-wave (km/s) = 4.05753 4.59491 4.33456
# Velocity P-wave (km/s) = 6.39862 7.55848 7.00261
#
# Compressibility (1/GPa) = 0.01931886
#
# Stress axis : x y z
#
# Youngs Moduli (GPa) = 133.94017 179.42944 58.41709
#
# Poissons Ratio (x) = 0.46916 0.12168
# Poissons Ratio (y) = 0.35022 0.04216
# Poissons Ratio (z) = 0.27899 0.12949
#
# Static dielectric constant tensor:
#      x y z
#    x 2.129120 0.000000 -0.005910 
#    y 0.000000 2.045910 0.000000 
#    z -0.005910 0.000000 2.120310 
# 
# From -- ./inp_files/22394.got.cif
#   From: 2010.05.17/outbox.cif.g08.bks.cpg/sg5_12_cif.got.tgz:22394.got - 2010.06.03 18:56:24.
