data_PCOD9130417
_publ_section_title
;
Structure prediction by ZEFSAII (Michael W. Deem and Ramdas Pophale) SiO2 
 PCOD9130417
Probable space group: C 2
;
_chemical_formula_sum "Si O2"
_cell_formula_units_Z 24
_cell_length_a 13.783802
_cell_length_b 14.767876
_cell_length_c 10.748333
_cell_angle_alpha 90.000000
_cell_angle_beta 149.092513
_cell_angle_gamma 90.000000
_cell_volume 1123.824047
_symmetry_space_group_name_H-M "C 2"
_symmetry_group_IT_number 5
_symmetry_cell_setting 'monoclinic'
loop_
_space_group_symop_operation_xyz
x,y,z
-x,y,-z
1/2+x,1/2+y,z
1/2-x,1/2+y,-z
loop_
_atom_site_type_symbol
_atom_site_label
_atom_site_fract_x
_atom_site_fract_y
_atom_site_fract_z
Si Si1 0.673275 0.495800 0.785423
Si Si2 0.310685 0.799996 0.559557
Si Si3 0.000000 0.079989 0.000000
Si Si4 0.500000 0.891580 0.000000
Si Si5 0.877906 0.171377 0.114103
Si Si6 0.686017 0.939762 0.640928
Si Si7 0.375055 0.335466 0.075969
O O1 0.500000 0.502856 0.500000
O O2 0.855204 0.455331 0.915932
O O3 0.694485 0.591705 0.877305
O O4 0.618776 0.423497 0.830798
O O5 0.380962 0.828146 0.774307
O O6 0.410962 0.708113 0.626152
O O7 0.380258 0.881116 0.547957
O O8 0.086847 0.798470 0.297847
O O9 0.103078 0.135733 0.005616
O O10 0.838463 0.013811 0.768364
O O11 0.748924 0.258825 0.993766
O O12 0.500000 0.980681 0.500000
O O13 0.785251 0.870667 0.847846
#
# Coordination Sequence:
#
# PCOD9130417 Si02
#       7
#     4   4   2   2   4   4   4
#     4  12  26  47  75 108 152 193 244 305 366 440
#     4  12  25  46  77 105 147 196 247 296 367 440
#     4  12  27  48  73 116 146 188 253 306 363 440
#     4  12  25  48  79 102 144 208 239 292 377 438
#     4  12  28  46  74 115 146 187 254 309 357 440
#     4  12  23  47  78 103 148 198 241 298 373 433
#     4  12  25  50  76 105 149 200 239 304 375 435
#
# _framework density 21.355657000000001
#
# number of rings (size 3 to 8) (size 9 to 14) (size 15 to 20)
#    0.000    0.000    8.333    0.500    2.333    2.667 
#    0.000    0.000    0.000    0.000    0.000    0.000 
#    0.000    0.000    0.000    0.000    0.000    0.000 
#
# Total GULP energy -67147.020102 kJ/mol
# GULP energy per Si atom -5595.585009 kJ/mol
# Density = 2.130705 g / cm^3
# Si number density = 21.355657 Si / 1000 Ang^3
#
#
#
# Elastic Constant Matrix: (Units=GPa)
#
#
# Indices 1 2 3 4 5 6 
#
# 1 77.5213 13.2805 16.4399 0.0000 6.2430 0.0000
# 2 13.2805 92.5700 4.5876 0.0000 -3.0304 0.0000
# 3 16.4399 4.5876 66.6485 0.0000 4.0001 0.0000
# 4 0.0000 0.0000 0.0000 24.1164 0.0000 9.5631
# 5 6.2430 -3.0304 4.0001 0.0000 50.7749 0.0000
# 6 0.0000 0.0000 0.0000 9.5631 0.0000 39.6263
#
#
#
# Elastic Compliance Matrix: (Units=1/GPa)
#
#
# Indices 1 2 3 4 5 6 
#
# 1 0.014040 -0.001906 -0.003237 0.000000 -0.001585 0.000000
# 2 -0.001906 0.011124 -0.000351 0.000000 0.000926 0.000000
# 3 -0.003237 -0.000351 0.015879 0.000000 -0.000874 0.000000
# 4 0.000000 0.000000 0.000000 0.045854 0.000000 -0.011066
# 5 -0.001585 0.000926 -0.000874 0.000000 0.020014 0.000000
# 6 0.000000 0.000000 0.000000 -0.011066 0.000000 0.027906
#
#
# Mechanical properties :
#
#
# Convention : Reuss Voigt Hill
#
# Bulk Modulus (GPa) = 33.27183 33.92843 33.60013
# Shear Modulus (GPa) = 32.08763 36.39896 34.24330
#
# Velocity S-wave (km/s) = 3.88046 4.13294 4.00869
# Velocity P-wave (km/s) = 5.97419 6.22067 6.09868
#
# Compressibility (1/GPa) = 0.03005546
#
# Stress axis : x y z
#
# Youngs Moduli (GPa) = 71.22367 89.89767 62.97560
#
# Poissons Ratio (x) = 0.17132 0.20385
# Poissons Ratio (y) = 0.13573 0.02212
# Poissons Ratio (z) = 0.23055 0.03157
#
# Static dielectric constant tensor:
#      x y z
#    x 1.804420 0.000000 -0.001710 
#    y 0.000000 1.745380 0.000000 
#    z -0.001710 0.000000 1.763010 
# 
# From -- ./inp_files/43130.got.cif
#   From: 2010.05.17/outbox.cif.g08.bks.cpg/sg5_22_cif.got.tgz:43130.got - 2010.06.03 18:56:24.
