data_PCOD9130073
_publ_section_title
;
Structure prediction by ZEFSAII (Michael W. Deem and Ramdas Pophale) SiO2 
 PCOD9130073
Probable space group: C 2
;
_chemical_formula_sum "Si O2"
_cell_formula_units_Z 16
_cell_length_a 12.783775
_cell_length_b 7.266720
_cell_length_c 8.592658
_cell_angle_alpha 90.000000
_cell_angle_beta 47.699366
_cell_angle_gamma 90.000000
_cell_volume 590.385741
_symmetry_space_group_name_H-M "C 2"
_symmetry_group_IT_number 5
_symmetry_cell_setting 'monoclinic'
loop_
_space_group_symop_operation_xyz
x,y,z
-x,y,-z
1/2+x,1/2+y,z
1/2-x,1/2+y,-z
loop_
_atom_site_type_symbol
_atom_site_label
_atom_site_fract_x
_atom_site_fract_y
_atom_site_fract_z
Si Si1 0.647535 0.826360 0.412021
Si Si2 0.395825 0.310559 0.368067
Si Si3 0.493445 0.906409 0.827221
Si Si4 0.816020 0.942768 0.788121
O O1 0.500000 0.927114 0.500000
O O2 0.798430 0.893629 0.326605
O O3 0.674946 0.652186 0.278068
O O4 0.578729 0.758279 0.643572
O O5 0.425849 0.098575 0.288571
O O6 0.327393 0.332005 0.611127
O O7 0.552045 0.388982 0.238701
O O8 0.500000 0.865789 0.000000
O O9 0.326018 0.921874 0.969726
#
# Coordination Sequence:
#
# PCOD9130073 Si02
#       4
#     4   4   4   4
#     4  12  25  47  77 111 152 194 248 310 369 441
#     4  11  24  47  76 109 152 190 250 309 361 446
#     4  12  26  47  76 110 150 197 251 302 372 446
#     4  11  26  49  72 109 154 194 246 308 372 438
#
# _framework density 27.100925
#
# number of rings (size 3 to 8) (size 9 to 14) (size 15 to 20)
#    0.000    0.500    7.500    0.000    7.000    0.000 
#    0.000    3.750    0.000    0.000    0.000    0.000 
#    0.000    0.000    0.000    0.000    0.000    0.000 
#
# Total GULP energy -44675.169730 kJ/mol
# GULP energy per Si atom -5584.396216 kJ/mol
# Density = 2.703924 g / cm^3
# Si number density = 27.100925 Si / 1000 Ang^3
#
#
#
# Elastic Constant Matrix: (Units=GPa)
#
#
# Indices 1 2 3 4 5 6 
#
# 1 236.6383 18.1269 -25.6186 0.0000 -19.6160 0.0000
# 2 18.1269 34.9202 16.9459 0.0000 -0.0234 0.0000
# 3 -25.6186 16.9459 95.8539 0.0000 -25.8074 0.0000
# 4 0.0000 0.0000 0.0000 50.9382 0.0000 2.7109
# 5 -19.6160 -0.0234 -25.8074 0.0000 51.8894 0.0000
# 6 0.0000 0.0000 0.0000 2.7109 0.0000 45.9074
#
#
#
# Elastic Compliance Matrix: (Units=1/GPa)
#
#
# Indices 1 2 3 4 5 6 
#
# 1 0.005161 -0.004155 0.003047 0.000000 0.003465 0.000000
# 2 -0.004155 0.035126 -0.008936 0.000000 -0.005999 0.000000
# 3 0.003047 -0.008936 0.015167 0.000000 0.008691 0.000000
# 4 0.000000 0.000000 0.000000 0.019694 0.000000 -0.001163
# 5 0.003465 -0.005999 0.008691 0.000000 0.024901 0.000000
# 6 0.000000 0.000000 0.000000 -0.001163 0.000000 0.021852
#
#
# Mechanical properties :
#
#
# Convention : Reuss Voigt Hill
#
# Bulk Modulus (GPa) = 28.27635 42.92453 35.60044
# Shear Modulus (GPa) = 32.51459 53.61086 43.06272
#
# Velocity S-wave (km/s) = 3.46751 4.45251 3.99052
# Velocity P-wave (km/s) = 5.14664 6.50433 5.86490
#
# Compressibility (1/GPa) = 0.03536524
#
# Stress axis : x y z
#
# Youngs Moduli (GPa) = 193.75264 28.46894 65.93471
#
# Poissons Ratio (x) = 0.11830 -0.20089
# Poissons Ratio (y) = 0.80512 0.58917
# Poissons Ratio (z) = -0.59034 0.25439
#
# Static dielectric constant tensor:
#      x y z
#    x 2.364150 0.000000 0.055880 
#    y 0.000000 2.105850 0.000000 
#    z 0.055880 0.000000 2.123050 
# 
# From -- ./inp_files/22495.got.cif
#   From: 2010.05.17/outbox.cif.g08.bks.cpg/sg5_12_cif.got.tgz:22495.got - 2010.06.03 18:56:24.
