data_PCOD9130023
_publ_section_title
;
Structure prediction by ZEFSAII (Michael W. Deem and Ramdas Pophale) SiO2 
 PCOD9130023
Probable space group: C 2
;
_chemical_formula_sum "Si O2"
_cell_formula_units_Z 16
_cell_length_a 17.066169
_cell_length_b 9.442289
_cell_length_c 4.799194
_cell_angle_alpha 90.000000
_cell_angle_beta 128.306183
_cell_angle_gamma 90.000000
_cell_volume 606.862830
_symmetry_space_group_name_H-M "C 2"
_symmetry_group_IT_number 5
_symmetry_cell_setting 'monoclinic'
loop_
_space_group_symop_operation_xyz
x,y,z
-x,y,-z
1/2+x,1/2+y,z
1/2-x,1/2+y,-z
loop_
_atom_site_type_symbol
_atom_site_label
_atom_site_fract_x
_atom_site_fract_y
_atom_site_fract_z
Si Si1 0.706119 0.291340 0.519717
Si Si2 0.599019 0.849970 0.409947
Si Si3 0.568887 0.540594 0.414774
Si Si4 0.615785 0.129450 0.803052
O O1 0.809130 0.329701 0.599790
O O2 0.655081 0.440036 0.492618
O O3 0.696038 0.206821 0.783213
O O4 0.644729 0.187839 0.171883
O O5 0.594834 0.699336 0.557530
O O6 0.616943 0.969871 0.681851
O O7 0.500000 0.880497 0.000000
O O8 0.500000 0.473791 0.500000
O O9 0.500000 0.563270 0.000000
O O10 0.500000 0.170425 0.500000
#
# Coordination Sequence:
#
# PCOD9130023 Si02
#       4
#     4   4   4   4
#     4  12  26  46  75 110 149 198 252 312 379 451
#     4  11  27  50  77 113 156 205 257 316 383 461
#     4  11  24  45  73 107 147 195 250 310 375 450
#     4  12  26  47  74 110 151 196 249 314 382 452
#
# _framework density 26.365100000000002
#
# number of rings (size 3 to 8) (size 9 to 14) (size 15 to 20)
#    0.000    0.500    0.000    8.250    0.000   14.000 
#    0.000    0.000    0.000    0.000    0.000    0.000 
#    0.000    0.000    0.000    0.000    0.000    0.000 
#
# Total GULP energy -44817.710192 kJ/mol
# GULP energy per Si atom -5602.213774 kJ/mol
# Density = 2.630509 g / cm^3
# Si number density = 26.365100 Si / 1000 Ang^3
#
#
#
# Elastic Constant Matrix: (Units=GPa)
#
#
# Indices 1 2 3 4 5 6 
#
# 1 219.5406 48.1703 29.6580 0.0000 13.3001 0.0000
# 2 48.1703 221.9825 18.7603 0.0000 6.3675 0.0000
# 3 29.6580 18.7603 116.4715 0.0000 2.7173 0.0000
# 4 0.0000 0.0000 0.0000 45.5805 0.0000 7.6717
# 5 13.3001 6.3675 2.7173 0.0000 51.3531 0.0000
# 6 0.0000 0.0000 0.0000 7.6717 0.0000 49.6562
#
#
#
# Elastic Compliance Matrix: (Units=1/GPa)
#
#
# Indices 1 2 3 4 5 6 
#
# 1 0.004979 -0.000957 -0.001088 0.000000 -0.001113 0.000000
# 2 -0.000957 0.004765 -0.000517 0.000000 -0.000316 0.000000
# 3 -0.001088 -0.000517 0.008949 0.000000 -0.000128 0.000000
# 4 0.000000 0.000000 0.000000 0.022525 0.000000 -0.003480
# 5 -0.001113 -0.000316 -0.000128 0.000000 0.019807 0.000000
# 6 0.000000 0.000000 0.000000 -0.003480 0.000000 0.020676
#
#
# Mechanical properties :
#
#
# Convention : Reuss Voigt Hill
#
# Bulk Modulus (GPa) = 73.68480 83.46352 78.57416
# Shear Modulus (GPa) = 54.73594 60.07836 57.40715
#
# Velocity S-wave (km/s) = 4.56134 4.77876 4.67132
# Velocity P-wave (km/s) = 7.46657 7.88507 7.67867
#
# Compressibility (1/GPa) = 0.01357132
#
# Stress axis : x y z
#
# Youngs Moduli (GPa) = 200.83243 209.85645 111.74457
#
# Poissons Ratio (x) = 0.20075 0.12156
# Poissons Ratio (y) = 0.19212 0.05772
# Poissons Ratio (z) = 0.21847 0.10841
#
# Static dielectric constant tensor:
#      x y z
#    x 1.980620 0.000000 0.039140 
#    y 0.000000 2.164160 0.000000 
#    z 0.039140 0.000000 1.985580 
# 
# From -- ./inp_files/8076.got.cif
#   From: 2010.05.17/outbox.cif.g08.bks.cpg/sg5_5_cif.got.tgz:8076.got - 2010.06.03 18:56:24.
