data_PCOD9130285
_publ_section_title
;
Structure prediction by ZEFSAII (Michael W. Deem and Ramdas Pophale) SiO2 
 PCOD9130285
Probable space group: C 2
;
_chemical_formula_sum "Si O2"
_cell_formula_units_Z 28
_cell_length_a 11.149448
_cell_length_b 13.857732
_cell_length_c 10.678176
_cell_angle_alpha 90.000000
_cell_angle_beta 141.333996
_cell_angle_gamma 90.000000
_cell_volume 1030.788012
_symmetry_space_group_name_H-M "C 2"
_symmetry_group_IT_number 5
_symmetry_cell_setting 'monoclinic'
loop_
_space_group_symop_operation_xyz
x,y,z
-x,y,-z
1/2+x,1/2+y,z
1/2-x,1/2+y,-z
loop_
_atom_site_type_symbol
_atom_site_label
_atom_site_fract_x
_atom_site_fract_y
_atom_site_fract_z
Si Si1 0.584045 0.288590 0.395306
Si Si2 0.644162 0.974059 0.767835
Si Si3 0.276103 0.787503 0.289733
Si Si4 0.325797 0.645038 0.775070
Si Si5 0.778225 0.584527 0.785334
Si Si6 0.211212 0.004764 0.463094
Si Si7 0.798804 0.392219 0.909083
O O1 0.642987 0.266053 0.300315
O O2 0.694897 0.217689 0.582556
O O3 0.661492 0.397943 0.470475
O O4 0.645964 0.304655 0.781499
O O5 0.770414 0.891535 0.802754
O O6 0.715377 0.079349 0.787151
O O7 0.416074 0.985601 0.562046
O O8 0.650800 0.929388 0.912134
O O9 0.500000 0.797702 0.500000
O O10 0.274975 0.689768 0.208020
O O11 0.401885 0.566204 0.733649
O O12 0.500000 0.685767 0.000000
O O13 0.738389 0.572421 0.605893
O O14 0.689144 0.487660 0.767805
O O15 0.000000 0.576258 0.000000
O O16 0.000000 0.379320 0.000000
#
# Coordination Sequence:
#
# PCOD9130285 Si02
#       7
#     4   4   4   4   4   4   4
#     4  12  28  52  87 129 174 237 298 379 452 529
#     4  12  25  53  86 125 180 233 304 372 452 543
#     4  12  26  46  83 128 170 234 297 355 445 555
#     4  12  28  52  89 131 182 242 308 372 449 537
#     4  11  26  50  82 124 171 228 294 364 450 549
#     4  12  24  54  81 121 179 235 292 370 447 531
#     4  11  27  56  90 126 181 235 299 381 465 549
#
# _framework density 27.163685000000001
#
# number of rings (size 3 to 8) (size 9 to 14) (size 15 to 20)
#    0.000    0.286    7.143    1.286    4.000    1.714 
#    5.143    1.429    0.000    0.000    0.000    0.000 
#    0.000    0.000    0.000    0.000    0.000    0.000 
#
# Total GULP energy -78291.270524 kJ/mol
# GULP energy per Si atom -5592.233609 kJ/mol
# Density = 2.710186 g / cm^3
# Si number density = 27.163685 Si / 1000 Ang^3
#
#
#
# Elastic Constant Matrix: (Units=GPa)
#
#
# Indices 1 2 3 4 5 6 
#
# 1 130.8893 50.7959 48.7642 0.0000 12.2751 0.0000
# 2 50.7959 215.5805 49.5573 0.0000 9.5000 0.0000
# 3 48.7642 49.5573 131.1827 0.0000 -1.8394 0.0000
# 4 0.0000 0.0000 0.0000 29.3701 0.0000 -8.8073
# 5 12.2751 9.5000 -1.8394 0.0000 49.9172 0.0000
# 6 0.0000 0.0000 0.0000 -8.8073 0.0000 -1.1983
#
#
#
# Elastic Compliance Matrix: (Units=1/GPa)
#
#
# Indices 1 2 3 4 5 6 
#
# 1 0.009537 -0.001455 -0.003026 0.000000 -0.002180 0.000000
# 2 -0.001455 0.005356 -0.001492 0.000000 -0.000716 0.000000
# 3 -0.003026 -0.001492 0.009331 0.000000 0.001372 0.000000
# 4 0.000000 0.000000 0.000000 0.010627 0.000000 -0.078104
# 5 -0.002180 -0.000716 0.001372 0.000000 0.020756 0.000000
# 6 0.000000 0.000000 0.000000 -0.078104 0.000000 -0.260455
#
#
# Mechanical properties :
#
#
# Convention : Reuss Voigt Hill
#
# Bulk Modulus (GPa) = 81.45794 86.20969 83.83382
# Shear Modulus (GPa) = -26.48179 37.52014 5.51917
#
# Velocity S-wave (km/s) = -3.12572 3.72056 1.42697
# Velocity P-wave (km/s) = 4.12627 7.08963 5.80038
#
# Compressibility (1/GPa) = 0.01227627
#
# Stress axis : x y z
#
# Youngs Moduli (GPa) = 104.85966 186.69842 107.17252
#
# Poissons Ratio (x) = 0.27173 0.32428
# Poissons Ratio (y) = 0.15262 0.15995
# Poissons Ratio (z) = 0.31728 0.27864
#
# Static dielectric constant tensor:
#      x y z
#    x 2.282540 0.000000 -0.030200 
#    y 0.000000 2.212510 0.000000 
#    z -0.030200 0.000000 2.162330 
# 
# From -- ./inp_files/42945.got.cif
#   From: 2010.05.17/outbox.cif.g08.bks.cpg/sg5_22_cif.got.tgz:42945.got - 2010.06.03 18:56:24.
