data_PCOD9130831
_publ_section_title
;
Structure prediction by ZEFSAII (Michael W. Deem and Ramdas Pophale) SiO2 
 PCOD9130831
Probable space group: P M
;
_chemical_formula_sum "Si O2"
_cell_formula_units_Z 16
_cell_length_a 10.319868
_cell_length_b 7.302270
_cell_length_c 8.062765
_cell_angle_alpha 90.000000
_cell_angle_beta 109.217157
_cell_angle_gamma 90.000000
_cell_volume 573.740931
_symmetry_space_group_name_H-M "P M"
_symmetry_group_IT_number 6
_symmetry_cell_setting 'monoclinic'
loop_
_space_group_symop_operation_xyz
x,y,z
x,-y,z
loop_
_atom_site_type_symbol
_atom_site_label
_atom_site_fract_x
_atom_site_fract_y
_atom_site_fract_z
Si Si1 0.032340 0.789774 0.485470
Si Si2 0.784587 0.224317 0.581509
Si Si3 0.708943 0.221564 0.081120
Si Si4 0.285400 0.289170 0.794672
Si Si5 0.467916 0.209915 0.189680
Si Si6 0.953101 0.221746 0.976013
Si Si7 0.212648 0.775735 0.260346
Si Si8 0.533283 0.219013 0.675411
O O1 0.137405 0.791544 0.686137
O O2 0.127793 0.708940 0.382628
O O3 0.883420 0.715450 0.473421
O O4 0.006924 0.000000 0.425233
O O5 0.629375 0.281479 0.562357
O O6 0.782861 0.000000 0.574190
O O7 0.875293 0.280599 0.779244
O O8 0.612429 0.290263 0.188994
O O9 0.624445 0.261667 0.877015
O O10 0.711531 0.000000 0.100229
O O11 0.861348 0.280090 0.096061
O O12 0.267221 0.500000 0.827109
O O13 0.372780 0.204410 0.982301
O O14 0.382958 0.277237 0.671400
O O15 0.495968 0.000000 0.249815
O O16 0.365048 0.289391 0.283304
O O17 0.109776 0.273479 0.067214
O O18 0.949149 0.000000 0.972422
O O19 0.222315 0.000000 0.274438
O O20 0.524189 0.000000 0.657167
#
# Coordination Sequence:
#
# PCOD9130831 Si02
#       8
#     2   2   2   2   2   2   2   2
#     4  10  19  32  48  71 102 133 162 198 239 285
#     4   8  14  26  49  74  95 122 158 197 243 289
#     4   7  11  20  39  64  89 113 142 183 234 279
#     4  11  21  32  48  72  97 129 168 203 240 285
#     4   9  16  30  50  71  94 123 157 198 241 284
#     4   8  12  21  38  64  91 114 144 188 234 278
#     4   9  17  27  44  70  98 125 156 192 237 285
#     4   8  14  28  49  72  94 121 157 201 246 287
#
# _framework density 27.887149000000001
#
# number of rings (size 3 to 8) (size 9 to 14) (size 15 to 20)
#    0.000    3.250    0.000    4.125    0.000    2.000 
#    0.000    2.500    0.000    6.000    0.000    3.500 
#    0.000    0.000    0.000    0.000    0.000    0.000 
#
# Total GULP energy -89454.384041 kJ/mol
# GULP energy per Si atom -5590.899003 kJ/mol
# Density = 2.782368 g / cm^3
# Si number density = 27.887149 Si / 1000 Ang^3
#
#
#
# Elastic Constant Matrix: (Units=GPa)
#
#
# Indices 1 2 3 4 5 6 
#
# 1 284.5443 10.4720 59.5656 0.0000 -18.7380 0.0000
# 2 10.4720 116.4321 -5.6871 0.0000 -8.8951 0.0000
# 3 59.5656 -5.6871 108.0324 0.0000 -19.7845 0.0000
# 4 0.0000 0.0000 0.0000 -31.5626 0.0000 16.5574
# 5 -18.7380 -8.8951 -19.7845 0.0000 69.9350 0.0000
# 6 0.0000 0.0000 0.0000 16.5574 0.0000 19.6290
#
#
#
# Elastic Compliance Matrix: (Units=1/GPa)
#
#
# Indices 1 2 3 4 5 6 
#
# 1 0.004009 -0.000435 -0.002159 0.000000 0.000408 0.000000
# 2 -0.000435 0.008770 0.000933 0.000000 0.001263 0.000000
# 3 -0.002159 0.000933 0.010980 0.000000 0.002647 0.000000
# 4 0.000000 0.000000 0.000000 -0.021964 0.000000 0.018527
# 5 0.000408 0.001263 0.002647 0.000000 0.015318 0.000000
# 6 0.000000 0.000000 0.000000 0.018527 0.000000 0.035317
#
#
# Mechanical properties :
#
#
# Convention : Reuss Voigt Hill
#
# Bulk Modulus (GPa) = 48.92878 70.85661 59.89269
# Shear Modulus (GPa) = 79.91742 41.24418 60.58080
#
# Velocity S-wave (km/s) = 5.35907 3.84991 4.66591
# Velocity P-wave (km/s) = 7.47504 6.72502 7.10993
#
# Compressibility (1/GPa) = 0.02043787
#
# Stress axis : x y z
#
# Youngs Moduli (GPa) = 249.42865 114.02716 91.07065
#
# Poissons Ratio (x) = 0.04958 0.19659
# Poissons Ratio (y) = 0.10846 -0.08494
# Poissons Ratio (z) = 0.53843 -0.10635
#
# Static dielectric constant tensor:
#      x y z
#    x 2.121050 0.000000 -0.032540 
#    y 0.000000 2.030970 0.000000 
#    z -0.032540 0.000000 2.260470 
# 
# From -- ./inp_files/3627.got.cif
#   From: 2010.05.17/outbox.cif.g08.bks.cpg/sg6_2_cif.got.tgz:3627.got - 2010.06.03 19:42:10.
