data_PCOD9130790
_publ_section_title
;
Structure prediction by ZEFSAII (Michael W. Deem and Ramdas Pophale) SiO2 
 PCOD9130790
Probable space group: P M
;
_chemical_formula_sum "Si O2"
_cell_formula_units_Z 16
_cell_length_a 10.535648
_cell_length_b 7.720876
_cell_length_c 12.591186
_cell_angle_alpha 90.000000
_cell_angle_beta 52.663057
_cell_angle_gamma 90.000000
_cell_volume 814.341771
_symmetry_space_group_name_H-M "P M"
_symmetry_group_IT_number 6
_symmetry_cell_setting 'monoclinic'
loop_
_space_group_symop_operation_xyz
x,y,z
x,-y,z
loop_
_atom_site_type_symbol
_atom_site_label
_atom_site_fract_x
_atom_site_fract_y
_atom_site_fract_z
Si Si1 0.254750 0.790773 0.359510
Si Si2 0.478939 0.791109 0.061522
Si Si3 0.094213 0.202000 0.807206
Si Si4 0.967687 0.703138 0.644676
Si Si5 0.448450 0.205380 0.639685
Si Si6 0.769226 0.212179 0.066599
Si Si7 0.614823 0.296296 0.772437
Si Si8 0.548558 0.789025 0.362833
O O1 0.327616 0.733996 0.209185
O O2 0.388264 0.740692 0.379488
O O3 0.084669 0.724533 0.484990
O O4 0.247237 0.000000 0.362680
O O5 0.638323 0.735514 0.044697
O O6 0.477225 0.000000 0.063013
O O7 0.497844 0.733572 0.931331
O O8 0.268903 0.279252 0.737372
O O9 0.049230 0.210990 0.705686
O O10 0.102701 0.000000 0.833961
O O11 0.943709 0.277050 0.947188
O O12 0.954175 0.500000 0.677150
O O13 0.790654 0.774966 0.712473
O O14 0.543676 0.226609 0.699600
O O15 0.536009 0.273422 0.489624
O O16 0.429883 0.000000 0.629982
O O17 0.698325 0.267596 0.215759
O O18 0.771685 0.000000 0.063133
O O19 0.635044 0.500000 0.746869
O O20 0.553694 0.000000 0.359306
#
# Coordination Sequence:
#
# PCOD9130790 Si02
#       8
#     2   2   2   2   2   2   2   2
#     4   9  17  32  56  84 108 131 172 227 273 315
#     4   9  17  32  57  83 105 135 176 221 271 320
#     4  10  18  32  56  82 105 133 174 226 272 312
#     4  11  22  34  51  78 110 145 183 219 259 316
#     4  10  20  34  54  77 105 141 180 220 265 318
#     4   8  14  26  51  82 106 127 159 215 273 312
#     4  11  24  38  51  73 112 153 184 215 258 318
#     4   8  14  28  50  79 107 129 162 213 269 315
#
# _framework density 19.647767999999999
#
# number of rings (size 3 to 8) (size 9 to 14) (size 15 to 20)
#    0.000    2.500    2.500    2.250    0.000    2.500 
#    0.000    1.250    0.000    3.750    0.000    0.000 
#    0.000    0.000    0.000    0.000    0.000    0.000 
#
# Total GULP energy -89238.046805 kJ/mol
# GULP energy per Si atom -5577.377925 kJ/mol
# Density = 1.960305 g / cm^3
# Si number density = 19.647768 Si / 1000 Ang^3
#
#
#
# Elastic Constant Matrix: (Units=GPa)
#
#
# Indices 1 2 3 4 5 6 
#
# 1 62.9899 -7.9260 42.7644 0.0000 2.5546 0.0000
# 2 -7.9260 25.7793 -7.8426 0.0000 -3.6755 0.0000
# 3 42.7644 -7.8426 156.2936 0.0000 0.5888 0.0000
# 4 0.0000 0.0000 0.0000 152.3186 0.0000 137.4529
# 5 2.5546 -3.6755 0.5888 0.0000 27.5045 0.0000
# 6 0.0000 0.0000 0.0000 137.4529 0.0000 138.0606
#
#
#
# Elastic Compliance Matrix: (Units=1/GPa)
#
#
# Indices 1 2 3 4 5 6 
#
# 1 0.020047 0.004398 -0.005260 0.000000 -0.001162 0.000000
# 2 0.004398 0.041122 0.000841 0.000000 0.005069 0.000000
# 3 -0.005260 0.000841 0.007878 0.000000 0.000432 0.000000
# 4 0.000000 0.000000 0.000000 0.064639 0.000000 -0.064354
# 5 -0.001162 0.005069 0.000432 0.000000 0.037134 0.000000
# 6 0.000000 0.000000 0.000000 -0.064354 0.000000 0.071314
#
#
# Mechanical properties :
#
#
# Convention : Reuss Voigt Hill
#
# Bulk Modulus (GPa) = 14.49191 33.22826 23.86009
# Shear Modulus (GPa) = 18.85531 78.11453 48.48492
#
# Velocity S-wave (km/s) = 3.10121 6.31219 4.97299
# Velocity P-wave (km/s) = 4.49613 8.37100 6.71896
#
# Compressibility (1/GPa) = 0.06900402
#
# Stress axis : x y z
#
# Youngs Moduli (GPa) = 49.88216 24.31817 126.93474
#
# Poissons Ratio (x) = -0.10695 0.66770
# Poissons Ratio (y) = -0.21937 -0.10676
# Poissons Ratio (z) = 0.26239 -0.02045
#
# Static dielectric constant tensor:
#      x y z
#    x 1.659230 0.000000 -0.024040 
#    y 0.000000 1.726920 0.000000 
#    z -0.024040 0.000000 1.718360 
# 
# From -- ./inp_files/3456.got.cif
#   From: 2010.05.17/outbox.cif.g08.bks.cpg/sg6_2_cif.got.tgz:3456.got - 2010.06.03 19:42:10.
