data_PCOD9130794
_publ_section_title
;
Structure prediction by ZEFSAII (Michael W. Deem and Ramdas Pophale) SiO2 
 PCOD9130794
Probable space group: P M
;
_chemical_formula_sum "Si O2"
_cell_formula_units_Z 14
_cell_length_a 12.337865
_cell_length_b 13.068363
_cell_length_c 12.312215
_cell_angle_alpha 90.000000
_cell_angle_beta 155.278697
_cell_angle_gamma 90.000000
_cell_volume 830.207101
_symmetry_space_group_name_H-M "P M"
_symmetry_group_IT_number 6
_symmetry_cell_setting 'monoclinic'
loop_
_space_group_symop_operation_xyz
x,y,z
x,-y,z
loop_
_atom_site_type_symbol
_atom_site_label
_atom_site_fract_x
_atom_site_fract_y
_atom_site_fract_z
Si Si1 0.371100 0.294541 0.034950
Si Si2 0.716035 0.879787 0.719385
Si Si3 0.143185 0.880001 0.294442
Si Si4 0.823446 0.765547 0.595632
Si Si5 0.047158 0.254875 0.418881
Si Si6 0.115479 0.118120 0.691413
Si Si7 0.517007 0.618281 0.944141
O O1 0.583055 0.290320 0.321095
O O2 0.354614 0.183869 0.958093
O O3 0.435496 0.371677 0.996950
O O4 0.082472 0.303366 0.821083
O O5 0.768095 0.808011 0.663916
O O6 0.429027 0.863408 0.505566
O O7 0.735296 0.000000 0.704731
O O8 0.928900 0.862094 0.006484
O O9 0.094578 0.807821 0.352493
O O10 0.125313 0.000000 0.310542
O O11 0.898063 0.861209 0.585058
O O12 0.033614 0.175168 0.506930
O O13 0.288328 0.328546 0.667347
O O14 0.783774 0.319726 0.173520
O O15 0.170713 0.000000 0.725602
O O16 0.548368 0.500000 0.943672
#
# Coordination Sequence:
#
# PCOD9130794 Si02
#       7
#     2   2   2   2   2   2   2
#     4   9  19  33  47  79 108 136 171 216 268 325
#     4  10  20  33  51  76 107 154 195 212 243 302
#     4  10  21  36  53  77 113 152 181 215 257 309
#     4  10  18  33  50  75 112 139 180 220 246 304
#     4  11  21  37  54  82 111 135 184 217 268 338
#     4   9  19  30  49  76 112 146 166 210 264 314
#     4  11  21  38  58  81 107 136 175 230 280 328
#
# _framework density 16.863263
#
# number of rings (size 3 to 8) (size 9 to 14) (size 15 to 20)
#    0.857    1.143    1.429    3.000    0.000    1.143 
#    0.000    1.429    0.000    0.000    0.000   20.000 
#    0.000    0.000    0.000    0.000    0.000    0.000 
#
# Total GULP energy -78016.583791 kJ/mol
# GULP energy per Si atom -5572.613128 kJ/mol
# Density = 1.682488 g / cm^3
# Si number density = 16.863263 Si / 1000 Ang^3
#
#
#
# Elastic Constant Matrix: (Units=GPa)
#
#
# Indices 1 2 3 4 5 6 
#
# 1 110.6949 36.2818 58.6338 0.0000 -6.4567 0.0000
# 2 36.2818 60.7739 30.9711 0.0000 -0.8433 0.0000
# 3 58.6338 30.9711 151.8325 0.0000 8.2609 0.0000
# 4 0.0000 0.0000 0.0000 9.3065 0.0000 2.1169
# 5 -6.4567 -0.8433 8.2609 0.0000 19.6706 0.0000
# 6 0.0000 0.0000 0.0000 2.1169 0.0000 16.3770
#
#
#
# Elastic Compliance Matrix: (Units=1/GPa)
#
#
# Indices 1 2 3 4 5 6 
#
# 1 0.013626 -0.005803 -0.004409 0.000000 0.006075 0.000000
# 2 -0.005803 0.020948 -0.002023 0.000000 -0.000157 0.000000
# 3 -0.004409 -0.002023 0.008990 0.000000 -0.005309 0.000000
# 4 0.000000 0.000000 0.000000 0.110706 0.000000 -0.014310
# 5 0.006075 -0.000157 -0.005309 0.000000 0.055054 0.000000
# 6 0.000000 0.000000 0.000000 -0.014310 0.000000 0.062911
#
#
# Mechanical properties :
#
#
# Convention : Reuss Voigt Hill
#
# Bulk Modulus (GPa) = 52.37482 63.89720 58.13601
# Shear Modulus (GPa) = 16.49782 22.23179 19.36480
#
# Velocity S-wave (km/s) = 3.13122 3.63486 3.39240
# Velocity P-wave (km/s) = 6.64821 7.45586 7.06359
#
# Compressibility (1/GPa) = 0.01909314
#
# Stress axis : x y z
#
# Youngs Moduli (GPa) = 73.39167 47.73723 111.23128
#
# Poissons Ratio (x) = 0.27704 0.49037
# Poissons Ratio (y) = 0.42592 0.22506
# Poissons Ratio (z) = 0.32355 0.09659
#
# Static dielectric constant tensor:
#      x y z
#    x 1.548300 0.000000 0.014590 
#    y 0.000000 1.549770 0.000000 
#    z 0.014590 0.000000 1.577120 
# 
# From -- ./inp_files/5204.got.cif
#   From: 2010.05.17/outbox.cif.g08.bks.cpg/sg6_3_cif.got.tgz:5204.got - 2010.06.03 19:42:10.
