data_PCOD9130907
_publ_section_title
;
Structure prediction by ZEFSAII (Michael W. Deem and Ramdas Pophale) SiO2 
 PCOD9130907
Probable space group: P M
;
_chemical_formula_sum "Si O2"
_cell_formula_units_Z 16
_cell_length_a 19.862466
_cell_length_b 8.090419
_cell_length_c 4.953264
_cell_angle_alpha 90.000000
_cell_angle_beta 60.082377
_cell_angle_gamma 90.000000
_cell_volume 689.900074
_symmetry_space_group_name_H-M "P M"
_symmetry_group_IT_number 6
_symmetry_cell_setting 'monoclinic'
loop_
_space_group_symop_operation_xyz
x,y,z
x,-y,z
loop_
_atom_site_type_symbol
_atom_site_label
_atom_site_fract_x
_atom_site_fract_y
_atom_site_fract_z
Si Si1 0.010350 0.813104 0.292360
Si Si2 0.346771 0.798863 0.884852
Si Si3 0.757493 0.298863 0.563407
Si Si4 0.597572 0.693714 0.618706
Si Si5 0.851043 0.300384 0.876725
Si Si6 0.253220 0.800384 0.572369
Si Si7 0.506691 0.193714 0.300467
Si Si8 0.093912 0.313104 0.625236
O O1 0.074036 0.793976 0.402557
O O2 0.930112 0.768086 0.597858
O O3 0.009787 0.000000 0.195321
O O4 0.030227 0.706024 0.990175
O O5 0.277225 0.748415 0.823512
O O6 0.427975 0.742007 0.598383
O O7 0.350592 0.000000 0.876309
O O8 0.323496 0.750643 0.231974
O O9 0.753671 0.500000 0.570149
O O10 0.676288 0.242008 0.601756
O O11 0.780766 0.250644 0.817436
O O12 0.827038 0.248414 0.223887
O O13 0.607776 0.500000 0.531954
O O14 0.572467 0.783995 0.396817
O O15 0.531796 0.716005 0.978159
O O16 0.857003 0.500000 0.862311
O O17 0.174151 0.731914 0.609781
O O18 0.247260 0.000000 0.581794
O O19 0.496486 0.000000 0.254534
O O20 0.094475 0.500000 0.525944
#
# Coordination Sequence:
#
# PCOD9130907 Si02
#       8
#     2   2   2   2   2   2   2   2
#     4  12  25  42  63  91 123 158 197 244 296 354
#     4   9  19  35  58  83 114 155 198 237 290 358
#     4   9  19  35  58  83 114 155 198 237 290 358
#     4  11  22  39  61  89 121 159 202 247 296 354
#     4  10  19  36  60  85 112 152 199 244 290 348
#     4  10  19  36  60  85 112 152 199 244 290 348
#     4  11  22  39  61  89 121 159 202 247 296 354
#     4  12  25  42  63  91 123 158 197 244 296 354
#
# _framework density 23.191763000000002
#
# number of rings (size 3 to 8) (size 9 to 14) (size 15 to 20)
#    0.000    1.500    0.000    6.000    0.000    6.000 
#    0.000    7.500    0.000    0.000    0.000    0.000 
#    0.000    0.000    0.000    0.000    0.000    0.000 
#
# Total GULP energy -89537.613994 kJ/mol
# GULP energy per Si atom -5596.100875 kJ/mol
# Density = 2.313898 g / cm^3
# Si number density = 23.191763 Si / 1000 Ang^3
#
#
#
# Elastic Constant Matrix: (Units=GPa)
#
#
# Indices 1 2 3 4 5 6 
#
# 1 58.0576 -4.2988 -9.5086 0.0000 1.3739 0.0000
# 2 -4.2988 34.8074 -5.6342 0.0000 -2.5547 0.0000
# 3 -9.5086 -5.6342 61.7491 0.0000 5.6872 0.0000
# 4 0.0000 0.0000 0.0000 28.0480 0.0000 15.9056
# 5 1.3739 -2.5547 5.6872 0.0000 42.3943 0.0000
# 6 0.0000 0.0000 0.0000 15.9056 0.0000 19.7345
#
#
#
# Elastic Compliance Matrix: (Units=1/GPa)
#
#
# Indices 1 2 3 4 5 6 
#
# 1 0.017945 0.002654 0.003082 0.000000 -0.000835 0.000000
# 2 0.002654 0.029637 0.002993 0.000000 0.001298 0.000000
# 3 0.003082 0.002993 0.017147 0.000000 -0.002220 0.000000
# 4 0.000000 0.000000 0.000000 0.065667 0.000000 -0.052926
# 5 -0.000835 0.001298 -0.002220 0.000000 0.023991 0.000000
# 6 0.000000 0.000000 0.000000 -0.052926 0.000000 0.093330
#
#
# Mechanical properties :
#
#
# Convention : Reuss Voigt Hill
#
# Bulk Modulus (GPa) = 12.16714 12.85900 12.51307
# Shear Modulus (GPa) = 19.40589 29.63908 24.52248
#
# Velocity S-wave (km/s) = 2.89581 3.57879 3.25526
# Velocity P-wave (km/s) = 4.05447 4.75749 4.41998
#
# Compressibility (1/GPa) = 0.08218858
#
# Stress axis : x y z
#
# Youngs Moduli (GPa) = 55.72465 33.74149 58.31998
#
# Poissons Ratio (x) = -0.08955 -0.17977
# Poissons Ratio (y) = -0.14789 -0.17457
# Poissons Ratio (z) = -0.17177 -0.10100
#
# Static dielectric constant tensor:
#      x y z
#    x 1.864550 0.000000 -0.043750 
#    y 0.000000 1.794190 0.000000 
#    z -0.043750 0.000000 1.841690 
# 
# From -- ./inp_files/1977.got.cif
#   From: 2010.05.17/outbox.cif.g08.bks.cpg/sg6_1_cif.got.tgz:1977.got - 2010.06.03 19:42:10.
