data_PCOD9130936
_publ_section_title
;
Structure prediction by ZEFSAII (Michael W. Deem and Ramdas Pophale) SiO2 
 PCOD9130936
Probable space group: P M
;
_chemical_formula_sum "Si O2"
_cell_formula_units_Z 14
_cell_length_a 7.161478
_cell_length_b 9.650838
_cell_length_c 9.975015
_cell_angle_alpha 90.000000
_cell_angle_beta 61.402073
_cell_angle_gamma 90.000000
_cell_volume 605.307293
_symmetry_space_group_name_H-M "P M"
_symmetry_group_IT_number 6
_symmetry_cell_setting 'monoclinic'
loop_
_space_group_symop_operation_xyz
x,y,z
x,-y,z
loop_
_atom_site_type_symbol
_atom_site_label
_atom_site_fract_x
_atom_site_fract_y
_atom_site_fract_z
Si Si1 0.486460 0.157450 0.613730
Si Si2 0.678686 0.845531 0.055937
Si Si3 0.893365 0.344172 0.793010
Si Si4 0.079137 0.652773 0.243391
Si Si5 0.990602 0.841782 0.513821
Si Si6 0.582842 0.340315 0.333892
Si Si7 0.426661 0.263896 0.915904
O O1 0.737906 0.153327 0.566354
O O2 0.472414 0.261958 0.494858
O O3 0.373933 0.211981 0.786478
O O4 0.423378 0.000000 0.603158
O O5 0.569004 0.753242 0.206793
O O6 0.736847 0.000000 0.081103
O O7 0.871708 0.752300 0.931823
O O8 0.520105 0.853604 0.983331
O O9 0.974962 0.500000 0.785814
O O10 0.004871 0.255405 0.639096
O O11 0.642931 0.354931 0.834320
O O12 0.113432 0.500000 0.291503
O O13 0.100016 0.769106 0.349753
O O14 0.835290 0.658530 0.279412
O O15 0.235366 0.670564 0.064317
O O16 0.060096 0.000000 0.510669
O O17 0.516451 0.500000 0.340321
#
# Coordination Sequence:
#
# PCOD9130936 Si02
#       7
#     2   2   2   2   2   2   2
#     4   9  17  33  54  77 105 141 183 223 263 320
#     4  10  20  35  56  81 109 143 182 226 269 322
#     4   9  17  30  53  78 103 136 177 221 264 314
#     4  10  20  34  53  81 113 143 178 223 272 322
#     4   9  17  29  48  76 107 138 176 219 261 311
#     4  10  21  35  55  81 111 144 181 221 270 326
#     4   9  20  32  59  82 108 137 181 227 271 319
#
# _framework density 23.128747000000001
#
# number of rings (size 3 to 8) (size 9 to 14) (size 15 to 20)
#    0.857    1.714    0.000    2.571    0.000    5.714 
#    0.000    0.000    3.143    0.000    0.000    0.000 
#    0.000    0.000    0.000    0.000    0.000    0.000 
#
# Total GULP energy -78152.857607 kJ/mol
# GULP energy per Si atom -5582.346972 kJ/mol
# Density = 2.307611 g / cm^3
# Si number density = 23.128747 Si / 1000 Ang^3
#
#
#
# Elastic Constant Matrix: (Units=GPa)
#
#
# Indices 1 2 3 4 5 6 
#
# 1 67.9804 15.2660 38.0743 0.0000 -16.7237 0.0000
# 2 15.2660 220.5575 92.2086 0.0000 11.3138 0.0000
# 3 38.0743 92.2086 175.1889 0.0000 13.8576 0.0000
# 4 0.0000 0.0000 0.0000 23.4753 0.0000 1.8880
# 5 -16.7237 11.3138 13.8576 0.0000 35.0312 0.0000
# 6 0.0000 0.0000 0.0000 1.8880 0.0000 6.3764
#
#
#
# Elastic Compliance Matrix: (Units=1/GPa)
#
#
# Indices 1 2 3 4 5 6 
#
# 1 0.020750 0.000295 -0.005616 0.000000 0.012032 0.000000
# 2 0.000295 0.005833 -0.003093 0.000000 -0.000520 0.000000
# 3 -0.005616 -0.003093 0.008971 0.000000 -0.005231 0.000000
# 4 0.000000 0.000000 0.000000 0.043637 0.000000 -0.012920
# 5 0.012032 -0.000520 -0.005231 0.000000 0.036527 0.000000
# 6 0.000000 0.000000 0.000000 -0.012920 0.000000 0.160654
#
#
# Mechanical properties :
#
#
# Convention : Reuss Voigt Hill
#
# Bulk Modulus (GPa) = 53.40860 83.86942 68.63901
# Shear Modulus (GPa) = 16.69767 34.18844 25.44305
#
# Velocity S-wave (km/s) = 2.68982 3.84888 3.32032
# Velocity P-wave (km/s) = 5.72615 7.48950 6.66638
#
# Compressibility (1/GPa) = 0.01872358
#
# Stress axis : x y z
#
# Youngs Moduli (GPa) = 48.19358 171.42528 111.47467
#
# Poissons Ratio (x) = -0.05051 0.62609
# Poissons Ratio (y) = -0.01420 0.34482
# Poissons Ratio (z) = 0.27068 0.53027
#
# Static dielectric constant tensor:
#      x y z
#    x 1.946350 0.000000 -0.004180 
#    y 0.000000 1.828730 0.000000 
#    z -0.004180 0.000000 1.834870 
# 
# From -- ./inp_files/4954.got.cif
#   From: 2010.05.17/outbox.cif.g08.bks.cpg/sg6_3_cif.got.tgz:4954.got - 2010.06.03 19:42:10.
