data_PCOD9130410
_publ_section_title
;
Structure prediction by ZEFSAII (Michael W. Deem and Ramdas Pophale) SiO2 
 PCOD9130410
Probable space group: C 2
;
_chemical_formula_sum "Si O2"
_cell_formula_units_Z 22
_cell_length_a 10.691205
_cell_length_b 9.568439
_cell_length_c 9.193779
_cell_angle_alpha 90.000000
_cell_angle_beta 68.640423
_cell_angle_gamma 90.000000
_cell_volume 875.905956
_symmetry_space_group_name_H-M "C 2"
_symmetry_group_IT_number 5
_symmetry_cell_setting 'monoclinic'
loop_
_space_group_symop_operation_xyz
x,y,z
-x,y,-z
1/2+x,1/2+y,z
1/2-x,1/2+y,-z
loop_
_atom_site_type_symbol
_atom_site_label
_atom_site_fract_x
_atom_site_fract_y
_atom_site_fract_z
Si Si1 0.682091 0.067660 0.581850
Si Si2 0.981074 0.828374 0.672002
Si Si3 0.000000 0.339082 0.500000
Si Si4 0.299618 0.741531 0.082842
Si Si5 0.951763 0.126014 0.288651
Si Si6 0.654011 0.044588 0.927806
O O1 0.590097 0.205575 0.635415
O O2 0.660690 0.260418 0.231424
O O3 0.611468 0.944584 0.518667
O O4 0.696656 0.021771 0.742701
O O5 0.000000 0.880937 0.500000
O O6 0.656269 0.891286 0.996480
O O7 0.997140 0.968563 0.757943
O O8 0.963510 0.235786 0.649674
O O9 0.317792 0.607183 0.443632
O O10 0.256829 0.640366 0.971167
O O11 0.905766 0.188290 0.155393
O O12 0.500000 0.099217 0.000000
#
# Coordination Sequence:
#
# PCOD9130410 Si02
#       6
#     4   4   2   4   4   4
#     4  12  24  47  74 103 145 183 233 298 358 419
#     4  12  23  45  75 106 140 177 237 298 356 416
#     4  12  24  42  74 110 138 176 234 296 358 408
#     4  12  28  49  70 105 144 193 238 294 355 427
#     4  12  26  44  77 109 136 183 238 303 357 417
#     4  12  29  48  69 103 146 194 239 287 362 430
#
# _framework density 25.116852999999999
#
# number of rings (size 3 to 8) (size 9 to 14) (size 15 to 20)
#    0.000    0.000    7.273    2.182    2.545    2.909 
#    0.000    0.000    0.000    0.000    0.000    0.000 
#    0.000    0.000    0.000    0.000    0.000    0.000 
#
# Total GULP energy -61693.607399 kJ/mol
# GULP energy per Si atom -5608.509764 kJ/mol
# Density = 2.505969 g / cm^3
# Si number density = 25.116853 Si / 1000 Ang^3
#
#
#
# Elastic Constant Matrix: (Units=GPa)
#
#
# Indices 1 2 3 4 5 6 
#
# 1 59.9530 48.9924 62.5906 0.0000 17.0972 0.0000
# 2 48.9924 179.7193 44.4017 0.0000 41.7617 0.0000
# 3 62.5906 44.4017 130.7227 0.0000 10.5918 0.0000
# 4 0.0000 0.0000 0.0000 42.6617 0.0000 15.0380
# 5 17.0972 41.7617 10.5918 0.0000 62.0409 0.0000
# 6 0.0000 0.0000 0.0000 15.0380 0.0000 55.5307
#
#
#
# Elastic Compliance Matrix: (Units=1/GPa)
#
#
# Indices 1 2 3 4 5 6 
#
# 1 0.040463 -0.005813 -0.017049 0.000000 -0.004327 0.000000
# 2 -0.005813 0.007936 0.000396 0.000000 -0.003808 0.000000
# 3 -0.017049 0.000396 0.015534 0.000000 0.001780 0.000000
# 4 0.000000 0.000000 0.000000 0.025914 0.000000 -0.007018
# 5 -0.004327 -0.003808 0.001780 0.000000 0.019570 0.000000
# 6 0.000000 0.000000 0.000000 -0.007018 0.000000 0.019908
#
#
# Mechanical properties :
#
#
# Convention : Reuss Voigt Hill
#
# Bulk Modulus (GPa) = 52.62633 75.81827 64.22230
# Shear Modulus (GPa) = 27.68718 46.34068 37.01393
#
# Velocity S-wave (km/s) = 3.32374 4.30001 3.84300
# Velocity P-wave (km/s) = 5.97727 7.40980 6.73175
#
# Compressibility (1/GPa) = 0.01900189
#
# Stress axis : x y z
#
# Youngs Moduli (GPa) = 24.71421 126.01312 64.37486
#
# Poissons Ratio (x) = 0.73247 1.09751
# Poissons Ratio (y) = 0.14366 -0.02550
# Poissons Ratio (z) = 0.42134 -0.04992
#
# Static dielectric constant tensor:
#      x y z
#    x 2.019330 0.000000 -0.000670 
#    y 0.000000 2.025560 0.000000 
#    z -0.000670 0.000000 1.962290 
# 
# From -- ./inp_files/22724.got.cif
#   From: 2010.05.17/outbox.cif.g08.bks.cpg/sg5_12_cif.got.tgz:22724.got - 2010.06.03 18:56:24.
