data_PCOD9130590
_publ_section_title
;
Structure prediction by ZEFSAII (Michael W. Deem and Ramdas Pophale) SiO2 
 PCOD9130590
Probable space group: C 2
;
_chemical_formula_sum "Si O2"
_cell_formula_units_Z 14
_cell_length_a 10.490036
_cell_length_b 8.825997
_cell_length_c 8.119478
_cell_angle_alpha 90.000000
_cell_angle_beta 136.903798
_cell_angle_gamma 90.000000
_cell_volume 513.609265
_symmetry_space_group_name_H-M "C 2"
_symmetry_group_IT_number 5
_symmetry_cell_setting 'monoclinic'
loop_
_space_group_symop_operation_xyz
x,y,z
-x,y,-z
1/2+x,1/2+y,z
1/2-x,1/2+y,-z
loop_
_atom_site_type_symbol
_atom_site_label
_atom_site_fract_x
_atom_site_fract_y
_atom_site_fract_z
Si Si1 0.222905 0.078990 0.731893
Si Si2 0.326759 0.370298 0.046861
Si Si3 0.128867 0.652608 0.477188
Si Si4 0.000000 0.135297 0.000000
O O1 0.318718 0.071291 0.644004
O O2 0.000000 0.067979 0.500000
O O3 0.293773 0.947140 0.922473
O O4 0.257042 0.243046 0.853155
O O5 0.499743 0.290112 0.299065
O O6 0.394150 0.519936 0.020100
O O7 0.000000 0.575374 0.500000
O O8 0.328279 0.703347 0.737223
#
# Coordination Sequence:
#
# PCOD9130590 Si02
#       4
#     4   4   4   2
#     4  12  27  54  90 125 171 222 289 350 425 510
#     4  12  27  54  87 125 169 221 290 347 424 507
#     4  12  28  53  86 122 175 223 276 352 422 508
#     4  12  26  52  80 130 166 220 284 340 428 506
#
# _framework density 27.258075000000002
#
# number of rings (size 3 to 8) (size 9 to 14) (size 15 to 20)
#    0.000    0.000    5.714    2.571    0.000    3.429 
#    0.000    5.714    0.000    0.000    0.000    0.000 
#    0.000    0.000    0.000    0.000    0.000    0.000 
#
# Total GULP energy -39183.681721 kJ/mol
# GULP energy per Si atom -5597.668817 kJ/mol
# Density = 2.719603 g / cm^3
# Si number density = 27.258075 Si / 1000 Ang^3
#
#
#
# Elastic Constant Matrix: (Units=GPa)
#
#
# Indices 1 2 3 4 5 6 
#
# 1 222.8959 37.9746 72.4253 0.0000 -44.1972 0.0000
# 2 37.9746 42.3252 21.3864 0.0000 -14.9621 0.0000
# 3 72.4253 21.3864 174.9434 0.0000 19.2224 0.0000
# 4 0.0000 0.0000 0.0000 43.5730 0.0000 -1.8181
# 5 -44.1972 -14.9621 19.2224 0.0000 64.2409 0.0000
# 6 0.0000 0.0000 0.0000 -1.8181 0.0000 53.4879
#
#
#
# Elastic Compliance Matrix: (Units=1/GPa)
#
#
# Indices 1 2 3 4 5 6 
#
# 1 0.006992 -0.002924 -0.003092 0.000000 0.005055 0.000000
# 2 -0.002924 0.029887 -0.003089 0.000000 0.005874 0.000000
# 3 -0.003092 -0.003089 0.007948 0.000000 -0.005225 0.000000
# 4 0.000000 0.000000 0.000000 0.022983 0.000000 0.000781
# 5 0.005055 0.005874 -0.005225 0.000000 0.021975 0.000000
# 6 0.000000 0.000000 0.000000 0.000781 0.000000 0.018722
#
#
# Mechanical properties :
#
#
# Convention : Reuss Voigt Hill
#
# Bulk Modulus (GPa) = 37.56990 78.19299 57.88144
# Shear Modulus (GPa) = 36.87641 52.81891 44.84766
#
# Velocity S-wave (km/s) = 3.68212 4.40675 4.06063
# Velocity P-wave (km/s) = 5.64715 7.39195 6.57766
#
# Compressibility (1/GPa) = 0.02661705
#
# Stress axis : x y z
#
# Youngs Moduli (GPa) = 143.02991 33.45986 125.81640
#
# Poissons Ratio (x) = 0.09782 0.38908
# Poissons Ratio (y) = 0.41815 0.38860
# Poissons Ratio (z) = 0.44231 0.10334
#
# Static dielectric constant tensor:
#      x y z
#    x 2.290700 0.000000 -0.077580 
#    y 0.000000 2.094890 0.000000 
#    z -0.077580 0.000000 2.151340 
# 
# From -- ./inp_files/18156.got.cif
#   From: 2010.05.17/outbox.cif.g08.bks.cpg/sg5_10_cif.got.tgz:18156.got - 2010.06.03 18:56:24.
