data_PCOD9130808
_publ_section_title
;
Structure prediction by ZEFSAII (Michael W. Deem and Ramdas Pophale) SiO2 
 PCOD9130808
Probable space group: P M
;
_chemical_formula_sum "Si O2"
_cell_formula_units_Z 12
_cell_length_a 12.302468
_cell_length_b 8.723452
_cell_length_c 9.348088
_cell_angle_alpha 90.000000
_cell_angle_beta 40.984941
_cell_angle_gamma 90.000000
_cell_volume 657.983472
_symmetry_space_group_name_H-M "P M"
_symmetry_group_IT_number 6
_symmetry_cell_setting 'monoclinic'
loop_
_space_group_symop_operation_xyz
x,y,z
x,-y,z
loop_
_atom_site_type_symbol
_atom_site_label
_atom_site_fract_x
_atom_site_fract_y
_atom_site_fract_z
Si Si1 0.059790 0.319841 0.878560
Si Si2 0.889997 0.179595 0.305357
Si Si3 0.720112 0.819950 0.195642
Si Si4 0.878047 0.317730 0.627765
Si Si5 0.540363 0.683329 0.126971
Si Si6 0.199337 0.818018 0.464039
O O1 0.089021 0.500000 0.861031
O O2 0.180256 0.241976 0.646023
O O3 0.038124 0.241043 0.055154
O O4 0.876555 0.285094 0.995291
O O5 0.730300 0.195286 0.357612
O O6 0.874116 0.273565 0.464940
O O7 0.913139 0.000000 0.312705
O O8 0.568820 0.759591 0.254490
O O9 0.751863 0.000000 0.133176
O O10 0.897057 0.500000 0.627318
O O11 0.036867 0.236718 0.540372
O O12 0.702414 0.272394 0.873624
O O13 0.534002 0.500000 0.144981
O O14 0.368338 0.745546 0.236220
O O15 0.208459 0.000000 0.453428
#
# Coordination Sequence:
#
# PCOD9130808 Si02
#       6
#     2   2   2   2   2   2
#     4  10  18  34  58  84 113 147 192 237 286 340
#     4   9  19  34  58  86 116 154 193 234 292 351
#     4   9  18  34  57  85 113 146 191 235 286 341
#     4  11  22  38  61  86 119 156 194 240 294 351
#     4  11  23  38  60  88 118 154 198 242 292 347
#     4  12  24  38  60  87 119 155 198 244 292 348
#
# _framework density 18.237541
#
# number of rings (size 3 to 8) (size 9 to 14) (size 15 to 20)
#    1.000    0.667    1.667    4.500    0.000    2.000 
#    0.000    1.667    0.000    4.000    0.000    0.000 
#    0.000    0.000    0.000    0.000    0.000    0.000 
#
# Total GULP energy -66839.667084 kJ/mol
# GULP energy per Si atom -5569.972257 kJ/mol
# Density = 1.819603 g / cm^3
# Si number density = 18.237541 Si / 1000 Ang^3
#
#
#
# Elastic Constant Matrix: (Units=GPa)
#
#
# Indices 1 2 3 4 5 6 
#
# 1 64.1888 29.0645 52.5723 0.0000 -2.6480 0.0000
# 2 29.0645 97.4208 30.9814 0.0000 -5.4586 0.0000
# 3 52.5723 30.9814 86.1840 0.0000 -6.2782 0.0000
# 4 0.0000 0.0000 0.0000 9.6290 0.0000 -5.2432
# 5 -2.6480 -5.4586 -6.2782 0.0000 29.1170 0.0000
# 6 0.0000 0.0000 0.0000 -5.2432 0.0000 27.5063
#
#
#
# Elastic Compliance Matrix: (Units=1/GPa)
#
#
# Indices 1 2 3 4 5 6 
#
# 1 0.032429 -0.003886 -0.018513 0.000000 -0.001771 0.000000
# 2 -0.003886 0.012104 -0.001870 0.000000 0.001512 0.000000
# 3 -0.018513 -0.001870 0.023794 0.000000 0.003096 0.000000
# 4 0.000000 0.000000 0.000000 0.115881 0.000000 0.022089
# 5 -0.001771 0.001512 0.003096 0.000000 0.035134 0.000000
# 6 0.000000 0.000000 0.000000 0.022089 0.000000 0.040566
#
#
# Mechanical properties :
#
#
# Convention : Reuss Voigt Hill
#
# Bulk Modulus (GPa) = 50.53959 52.55890 51.54925
# Shear Modulus (GPa) = 15.87083 22.26218 19.06651
#
# Velocity S-wave (km/s) = 2.95316 3.49761 3.23686
# Velocity P-wave (km/s) = 6.27696 6.72255 6.50357
#
# Compressibility (1/GPa) = 0.01978647
#
# Stress axis : x y z
#
# Youngs Moduli (GPa) = 30.83681 82.61938 42.02716
#
# Poissons Ratio (x) = 0.32110 0.77807
# Poissons Ratio (y) = 0.11985 0.07860
# Poissons Ratio (z) = 0.57090 0.15451
#
# Static dielectric constant tensor:
#      x y z
#    x 1.644730 0.000000 -0.001000 
#    y 0.000000 1.602220 0.000000 
#    z -0.001000 0.000000 1.648060 
# 
# From -- ./inp_files/3667.got.cif
#   From: 2010.05.17/outbox.cif.g08.bks.cpg/sg6_2_cif.got.tgz:3667.got - 2010.06.03 19:42:10.
