data_PCOD9130911
_publ_section_title
;
Structure prediction by ZEFSAII (Michael W. Deem and Ramdas Pophale) SiO2 
 PCOD9130911
Probable space group: P M
;
_chemical_formula_sum "Si O2"
_cell_formula_units_Z 12
_cell_length_a 9.349742
_cell_length_b 7.784843
_cell_length_c 16.120985
_cell_angle_alpha 90.000000
_cell_angle_beta 36.852660
_cell_angle_gamma 90.000000
_cell_volume 703.749409
_symmetry_space_group_name_H-M "P M"
_symmetry_group_IT_number 6
_symmetry_cell_setting 'monoclinic'
loop_
_space_group_symop_operation_xyz
x,y,z
x,-y,z
loop_
_atom_site_type_symbol
_atom_site_label
_atom_site_fract_x
_atom_site_fract_y
_atom_site_fract_z
Si Si1 0.846580 0.701391 0.703470
Si Si2 0.285726 0.695790 0.996786
Si Si3 0.038711 0.000000 0.725893
Si Si4 0.667682 0.000000 0.050626
Si Si5 0.819502 0.304468 0.522906
Si Si6 0.223485 0.196136 0.212465
Si Si7 0.457145 0.000000 0.658282
Si Si8 0.084930 0.000000 0.983497
O O1 0.893027 0.500000 0.700085
O O2 0.565489 0.734083 0.850910
O O3 0.887453 0.732164 0.586890
O O4 0.995195 0.832143 0.690165
O O5 0.240720 0.500000 0.991171
O O6 0.131998 0.832856 0.017548
O O7 0.239878 0.715251 0.115987
O O8 0.291664 0.000000 0.654162
O O9 0.838612 0.000000 0.891253
O O10 0.487901 0.162059 0.126633
O O11 0.830723 0.000000 0.055866
O O12 0.728047 0.500000 0.562511
O O13 0.622868 0.167445 0.586663
O O14 0.047841 0.285550 0.357894
O O15 0.133189 0.000000 0.240532
O O16 0.282438 0.000000 0.818846
#
# Coordination Sequence:
#
# PCOD9130911 Si02
#       8
#     2   2   1   1   2   2   1   1
#     4  10  20  35  57  82 109 145 192 230 266 326
#     4  11  20  35  59  84 111 148 190 231 270 326
#     4  11  20  36  58  84 116 146 177 234 285 325
#     4   9  20  35  58  85 114 147 182 228 283 333
#     4  11  22  38  59  84 112 147 190 233 275 329
#     4  10  19  37  60  82 110 147 190 226 278 326
#     4  11  22  35  58  85 116 149 180 232 287 329
#     4  11  20  36  58  84 120 144 183 232 281 335
#
# _framework density 17.051523
#
# number of rings (size 3 to 8) (size 9 to 14) (size 15 to 20)
#    0.500    1.000    5.000    1.500    0.000    0.667 
#    0.000    7.500    0.000    2.000    0.000    0.000 
#    0.000    0.000    0.000    0.000    0.000    0.000 
#
# Total GULP energy -66940.008189 kJ/mol
# GULP energy per Si atom -5578.334016 kJ/mol
# Density = 1.701271 g / cm^3
# Si number density = 17.051523 Si / 1000 Ang^3
#
#
#
# Elastic Constant Matrix: (Units=GPa)
#
#
# Indices 1 2 3 4 5 6 
#
# 1 153.9701 86.7356 52.0308 0.0000 2.4736 0.0000
# 2 86.7356 109.0926 18.1989 0.0000 -1.9378 0.0000
# 3 52.0308 18.1989 92.3417 0.0000 16.8723 0.0000
# 4 0.0000 0.0000 0.0000 18.4274 0.0000 10.4118
# 5 2.4736 -1.9378 16.8723 0.0000 23.5814 0.0000
# 6 0.0000 0.0000 0.0000 10.4118 0.0000 5.0175
#
#
#
# Elastic Compliance Matrix: (Units=1/GPa)
#
#
# Indices 1 2 3 4 5 6 
#
# 1 0.014556 -0.010436 -0.006568 0.000000 0.002315 0.000000
# 2 -0.010436 0.017084 0.002366 0.000000 0.000805 0.000000
# 3 -0.006568 0.002366 0.015993 0.000000 -0.010560 0.000000
# 4 0.000000 0.000000 0.000000 -0.314666 0.000000 0.652961
# 5 0.002315 0.000805 -0.010560 0.000000 0.049785 0.000000
# 6 0.000000 0.000000 0.000000 0.652961 0.000000 -1.155651
#
#
# Mechanical properties :
#
#
# Convention : Reuss Voigt Hill
#
# Bulk Modulus (GPa) = 54.47459 74.37054 64.42257
# Shear Modulus (GPa) = -3.73830 22.63455 9.44812
#
# Velocity S-wave (km/s) = -1.48227 3.64733 2.35647
# Velocity P-wave (km/s) = 5.39323 7.83883 6.72808
#
# Compressibility (1/GPa) = 0.01835718
#
# Stress axis : x y z
#
# Youngs Moduli (GPa) = 68.69979 58.53590 62.52686
#
# Poissons Ratio (x) = 0.61089 0.41067
# Poissons Ratio (y) = 0.71697 -0.14796
# Poissons Ratio (z) = 0.45122 -0.13852
#
# Static dielectric constant tensor:
#      x y z
#    x 1.543530 0.000000 0.004530 
#    y 0.000000 1.585630 0.000000 
#    z 0.004530 0.000000 1.572080 
# 
# From -- ./inp_files/5447.got.cif
#   From: 2010.05.17/outbox.cif.g08.bks.cpg/sg6_3_cif.got.tgz:5447.got - 2010.06.03 19:42:10.
