data_PCOD9130130
_publ_section_title
;
Structure prediction by ZEFSAII (Michael W. Deem and Ramdas Pophale) SiO2 
 PCOD9130130
Probable space group: C 2
;
_chemical_formula_sum "Si O2"
_cell_formula_units_Z 24
_cell_length_a 23.173315
_cell_length_b 8.354252
_cell_length_c 5.082930
_cell_angle_alpha 90.000000
_cell_angle_beta 88.686399
_cell_angle_gamma 90.000000
_cell_volume 983.774850
_symmetry_space_group_name_H-M "C 2"
_symmetry_group_IT_number 5
_symmetry_cell_setting 'monoclinic'
loop_
_space_group_symop_operation_xyz
x,y,z
-x,y,-z
1/2+x,1/2+y,z
1/2-x,1/2+y,-z
loop_
_atom_site_type_symbol
_atom_site_label
_atom_site_fract_x
_atom_site_fract_y
_atom_site_fract_z
Si Si1 0.233745 0.968610 0.780416
Si Si2 0.323200 0.245141 0.873918
Si Si3 0.619101 0.483075 0.462314
Si Si4 0.500000 0.866801 0.000000
Si Si5 0.500000 0.635411 0.500000
Si Si6 0.618673 0.995381 0.791087
Si Si7 0.159003 0.311284 0.279984
O O1 0.172428 0.996713 0.656551
O O2 0.273159 0.824993 0.659672
O O3 0.278056 0.114246 0.777033
O O4 0.215425 0.900711 0.064368
O O5 0.373299 0.313474 0.682854
O O6 0.353253 0.164951 0.128149
O O7 0.554977 0.524217 0.565370
O O8 0.632940 0.636626 0.281038
O O9 0.487785 0.750475 0.751848
O O10 0.553146 0.975492 0.896372
O O11 0.627350 0.926095 0.497599
O O12 0.651713 0.876078 0.986825
#
# Coordination Sequence:
#
# PCOD9130130 Si02
#       7
#     4   4   4   2   2   4   4
#     4  11  27  44  73 106 156 195 251 314 396 442
#     4  11  28  45  73 114 149 204 250 324 382 470
#     4  12  26  47  72 111 143 208 246 323 370 464
#     4  12  22  52  74 110 138 214 248 324 368 466
#     4  12  28  46  80 104 152 194 270 304 386 448
#     4  11  25  47  73 108 146 195 257 307 378 447
#     4  11  25  44  75 107 145 193 253 310 377 456
#
# _framework density 24.395824999999999
#
# number of rings (size 3 to 8) (size 9 to 14) (size 15 to 20)
#    0.000    0.667    3.333    2.000   21.000    0.000 
#    3.000    0.000    0.000    0.000    0.000    0.000 
#    0.000    0.000    0.000    0.000    0.000    0.000 
#
# Total GULP energy -67034.457768 kJ/mol
# GULP energy per Si atom -5586.204814 kJ/mol
# Density = 2.434030 g / cm^3
# Si number density = 24.395825 Si / 1000 Ang^3
#
#
#
# Elastic Constant Matrix: (Units=GPa)
#
#
# Indices 1 2 3 4 5 6 
#
# 1 173.8070 26.6061 -0.1670 0.0000 -10.5993 0.0000
# 2 26.6061 94.7414 14.6691 0.0000 -3.2422 0.0000
# 3 -0.1670 14.6691 66.0976 0.0000 -5.6523 0.0000
# 4 0.0000 0.0000 0.0000 41.4523 0.0000 -4.2711
# 5 -10.5993 -3.2422 -5.6523 0.0000 33.7394 0.0000
# 6 0.0000 0.0000 0.0000 -4.2711 0.0000 43.0425
#
#
#
# Elastic Compliance Matrix: (Units=1/GPa)
#
#
# Indices 1 2 3 4 5 6 
#
# 1 0.006134 -0.001746 0.000562 0.000000 0.001853 0.000000
# 2 -0.001746 0.011442 -0.002533 0.000000 0.000127 0.000000
# 3 0.000562 -0.002533 0.015915 0.000000 0.002599 0.000000
# 4 0.000000 0.000000 0.000000 0.024373 0.000000 0.002419
# 5 0.001853 0.000127 0.002599 0.000000 0.030669 0.000000
# 6 0.000000 0.000000 0.000000 0.002419 0.000000 0.023473
#
#
# Mechanical properties :
#
#
# Convention : Reuss Voigt Hill
#
# Bulk Modulus (GPa) = 38.37873 46.31802 42.34837
# Shear Modulus (GPa) = 39.02382 43.21601 41.11991
#
# Velocity S-wave (km/s) = 4.00385 4.21343 4.10998
# Velocity P-wave (km/s) = 6.09428 6.53436 6.31815
#
# Compressibility (1/GPa) = 0.02605610
#
# Stress axis : x y z
#
# Youngs Moduli (GPa) = 163.01557 87.39767 62.83392
#
# Poissons Ratio (x) = 0.15262 -0.03528
# Poissons Ratio (y) = 0.28466 0.15915
# Poissons Ratio (z) = -0.09154 0.22137
#
# Static dielectric constant tensor:
#      x y z
#    x 1.988720 0.000000 -0.011270 
#    y 0.000000 2.030130 0.000000 
#    z -0.011270 0.000000 2.003290 
# 
# From -- ./inp_files/10167.got.cif
#   From: 2010.05.17/outbox.cif.g08.bks.cpg/sg5_6_cif.got.tgz:10167.got - 2010.06.03 18:56:24.
