data_PCOD9130816
_publ_section_title
;
Structure prediction by ZEFSAII (Michael W. Deem and Ramdas Pophale) SiO2 
 PCOD9130816
Probable space group: P M
;
_chemical_formula_sum "Si O2"
_cell_formula_units_Z 16
_cell_length_a 12.330580
_cell_length_b 7.689500
_cell_length_c 10.115887
_cell_angle_alpha 90.000000
_cell_angle_beta 51.185144
_cell_angle_gamma 90.000000
_cell_volume 747.344507
_symmetry_space_group_name_H-M "P M"
_symmetry_group_IT_number 6
_symmetry_cell_setting 'monoclinic'
loop_
_space_group_symop_operation_xyz
x,y,z
x,-y,z
loop_
_atom_site_type_symbol
_atom_site_label
_atom_site_fract_x
_atom_site_fract_y
_atom_site_fract_z
Si Si1 0.583770 0.700037 0.885990
Si Si2 0.083671 0.212028 0.424331
Si Si3 0.094875 0.787499 0.941942
Si Si4 0.526008 0.296967 0.224715
Si Si5 0.805733 0.202077 0.503737
Si Si6 0.776540 0.789119 0.229699
Si Si7 0.226130 0.207154 0.571326
Si Si8 0.285355 0.790368 0.039785
O O1 0.629073 0.500000 0.865450
O O2 0.693492 0.788968 0.705509
O O3 0.561216 0.776635 0.051091
O O4 0.436719 0.709655 0.923631
O O5 0.119525 0.276305 0.542346
O O6 0.215306 0.251336 0.232767
O O7 0.946871 0.279933 0.456048
O O8 0.071948 0.000000 0.439698
O O9 0.181043 0.726147 0.748793
O O10 0.093263 0.000000 0.945428
O O11 0.179210 0.733398 0.007458
O O12 0.932989 0.735323 0.067949
O O13 0.501099 0.500000 0.221375
O O14 0.656202 0.273591 0.223513
O O15 0.384318 0.231545 0.401697
O O16 0.758454 0.270597 0.396568
O O17 0.838326 0.000000 0.450758
O O18 0.769226 0.000000 0.230220
O O19 0.206066 0.000000 0.592879
O O20 0.300519 0.000000 0.018603
#
# Coordination Sequence:
#
# PCOD9130816 Si02
#       8
#     2   2   2   2   2   2   2   2
#     4  11  25  41  56  82 119 158 198 238 282 338
#     4   9  17  33  60  88 112 141 187 243 292 337
#     4   9  19  35  60  92 117 140 183 241 293 341
#     4  11  25  42  56  79 120 162 197 236 281 338
#     4  10  21  38  62  91 117 147 190 240 291 343
#     4  10  21  39  62  88 118 151 189 237 290 345
#     4  10  20  36  60  89 116 147 189 237 288 342
#     4  10  18  36  62  85 113 146 187 242 291 338
#
# _framework density 21.409137000000001
#
# number of rings (size 3 to 8) (size 9 to 14) (size 15 to 20)
#    0.000    2.000    2.500    0.750    3.500    2.000 
#    0.000    2.500    0.000    0.000    0.000    0.000 
#    0.000    0.000    0.000    0.000    0.000    0.000 
#
# Total GULP energy -89314.809439 kJ/mol
# GULP energy per Si atom -5582.175590 kJ/mol
# Density = 2.136041 g / cm^3
# Si number density = 21.409137 Si / 1000 Ang^3
#
#
#
# Elastic Constant Matrix: (Units=GPa)
#
#
# Indices 1 2 3 4 5 6 
#
# 1 106.7122 -12.4564 32.2161 0.0000 7.1237 0.0000
# 2 -12.4564 32.8200 -5.4844 0.0000 5.1495 0.0000
# 3 32.2161 -5.4844 108.3793 0.0000 12.7876 0.0000
# 4 0.0000 0.0000 0.0000 -18.1081 0.0000 28.3984
# 5 7.1237 5.1495 12.7876 0.0000 34.8822 0.0000
# 6 0.0000 0.0000 0.0000 28.3984 0.0000 -19.7507
#
#
#
# Elastic Compliance Matrix: (Units=1/GPa)
#
#
# Indices 1 2 3 4 5 6 
#
# 1 0.010790 0.003901 -0.002803 0.000000 -0.001752 0.000000
# 2 0.003901 0.033121 0.001241 0.000000 -0.006141 0.000000
# 3 -0.002803 0.001241 0.010533 0.000000 -0.003472 0.000000
# 4 0.000000 0.000000 0.000000 0.044006 0.000000 0.063273
# 5 -0.001752 -0.006141 -0.003472 0.000000 0.031205 0.000000
# 6 0.000000 0.000000 0.000000 0.063273 0.000000 0.040346
#
#
# Mechanical properties :
#
#
# Convention : Reuss Voigt Hill
#
# Bulk Modulus (GPa) = 16.91431 30.71801 23.81616
# Shear Modulus (GPa) = 27.02292 14.98043 21.00167
#
# Velocity S-wave (km/s) = 3.55662 2.64809 3.13544
# Velocity P-wave (km/s) = 4.97833 4.87125 4.92508
#
# Compressibility (1/GPa) = 0.05912154
#
# Stress axis : x y z
#
# Youngs Moduli (GPa) = 92.68168 30.19244 94.94391
#
# Poissons Ratio (x) = -0.11780 0.26614
# Poissons Ratio (y) = -0.36160 -0.11781
# Poissons Ratio (z) = 0.25980 -0.03747
#
# Static dielectric constant tensor:
#      x y z
#    x 1.751410 0.000000 0.021230 
#    y 0.000000 1.813160 0.000000 
#    z 0.021230 0.000000 1.769490 
# 
# From -- ./inp_files/2722.got.cif
#   From: 2010.05.17/outbox.cif.g08.bks.cpg/sg6_2_cif.got.tgz:2722.got - 2010.06.03 19:42:10.
