data_PCOD9130145
_publ_section_title
;
Structure prediction by ZEFSAII (Michael W. Deem and Ramdas Pophale) SiO2 
 PCOD9130145
Probable space group: C 2
;
_chemical_formula_sum "Si O2"
_cell_formula_units_Z 28
_cell_length_a 13.958677
_cell_length_b 5.202105
_cell_length_c 16.674729
_cell_angle_alpha 90.000000
_cell_angle_beta 120.171246
_cell_angle_gamma 90.000000
_cell_volume 1046.792940
_symmetry_space_group_name_H-M "C 2"
_symmetry_group_IT_number 5
_symmetry_cell_setting 'monoclinic'
loop_
_space_group_symop_operation_xyz
x,y,z
-x,y,-z
1/2+x,1/2+y,z
1/2-x,1/2+y,-z
loop_
_atom_site_type_symbol
_atom_site_label
_atom_site_fract_x
_atom_site_fract_y
_atom_site_fract_z
Si Si1 0.633271 0.437890 0.200830
Si Si2 0.499950 0.637835 0.700875
Si Si3 0.000000 0.682231 0.000000
Si Si4 0.000000 0.415989 0.500000
Si Si5 0.188609 0.490973 0.972776
Si Si6 0.725603 0.627738 0.624820
Si Si7 0.641718 0.145518 0.776887
Si Si8 0.637035 0.315807 0.469528
O O1 0.565782 0.580724 0.243289
O O2 0.691958 0.192444 0.269198
O O3 0.738735 0.593160 0.211505
O O4 0.556683 0.350500 0.094421
O O5 0.594132 0.419812 0.733287
O O6 0.420473 0.569120 0.592358
O O7 0.556140 0.913081 0.726855
O O8 0.093983 0.508015 0.999042
O O9 0.894513 0.260145 0.421409
O O10 0.954147 0.607946 0.548229
O O11 0.153009 0.635597 0.877210
O O12 0.217358 0.198455 0.961589
O O13 0.698486 0.344670 0.581190
O O14 0.784967 0.730666 0.569182
#
# Coordination Sequence:
#
# PCOD9130145 Si02
#       8
#     4   4   2   2   4   4   4   4
#     4  11  27  48  77 111 154 201 259 310 384 448
#     4  11  28  48  76 115 151 201 248 318 377 452
#     4  12  26  50  80 110 152 210 246 322 382 446
#     4  12  24  44  74 106 148 200 238 314 380 440
#     4  12  27  49  77 112 150 194 258 315 379 448
#     4  11  25  48  71 110 148 197 250 312 370 456
#     4  12  26  49  77 113 154 195 255 314 375 457
#     4  11  25  45  74 105 152 193 251 306 373 451
#
# _framework density 26.748365
#
# number of rings (size 3 to 8) (size 9 to 14) (size 15 to 20)
#    0.000    0.571    4.286    2.143    6.000    2.857 
#    0.000    0.000    0.000    0.000    0.000    0.000 
#    0.000    0.000    0.000    0.000    0.000    0.000 
#
# Total GULP energy -78523.201889 kJ/mol
# GULP energy per Si atom -5608.800135 kJ/mol
# Density = 2.668748 g / cm^3
# Si number density = 26.748365 Si / 1000 Ang^3
#
#
#
# Elastic Constant Matrix: (Units=GPa)
#
#
# Indices 1 2 3 4 5 6 
#
# 1 214.0049 40.8440 17.3564 0.0000 -7.4508 0.0000
# 2 40.8440 102.0586 23.4597 0.0000 6.8004 0.0000
# 3 17.3564 23.4597 166.2523 0.0000 1.8953 0.0000
# 4 0.0000 0.0000 0.0000 39.8345 0.0000 -1.8523
# 5 -7.4508 6.8004 1.8953 0.0000 32.2623 0.0000
# 6 0.0000 0.0000 0.0000 -1.8523 0.0000 27.3425
#
#
#
# Elastic Compliance Matrix: (Units=1/GPa)
#
#
# Indices 1 2 3 4 5 6 
#
# 1 0.005155 -0.002113 -0.000259 0.000000 0.001651 0.000000
# 2 -0.002113 0.011131 -0.001319 0.000000 -0.002757 0.000000
# 3 -0.000259 -0.001319 0.006230 0.000000 -0.000148 0.000000
# 4 0.000000 0.000000 0.000000 0.025183 0.000000 0.001706
# 5 0.001651 -0.002757 -0.000148 0.000000 0.031967 0.000000
# 6 0.000000 0.000000 0.000000 0.001706 0.000000 0.036689
#
#
# Mechanical properties :
#
#
# Convention : Reuss Voigt Hill
#
# Bulk Modulus (GPa) = 66.07772 71.73734 68.90753
# Shear Modulus (GPa) = 38.82585 46.59825 42.71205
#
# Velocity S-wave (km/s) = 3.81402 4.17837 4.00035
# Velocity P-wave (km/s) = 6.64475 7.08209 6.86690
#
# Compressibility (1/GPa) = 0.01513369
#
# Stress axis : x y z
#
# Youngs Moduli (GPa) = 194.00083 89.84017 160.52099
#
# Poissons Ratio (x) = 0.18987 0.04153
# Poissons Ratio (y) = 0.41001 0.21166
# Poissons Ratio (z) = 0.05019 0.11846
#
# Static dielectric constant tensor:
#      x y z
#    x 2.119510 0.000000 0.093830 
#    y 0.000000 2.138950 0.000000 
#    z 0.093830 0.000000 2.254610 
# 
# From -- ./inp_files/61161.got.cif
#   From: 2010.05.17/outbox.cif.g08.bks.cpg/sg5_31_cif.got.tgz:61161.got - 2010.06.03 18:56:24.
