data_PCOD9130317
_publ_section_title
;
Structure prediction by ZEFSAII (Michael W. Deem and Ramdas Pophale) SiO2 
 PCOD9130317
Probable space group: C 2
;
_chemical_formula_sum "Si O2"
_cell_formula_units_Z 24
_cell_length_a 9.245797
_cell_length_b 9.226255
_cell_length_c 13.209425
_cell_angle_alpha 90.000000
_cell_angle_beta 44.771586
_cell_angle_gamma 90.000000
_cell_volume 793.597799
_symmetry_space_group_name_H-M "C 2"
_symmetry_group_IT_number 5
_symmetry_cell_setting 'monoclinic'
loop_
_space_group_symop_operation_xyz
x,y,z
-x,y,-z
1/2+x,1/2+y,z
1/2-x,1/2+y,-z
loop_
_atom_site_type_symbol
_atom_site_label
_atom_site_fract_x
_atom_site_fract_y
_atom_site_fract_z
Si Si1 0.939691 0.287420 0.421069
Si Si2 0.042405 0.770080 0.088359
Si Si3 0.505578 0.807349 0.111501
Si Si4 0.158127 0.031653 0.725757
Si Si5 0.088083 0.983683 0.344969
Si Si6 0.466043 0.099329 0.332895
O O1 0.618570 0.401600 0.822262
O O2 0.107804 0.158182 0.334971
O O3 0.000000 0.357571 0.500000
O O4 0.932229 0.423983 0.349631
O O5 0.490468 0.668613 0.191270
O O6 0.033721 0.664555 0.191086
O O7 0.000000 0.699019 0.000000
O O8 0.261009 0.855757 0.986299
O O9 0.304284 0.909109 0.214940
O O10 0.500000 0.748103 0.000000
O O11 0.362441 0.110495 0.665438
O O12 0.081364 0.958655 0.658776
O O13 0.000000 0.945559 0.500000
O O14 0.732881 0.189203 0.529994
#
# Coordination Sequence:
#
# PCOD9130317 Si02
#       6
#     4   4   4   4   4   4
#     4  11  30  56  95 143 195 259 330 412 510 591
#     4  12  30  59 100 145 199 263 339 405 495 600
#     4  12  26  61 100 138 199 263 331 411 491 591
#     4  12  27  56  97 141 193 265 330 409 510 590
#     4  11  29  59  93 151 194 254 330 408 506 595
#     4  12  29  58  97 144 194 261 332 417 495 595
#
# _framework density 30.242018999999999
#
# number of rings (size 3 to 8) (size 9 to 14) (size 15 to 20)
#    0.000    0.333    3.333    1.500    7.000    9.333 
#   12.000    2.500    0.000    0.000    0.000    0.000 
#    0.000    0.000    0.000    0.000    0.000    0.000 
#
# Total GULP energy -67258.308003 kJ/mol
# GULP energy per Si atom -5604.859000 kJ/mol
# Density = 3.017319 g / cm^3
# Si number density = 30.242019 Si / 1000 Ang^3
#
#
#
# Elastic Constant Matrix: (Units=GPa)
#
#
# Indices 1 2 3 4 5 6 
#
# 1 270.0257 25.7957 85.5052 0.0000 -0.4665 0.0000
# 2 25.7957 230.5139 86.3259 0.0000 -5.9464 0.0000
# 3 85.5052 86.3259 162.7093 0.0000 -3.0927 0.0000
# 4 0.0000 0.0000 0.0000 51.7654 0.0000 7.1818
# 5 -0.4665 -5.9464 -3.0927 0.0000 61.7612 0.0000
# 6 0.0000 0.0000 0.0000 7.1818 0.0000 47.9867
#
#
#
# Elastic Compliance Matrix: (Units=1/GPa)
#
#
# Indices 1 2 3 4 5 6 
#
# 1 0.004484 0.000474 -0.002609 0.000000 -0.000051 0.000000
# 2 0.000474 0.005473 -0.003145 0.000000 0.000373 0.000000
# 3 -0.002609 -0.003145 0.009188 0.000000 0.000138 0.000000
# 4 0.000000 0.000000 0.000000 0.019728 0.000000 -0.002952
# 5 -0.000051 0.000373 0.000138 0.000000 0.016234 0.000000
# 6 0.000000 0.000000 0.000000 -0.002952 0.000000 0.021281
#
#
# Mechanical properties :
#
#
# Convention : Reuss Voigt Hill
#
# Bulk Modulus (GPa) = 116.49216 117.61137 117.05176
# Shear Modulus (GPa) = 55.67326 63.34414 59.50870
#
# Velocity S-wave (km/s) = 4.29525 4.58162 4.44074
# Velocity P-wave (km/s) = 7.95000 8.18308 8.06738
#
# Compressibility (1/GPa) = 0.00858427
#
# Stress axis : x y z
#
# Youngs Moduli (GPa) = 223.01070 182.72555 108.83351
#
# Poissons Ratio (x) = -0.08659 0.28393
# Poissons Ratio (y) = -0.10568 0.34233
# Poissons Ratio (z) = 0.58179 0.57476
#
# Static dielectric constant tensor:
#      x y z
#    x 2.340930 0.000000 0.013100 
#    y 0.000000 2.305170 0.000000 
#    z 0.013100 0.000000 2.522650 
# 
# From -- ./inp_files/50621.got.cif
#   From: 2010.05.17/outbox.cif.g08.bks.cpg/sg5_26_cif.got.tgz:50621.got - 2010.06.03 18:56:24.
