data_PCOD9130030
_publ_section_title
;
Structure prediction by ZEFSAII (Michael W. Deem and Ramdas Pophale) SiO2 
 PCOD9130030
Probable space group: C 2
;
_chemical_formula_sum "Si O2"
_cell_formula_units_Z 22
_cell_length_a 20.302976
_cell_length_b 9.089181
_cell_length_c 8.801487
_cell_angle_alpha 90.000000
_cell_angle_beta 32.447996
_cell_angle_gamma 90.000000
_cell_volume 871.440349
_symmetry_space_group_name_H-M "C 2"
_symmetry_group_IT_number 5
_symmetry_cell_setting 'monoclinic'
loop_
_space_group_symop_operation_xyz
x,y,z
-x,y,-z
1/2+x,1/2+y,z
1/2-x,1/2+y,-z
loop_
_atom_site_type_symbol
_atom_site_label
_atom_site_fract_x
_atom_site_fract_y
_atom_site_fract_z
Si Si1 0.500000 0.220830 0.000000
Si Si2 0.121405 0.185493 0.081068
Si Si3 0.995064 0.896760 0.303037
Si Si4 0.263510 0.251029 0.112864
Si Si5 0.307528 0.000144 0.524210
Si Si6 0.722765 0.941360 0.757879
O O1 0.458268 0.335765 0.951286
O O2 0.581805 0.106827 0.742055
O O3 0.206202 0.110148 0.788104
O O4 0.108340 0.351318 0.048259
O O5 0.191022 0.198082 0.105336
O O6 0.010826 0.071373 0.299103
O O7 0.102764 0.820194 0.192633
O O8 0.849156 0.876846 0.580901
O O9 0.188417 0.375373 0.352812
O O10 0.285292 0.109826 0.176477
O O11 0.272325 0.927704 0.432128
#
# Coordination Sequence:
#
# PCOD9130030 Si02
#       6
#     2   4   4   4   4   4
#     4  12  22  48  78 110 146 196 258 316 368 438
#     4  11  25  43  72 110 150 196 241 304 375 451
#     4  11  24  46  76 103 143 199 244 301 379 430
#     4  11  25  45  71 110 155 190 244 306 375 455
#     4  11  24  45  75 110 144 198 250 307 372 442
#     4  12  23  46  76 108 149 190 253 310 366 451
#
# _framework density 25.245560999999999
#
# number of rings (size 3 to 8) (size 9 to 14) (size 15 to 20)
#    0.000    0.727    3.636    5.455    0.000    4.364 
#    0.000    0.000    0.000    0.000    0.000    0.000 
#    0.000    0.000    0.000    0.000    0.000    0.000 
#
# Total GULP energy -61462.902288 kJ/mol
# GULP energy per Si atom -5587.536572 kJ/mol
# Density = 2.518810 g / cm^3
# Si number density = 25.245561 Si / 1000 Ang^3
#
#
#
# Elastic Constant Matrix: (Units=GPa)
#
#
# Indices 1 2 3 4 5 6 
#
# 1 123.9616 24.8043 16.8070 0.0000 15.8416 0.0000
# 2 24.8043 135.4495 29.3663 0.0000 -9.2132 0.0000
# 3 16.8070 29.3663 99.1990 0.0000 -13.5558 0.0000
# 4 0.0000 0.0000 0.0000 13.7762 0.0000 0.2252
# 5 15.8416 -9.2132 -13.5558 0.0000 34.5894 0.0000
# 6 0.0000 0.0000 0.0000 0.2252 0.0000 56.8685
#
#
#
# Elastic Compliance Matrix: (Units=1/GPa)
#
#
# Indices 1 2 3 4 5 6 
#
# 1 0.009349 -0.001686 -0.001829 0.000000 -0.005447 0.000000
# 2 -0.001686 0.008245 -0.001849 0.000000 0.002244 0.000000
# 3 -0.001829 -0.001849 0.011607 0.000000 0.004894 0.000000
# 4 0.000000 0.000000 0.000000 0.072594 0.000000 -0.000288
# 5 -0.005447 0.002244 0.004894 0.000000 0.033921 0.000000
# 6 0.000000 0.000000 0.000000 -0.000288 0.000000 0.017586
#
#
# Mechanical properties :
#
#
# Convention : Reuss Voigt Hill
#
# Bulk Modulus (GPa) = 54.13348 55.61837 54.87593
# Shear Modulus (GPa) = 29.37972 40.22233 34.80103
#
# Velocity S-wave (km/s) = 3.41509 3.99588 3.71684
# Velocity P-wave (km/s) = 6.08603 6.58545 6.34066
#
# Compressibility (1/GPa) = 0.01847286
#
# Stress axis : x y z
#
# Youngs Moduli (GPa) = 106.96874 121.28636 86.15720
#
# Poissons Ratio (x) = 0.20448 0.15760
# Poissons Ratio (y) = 0.18034 0.15926
# Poissons Ratio (z) = 0.19567 0.22420
#
# Static dielectric constant tensor:
#      x y z
#    x 2.035550 0.000000 -0.073780 
#    y 0.000000 1.992840 0.000000 
#    z -0.073780 0.000000 2.064220 
# 
# From -- ./inp_files/28853.got.cif
#   From: 2010.05.17/outbox.cif.g08.bks.cpg/sg5_15_cif.got.tgz:28853.got - 2010.06.03 18:56:24.
