data_PCOD9130369
_publ_section_title
;
Structure prediction by ZEFSAII (Michael W. Deem and Ramdas Pophale) SiO2 
 PCOD9130369
Probable space group: C 2
;
_chemical_formula_sum "Si O2"
_cell_formula_units_Z 24
_cell_length_a 22.121324
_cell_length_b 5.434219
_cell_length_c 8.971000
_cell_angle_alpha 90.000000
_cell_angle_beta 73.050506
_cell_angle_gamma 90.000000
_cell_volume 1031.578504
_symmetry_space_group_name_H-M "C 2"
_symmetry_group_IT_number 5
_symmetry_cell_setting 'monoclinic'
loop_
_space_group_symop_operation_xyz
x,y,z
-x,y,-z
1/2+x,1/2+y,z
1/2-x,1/2+y,-z
loop_
_atom_site_type_symbol
_atom_site_label
_atom_site_fract_x
_atom_site_fract_y
_atom_site_fract_z
Si Si1 0.916558 0.727540 0.874465
Si Si2 0.000000 0.109938 0.500000
Si Si3 0.973217 0.398322 0.273207
Si Si4 0.000000 0.070589 0.000000
Si Si5 0.735650 0.488584 0.429174
Si Si6 0.721395 0.056192 0.943753
Si Si7 0.397507 0.242806 0.530742
O O1 0.901924 0.741403 0.707720
O O2 0.984295 0.595750 0.839057
O O3 0.853949 0.601947 0.985513
O O4 0.939741 0.964842 0.947912
O O5 0.023749 0.283739 0.353747
O O6 0.951165 0.939254 0.453422
O O7 0.918009 0.508456 0.416507
O O8 0.959165 0.210290 0.155305
O O9 0.729601 0.761432 0.508099
O O10 0.761892 0.528256 0.243052
O O11 0.667865 0.359267 0.465528
O O12 0.755033 0.304530 0.988969
#
# Coordination Sequence:
#
# PCOD9130369 Si02
#       7
#     4   2   4   2   4   4   4
#     4  12  26  51  78 120 161 208 274 329 413 492
#     4  12  22  42  80 112 150 208 260 326 406 492
#     4  12  25  45  80 117 159 207 260 338 411 477
#     4  12  28  48  76 128 162 204 262 354 408 474
#     4  12  31  56  81 123 164 216 279 343 403 483
#     4  12  29  54  87 118 161 227 276 331 407 493
#     4  12  25  51  81 114 157 217 273 325 412 500
#
# _framework density 23.265315000000001
#
# number of rings (size 3 to 8) (size 9 to 14) (size 15 to 20)
#    0.000    0.000    6.667    1.500    7.000    4.000 
#    3.000    0.000    0.000    0.000    0.000    0.000 
#    0.000    0.000    0.000    0.000    0.000    0.000 
#
# Total GULP energy -66845.693191 kJ/mol
# GULP energy per Si atom -5570.474433 kJ/mol
# Density = 2.321236 g / cm^3
# Si number density = 23.265315 Si / 1000 Ang^3
#
#
#
# Elastic Constant Matrix: (Units=GPa)
#
#
# Indices 1 2 3 4 5 6 
#
# 1 94.6975 21.8812 49.1586 0.0000 -13.1397 0.0000
# 2 21.8812 111.7876 87.2771 0.0000 11.5671 0.0000
# 3 49.1586 87.2771 204.0961 0.0000 7.6936 0.0000
# 4 0.0000 0.0000 0.0000 -55.4842 0.0000 -81.5768
# 5 -13.1397 11.5671 7.6936 0.0000 34.1884 0.0000
# 6 0.0000 0.0000 0.0000 -81.5768 0.0000 -68.6254
#
#
#
# Elastic Compliance Matrix: (Units=1/GPa)
#
#
# Indices 1 2 3 4 5 6 
#
# 1 0.013168 -0.000822 -0.003047 0.000000 0.006024 0.000000
# 2 -0.000822 0.013855 -0.005586 0.000000 -0.003746 0.000000
# 3 -0.003047 -0.005586 0.008064 0.000000 -0.001096 0.000000
# 4 0.000000 0.000000 0.000000 0.024103 0.000000 -0.028652
# 5 0.006024 -0.003746 -0.001096 0.000000 0.033079 0.000000
# 6 0.000000 0.000000 0.000000 -0.028652 0.000000 0.019488
#
#
# Mechanical properties :
#
#
# Convention : Reuss Voigt Hill
#
# Bulk Modulus (GPa) = 61.81645 80.80166 71.30906
# Shear Modulus (GPa) = 36.74913 -1.16663 17.79125
#
# Velocity S-wave (km/s) = 3.97869 -0.70890 2.76834
# Velocity P-wave (km/s) = 6.90902 5.84259 6.39806
#
# Compressibility (1/GPa) = 0.01617692
#
# Stress axis : x y z
#
# Youngs Moduli (GPa) = 75.94400 72.17640 124.01551
#
# Poissons Ratio (x) = 0.05930 0.37791
# Poissons Ratio (y) = 0.06240 0.69270
# Poissons Ratio (z) = 0.23142 0.40315
#
# Static dielectric constant tensor:
#      x y z
#    x 1.947050 0.000000 0.054290 
#    y 0.000000 2.119560 0.000000 
#    z 0.054290 0.000000 1.888400 
# 
# From -- ./inp_files/30283.got.cif
#   From: 2010.05.17/outbox.cif.g08.bks.cpg/sg5_16_cif.got.tgz:30283.got - 2010.06.03 18:56:24.
