data_PCOD9130780
_publ_section_title
;
Structure prediction by ZEFSAII (Michael W. Deem and Ramdas Pophale) SiO2 
 PCOD9130780
Probable space group: P M
;
_chemical_formula_sum "Si O2"
_cell_formula_units_Z 16
_cell_length_a 19.128679
_cell_length_b 8.444068
_cell_length_c 14.408769
_cell_angle_alpha 90.000000
_cell_angle_beta 19.334397
_cell_angle_gamma 90.000000
_cell_volume 770.544551
_symmetry_space_group_name_H-M "P M"
_symmetry_group_IT_number 6
_symmetry_cell_setting 'monoclinic'
loop_
_space_group_symop_operation_xyz
x,y,z
x,-y,z
loop_
_atom_site_type_symbol
_atom_site_label
_atom_site_fract_x
_atom_site_fract_y
_atom_site_fract_z
Si Si1 0.100770 0.811380 0.894380
Si Si2 0.457966 0.691185 0.310117
Si Si3 0.491893 0.814206 0.868208
Si Si4 0.913083 0.307149 0.708733
Si Si5 0.231456 0.188379 0.936079
Si Si6 0.667635 0.314234 0.471773
Si Si7 0.054530 0.685863 0.337556
Si Si8 0.373960 0.690942 0.201961
O O1 0.283775 0.765188 0.594252
O O2 0.165108 0.757039 0.917393
O O3 0.074365 0.000000 0.928769
O O4 0.875818 0.733015 0.154935
O O5 0.444487 0.500000 0.334862
O O6 0.419122 0.732932 0.251135
O O7 0.699521 0.741232 0.027463
O O8 0.666531 0.775988 0.572379
O O9 0.441580 0.000000 0.926768
O O10 0.289587 0.713423 0.086053
O O11 0.522837 0.763452 0.935637
O O12 0.915359 0.500000 0.703837
O O13 0.911114 0.256936 0.602788
O O14 0.133639 0.258098 0.478115
O O15 0.454441 0.264475 0.686120
O O16 0.258963 0.000000 0.900462
O O17 0.064680 0.229899 0.226043
O O18 0.664105 0.500000 0.494073
O O19 0.017052 0.500000 0.369637
O O20 0.388417 0.500000 0.176011
#
# Coordination Sequence:
#
# PCOD9130780 Si02
#       8
#     2   2   2   2   2   2   2   2
#     4  11  25  42  57  80 116 153 192 238 287 342
#     4  10  21  37  56  78 105 143 193 239 276 323
#     4  10  18  31  54  84 116 146 179 224 281 342
#     4   8  16  32  53  78 108 137 171 222 276 324
#     4  10  21  38  59  84 117 152 184 230 289 344
#     4  11  22  38  62  87 113 149 192 238 284 335
#     4   9  16  30  54  83 113 144 181 226 276 335
#     4   9  18  34  55  80 110 144 182 227 279 331
#
# _framework density 20.764536
#
# number of rings (size 3 to 8) (size 9 to 14) (size 15 to 20)
#    0.000    2.250    0.000    5.625    0.000    4.500 
#    0.000    5.625    0.000    0.000    0.000    0.000 
#    0.000    0.000    0.000    0.000    0.000    0.000 
#
# Total GULP energy -89349.684268 kJ/mol
# GULP energy per Si atom -5584.355267 kJ/mol
# Density = 2.071728 g / cm^3
# Si number density = 20.764536 Si / 1000 Ang^3
#
#
#
# Elastic Constant Matrix: (Units=GPa)
#
#
# Indices 1 2 3 4 5 6 
#
# 1 50.0841 7.0480 4.6332 0.0000 0.1572 0.0000
# 2 7.0480 35.2954 5.4754 0.0000 0.6244 0.0000
# 3 4.6332 5.4754 111.0064 0.0000 3.2614 0.0000
# 4 0.0000 0.0000 0.0000 -38.4399 0.0000 19.2939
# 5 0.1572 0.6244 3.2614 0.0000 23.8506 0.0000
# 6 0.0000 0.0000 0.0000 19.2939 0.0000 19.9210
#
#
#
# Elastic Compliance Matrix: (Units=1/GPa)
#
#
# Indices 1 2 3 4 5 6 
#
# 1 0.020592 -0.004010 -0.000663 0.000000 0.000060 0.000000
# 2 -0.004010 0.029339 -0.001263 0.000000 -0.000569 0.000000
# 3 -0.000663 -0.001263 0.009134 0.000000 -0.001212 0.000000
# 4 0.000000 0.000000 0.000000 -0.017505 0.000000 0.016954
# 5 0.000060 -0.000569 -0.001212 0.000000 0.042108 0.000000
# 6 0.000000 0.000000 0.000000 0.016954 0.000000 0.033778
#
#
# Mechanical properties :
#
#
# Convention : Reuss Voigt Hill
#
# Bulk Modulus (GPa) = 21.19007 25.63323 23.41165
# Shear Modulus (GPa) = 34.47096 13.01497 23.74297
#
# Velocity S-wave (km/s) = 4.07884 2.50629 3.38514
# Velocity P-wave (km/s) = 5.69295 4.55487 5.15541
#
# Compressibility (1/GPa) = 0.04719192
#
# Stress axis : x y z
#
# Youngs Moduli (GPa) = 48.56277 34.08423 109.48011
#
# Poissons Ratio (x) = 0.13668 0.07263
# Poissons Ratio (y) = 0.19474 0.13828
# Poissons Ratio (z) = 0.03222 0.04305
#
# Static dielectric constant tensor:
#      x y z
#    x 1.762880 0.000000 -0.014390 
#    y 0.000000 1.720270 0.000000 
#    z -0.014390 0.000000 1.760840 
# 
# From -- ./inp_files/4565.got.cif
#   From: 2010.05.17/outbox.cif.g08.bks.cpg/sg6_3_cif.got.tgz:4565.got - 2010.06.03 19:42:10.
