data_PCOD9130405
_publ_section_title
;
Structure prediction by ZEFSAII (Michael W. Deem and Ramdas Pophale) SiO2 
 PCOD9130405
Probable space group: C 2
;
_chemical_formula_sum "Si O2"
_cell_formula_units_Z 20
_cell_length_a 8.515035
_cell_length_b 6.493047
_cell_length_c 12.539260
_cell_angle_alpha 90.000000
_cell_angle_beta 90.385005
_cell_angle_gamma 90.000000
_cell_volume 693.261506
_symmetry_space_group_name_H-M "C 2"
_symmetry_group_IT_number 5
_symmetry_cell_setting 'monoclinic'
loop_
_space_group_symop_operation_xyz
x,y,z
-x,y,-z
1/2+x,1/2+y,z
1/2-x,1/2+y,-z
loop_
_atom_site_type_symbol
_atom_site_label
_atom_site_fract_x
_atom_site_fract_y
_atom_site_fract_z
Si Si1 0.133130 0.889510 0.832799
Si Si2 0.151855 0.419689 0.758740
Si Si3 0.853948 0.863536 0.558889
Si Si4 0.151646 0.810863 0.054943
Si Si5 0.353401 0.919828 0.638240
O O1 0.110845 0.644621 0.803795
O O2 0.960555 0.960923 0.872427
O O3 0.219357 0.957007 0.725973
O O4 0.229036 0.897579 0.946326
O O5 0.276726 0.454114 0.664322
O O6 0.213907 0.280323 0.857116
O O7 0.999848 0.325057 0.700460
O O8 0.913012 0.642737 0.600039
O O9 0.000000 0.967550 0.500000
O O10 0.722260 0.826422 0.468075
O O11 0.000000 0.693965 0.000000
#
# Coordination Sequence:
#
# PCOD9130405 Si02
#       5
#     4   4   4   4   4
#     4   9  23  45  69  98 138 176 217 271 330 389
#     4  12  23  44  72 101 131 176 226 271 329 396
#     4  12  27  45  69  94 137 178 220 279 338 390
#     4   8  22  45  66  98 140 176 206 272 331 389
#     4  12  25  44  70 101 130 176 226 277 328 396
#
# _framework density 28.849142000000001
#
# number of rings (size 3 to 8) (size 9 to 14) (size 15 to 20)
#    1.200    0.000    0.000    6.600    0.000   10.400 
#    3.600    3.000    0.000    4.800    0.000    0.000 
#    0.000    0.000    0.000    0.000    0.000    0.000 
#
# Total GULP energy -55829.321618 kJ/mol
# GULP energy per Si atom -5582.932162 kJ/mol
# Density = 2.878348 g / cm^3
# Si number density = 28.849142 Si / 1000 Ang^3
#
#
#
# Elastic Constant Matrix: (Units=GPa)
#
#
# Indices 1 2 3 4 5 6 
#
# 1 138.9577 12.4360 86.5716 0.0000 32.3393 0.0000
# 2 12.4360 42.4036 35.8792 0.0000 -1.6920 0.0000
# 3 86.5716 35.8792 304.5847 0.0000 16.4318 0.0000
# 4 0.0000 0.0000 0.0000 51.3906 0.0000 -9.9074
# 5 32.3393 -1.6920 16.4318 0.0000 89.1749 0.0000
# 6 0.0000 0.0000 0.0000 -9.9074 0.0000 12.3977
#
#
#
# Elastic Compliance Matrix: (Units=1/GPa)
#
#
# Indices 1 2 3 4 5 6 
#
# 1 0.009489 -0.000842 -0.002436 0.000000 -0.003009 0.000000
# 2 -0.000842 0.026371 -0.002940 0.000000 0.001347 0.000000
# 3 -0.002436 -0.002940 0.004320 0.000000 0.000031 0.000000
# 4 0.000000 0.000000 0.000000 0.023003 0.000000 0.018382
# 5 -0.003009 0.001347 0.000031 0.000000 0.012325 0.000000
# 6 0.000000 0.000000 0.000000 0.018382 0.000000 0.095350
#
#
# Mechanical properties :
#
#
# Convention : Reuss Voigt Hill
#
# Bulk Modulus (GPa) = 36.04209 83.96885 60.00547
# Shear Modulus (GPa) = 25.96843 53.99658 39.98250
#
# Velocity S-wave (km/s) = 3.00350 4.33099 3.72683
# Velocity P-wave (km/s) = 4.95464 7.36066 6.27407
#
# Compressibility (1/GPa) = 0.02774534
#
# Stress axis : x y z
#
# Youngs Moduli (GPa) = 105.38084 37.92033 231.47945
#
# Poissons Ratio (x) = 0.03194 0.56380
# Poissons Ratio (y) = 0.08875 0.68050
# Poissons Ratio (z) = 0.25667 0.11148
#
# Static dielectric constant tensor:
#      x y z
#    x 2.206040 0.000000 0.047280 
#    y 0.000000 2.406750 0.000000 
#    z 0.047280 0.000000 2.172980 
# 
# From -- ./inp_files/34730.got.cif
#   From: 2010.05.17/outbox.cif.g08.bks.cpg/sg5_18_cif.got.tgz:34730.got - 2010.06.03 18:56:24.
