data_PCOD9130577
_publ_section_title
;
Structure prediction by ZEFSAII (Michael W. Deem and Ramdas Pophale) SiO2 
 PCOD9130577
Probable space group: C 2
;
_chemical_formula_sum "Si O2"
_cell_formula_units_Z 28
_cell_length_a 28.697142
_cell_length_b 5.480195
_cell_length_c 8.827749
_cell_angle_alpha 90.000000
_cell_angle_beta 54.284937
_cell_angle_gamma 90.000000
_cell_volume 1127.205943
_symmetry_space_group_name_H-M "C 2"
_symmetry_group_IT_number 5
_symmetry_cell_setting 'monoclinic'
loop_
_space_group_symop_operation_xyz
x,y,z
-x,y,-z
1/2+x,1/2+y,z
1/2-x,1/2+y,-z
loop_
_atom_site_type_symbol
_atom_site_label
_atom_site_fract_x
_atom_site_fract_y
_atom_site_fract_z
Si Si1 0.512597 0.125000 0.304886
Si Si2 0.423739 0.629495 0.868298
Si Si3 0.179657 0.548004 0.598275
Si Si4 0.066833 0.235893 0.836276
Si Si5 0.252894 0.204955 0.238653
Si Si6 0.831547 0.958082 0.842211
Si Si7 0.899166 0.834945 0.436186
O O1 0.500000 0.053099 0.500000
O O2 0.539864 0.396292 0.257468
O O3 0.453346 0.153004 0.323860
O O4 0.549956 0.900317 0.175184
O O5 0.369143 0.652603 0.863029
O O6 0.415079 0.554834 0.059645
O O7 0.118776 0.423609 0.746943
O O8 0.215073 0.404798 0.401659
O O9 0.215722 0.564808 0.683445
O O10 0.156368 0.794119 0.564369
O O11 0.074466 0.093620 0.663279
O O12 0.000000 0.287378 0.000000
O O13 0.212652 0.063391 0.196372
O O14 0.300221 0.315815 0.035714
O O15 0.875960 0.814678 0.650662
#
# Coordination Sequence:
#
# PCOD9130577 Si02
#       7
#     4   4   4   4   4   4   4
#     4  12  27  48  82 118 169 212 274 345 425 515
#     4  12  29  48  79 120 165 217 273 346 426 505
#     4  12  29  51  83 116 164 220 273 358 423 506
#     4  12  27  49  81 122 165 213 274 344 428 517
#     4  12  29  52  81 117 164 219 295 352 424 500
#     4  12  28  50  80 118 160 223 288 355 419 501
#     4  12  26  50  79 120 161 220 277 345 431 507
#
# _framework density 24.840181000000001
#
# number of rings (size 3 to 8) (size 9 to 14) (size 15 to 20)
#    0.000    0.000    4.286    3.857   10.000    0.571 
#    0.000    0.000    0.000    0.000    0.000    0.000 
#    0.000    0.000    0.000    0.000    0.000    0.000 
#
# Total GULP energy -78244.876424 kJ/mol
# GULP energy per Si atom -5588.919745 kJ/mol
# Density = 2.478364 g / cm^3
# Si number density = 24.840181 Si / 1000 Ang^3
#
#
#
# Elastic Constant Matrix: (Units=GPa)
#
#
# Indices 1 2 3 4 5 6 
#
# 1 152.9842 20.2238 12.4727 0.0000 7.4031 0.0000
# 2 20.2238 62.8667 16.8834 0.0000 -18.6565 0.0000
# 3 12.4727 16.8834 150.9872 0.0000 -7.4214 0.0000
# 4 0.0000 0.0000 0.0000 -244.9785 0.0000 -78.5600
# 5 7.4031 -18.6565 -7.4214 0.0000 43.6890 0.0000
# 6 0.0000 0.0000 0.0000 -78.5600 0.0000 29.2017
#
#
#
# Elastic Compliance Matrix: (Units=1/GPa)
#
#
# Indices 1 2 3 4 5 6 
#
# 1 0.007075 -0.002918 -0.000381 0.000000 -0.002510 0.000000
# 2 -0.002918 0.019845 -0.001550 0.000000 0.008706 0.000000
# 3 -0.000381 -0.001550 0.006856 0.000000 0.000567 0.000000
# 4 0.000000 0.000000 0.000000 -0.002191 0.000000 -0.005895
# 5 -0.002510 0.008706 0.000567 0.000000 0.027128 0.000000
# 6 0.000000 0.000000 0.000000 -0.005895 0.000000 0.018384
#
#
# Mechanical properties :
#
#
# Convention : Reuss Voigt Hill
#
# Bulk Modulus (GPa) = 41.53484 51.77755 46.65620
# Shear Modulus (GPa) = 52.73007 -13.26700 19.73153
#
# Velocity S-wave (km/s) = 4.61235 -2.31356 2.82146
# Velocity P-wave (km/s) = 6.71731 3.70848 5.42563
#
# Compressibility (1/GPa) = 0.02407617
#
# Stress axis : x y z
#
# Youngs Moduli (GPa) = 141.34326 50.38973 145.86174
#
# Poissons Ratio (x) = 0.14706 0.05564
# Poissons Ratio (y) = 0.41249 0.22610
# Poissons Ratio (z) = 0.05392 0.07811
#
# Static dielectric constant tensor:
#      x y z
#    x 2.130590 0.000000 -0.317010 
#    y 0.000000 2.090840 0.000000 
#    z -0.317010 0.000000 2.908090 
# 
# From -- ./inp_files/32220.got.cif
#   From: 2010.05.17/outbox.cif.g08.bks.cpg/sg5_17_cif.got.tgz:32220.got - 2010.06.03 18:56:24.
