data_PCOD9130643
_publ_section_title
;
Structure prediction by ZEFSAII (Michael W. Deem and Ramdas Pophale) SiO2 
 PCOD9130643
Probable space group: C 2
;
_chemical_formula_sum "Si O2"
_cell_formula_units_Z 20
_cell_length_a 20.180318
_cell_length_b 7.980030
_cell_length_c 5.467862
_cell_angle_alpha 90.000000
_cell_angle_beta 87.222497
_cell_angle_gamma 90.000000
_cell_volume 879.507573
_symmetry_space_group_name_H-M "C 2"
_symmetry_group_IT_number 5
_symmetry_cell_setting 'monoclinic'
loop_
_space_group_symop_operation_xyz
x,y,z
-x,y,-z
1/2+x,1/2+y,z
1/2-x,1/2+y,-z
loop_
_atom_site_type_symbol
_atom_site_label
_atom_site_fract_x
_atom_site_fract_y
_atom_site_fract_z
Si Si1 0.871253 0.357950 0.739837
Si Si2 0.360302 0.226828 0.725703
Si Si3 0.273991 0.654327 0.475253
Si Si4 0.458772 0.535762 0.759862
Si Si5 0.762747 0.538811 0.014335
O O1 0.897653 0.546322 0.693084
O O2 0.829632 0.292863 0.513246
O O3 0.922251 0.214629 0.796568
O O4 0.813185 0.386196 0.952678
O O5 0.301711 0.219602 0.535558
O O6 0.407282 0.383487 0.731545
O O7 0.314351 0.195692 0.974290
O O8 0.282570 0.556470 0.219446
O O9 0.273400 0.546330 0.724159
O O10 0.500000 0.545033 0.500000
O O11 0.500000 0.503906 0.000000
#
# Coordination Sequence:
#
# PCOD9130643 Si02
#       5
#     4   4   4   4   4
#     4   9  23  44  67  99 132 174 217 273 337 390
#     4   8  24  42  66  97 132 172 211 280 325 389
#     4   9  19  37  67 100 128 163 209 266 344 391
#     4  12  29  45  67  96 131 184 231 269 311 398
#     4   8  21  36  63 100 125 171 194 269 337 389
#
# _framework density 22.739998
#
# number of rings (size 3 to 8) (size 9 to 14) (size 15 to 20)
#    2.400    0.000    0.000    0.000    8.400   11.200 
#    0.000    0.000    0.000    0.000    0.000    0.000 
#    0.000    0.000    0.000    0.000    0.000    0.000 
#
# Total GULP energy -55714.618006 kJ/mol
# GULP energy per Si atom -5571.461801 kJ/mol
# Density = 2.268824 g / cm^3
# Si number density = 22.739998 Si / 1000 Ang^3
#
#
#
# Elastic Constant Matrix: (Units=GPa)
#
#
# Indices 1 2 3 4 5 6 
#
# 1 77.1847 54.9890 36.2770 0.0000 12.2812 0.0000
# 2 54.9890 138.1469 43.8669 0.0000 -3.9163 0.0000
# 3 36.2770 43.8669 164.3528 0.0000 4.2313 0.0000
# 4 0.0000 0.0000 0.0000 24.2806 0.0000 -2.0657
# 5 12.2812 -3.9163 4.2313 0.0000 33.0383 0.0000
# 6 0.0000 0.0000 0.0000 -2.0657 0.0000 45.8519
#
#
#
# Elastic Compliance Matrix: (Units=1/GPa)
#
#
# Indices 1 2 3 4 5 6 
#
# 1 0.020984 -0.007856 -0.002318 0.000000 -0.008435 0.000000
# 2 -0.007856 0.010899 -0.001288 0.000000 0.004377 0.000000
# 3 -0.002318 -0.001288 0.006944 0.000000 -0.000180 0.000000
# 4 0.000000 0.000000 0.000000 0.041344 0.000000 0.001863
# 5 -0.008435 0.004377 -0.000180 0.000000 0.033945 0.000000
# 6 0.000000 0.000000 0.000000 0.001863 0.000000 0.021893
#
#
# Mechanical properties :
#
#
# Convention : Reuss Voigt Hill
#
# Bulk Modulus (GPa) = 62.87470 72.21668 67.54569
# Shear Modulus (GPa) = 30.44446 36.93757 33.69102
#
# Velocity S-wave (km/s) = 3.66294 4.03469 3.85330
# Velocity P-wave (km/s) = 6.75270 7.31652 7.04025
#
# Compressibility (1/GPa) = 0.01590465
#
# Stress axis : x y z
#
# Youngs Moduli (GPa) = 47.65500 91.75484 144.00096
#
# Poissons Ratio (x) = 0.72081 0.33377
# Poissons Ratio (y) = 0.37437 0.18542
# Poissons Ratio (z) = 0.11046 0.11814
#
# Static dielectric constant tensor:
#      x y z
#    x 1.824540 0.000000 -0.014740 
#    y 0.000000 2.009350 0.000000 
#    z -0.014740 0.000000 1.864860 
# 
# From -- ./inp_files/9279.got.cif
#   From: 2010.05.17/outbox.cif.g08.bks.cpg/sg5_5_cif.got.tgz:9279.got - 2010.06.03 18:56:24.
