data_PCOD9130571
_publ_section_title
;
Structure prediction by ZEFSAII (Michael W. Deem and Ramdas Pophale) SiO2 
 PCOD9130571
Probable space group: C 2
;
_chemical_formula_sum "Si O2"
_cell_formula_units_Z 28
_cell_length_a 15.937950
_cell_length_b 5.706006
_cell_length_c 13.599976
_cell_angle_alpha 90.000000
_cell_angle_beta 118.404566
_cell_angle_gamma 90.000000
_cell_volume 1087.910863
_symmetry_space_group_name_H-M "C 2"
_symmetry_group_IT_number 5
_symmetry_cell_setting 'monoclinic'
loop_
_space_group_symop_operation_xyz
x,y,z
-x,y,-z
1/2+x,1/2+y,z
1/2-x,1/2+y,-z
loop_
_atom_site_type_symbol
_atom_site_label
_atom_site_fract_x
_atom_site_fract_y
_atom_site_fract_z
Si Si1 0.709993 0.679820 0.020002
Si Si2 0.000000 0.647241 0.500000
Si Si3 0.500000 0.257952 0.000000
Si Si4 0.382714 0.790896 0.310064
Si Si5 0.662550 0.782113 0.351746
Si Si6 0.030331 0.382688 0.854238
Si Si7 0.367662 0.502577 0.481290
Si Si8 0.688305 0.462772 0.198894
O O1 0.595205 0.681729 0.940280
O O2 0.749948 0.430132 0.998921
O O3 0.725021 0.666149 0.145499
O O4 0.920156 0.499880 0.399006
O O5 0.935189 0.785663 0.543733
O O6 0.585793 0.387108 0.103790
O O7 0.455491 0.095651 0.062275
O O8 0.426811 0.856378 0.230667
O O9 0.403001 0.570487 0.391473
O O10 0.269578 0.770937 0.231489
O O11 0.582045 0.872976 0.231499
O O12 0.620226 0.709610 0.433445
O O13 0.690709 0.540944 0.312621
O O14 0.756504 0.935762 0.416959
#
# Coordination Sequence:
#
# PCOD9130571 Si02
#       8
#     4   2   2   4   4   4   4   4
#     4  12  27  49  80 120 160 213 282 340 400 502
#     4  12  26  50  76 110 154 198 282 322 398 504
#     4  12  28  52  78 126 168 208 284 342 420 506
#     4  12  27  48  79 114 150 217 266 331 407 486
#     4  12  27  47  78 110 163 211 257 338 420 472
#     4  12  27  47  81 112 162 211 269 335 417 486
#     4  12  28  50  76 116 160 202 273 332 397 505
#     4  12  26  49  77 115 160 213 269 333 419 486
#
# _framework density 25.737400999999998
#
# number of rings (size 3 to 8) (size 9 to 14) (size 15 to 20)
#    0.000    0.000    2.857    6.429    6.000    1.143 
#    0.000    0.000    0.000    0.000    0.000    0.000 
#    0.000    0.000    0.000    0.000    0.000    0.000 
#
# Total GULP energy -78215.558906 kJ/mol
# GULP energy per Si atom -5586.825636 kJ/mol
# Density = 2.567882 g / cm^3
# Si number density = 25.737401 Si / 1000 Ang^3
#
#
#
# Elastic Constant Matrix: (Units=GPa)
#
#
# Indices 1 2 3 4 5 6 
#
# 1 71.2731 19.4242 20.8517 0.0000 10.9476 0.0000
# 2 19.4242 74.3610 24.5848 0.0000 1.4258 0.0000
# 3 20.8517 24.5848 111.1331 0.0000 6.5313 0.0000
# 4 0.0000 0.0000 0.0000 34.2434 0.0000 6.6939
# 5 10.9476 1.4258 6.5313 0.0000 73.5913 0.0000
# 6 0.0000 0.0000 0.0000 6.6939 0.0000 45.4863
#
#
#
# Elastic Compliance Matrix: (Units=1/GPa)
#
#
# Indices 1 2 3 4 5 6 
#
# 1 0.015902 -0.003418 -0.002103 0.000000 -0.002113 0.000000
# 2 -0.003418 0.015244 -0.002758 0.000000 0.000458 0.000000
# 3 -0.002103 -0.002758 0.010034 0.000000 -0.000524 0.000000
# 4 0.000000 0.000000 0.000000 0.030068 0.000000 -0.004425
# 5 -0.002113 0.000458 -0.000524 0.000000 0.013941 0.000000
# 6 0.000000 0.000000 0.000000 -0.004425 0.000000 0.022636
#
#
# Mechanical properties :
#
#
# Convention : Reuss Voigt Hill
#
# Bulk Modulus (GPa) = 40.61542 42.94317 41.77930
# Shear Modulus (GPa) = 37.71062 43.45796 40.58429
#
# Velocity S-wave (km/s) = 3.83195 4.11361 3.97528
# Velocity P-wave (km/s) = 5.94924 6.26767 6.11053
#
# Compressibility (1/GPa) = 0.02462119
#
# Stress axis : x y z
#
# Youngs Moduli (GPa) = 62.88552 65.60086 99.66354
#
# Poissons Ratio (x) = 0.22422 0.20963
# Poissons Ratio (y) = 0.21494 0.27485
# Poissons Ratio (z) = 0.13227 0.18092
#
# Static dielectric constant tensor:
#      x y z
#    x 2.143300 0.000000 -0.085830 
#    y 0.000000 2.092600 0.000000 
#    z -0.085830 0.000000 2.035510 
# 
# From -- ./inp_files/55388.got.cif
#   From: 2010.05.17/outbox.cif.g08.bks.cpg/sg5_28_cif.got.tgz:55388.got - 2010.06.03 18:56:24.
