data_PCOD9130361
_publ_section_title
;
Structure prediction by ZEFSAII (Michael W. Deem and Ramdas Pophale) SiO2 
 PCOD9130361
Probable space group: C 2
;
_chemical_formula_sum "Si O2"
_cell_formula_units_Z 22
_cell_length_a 11.766228
_cell_length_b 9.513795
_cell_length_c 14.595193
_cell_angle_alpha 90.000000
_cell_angle_beta 143.723504
_cell_angle_gamma 90.000000
_cell_volume 966.695350
_symmetry_space_group_name_H-M "C 2"
_symmetry_group_IT_number 5
_symmetry_cell_setting 'monoclinic'
loop_
_space_group_symop_operation_xyz
x,y,z
-x,y,-z
1/2+x,1/2+y,z
1/2-x,1/2+y,-z
loop_
_atom_site_type_symbol
_atom_site_label
_atom_site_fract_x
_atom_site_fract_y
_atom_site_fract_z
Si Si1 0.073629 0.652290 0.743274
Si Si2 0.087080 0.922578 0.256726
Si Si3 0.183289 0.148019 0.860225
Si Si4 0.037162 0.426850 0.860225
Si Si5 0.000000 0.537434 0.500000
Si Si6 0.500000 0.321603 0.000000
Si Si7 0.500000 0.753265 0.000000
O O1 0.981177 0.517780 0.735634
O O2 0.983738 0.787434 0.733738
O O3 0.028577 0.632714 0.607880
O O4 0.307980 0.666318 0.901147
O O5 0.312817 0.942154 0.392120
O O6 0.009909 0.057089 0.264366
O O7 0.005687 0.908550 0.098853
O O8 0.134457 0.287434 0.884457
O O9 0.315481 0.217656 0.868164
O O10 0.323478 0.037434 1.000000
O O11 0.920846 0.357212 0.868164
#
# Coordination Sequence:
#
# PCOD9130361 Si02
#       7
#     4   4   4   4   2   2   2
#     4  12  28  48  71 106 142 184 240 285 348 423
#     4  12  28  48  71 106 142 184 240 285 348 423
#     4  12  22  40  71 112 141 170 223 296 355 410
#     4  12  22  40  71 112 141 170 223 296 355 410
#     4  12  32  46  68  96 148 206 224 282 344 416
#     4  12  23  43  80 106 138 174 228 310 358 396
#     4  12  23  43  80 106 138 174 228 310 358 396
#
# _framework density 22.757944999999999
#
# number of rings (size 3 to 8) (size 9 to 14) (size 15 to 20)
#    0.000    0.000    7.273    2.727    0.000    5.818 
#    0.000    0.000    0.000    2.182    0.000    0.000 
#    0.000    0.000    0.000    0.000    0.000    0.000 
#
# Total GULP energy -61317.578423 kJ/mol
# GULP energy per Si atom -5574.325311 kJ/mol
# Density = 2.270615 g / cm^3
# Si number density = 22.757945 Si / 1000 Ang^3
#
#
#
# Elastic Constant Matrix: (Units=GPa)
#
#
# Indices 1 2 3 4 5 6 
#
# 1 139.0887 57.4209 57.3209 0.0000 -0.1990 0.0000
# 2 57.4209 152.2073 36.0116 0.0000 0.6301 0.0000
# 3 57.3209 36.0116 89.7597 0.0000 1.6512 0.0000
# 4 0.0000 0.0000 0.0000 15.7892 0.0000 0.9742
# 5 -0.1990 0.6301 1.6512 0.0000 44.2117 0.0000
# 6 0.0000 0.0000 0.0000 0.9742 0.0000 48.8876
#
#
#
# Elastic Compliance Matrix: (Units=1/GPa)
#
#
# Indices 1 2 3 4 5 6 
#
# 1 0.010656 -0.002663 -0.005742 0.000000 0.000300 0.000000
# 2 -0.002663 0.007924 -0.001478 0.000000 -0.000070 0.000000
# 3 -0.005742 -0.001478 0.015411 0.000000 -0.000580 0.000000
# 4 0.000000 0.000000 0.000000 0.063412 0.000000 -0.001264
# 5 0.000300 -0.000070 -0.000580 0.000000 0.022642 0.000000
# 6 0.000000 0.000000 0.000000 -0.001264 0.000000 0.020480
#
#
# Mechanical properties :
#
#
# Convention : Reuss Voigt Hill
#
# Bulk Modulus (GPa) = 70.29013 75.84026 73.06520
# Shear Modulus (GPa) = 30.29694 37.13120 33.71407
#
# Velocity S-wave (km/s) = 3.65261 4.04365 3.85310
# Velocity P-wave (km/s) = 6.98153 7.42958 7.20904
#
# Compressibility (1/GPa) = 0.01422675
#
# Stress axis : x y z
#
# Youngs Moduli (GPa) = 93.84631 126.19330 64.88757
#
# Poissons Ratio (x) = 0.33600 0.37259
# Poissons Ratio (y) = 0.24988 0.09588
# Poissons Ratio (z) = 0.53887 0.18647
#
# Static dielectric constant tensor:
#      x y z
#    x 1.953230 0.000000 0.002050 
#    y 0.000000 1.869660 0.000000 
#    z 0.002050 0.000000 1.883690 
# 
# From -- ./inp_files/61396.got.cif
#   From: 2010.05.17/outbox.cif.g08.bks.cpg/sg5_31_cif.got.tgz:61396.got - 2010.06.03 18:56:24.
