data_PCOD9130815
_publ_section_title
;
Structure prediction by ZEFSAII (Michael W. Deem and Ramdas Pophale) SiO2 
 PCOD9130815
Probable space group: P M
;
_chemical_formula_sum "Si O2"
_cell_formula_units_Z 16
_cell_length_a 9.378403
_cell_length_b 15.474457
_cell_length_c 6.704293
_cell_angle_alpha 90.000000
_cell_angle_beta 124.550404
_cell_angle_gamma 90.000000
_cell_volume 801.360965
_symmetry_space_group_name_H-M "P M"
_symmetry_group_IT_number 6
_symmetry_cell_setting 'monoclinic'
loop_
_space_group_symop_operation_xyz
x,y,z
x,-y,z
loop_
_atom_site_type_symbol
_atom_site_label
_atom_site_fract_x
_atom_site_fract_y
_atom_site_fract_z
Si Si1 0.062370 0.594709 0.712550
Si Si2 0.596759 0.224793 0.919909
Si Si3 0.101464 0.159172 0.867322
Si Si4 0.401467 0.601458 0.699241
Si Si5 0.158614 0.325942 0.179381
Si Si6 0.452487 0.092715 0.086022
Si Si7 0.953262 0.253077 0.393646
Si Si8 0.712006 0.100509 0.663662
O O1 0.000912 0.500000 0.607903
O O2 0.246766 0.607966 0.743159
O O3 0.934452 0.667826 0.532623
O O4 0.084557 0.604268 0.966348
O O5 0.543118 0.324829 0.856449
O O6 0.628967 0.171846 0.743492
O O7 0.459038 0.171808 0.938839
O O8 0.772625 0.216197 0.183392
O O9 0.066757 0.185621 0.609078
O O10 0.913275 0.127123 0.791704
O O11 0.170511 0.242606 0.045170
O O12 0.257999 0.093445 0.014864
O O13 0.453729 0.500000 0.735247
O O14 0.320213 0.632193 0.423049
O O15 0.039676 0.292635 0.265337
O O16 0.596147 0.103188 0.371520
O O17 0.486588 0.000000 0.013308
O O18 0.706341 0.000000 0.729365
#
# Coordination Sequence:
#
# PCOD9130815 Si02
#       8
#     2   2   2   2   2   2   2   2
#     4   9  19  36  58  87 121 161 215 264 312 378
#     4  12  22  41  63  90 133 169 210 269 321 387
#     4  11  21  41  65  92 126 170 215 259 318 383
#     4  10  22  38  61  92 126 168 216 268 321 379
#     4  10  18  36  61  88 119 164 210 256 321 371
#     4  11  24  41  64  93 126 169 215 264 322 384
#     4  10  21  35  61  88 119 168 207 255 320 374
#     4  11  24  42  65  96 132 169 217 269 320 382
#
# _framework density 19.966032999999999
#
# number of rings (size 3 to 8) (size 9 to 14) (size 15 to 20)
#    0.000    1.500    2.500    4.125    0.000    1.000 
#    0.000    0.000    0.000    0.000    0.000    0.000 
#    0.000    0.000    0.000    0.000    0.000    0.000 
#
# Total GULP energy -89167.841149 kJ/mol
# GULP energy per Si atom -5572.990072 kJ/mol
# Density = 1.992059 g / cm^3
# Si number density = 19.966033 Si / 1000 Ang^3
#
#
#
# Elastic Constant Matrix: (Units=GPa)
#
#
# Indices 1 2 3 4 5 6 
#
# 1 54.9025 29.9913 19.2510 0.0000 1.0094 0.0000
# 2 29.9913 127.5317 29.0763 0.0000 4.3496 0.0000
# 3 19.2510 29.0763 79.4681 0.0000 -6.0942 0.0000
# 4 0.0000 0.0000 0.0000 19.1025 0.0000 -2.9986
# 5 1.0094 4.3496 -6.0942 0.0000 23.7021 0.0000
# 6 0.0000 0.0000 0.0000 -2.9986 0.0000 16.8427
#
#
#
# Elastic Compliance Matrix: (Units=1/GPa)
#
#
# Indices 1 2 3 4 5 6 
#
# 1 0.021895 -0.004234 -0.003843 0.000000 -0.001144 0.000000
# 2 -0.004234 0.009512 -0.002627 0.000000 -0.002241 0.000000
# 3 -0.003843 -0.002627 0.014817 0.000000 0.004455 0.000000
# 4 0.000000 0.000000 0.000000 0.053854 0.000000 0.009588
# 5 -0.001144 -0.002241 0.004455 0.000000 0.043796 0.000000
# 6 0.000000 0.000000 0.000000 0.009588 0.000000 0.061080
#
#
# Mechanical properties :
#
#
# Convention : Reuss Voigt Hill
#
# Bulk Modulus (GPa) = 40.29259 46.50438 43.39849
# Shear Modulus (GPa) = 21.30978 24.16835 22.73907
#
# Velocity S-wave (km/s) = 3.27050 3.48296 3.37840
# Velocity P-wave (km/s) = 5.87247 6.28625 6.08288
#
# Compressibility (1/GPa) = 0.02481846
#
# Stress axis : x y z
#
# Youngs Moduli (GPa) = 45.67171 105.12896 67.48906
#
# Poissons Ratio (x) = 0.44511 0.25934
# Poissons Ratio (y) = 0.19337 0.17726
# Poissons Ratio (z) = 0.17550 0.27612
#
# Static dielectric constant tensor:
#      x y z
#    x 1.722210 0.000000 -0.012910 
#    y 0.000000 1.747200 0.000000 
#    z -0.012910 0.000000 1.702410 
# 
# From -- ./inp_files/1317.got.cif
#   From: 2010.05.17/outbox.cif.g08.bks.cpg/sg6_1_cif.got.tgz:1317.got - 2010.06.03 19:42:10.
