data_PCOD9130165
_publ_section_title
;
Structure prediction by ZEFSAII (Michael W. Deem and Ramdas Pophale) SiO2 
 PCOD9130165
Probable space group: C 2
;
_chemical_formula_sum "Si O2"
_cell_formula_units_Z 32
_cell_length_a 15.138473
_cell_length_b 11.560088
_cell_length_c 15.617617
_cell_angle_alpha 90.000000
_cell_angle_beta 144.682693
_cell_angle_gamma 90.000000
_cell_volume 1580.025319
_symmetry_space_group_name_H-M "C 2"
_symmetry_group_IT_number 5
_symmetry_cell_setting 'monoclinic'
loop_
_space_group_symop_operation_xyz
x,y,z
-x,y,-z
1/2+x,1/2+y,z
1/2-x,1/2+y,-z
loop_
_atom_site_type_symbol
_atom_site_label
_atom_site_fract_x
_atom_site_fract_y
_atom_site_fract_z
Si Si1 0.343020 0.895720 0.680316
Si Si2 0.074571 0.630399 0.652249
Si Si3 0.725135 0.199485 0.123179
Si Si4 0.609770 0.691473 0.163053
Si Si5 0.113936 0.653496 0.219271
Si Si6 0.925893 0.822927 0.656938
Si Si7 0.360845 0.934850 0.179127
Si Si8 0.406056 0.548336 0.136852
O O1 0.317071 0.802871 0.734181
O O2 0.216020 0.873022 0.508549
O O3 0.514671 0.874550 0.782625
O O4 0.347113 0.026668 0.715670
O O5 0.254529 0.624282 0.776042
O O6 0.042152 0.513074 0.678565
O O7 0.000000 0.636446 0.500000
O O8 0.023131 0.738048 0.670969
O O9 0.715114 0.174775 0.215590
O O10 0.758200 0.334991 0.138258
O O11 0.854205 0.127872 0.175089
O O12 0.562085 0.165733 0.951921
O O13 0.522043 0.613962 0.164233
O O14 0.500000 0.730324 0.000000
O O15 0.131814 0.744900 0.309761
O O16 0.023373 0.929121 0.771732
O O17 0.247962 0.017357 0.036922
#
# Coordination Sequence:
#
# PCOD9130165 Si02
#       8
#     4   4   4   4   4   4   4   4
#     4  12  27  45  73 104 146 191 233 291 365 426
#     4  12  27  48  71 105 148 191 238 299 363 426
#     4  11  25  46  72 106 136 183 241 295 349 421
#     4  12  28  45  74 107 140 190 252 294 357 435
#     4  11  26  46  72 103 144 185 231 292 361 417
#     4  12  28  47  72 102 150 187 235 296 360 427
#     4  12  25  46  74 103 143 188 238 293 358 424
#     4  12  26  45  72 105 142 184 241 299 350 426
#
# _framework density 20.252839999999999
#
# number of rings (size 3 to 8) (size 9 to 14) (size 15 to 20)
#    0.000    0.250    7.500    0.000   10.500    0.000 
#    0.000    1.250    0.000    0.000    0.000    0.000 
#    0.000    0.000    0.000    0.000    0.000    0.000 
#
# Total GULP energy -89457.887642 kJ/mol
# GULP energy per Si atom -5591.117978 kJ/mol
# Density = 2.020674 g / cm^3
# Si number density = 20.252840 Si / 1000 Ang^3
#
#
#
# Elastic Constant Matrix: (Units=GPa)
#
#
# Indices 1 2 3 4 5 6 
#
# 1 114.1831 48.1284 25.7750 0.0000 -16.2224 0.0000
# 2 48.1284 114.7394 15.9481 0.0000 -25.0545 0.0000
# 3 25.7750 15.9481 72.8270 0.0000 -26.1210 0.0000
# 4 0.0000 0.0000 0.0000 29.7107 0.0000 2.9757
# 5 -16.2224 -25.0545 -26.1210 0.0000 36.0782 0.0000
# 6 0.0000 0.0000 0.0000 2.9757 0.0000 17.5260
#
#
#
# Elastic Compliance Matrix: (Units=1/GPa)
#
#
# Indices 1 2 3 4 5 6 
#
# 1 0.011258 -0.004333 -0.003106 0.000000 -0.000196 0.000000
# 2 -0.004333 0.011951 0.001613 0.000000 0.007519 0.000000
# 3 -0.003106 0.001613 0.019421 0.000000 0.013785 0.000000
# 4 0.000000 0.000000 0.000000 0.034240 0.000000 -0.005814
# 5 -0.000196 0.007519 0.013785 0.000000 0.042832 0.000000
# 6 0.000000 0.000000 0.000000 -0.005814 0.000000 0.058045
#
#
# Mechanical properties :
#
#
# Convention : Reuss Voigt Hill
#
# Bulk Modulus (GPa) = 32.28026 53.49470 42.88748
# Shear Modulus (GPa) = 25.03465 30.78953 27.91209
#
# Velocity S-wave (km/s) = 3.51964 3.90328 3.71641
# Velocity P-wave (km/s) = 5.70004 6.83995 6.29584
#
# Compressibility (1/GPa) = 0.03097869
#
# Stress axis : x y z
#
# Youngs Moduli (GPa) = 88.82960 83.67839 51.48972
#
# Poissons Ratio (x) = 0.36259 0.15990
# Poissons Ratio (y) = 0.38491 -0.08307
# Poissons Ratio (z) = 0.27587 -0.13500
#
# Static dielectric constant tensor:
#      x y z
#    x 1.709870 0.000000 0.016650 
#    y 0.000000 1.685340 0.000000 
#    z 0.016650 0.000000 1.733870 
# 
# From -- ./inp_files/54606.got.cif
#   From: 2010.05.17/outbox.cif.g08.bks.cpg/sg5_28_cif.got.tgz:54606.got - 2010.06.03 18:56:24.
