data_PCOD9130763
_publ_section_title
;
Structure prediction by ZEFSAII (Michael W. Deem and Ramdas Pophale) SiO2 
 PCOD9130763
Probable space group: P M
;
_chemical_formula_sum "Si O2"
_cell_formula_units_Z 9
_cell_length_a 7.795471
_cell_length_b 8.296453
_cell_length_c 13.968231
_cell_angle_alpha 90.000000
_cell_angle_beta 26.781458
_cell_angle_gamma 90.000000
_cell_volume 407.058177
_symmetry_space_group_name_H-M "P M"
_symmetry_group_IT_number 6
_symmetry_cell_setting 'monoclinic'
loop_
_space_group_symop_operation_xyz
x,y,z
x,-y,z
loop_
_atom_site_type_symbol
_atom_site_label
_atom_site_fract_x
_atom_site_fract_y
_atom_site_fract_z
Si Si1 0.066410 0.500000 0.452870
Si Si2 0.210740 0.500000 0.801298
Si Si3 0.261915 0.314614 0.050851
Si Si4 0.000941 0.500000 0.702259
Si Si5 0.008516 0.180106 0.375336
Si Si6 0.171837 0.175602 0.886964
O O1 0.176345 0.332732 0.348729
O O2 0.599593 0.500000 0.670399
O O3 0.169495 0.500000 0.512575
O O4 0.990063 0.337977 0.936719
O O5 0.278372 0.500000 0.653967
O O6 0.117432 0.500000 0.109153
O O7 0.053505 0.228269 0.242105
O O8 0.707870 0.348333 0.853214
O O9 0.233778 0.212796 0.968171
O O10 0.573030 0.171901 0.629591
O O11 0.164489 0.000000 0.313158
O O12 0.994310 0.000000 0.963619
#
# Coordination Sequence:
#
# PCOD9130763 Si02
#       6
#     1   1   2   1   2   2
#     4  10  17  38  55  79 108 140 183 219 268 319
#     4  10  18  35  58  81 109 142 179 221 272 317
#     4  10  17  32  56  81 106 140 180 216 266 318
#     4  10  19  33  61  84 103 146 184 214 274 324
#     4  10  18  30  57  81 104 143 179 219 268 317
#     4  10  19  35  57  81 108 143 182 221 269 319
#
# _framework density 22.109862
#
# number of rings (size 3 to 8) (size 9 to 14) (size 15 to 20)
#    0.667    1.333    6.667    0.667    0.000    0.000 
#    0.000    3.333   19.556    0.000    0.000    0.000 
#    0.000    0.000    0.000    0.000    0.000    0.000 
#
# Total GULP energy -50156.587847 kJ/mol
# GULP energy per Si atom -5572.954205 kJ/mol
# Density = 2.205954 g / cm^3
# Si number density = 22.109862 Si / 1000 Ang^3
#
#
#
# Elastic Constant Matrix: (Units=GPa)
#
#
# Indices 1 2 3 4 5 6 
#
# 1 72.1284 20.5680 39.4894 0.0000 31.3391 0.0000
# 2 20.5680 228.5118 32.1123 0.0000 16.1032 0.0000
# 3 39.4894 32.1123 112.3533 0.0000 25.9628 0.0000
# 4 0.0000 0.0000 0.0000 -18.4125 0.0000 19.7017
# 5 31.3391 16.1032 25.9628 0.0000 51.7548 0.0000
# 6 0.0000 0.0000 0.0000 19.7017 0.0000 2.6370
#
#
#
# Elastic Compliance Matrix: (Units=1/GPa)
#
#
# Indices 1 2 3 4 5 6 
#
# 1 0.021121 -0.000492 -0.004935 0.000000 -0.010161 0.000000
# 2 -0.000492 0.004605 -0.000997 0.000000 -0.000635 0.000000
# 3 -0.004935 -0.000997 0.011490 0.000000 -0.002465 0.000000
# 4 0.000000 0.000000 0.000000 -0.006038 0.000000 0.045114
# 5 -0.010161 -0.000635 -0.002465 0.000000 0.026909 0.000000
# 6 0.000000 0.000000 0.000000 0.045114 0.000000 0.042162
#
#
# Mechanical properties :
#
#
# Convention : Reuss Voigt Hill
#
# Bulk Modulus (GPa) = 41.03528 66.37032 53.70280
# Shear Modulus (GPa) = 41.24806 28.58410 34.91608
#
# Velocity S-wave (km/s) = 4.32394 3.59948 3.97824
# Velocity P-wave (km/s) = 6.59762 6.88176 6.74119
#
# Compressibility (1/GPa) = 0.02436928
#
# Stress axis : x y z
#
# Youngs Moduli (GPa) = 47.34631 217.14522 87.03525
#
# Poissons Ratio (x) = 0.10673 0.42952
# Poissons Ratio (y) = 0.02327 0.08675
# Poissons Ratio (z) = 0.23366 0.21643
#
# Static dielectric constant tensor:
#      x y z
#    x 1.771870 0.000000 -0.021480 
#    y 0.000000 1.875080 0.000000 
#    z -0.021480 0.000000 1.858920 
# 
# From -- ./inp_files/3301.got.cif
#   From: 2010.05.17/outbox.cif.g08.bks.cpg/sg6_2_cif.got.tgz:3301.got - 2010.06.03 19:42:10.
