data_PCOD9130260
_publ_section_title
;
Structure prediction by ZEFSAII (Michael W. Deem and Ramdas Pophale) SiO2 
 PCOD9130260
Probable space group: C 2
;
_chemical_formula_sum "Si O2"
_cell_formula_units_Z 18
_cell_length_a 10.696541
_cell_length_b 12.634086
_cell_length_c 5.299739
_cell_angle_alpha 90.000000
_cell_angle_beta 93.161059
_cell_angle_gamma 90.000000
_cell_volume 715.122392
_symmetry_space_group_name_H-M "C 2"
_symmetry_group_IT_number 5
_symmetry_cell_setting 'monoclinic'
loop_
_space_group_symop_operation_xyz
x,y,z
-x,y,-z
1/2+x,1/2+y,z
1/2-x,1/2+y,-z
loop_
_atom_site_type_symbol
_atom_site_label
_atom_site_fract_x
_atom_site_fract_y
_atom_site_fract_z
Si Si1 0.000000 0.109231 0.000000
Si Si2 0.136913 0.947850 0.274884
Si Si3 0.124265 0.709371 0.358755
Si Si4 0.798679 0.487116 0.794713
Si Si5 0.382781 0.764799 0.675681
O O1 0.108785 0.192689 0.072329
O O2 0.020526 0.026737 0.226688
O O3 0.098100 0.825924 0.246223
O O4 0.210733 0.974656 0.537300
O O5 0.226364 0.969432 0.046656
O O6 0.146709 0.604909 0.197302
O O7 0.252559 0.732795 0.529127
O O8 0.000000 0.683226 0.500000
O O9 0.889021 0.386864 0.759754
O O10 0.500000 0.743712 0.500000
#
# Coordination Sequence:
#
# PCOD9130260 Si02
#       5
#     2   4   4   4   4
#     4  12  26  46  80 108 156 214 264 320 386 508
#     4  11  28  46  81 113 161 210 268 323 407 481
#     4  11  26  53  81 121 165 209 271 343 407 473
#     4  11  26  51  76 117 157 209 266 335 398 472
#     4  11  26  47  80 113 159 212 268 323 403 487
#
# _framework density 25.170517
#
# number of rings (size 3 to 8) (size 9 to 14) (size 15 to 20)
#    0.000    0.889    2.222    2.000   15.556    0.000 
#    0.000    0.000    0.000    0.000    0.000    0.000 
#    0.000    0.000    0.000    0.000    0.000    0.000 
#
# Total GULP energy -50314.848056 kJ/mol
# GULP energy per Si atom -5590.538673 kJ/mol
# Density = 2.511323 g / cm^3
# Si number density = 25.170517 Si / 1000 Ang^3
#
#
#
# Elastic Constant Matrix: (Units=GPa)
#
#
# Indices 1 2 3 4 5 6 
#
# 1 121.7979 12.0226 40.2214 0.0000 -23.9054 0.0000
# 2 12.0226 193.6041 8.5587 0.0000 -12.0679 0.0000
# 3 40.2214 8.5587 111.1731 0.0000 -13.9097 0.0000
# 4 0.0000 0.0000 0.0000 42.4815 0.0000 -4.5279
# 5 -23.9054 -12.0679 -13.9097 0.0000 60.6619 0.0000
# 6 0.0000 0.0000 0.0000 -4.5279 0.0000 39.8836
#
#
#
# Elastic Compliance Matrix: (Units=1/GPa)
#
#
# Indices 1 2 3 4 5 6 
#
# 1 0.009896 -0.000280 -0.003169 0.000000 0.003118 0.000000
# 2 -0.000280 0.005246 -0.000191 0.000000 0.000889 0.000000
# 3 -0.003169 -0.000191 0.010290 0.000000 0.001073 0.000000
# 4 0.000000 0.000000 0.000000 0.023828 0.000000 0.002705
# 5 0.003118 0.000889 0.001073 0.000000 0.018136 0.000000
# 6 0.000000 0.000000 0.000000 0.002705 0.000000 0.025380
#
#
# Mechanical properties :
#
#
# Convention : Reuss Voigt Hill
#
# Bulk Modulus (GPa) = 55.08792 60.90893 57.99843
# Shear Modulus (GPa) = 47.12151 52.99025 50.05588
#
# Velocity S-wave (km/s) = 4.33146 4.59328 4.46429
# Velocity P-wave (km/s) = 6.85192 7.23754 7.04737
#
# Compressibility (1/GPa) = 0.01815280
#
# Stress axis : x y z
#
# Youngs Moduli (GPa) = 101.04812 190.60418 97.17836
#
# Poissons Ratio (x) = 0.05340 0.30793
# Poissons Ratio (y) = 0.02831 0.01859
# Poissons Ratio (z) = 0.32020 0.03645
#
# Static dielectric constant tensor:
#      x y z
#    x 2.080270 0.000000 0.010430 
#    y 0.000000 1.979150 0.000000 
#    z 0.010430 0.000000 1.999390 
# 
# From -- ./inp_files/4484.got.cif
#   From: 2010.05.17/outbox.cif.g08.bks.cpg/sg5_3_cif.got.tgz:4484.got - 2010.06.03 18:56:24.
