data_PCOD9130783
_publ_section_title
;
Structure prediction by ZEFSAII (Michael W. Deem and Ramdas Pophale) SiO2 
 PCOD9130783
Probable space group: P M
;
_chemical_formula_sum "Si O2"
_cell_formula_units_Z 13
_cell_length_a 9.817080
_cell_length_b 7.637887
_cell_length_c 11.623892
_cell_angle_alpha 90.000000
_cell_angle_beta 118.098709
_cell_angle_gamma 90.000000
_cell_volume 768.853152
_symmetry_space_group_name_H-M "P M"
_symmetry_group_IT_number 6
_symmetry_cell_setting 'monoclinic'
loop_
_space_group_symop_operation_xyz
x,y,z
x,-y,z
loop_
_atom_site_type_symbol
_atom_site_label
_atom_site_fract_x
_atom_site_fract_y
_atom_site_fract_z
Si Si1 0.221501 0.000000 0.246341
Si Si2 0.884656 0.000000 0.046307
Si Si3 0.369137 0.710897 0.648442
Si Si4 0.021814 0.295249 0.531117
Si Si5 0.700827 0.296773 0.843760
Si Si6 0.430593 0.295909 0.405441
Si Si7 0.966809 0.000000 0.330293
Si Si8 0.765147 0.209578 0.606688
O O1 0.330069 0.169619 0.285727
O O2 0.134648 0.000000 0.335862
O O3 0.071396 0.000000 0.105044
O O4 0.809162 0.170087 0.959390
O O5 0.859949 0.000000 0.174726
O O6 0.375710 0.500000 0.658185
O O7 0.522876 0.770653 0.775164
O O8 0.389357 0.752326 0.521510
O O9 0.199329 0.763902 0.621159
O O10 0.023853 0.500000 0.497607
O O11 0.917054 0.272234 0.601474
O O12 0.954106 0.170272 0.404960
O O13 0.708639 0.500000 0.883052
O O14 0.747512 0.285967 0.727559
O O15 0.395655 0.500000 0.373757
O O16 0.614108 0.265128 0.473636
O O17 0.765926 0.000000 0.616203
#
# Coordination Sequence:
#
# PCOD9130783 Si02
#       8
#     1   1   2   2   2   2   1   2
#     4  10  20  32  51  78 103 135 181 219 256 305
#     4  10  22  35  53  79 105 141 188 220 257 295
#     4   8  16  29  51  77 102 132 169 211 264 314
#     4  11  20  34  54  82 113 138 168 215 273 330
#     4  10  20  36  55  79 107 139 179 221 262 312
#     4  10  18  32  52  78 106 136 170 217 269 318
#     4  10  22  33  50  81 106 138 181 213 263 306
#     4  11  20  33  56  83 113 138 167 221 278 323
#
# _framework density 16.908299
#
# number of rings (size 3 to 8) (size 9 to 14) (size 15 to 20)
#    0.462    1.538    3.846    2.308    0.000    1.846 
#    0.000    0.000    0.000    3.692    0.000    2.154 
#    0.000    0.000    0.000    0.000    0.000    0.000 
#
# Total GULP energy -72421.230750 kJ/mol
# GULP energy per Si atom -5570.863904 kJ/mol
# Density = 1.686982 g / cm^3
# Si number density = 16.908299 Si / 1000 Ang^3
#
#
#
# Elastic Constant Matrix: (Units=GPa)
#
#
# Indices 1 2 3 4 5 6 
#
# 1 105.2120 13.0002 35.1785 0.0000 20.2034 0.0000
# 2 13.0002 114.9162 50.2252 0.0000 18.2895 0.0000
# 3 35.1785 50.2252 101.1876 0.0000 28.9337 0.0000
# 4 0.0000 0.0000 0.0000 5.6318 0.0000 2.0524
# 5 20.2034 18.2895 28.9337 0.0000 27.1430 0.0000
# 6 0.0000 0.0000 0.0000 2.0524 0.0000 21.9773
#
#
#
# Elastic Compliance Matrix: (Units=1/GPa)
#
#
# Indices 1 2 3 4 5 6 
#
# 1 0.011488 0.000847 -0.002598 0.000000 -0.006353 0.000000
# 2 0.000847 0.011277 -0.005090 0.000000 -0.002803 0.000000
# 3 -0.002598 -0.005090 0.016943 0.000000 -0.012697 0.000000
# 4 0.000000 0.000000 0.000000 0.183820 0.000000 -0.017166
# 5 -0.006353 -0.002803 -0.012697 0.000000 0.056994 0.000000
# 6 0.000000 0.000000 0.000000 -0.017166 0.000000 0.047105
#
#
# Mechanical properties :
#
#
# Convention : Reuss Voigt Hill
#
# Bulk Modulus (GPa) = 38.42363 57.56928 47.99645
# Shear Modulus (GPa) = 14.28631 25.81120 20.04876
#
# Velocity S-wave (km/s) = 2.90992 3.91134 3.44719
# Velocity P-wave (km/s) = 5.83646 7.38376 6.65523
#
# Compressibility (1/GPa) = 0.02602565
#
# Stress axis : x y z
#
# Youngs Moduli (GPa) = 87.04384 88.67529 59.02090
#
# Poissons Ratio (x) = -0.07509 0.15333
# Poissons Ratio (y) = -0.07371 0.30044
# Poissons Ratio (z) = 0.22613 0.45140
#
# Static dielectric constant tensor:
#      x y z
#    x 1.586930 0.000000 0.023510 
#    y 0.000000 1.592730 0.000000 
#    z 0.023510 0.000000 1.552200 
# 
# From -- ./inp_files/3439.got.cif
#   From: 2010.05.17/outbox.cif.g08.bks.cpg/sg6_2_cif.got.tgz:3439.got - 2010.06.03 19:42:10.
