data_PCOD9130428
_publ_section_title
;
Structure prediction by ZEFSAII (Michael W. Deem and Ramdas Pophale) SiO2 
 PCOD9130428
Probable space group: C 2
;
_chemical_formula_sum "Si O2"
_cell_formula_units_Z 30
_cell_length_a 8.567874
_cell_length_b 12.259769
_cell_length_c 14.019920
_cell_angle_alpha 90.000000
_cell_angle_beta 65.849401
_cell_angle_gamma 90.000000
_cell_volume 1343.757866
_symmetry_space_group_name_H-M "C 2"
_symmetry_group_IT_number 5
_symmetry_cell_setting 'monoclinic'
loop_
_space_group_symop_operation_xyz
x,y,z
-x,y,-z
1/2+x,1/2+y,z
1/2-x,1/2+y,-z
loop_
_atom_site_type_symbol
_atom_site_label
_atom_site_fract_x
_atom_site_fract_y
_atom_site_fract_z
Si Si1 0.500000 0.734961 0.000000
Si Si2 0.557464 0.589527 0.167860
Si Si3 0.783759 0.593523 0.623508
Si Si4 0.683515 0.562257 0.435450
Si Si5 0.660562 0.342453 0.133155
Si Si6 0.175047 0.705302 0.764373
Si Si7 0.057662 0.375879 0.375945
Si Si8 0.722399 0.334476 0.341219
O O1 0.491736 0.658708 0.094865
O O2 0.329172 0.807090 0.034403
O O3 0.405897 0.589864 0.283770
O O4 0.598000 0.465154 0.127873
O O5 0.721278 0.649045 0.174834
O O6 0.768859 0.559137 0.517273
O O7 0.893668 0.502076 0.648091
O O8 0.851943 0.716231 0.615099
O O9 0.500000 0.619274 0.500000
O O10 0.802538 0.620187 0.328047
O O11 0.640680 0.443332 0.404158
O O12 0.510681 0.251743 0.161966
O O13 0.717158 0.344324 0.229625
O O14 0.276483 0.808460 0.695602
O O15 0.000000 0.359203 0.500000
O O16 0.909014 0.338384 0.342321
#
# Coordination Sequence:
#
# PCOD9130428 Si02
#       8
#     2   4   4   4   4   4   4   4
#     4  12  30  54  80 104 146 194 256 334 390 454
#     4  12  26  52  76 111 151 190 256 330 379 459
#     4  12  24  43  71 109 155 205 250 299 376 457
#     4  12  24  41  69 109 159 204 241 301 372 454
#     4  12  28  51  80 110 143 201 258 326 394 451
#     4  12  25  45  77 107 152 195 251 308 383 457
#     4  12  24  41  68 107 154 204 246 295 363 451
#     4  12  25  44  70 107 156 198 258 313 364 450
#
# _framework density 22.32545
#
# number of rings (size 3 to 8) (size 9 to 14) (size 15 to 20)
#    0.000    0.000    8.000    1.200    1.867    3.200 
#    2.400    0.000    0.000    0.000    0.000    0.000 
#    0.000    0.000    0.000    0.000    0.000    0.000 
#
# Total GULP energy -83963.761487 kJ/mol
# GULP energy per Si atom -5597.584099 kJ/mol
# Density = 2.227464 g / cm^3
# Si number density = 22.325450 Si / 1000 Ang^3
#
#
#
# Elastic Constant Matrix: (Units=GPa)
#
#
# Indices 1 2 3 4 5 6 
#
# 1 53.7305 24.3334 11.0737 0.0000 -26.2159 0.0000
# 2 24.3334 170.2725 19.2356 0.0000 -14.7087 0.0000
# 3 11.0737 19.2356 34.1277 0.0000 -13.6367 0.0000
# 4 0.0000 0.0000 0.0000 10.7540 0.0000 33.1956
# 5 -26.2159 -14.7087 -13.6367 0.0000 49.5225 0.0000
# 6 0.0000 0.0000 0.0000 33.1956 0.0000 -32.1523
#
#
#
# Elastic Compliance Matrix: (Units=1/GPa)
#
#
# Indices 1 2 3 4 5 6 
#
# 1 0.026307 -0.002429 -0.002124 0.000000 0.012620 0.000000
# 2 -0.002429 0.006541 -0.002962 0.000000 -0.000159 0.000000
# 3 -0.002124 -0.002962 0.034675 0.000000 0.007544 0.000000
# 4 0.000000 0.000000 0.000000 0.022209 0.000000 0.022930
# 5 0.012620 -0.000159 0.007544 0.000000 0.028903 0.000000
# 6 0.000000 0.000000 0.000000 0.022930 0.000000 -0.007428
#
#
# Mechanical properties :
#
#
# Convention : Reuss Voigt Hill
#
# Bulk Modulus (GPa) = 19.05071 40.82400 29.93736
# Shear Modulus (GPa) = 34.78629 19.19072 26.98851
#
# Velocity S-wave (km/s) = 3.95162 2.93506 3.48065
# Velocity P-wave (km/s) = 5.41960 5.46000 5.43984
#
# Compressibility (1/GPa) = 0.05249148
#
# Stress axis : x y z
#
# Youngs Moduli (GPa) = 38.01320 152.88191 28.83938
#
# Poissons Ratio (x) = 0.37140 0.06126
# Poissons Ratio (y) = 0.09235 0.08542
# Poissons Ratio (z) = 0.08075 0.45283
#
# Static dielectric constant tensor:
#      x y z
#    x 1.961610 0.000000 -0.018460 
#    y 0.000000 1.846170 0.000000 
#    z -0.018460 0.000000 1.790190 
# 
# From -- ./inp_files/50485.got.cif
#   From: 2010.05.17/outbox.cif.g08.bks.cpg/sg5_26_cif.got.tgz:50485.got - 2010.06.03 18:56:24.
