data_PCOD9130483
_publ_section_title
;
Structure prediction by ZEFSAII (Michael W. Deem and Ramdas Pophale) SiO2 
 PCOD9130483
Probable space group: C 2
;
_chemical_formula_sum "Si O2"
_cell_formula_units_Z 18
_cell_length_a 4.924632
_cell_length_b 20.041211
_cell_length_c 8.921466
_cell_angle_alpha 90.000000
_cell_angle_beta 118.736232
_cell_angle_gamma 90.000000
_cell_volume 772.067846
_symmetry_space_group_name_H-M "C 2"
_symmetry_group_IT_number 5
_symmetry_cell_setting 'monoclinic'
loop_
_space_group_symop_operation_xyz
x,y,z
-x,y,-z
1/2+x,1/2+y,z
1/2-x,1/2+y,-z
loop_
_atom_site_type_symbol
_atom_site_label
_atom_site_fract_x
_atom_site_fract_y
_atom_site_fract_z
Si Si1 0.248442 0.527270 0.200281
Si Si2 0.000000 0.851487 0.000000
Si Si3 0.809872 0.732997 0.153707
Si Si4 0.153661 0.444284 0.696029
Si Si5 0.031983 0.171950 0.684900
O O1 0.500507 0.470194 0.241472
O O2 0.449785 0.594448 0.266785
O O3 0.056924 0.504740 0.296177
O O4 0.000000 0.532757 0.000000
O O5 0.858171 0.805688 0.095266
O O6 0.279977 0.892203 0.152261
O O7 0.723894 0.717870 0.302470
O O8 0.123915 0.697789 0.191671
O O9 0.500000 0.702117 0.000000
O O10 0.000000 0.419276 0.500000
O O11 0.000000 0.176632 0.500000
#
# Coordination Sequence:
#
# PCOD9130483 Si02
#       5
#     4   2   4   4   4
#     4  12  24  48  78 110 148 192 239 310 385 445
#     4  12  28  50  76 106 156 200 262 298 362 442
#     4  12  25  48  73  99 147 200 247 298 369 436
#     4  12  27  48  77 112 147 195 247 307 372 440
#     4  12  26  46  74 114 149 186 248 313 376 448
#
# _framework density 23.314014
#
# number of rings (size 3 to 8) (size 9 to 14) (size 15 to 20)
#    0.000    0.000    4.444    5.333    3.111    0.889 
#    4.000    0.000    0.000    0.000    0.000    0.000 
#    0.000    0.000    0.000    0.000    0.000    0.000 
#
# Total GULP energy -50306.577276 kJ/mol
# GULP energy per Si atom -5589.619697 kJ/mol
# Density = 2.326095 g / cm^3
# Si number density = 23.314014 Si / 1000 Ang^3
#
#
#
# Elastic Constant Matrix: (Units=GPa)
#
#
# Indices 1 2 3 4 5 6 
#
# 1 129.0225 29.6131 15.2539 0.0000 -2.8776 0.0000
# 2 29.6131 90.6733 53.9861 0.0000 -5.9269 0.0000
# 3 15.2539 53.9861 142.6518 0.0000 -16.1037 0.0000
# 4 0.0000 0.0000 0.0000 -10.2938 0.0000 -15.0119
# 5 -2.8776 -5.9269 -16.1037 0.0000 22.0474 0.0000
# 6 0.0000 0.0000 0.0000 -15.0119 0.0000 23.9519
#
#
#
# Elastic Compliance Matrix: (Units=1/GPa)
#
#
# Indices 1 2 3 4 5 6 
#
# 1 0.008387 -0.002848 0.000238 0.000000 0.000503 0.000000
# 2 -0.002848 0.015204 -0.005482 0.000000 -0.000289 0.000000
# 3 0.000238 -0.005482 0.009696 0.000000 0.005639 0.000000
# 4 0.000000 0.000000 0.000000 -0.050755 0.000000 -0.031811
# 5 0.000503 -0.000289 0.005639 0.000000 0.049464 0.000000
# 6 0.000000 0.000000 0.000000 -0.031811 0.000000 0.021813
#
#
# Mechanical properties :
#
#
# Convention : Reuss Voigt Hill
#
# Bulk Modulus (GPa) = 58.47004 62.22820 60.34912
# Shear Modulus (GPa) = 66.05539 24.70739 45.38139
#
# Velocity S-wave (km/s) = 5.32864 3.25894 4.41673
# Velocity P-wave (km/s) = 7.93681 6.39611 7.20775
#
# Compressibility (1/GPa) = 0.01710278
#
# Stress axis : x y z
#
# Youngs Moduli (GPa) = 119.22724 65.77362 103.13687
#
# Poissons Ratio (x) = 0.18731 -0.02451
# Poissons Ratio (y) = 0.33954 0.56538
# Poissons Ratio (z) = -0.02833 0.36056
#
# Static dielectric constant tensor:
#      x y z
#    x 1.942480 0.000000 -0.115990 
#    y 0.000000 1.933320 0.000000 
#    z -0.115990 0.000000 2.017180 
# 
# From -- ./inp_files/12610.got.cif
#   From: 2010.05.17/outbox.cif.g08.bks.cpg/sg5_7_cif.got.tgz:12610.got - 2010.06.03 18:56:24.
