data_PCOD9130906
_publ_section_title
;
Structure prediction by ZEFSAII (Michael W. Deem and Ramdas Pophale) SiO2 
 PCOD9130906
Probable space group: P M
;
_chemical_formula_sum "Si O2"
_cell_formula_units_Z 16
_cell_length_a 12.551943
_cell_length_b 8.562590
_cell_length_c 10.539961
_cell_angle_alpha 90.000000
_cell_angle_beta 127.489911
_cell_angle_gamma 90.000000
_cell_volume 898.835953
_symmetry_space_group_name_H-M "P M"
_symmetry_group_IT_number 6
_symmetry_cell_setting 'monoclinic'
loop_
_space_group_symop_operation_xyz
x,y,z
x,-y,z
loop_
_atom_site_type_symbol
_atom_site_label
_atom_site_fract_x
_atom_site_fract_y
_atom_site_fract_z
Si Si1 0.529600 0.187446 0.646840
Si Si2 0.686367 0.685455 0.004730
Si Si3 0.557014 0.189230 0.166901
Si Si4 0.979309 0.810524 0.845669
Si Si5 0.705778 0.809612 0.530770
Si Si6 0.967606 0.812732 0.133576
Si Si7 0.276793 0.189115 0.080653
Si Si8 0.258927 0.685830 0.353425
O O1 0.609330 0.243805 0.827652
O O2 0.610645 0.237728 0.578939
O O3 0.379468 0.253022 0.527973
O O4 0.524894 0.000000 0.643590
O O5 0.685786 0.500000 0.994520
O O6 0.612970 0.739736 0.079069
O O7 0.839402 0.746219 0.112677
O O8 0.645653 0.238790 0.352746
O O9 0.403765 0.234374 0.088404
O O10 0.562193 0.000000 0.161769
O O11 0.856721 0.755180 0.670545
O O12 0.977542 0.000000 0.840194
O O13 0.130826 0.761335 0.923055
O O14 0.954312 0.767435 0.974704
O O15 0.705986 0.000000 0.530836
O O16 0.112220 0.751256 0.282598
O O17 0.966638 0.000000 0.139124
O O18 0.288435 0.253520 0.231813
O O19 0.277646 0.000000 0.091903
O O20 0.255644 0.500000 0.351236
#
# Coordination Sequence:
#
# PCOD9130906 Si02
#       8
#     2   2   2   2   2   2   2   2
#     4  11  20  37  61  86 112 150 201 244 280 340
#     4  12  25  39  55  83 120 156 191 241 302 350
#     4  10  20  36  56  79 111 155 198 235 279 342
#     4   8  14  27  53  86 109 131 175 239 286 319
#     4   9  16  30  56  86 109 136 188 246 280 320
#     4  10  19  36  60  83 111 152 196 237 283 344
#     4   9  17  32  55  81 111 149 195 236 278 337
#     4  11  21  33  54  88 123 149 182 240 300 342
#
# _framework density 17.800802000000001
#
# number of rings (size 3 to 8) (size 9 to 14) (size 15 to 20)
#    0.000    2.000    2.500    3.750    0.000    0.500 
#    0.000    1.250    0.000    3.000    0.000    0.000 
#    0.000    0.000    0.000    0.000    0.000    0.000 
#
# Total GULP energy -89296.741953 kJ/mol
# GULP energy per Si atom -5581.046372 kJ/mol
# Density = 1.776029 g / cm^3
# Si number density = 17.800802 Si / 1000 Ang^3
#
#
#
# Elastic Constant Matrix: (Units=GPa)
#
#
# Indices 1 2 3 4 5 6 
#
# 1 135.7593 32.4800 52.4952 0.0000 19.5417 0.0000
# 2 32.4800 45.8225 15.3934 0.0000 4.2326 0.0000
# 3 52.4952 15.3934 81.7590 0.0000 14.5377 0.0000
# 4 0.0000 0.0000 0.0000 14.0734 0.0000 4.6200
# 5 19.5417 4.2326 14.5377 0.0000 32.6132 0.0000
# 6 0.0000 0.0000 0.0000 4.6200 0.0000 8.1745
#
#
#
# Elastic Compliance Matrix: (Units=1/GPa)
#
#
# Indices 1 2 3 4 5 6 
#
# 1 0.011468 -0.005912 -0.005610 0.000000 -0.003604 0.000000
# 2 -0.005912 0.026385 -0.001296 0.000000 0.000696 0.000000
# 3 -0.005610 -0.001296 0.016779 0.000000 -0.003950 0.000000
# 4 0.000000 0.000000 0.000000 0.087243 0.000000 -0.049308
# 5 -0.003604 0.000696 -0.003950 0.000000 0.034492 0.000000
# 6 0.000000 0.000000 0.000000 -0.049308 0.000000 0.150200
#
#
# Mechanical properties :
#
#
# Convention : Reuss Voigt Hill
#
# Bulk Modulus (GPa) = 34.48470 51.56420 43.02445
# Shear Modulus (GPa) = 13.81725 21.83702 17.82713
#
# Velocity S-wave (km/s) = 2.78909 3.50629 3.16805
# Velocity P-wave (km/s) = 5.45771 6.73961 6.13225
#
# Compressibility (1/GPa) = 0.02899837
#
# Stress axis : x y z
#
# Youngs Moduli (GPa) = 87.19800 37.90091 59.59788
#
# Poissons Ratio (x) = 0.22405 0.33432
# Poissons Ratio (y) = 0.51547 0.07722
# Poissons Ratio (z) = 0.48914 0.04911
#
# Static dielectric constant tensor:
#      x y z
#    x 1.605480 0.000000 0.027080 
#    y 0.000000 1.595790 0.000000 
#    z 0.027080 0.000000 1.593670 
# 
# From -- ./inp_files/3648.got.cif
#   From: 2010.05.17/outbox.cif.g08.bks.cpg/sg6_2_cif.got.tgz:3648.got - 2010.06.03 19:42:10.
