data_PCOD9130871
_publ_section_title
;
Structure prediction by ZEFSAII (Michael W. Deem and Ramdas Pophale) SiO2 
 PCOD9130871
Probable space group: P M
;
_chemical_formula_sum "Si O2"
_cell_formula_units_Z 9
_cell_length_a 14.037687
_cell_length_b 8.288695
_cell_length_c 7.856155
_cell_angle_alpha 90.000000
_cell_angle_beta 152.717938
_cell_angle_gamma 90.000000
_cell_volume 418.995346
_symmetry_space_group_name_H-M "P M"
_symmetry_group_IT_number 6
_symmetry_cell_setting 'monoclinic'
loop_
_space_group_symop_operation_xyz
x,y,z
x,-y,z
loop_
_atom_site_type_symbol
_atom_site_label
_atom_site_fract_x
_atom_site_fract_y
_atom_site_fract_z
Si Si1 0.299010 0.674644 0.955590
Si Si2 0.955071 0.676076 0.108952
Si Si3 0.390069 0.000000 0.978764
Si Si4 0.520260 0.000000 0.798864
Si Si5 0.886149 0.000000 0.145924
Si Si6 0.262100 0.683577 0.283763
O O1 0.405574 0.500000 0.118433
O O2 0.130176 0.670097 0.536384
O O3 0.436886 0.831342 0.142312
O O4 0.201229 0.691085 0.988381
O O5 0.851809 0.500000 0.948712
O O6 0.073113 0.696899 0.116965
O O7 0.832807 0.836886 0.960958
O O8 0.486611 0.000000 0.946290
O O9 0.135946 0.000000 0.564700
O O10 0.411119 0.835650 0.557493
O O11 0.757346 0.000000 0.114633
O O12 0.349978 0.500000 0.451057
#
# Coordination Sequence:
#
# PCOD9130871 Si02
#       6
#     2   2   1   1   1   2
#     4   9  17  31  57  81 100 138 181 216 264 313
#     4   9  17  34  56  78 106 139 176 220 265 310
#     4  10  19  36  55  77 108 142 175 219 264 311
#     4  12  21  33  57  82 109 142 180 212 266 320
#     4  10  20  33  54  81 105 142 179 211 264 319
#     4  10  19  33  58  82 104 141 180 217 265 316
#
# _framework density 21.479951
#
# number of rings (size 3 to 8) (size 9 to 14) (size 15 to 20)
#    0.000    2.222    4.444    0.667    0.000    0.889 
#    0.000    0.000   19.556    0.000    0.000    0.000 
#    0.000    0.000    0.000    0.000    0.000    0.000 
#
# Total GULP energy -50154.145862 kJ/mol
# GULP energy per Si atom -5572.682874 kJ/mol
# Density = 2.143106 g / cm^3
# Si number density = 21.479951 Si / 1000 Ang^3
#
#
#
# Elastic Constant Matrix: (Units=GPa)
#
#
# Indices 1 2 3 4 5 6 
#
# 1 190.6041 71.9127 34.6021 0.0000 -18.1219 0.0000
# 2 71.9127 230.6476 13.9849 0.0000 1.3583 0.0000
# 3 34.6021 13.9849 65.7011 0.0000 -2.5900 0.0000
# 4 0.0000 0.0000 0.0000 16.8863 0.0000 3.8359
# 5 -18.1219 1.3583 -2.5900 0.0000 30.2473 0.0000
# 6 0.0000 0.0000 0.0000 3.8359 0.0000 43.3341
#
#
#
# Elastic Compliance Matrix: (Units=1/GPa)
#
#
# Indices 1 2 3 4 5 6 
#
# 1 0.006937 -0.002000 -0.003071 0.000000 0.003983 0.000000
# 2 -0.002000 0.004971 -0.000061 0.000000 -0.001427 0.000000
# 3 -0.003071 -0.000061 0.016835 0.000000 -0.000396 0.000000
# 4 0.000000 0.000000 0.000000 0.060435 0.000000 -0.005350
# 5 0.003983 -0.001427 -0.000396 0.000000 0.035477 0.000000
# 6 0.000000 0.000000 0.000000 -0.005350 0.000000 0.023550
#
#
# Mechanical properties :
#
#
# Convention : Reuss Voigt Hill
#
# Bulk Modulus (GPa) = 54.11342 80.88358 67.49850
# Shear Modulus (GPa) = 30.37112 42.52375 36.44743
#
# Velocity S-wave (km/s) = 3.76430 4.45420 4.12371
# Velocity P-wave (km/s) = 6.64383 8.01189 7.35972
#
# Compressibility (1/GPa) = 0.01847971
#
# Stress axis : x y z
#
# Youngs Moduli (GPa) = 144.14797 201.15217 59.39968
#
# Poissons Ratio (x) = 0.40235 0.18241
# Poissons Ratio (y) = 0.28833 0.00362
# Poissons Ratio (z) = 0.44265 0.01227
#
# Static dielectric constant tensor:
#      x y z
#    x 1.729460 0.000000 -0.019900 
#    y 0.000000 1.837520 0.000000 
#    z -0.019900 0.000000 1.715940 
# 
# From -- ./inp_files/2056.got.cif
#   From: 2010.05.17/outbox.cif.g08.bks.cpg/sg6_2_cif.got.tgz:2056.got - 2010.06.03 19:42:10.
