data_PCOD9130596
_publ_section_title
;
Structure prediction by ZEFSAII (Michael W. Deem and Ramdas Pophale) SiO2 
 PCOD9130596
Probable space group: C 2
;
_chemical_formula_sum "Si O2"
_cell_formula_units_Z 16
_cell_length_a 8.576600
_cell_length_b 16.490790
_cell_length_c 7.749112
_cell_angle_alpha 90.000000
_cell_angle_beta 36.182937
_cell_angle_gamma 90.000000
_cell_volume 647.037417
_symmetry_space_group_name_H-M "C 2"
_symmetry_group_IT_number 5
_symmetry_cell_setting 'monoclinic'
loop_
_space_group_symop_operation_xyz
x,y,z
-x,y,-z
1/2+x,1/2+y,z
1/2-x,1/2+y,-z
loop_
_atom_site_type_symbol
_atom_site_label
_atom_site_fract_x
_atom_site_fract_y
_atom_site_fract_z
Si Si1 0.000000 0.965670 0.000000
Si Si2 0.164883 0.072381 0.130952
Si Si3 0.500000 0.943180 0.000000
Si Si4 0.615290 0.168472 0.590119
Si Si5 0.822779 0.345417 0.489329
O O1 0.884320 0.910452 0.253145
O O2 0.201436 0.024422 0.916675
O O3 0.872959 0.111329 0.392145
O O4 0.378618 0.143566 0.928860
O O5 0.257598 0.005136 0.184681
O O6 0.538215 0.886795 0.798894
O O7 0.500000 0.162956 0.500000
O O8 0.699219 0.260777 0.544991
O O9 0.000000 0.330672 0.500000
#
# Coordination Sequence:
#
# PCOD9130596 Si02
#       5
#     2   4   2   4   4
#     4  12  26  54  82 114 166 218 270 346 402 480
#     4  12  28  52  84 120 163 216 279 341 408 488
#     4  12  30  54  88 122 160 222 278 338 418 490
#     4  12  29  51  83 121 168 217 274 339 414 492
#     4  12  31  53  81 122 170 215 274 341 413 494
#
# _framework density 24.728089000000001
#
# number of rings (size 3 to 8) (size 9 to 14) (size 15 to 20)
#    0.000    0.000    5.000    1.500   14.000    2.000 
#    0.000    0.000    0.000    0.000    0.000    0.000 
#    0.000    0.000    0.000    0.000    0.000    0.000 
#
# Total GULP energy -44826.454654 kJ/mol
# GULP energy per Si atom -5603.306832 kJ/mol
# Density = 2.467181 g / cm^3
# Si number density = 24.728089 Si / 1000 Ang^3
#
#
#
# Elastic Constant Matrix: (Units=GPa)
#
#
# Indices 1 2 3 4 5 6 
#
# 1 155.9194 64.5000 58.0718 -0.0008 -8.0799 0.0003
# 2 64.5000 160.8135 51.1902 -0.0003 -6.0835 0.0001
# 3 58.0718 51.1902 122.2396 -0.0007 -3.9645 0.0004
# 4 -0.0008 -0.0003 -0.0007 61.2719 0.0006 -16.0062
# 5 -8.0799 -6.0835 -3.9645 0.0006 47.9368 -0.0002
# 6 0.0003 0.0001 0.0004 -16.0062 -0.0002 56.6327
#
#
#
# Elastic Compliance Matrix: (Units=1/GPa)
#
#
# Indices 1 2 3 4 5 6 
#
# 1 0.008603 -0.002452 -0.003031 0.000000 0.000888 0.000000
# 2 -0.002452 0.007895 -0.002128 0.000000 0.000413 0.000000
# 3 -0.003031 -0.002128 0.010515 0.000000 0.000089 0.000000
# 4 0.000000 0.000000 0.000000 0.017622 0.000000 0.004980
# 5 0.000888 0.000413 0.000089 0.000000 0.021070 0.000000
# 6 0.000000 0.000000 0.000000 0.004980 0.000000 0.019065
#
#
# Mechanical properties :
#
#
# Convention : Reuss Voigt Hill
#
# Bulk Modulus (GPa) = 84.81719 87.38849 86.10284
# Shear Modulus (GPa) = 48.11299 50.84896 49.48097
#
# Velocity S-wave (km/s) = 4.41577 4.53959 4.47811
# Velocity P-wave (km/s) = 7.77002 7.93055 7.85069
#
# Compressibility (1/GPa) = 0.01179006
#
# Stress axis : x y z
#
# Youngs Moduli (GPa) = 116.23943 126.66589 95.10504
#
# Poissons Ratio (x) = 0.31058 0.28830
# Poissons Ratio (y) = 0.28502 0.20237
# Poissons Ratio (z) = 0.35236 0.26953
#
# Static dielectric constant tensor:
#      x y z
#    x 1.996420 0.000000 -0.048540 
#    y 0.000000 1.893300 0.000000 
#    z -0.048540 0.000000 1.939470 
# 
# From -- ./inp_files/15990.got.cif
#   From: 2010.05.17/outbox.cif.g08.bks.cpg/sg5_8_cif.got.tgz:15990.got - 2010.06.03 18:56:24.
