data_PCOD9130990
_publ_section_title
;
Structure prediction by ZEFSAII (Michael W. Deem and Ramdas Pophale) SiO2 
 PCOD9130990
Probable space group: P M
;
_chemical_formula_sum "Si O2"
_cell_formula_units_Z 14
_cell_length_a 5.861762
_cell_length_b 17.403494
_cell_length_c 6.870418
_cell_angle_alpha 90.000000
_cell_angle_beta 48.652019
_cell_angle_gamma 90.000000
_cell_volume 526.163437
_symmetry_space_group_name_H-M "P M"
_symmetry_group_IT_number 6
_symmetry_cell_setting 'monoclinic'
loop_
_space_group_symop_operation_xyz
x,y,z
x,-y,z
loop_
_atom_site_type_symbol
_atom_site_label
_atom_site_fract_x
_atom_site_fract_y
_atom_site_fract_z
Si Si1 0.940420 0.913478 0.176460
Si Si2 0.381994 0.500000 0.111292
Si Si3 0.367476 0.173702 0.460791
Si Si4 0.347014 0.205503 0.022017
Si Si5 0.450296 0.661323 0.458940
Si Si6 0.731361 0.651589 0.876956
Si Si7 0.663166 0.500000 0.399303
Si Si8 0.832705 0.915758 0.691936
O O1 0.587407 0.899444 0.325543
O O2 0.954934 0.920043 0.404023
O O3 0.040790 0.000000 0.051403
O O4 0.036730 0.821489 0.099682
O O5 0.492050 0.500000 0.278666
O O6 0.027431 0.500000 0.244374
O O7 0.550996 0.574245 0.935587
O O8 0.452587 0.250121 0.531708
O O9 0.050221 0.135712 0.700849
O O10 0.312776 0.206041 0.274664
O O11 0.554608 0.279059 0.872993
O O12 0.519237 0.127962 0.862092
O O13 0.555761 0.586248 0.520062
O O14 0.087464 0.648405 0.624742
O O15 0.673365 0.660971 0.143647
O O16 0.795650 0.000000 0.790615
#
# Coordination Sequence:
#
# PCOD9130990 Si02
#       8
#     2   1   2   2   2   2   1   2
#     4  10  22  37  56  87 123 163 216 275 334 398
#     4  10  23  44  72 106 144 186 232 286 346 416
#     4  10  21  38  61  85 122 166 216 266 331 396
#     4  10  21  38  61  85 122 166 215 267 331 395
#     4  10  21  42  67  98 135 174 227 280 340 409
#     4  10  21  42  68  97 135 175 226 280 340 409
#     4  10  23  44  72 106 144 186 232 286 346 416
#     4  10  20  37  57  84 119 162 210 272 330 393
#
# _framework density 26.607703000000001
#
# number of rings (size 3 to 8) (size 9 to 14) (size 15 to 20)
#    0.000    2.000    1.429    1.286    2.000    2.857 
#    0.000   11.429    0.000    0.000    0.000    0.000 
#    0.000    0.000    0.000    0.000    0.000    0.000 
#
# Total GULP energy -78006.495875 kJ/mol
# GULP energy per Si atom -5571.892563 kJ/mol
# Density = 2.654714 g / cm^3
# Si number density = 26.607703 Si / 1000 Ang^3
#
#
#
# Elastic Constant Matrix: (Units=GPa)
#
#
# Indices 1 2 3 4 5 6 
#
# 1 85.5544 19.3960 19.0142 0.0000 -4.7775 0.0000
# 2 19.3960 204.4092 24.7278 0.0000 -25.1433 0.0000
# 3 19.0142 24.7278 48.8796 0.0000 -16.7571 0.0000
# 4 0.0000 0.0000 0.0000 33.3194 0.0000 -25.1352
# 5 -4.7775 -25.1433 -16.7571 0.0000 38.6623 0.0000
# 6 0.0000 0.0000 0.0000 -25.1352 0.0000 25.7771
#
#
#
# Elastic Compliance Matrix: (Units=1/GPa)
#
#
# Indices 1 2 3 4 5 6 
#
# 1 0.012912 -0.000750 -0.005008 0.000000 -0.001063 0.000000
# 2 -0.000750 0.005494 -0.001520 0.000000 0.002821 0.000000
# 3 -0.005008 -0.001520 0.026573 0.000000 0.009910 0.000000
# 4 0.000000 0.000000 0.000000 0.113506 0.000000 0.110679
# 5 -0.001063 0.002821 0.009910 0.000000 0.031864 0.000000
# 6 0.000000 0.000000 0.000000 0.110679 0.000000 0.146717
#
#
# Mechanical properties :
#
#
# Convention : Reuss Voigt Hill
#
# Bulk Modulus (GPa) = 32.87011 51.67991 42.27501
# Shear Modulus (GPa) = 13.82117 37.93211 25.87664
#
# Velocity S-wave (km/s) = 2.28160 3.77982 3.12192
# Velocity P-wave (km/s) = 4.39561 6.20600 5.37754
#
# Compressibility (1/GPa) = 0.03042278
#
# Stress axis : x y z
#
# Youngs Moduli (GPa) = 77.44651 182.00658 37.63233
#
# Poissons Ratio (x) = 0.13653 0.18845
# Poissons Ratio (y) = 0.05810 0.05722
# Poissons Ratio (z) = 0.38783 0.27673
#
# Static dielectric constant tensor:
#      x y z
#    x 2.088920 0.000000 0.060030 
#    y 0.000000 2.083700 0.000000 
#    z 0.060030 0.000000 2.072780 
# 
# From -- ./inp_files/456.got.cif
#   From: 2010.05.17/outbox.cif.g08.bks.cpg/sg6_1_cif.got.tgz:456.got - 2010.06.03 19:42:10.
