data_PCOD9130566
_publ_section_title
;
Structure prediction by ZEFSAII (Michael W. Deem and Ramdas Pophale) SiO2 
 PCOD9130566
Probable space group: C 2
;
_chemical_formula_sum "Si O2"
_cell_formula_units_Z 18
_cell_length_a 7.591303
_cell_length_b 19.022923
_cell_length_c 5.016345
_cell_angle_alpha 90.000000
_cell_angle_beta 100.474443
_cell_angle_gamma 90.000000
_cell_volume 712.332822
_symmetry_space_group_name_H-M "C 2"
_symmetry_group_IT_number 5
_symmetry_cell_setting 'monoclinic'
loop_
_space_group_symop_operation_xyz
x,y,z
-x,y,-z
1/2+x,1/2+y,z
1/2-x,1/2+y,-z
loop_
_atom_site_type_symbol
_atom_site_label
_atom_site_fract_x
_atom_site_fract_y
_atom_site_fract_z
Si Si1 0.301518 0.325170 0.812412
Si Si2 0.000000 0.422322 0.000000
Si Si3 0.164092 0.168382 0.822037
Si Si4 0.803147 0.592233 0.341563
Si Si5 0.706585 0.454170 0.512677
O O1 0.303319 0.370767 0.543381
O O2 0.147411 0.370138 0.914287
O O3 0.500000 0.328637 0.000000
O O4 0.231939 0.246351 0.772615
O O5 0.871503 0.464293 0.760841
O O6 0.295407 0.127995 0.054878
O O7 0.178445 0.127280 0.540845
O O8 0.000000 0.173448 0.000000
O O9 0.752915 0.510221 0.295531
O O10 0.000000 0.601558 0.500000
O O11 0.500000 0.473139 0.500000
#
# Coordination Sequence:
#
# PCOD9130566 Si02
#       5
#     4   2   4   4   4
#     4  12  26  48  78 114 160 208 273 329 407 482
#     4  12  26  48  78 110 160 204 268 330 398 474
#     4  12  28  50  80 117 160 215 269 336 406 491
#     4  12  28  51  78 116 163 210 273 334 411 486
#     4  12  28  49  81 118 160 212 272 338 406 489
#
# _framework density 25.269088
#
# number of rings (size 3 to 8) (size 9 to 14) (size 15 to 20)
#    0.000    0.000    3.333    6.000    9.333    3.556 
#    0.000    0.000    0.000    0.000    0.000    0.000 
#    0.000    0.000    0.000    0.000    0.000    0.000 
#
# Total GULP energy -50211.984183 kJ/mol
# GULP energy per Si atom -5579.109354 kJ/mol
# Density = 2.521157 g / cm^3
# Si number density = 25.269088 Si / 1000 Ang^3
#
#
#
# Elastic Constant Matrix: (Units=GPa)
#
#
# Indices 1 2 3 4 5 6 
#
# 1 176.4501 9.5730 14.0187 0.0000 -9.3697 0.0000
# 2 9.5730 157.4604 41.7802 0.0000 -12.4993 0.0000
# 3 14.0187 41.7802 106.8098 0.0000 -12.7393 0.0000
# 4 0.0000 0.0000 0.0000 41.2912 0.0000 -11.1715
# 5 -9.3697 -12.4993 -12.7393 0.0000 28.4782 0.0000
# 6 0.0000 0.0000 0.0000 -11.1715 0.0000 16.3300
#
#
#
# Elastic Compliance Matrix: (Units=1/GPa)
#
#
# Indices 1 2 3 4 5 6 
#
# 1 0.005801 -0.000081 -0.000535 0.000000 0.001634 0.000000
# 2 -0.000081 0.007194 -0.002567 0.000000 0.001983 0.000000
# 3 -0.000535 -0.002567 0.010861 0.000000 0.003556 0.000000
# 4 0.000000 0.000000 0.000000 0.029719 0.000000 0.020331
# 5 0.001634 0.001983 0.003556 0.000000 0.038113 0.000000
# 6 0.000000 0.000000 0.000000 0.020331 0.000000 0.075145
#
#
# Mechanical properties :
#
#
# Convention : Reuss Voigt Hill
#
# Bulk Modulus (GPa) = 57.17468 63.49603 60.33535
# Shear Modulus (GPa) = 27.92844 42.24312 35.08578
#
# Velocity S-wave (km/s) = 3.32812 4.09312 3.73028
# Velocity P-wave (km/s) = 6.11915 6.89352 6.51785
#
# Compressibility (1/GPa) = 0.01749026
#
# Stress axis : x y z
#
# Youngs Moduli (GPa) = 172.38510 139.00008 92.07371
#
# Poissons Ratio (x) = 0.01127 0.04924
# Poissons Ratio (y) = 0.01398 0.23636
# Poissons Ratio (z) = 0.09219 0.35682
#
# Static dielectric constant tensor:
#      x y z
#    x 2.046890 0.000000 -0.113560 
#    y 0.000000 1.910410 0.000000 
#    z -0.113560 0.000000 2.164630 
# 
# From -- ./inp_files/2215.got.cif
#   From: 2010.05.17/outbox.cif.g08.bks.cpg/sg5_2_cif.got.tgz:2215.got - 2010.06.03 18:56:24.
