data_PCOD9130293
_publ_section_title
;
Structure prediction by ZEFSAII (Michael W. Deem and Ramdas Pophale) SiO2 
 PCOD9130293
Probable space group: C 2
;
_chemical_formula_sum "Si O2"
_cell_formula_units_Z 14
_cell_length_a 8.346116
_cell_length_b 6.514732
_cell_length_c 17.047629
_cell_angle_alpha 90.000000
_cell_angle_beta 40.482394
_cell_angle_gamma 90.000000
_cell_volume 601.773519
_symmetry_space_group_name_H-M "C 2"
_symmetry_group_IT_number 5
_symmetry_cell_setting 'monoclinic'
loop_
_space_group_symop_operation_xyz
x,y,z
-x,y,-z
1/2+x,1/2+y,z
1/2-x,1/2+y,-z
loop_
_atom_site_type_symbol
_atom_site_label
_atom_site_fract_x
_atom_site_fract_y
_atom_site_fract_z
Si Si1 0.852481 0.949940 0.125858
Si Si2 0.210286 0.019242 0.123155
Si Si3 0.000000 0.018118 0.500000
Si Si4 0.498829 0.265265 0.659233
O O1 0.704883 0.766553 0.138532
O O2 0.678888 0.082545 0.246060
O O3 0.069203 0.899016 0.106549
O O4 0.000000 0.057249 0.000000
O O5 0.500000 0.989395 0.000000
O O6 0.081898 0.938233 0.249197
O O7 0.962977 0.867140 0.587937
O O8 0.230183 0.168738 0.431575
#
# Coordination Sequence:
#
# PCOD9130293 Si02
#       4
#     4   4   2   4
#     4  11  27  47  80 113 152 194 250 317 389 450
#     4  11  27  47  80 113 152 194 250 317 389 450
#     4  12  32  48  84 104 158 206 268 292 388 434
#     4  12  29  52  74 112 149 210 248 326 356 466
#
# _framework density 23.264565999999999
#
# number of rings (size 3 to 8) (size 9 to 14) (size 15 to 20)
#    0.000    0.571    0.000    4.286   32.000    0.000 
#    0.000    0.000    0.000    0.000    0.000    0.000 
#    0.000    0.000    0.000    0.000    0.000    0.000 
#
# Total GULP energy -39077.072193 kJ/mol
# GULP energy per Si atom -5582.438885 kJ/mol
# Density = 2.321161 g / cm^3
# Si number density = 23.264566 Si / 1000 Ang^3
#
#
#
# Elastic Constant Matrix: (Units=GPa)
#
#
# Indices 1 2 3 4 5 6 
#
# 1 64.9429 -0.0018 43.4063 0.0000 34.3557 0.0000
# 2 -0.0018 101.8499 31.6753 0.0000 11.3186 0.0000
# 3 43.4063 31.6753 144.5615 0.0000 38.5784 0.0000
# 4 0.0000 0.0000 0.0000 50.1444 0.0000 -4.9845
# 5 34.3557 11.3186 38.5784 0.0000 58.9799 0.0000
# 6 0.0000 0.0000 0.0000 -4.9845 0.0000 25.1606
#
#
#
# Elastic Compliance Matrix: (Units=1/GPa)
#
#
# Indices 1 2 3 4 5 6 
#
# 1 0.024991 0.002863 -0.004967 0.000000 -0.011858 0.000000
# 2 0.002863 0.010883 -0.002716 0.000000 -0.001980 0.000000
# 3 -0.004967 -0.002716 0.009804 0.000000 -0.002999 0.000000
# 4 0.000000 0.000000 0.000000 0.020343 0.000000 0.004030
# 5 -0.011858 -0.001980 -0.002999 0.000000 0.026203 0.000000
# 6 0.000000 0.000000 0.000000 0.004030 0.000000 0.040543
#
#
# Mechanical properties :
#
#
# Convention : Reuss Voigt Hill
#
# Bulk Modulus (GPa) = 27.74813 51.27932 39.51373
# Shear Modulus (GPa) = 32.37933 42.60863 37.49398
#
# Velocity S-wave (km/s) = 3.73471 4.28422 4.01887
# Velocity P-wave (km/s) = 5.52726 6.82367 6.20939
#
# Compressibility (1/GPa) = 0.03603846
#
# Stress axis : x y z
#
# Youngs Moduli (GPa) = 40.01483 91.88584 101.99876
#
# Poissons Ratio (x) = -0.26305 0.50659
# Poissons Ratio (y) = -0.11456 0.27702
# Poissons Ratio (z) = 0.19874 0.24955
#
# Static dielectric constant tensor:
#      x y z
#    x 1.982340 0.000000 -0.025170 
#    y 0.000000 1.953390 0.000000 
#    z -0.025170 0.000000 1.828890 
# 
# From -- ./inp_files/13597.got.cif
#   From: 2010.05.17/outbox.cif.g08.bks.cpg/sg5_7_cif.got.tgz:13597.got - 2010.06.03 18:56:24.
