data_PCOD9130380
_publ_section_title
;
Structure prediction by ZEFSAII (Michael W. Deem and Ramdas Pophale) SiO2 
 PCOD9130380
Probable space group: C 2
;
_chemical_formula_sum "Si O2"
_cell_formula_units_Z 20
_cell_length_a 22.154892
_cell_length_b 8.547612
_cell_length_c 4.836692
_cell_angle_alpha 90.000000
_cell_angle_beta 104.409317
_cell_angle_gamma 90.000000
_cell_volume 887.118520
_symmetry_space_group_name_H-M "C 2"
_symmetry_group_IT_number 5
_symmetry_cell_setting 'monoclinic'
loop_
_space_group_symop_operation_xyz
x,y,z
-x,y,-z
1/2+x,1/2+y,z
1/2-x,1/2+y,-z
loop_
_atom_site_type_symbol
_atom_site_label
_atom_site_fract_x
_atom_site_fract_y
_atom_site_fract_z
Si Si1 0.867154 0.370520 0.675106
Si Si2 0.500000 0.977250 0.000000
Si Si3 0.627205 0.359914 0.594407
Si Si4 0.827143 0.039909 0.871206
Si Si5 0.000000 0.700167 0.500000
Si Si6 0.684671 0.042408 0.887299
O O1 0.840733 0.206538 0.748840
O O2 0.850657 0.414002 0.342962
O O3 0.833015 0.503802 0.819383
O O4 0.940729 0.382614 0.820481
O O5 0.478276 0.089283 0.225208
O O6 0.660928 0.414733 0.356364
O O7 0.557267 0.302956 0.459743
O O8 0.662273 0.212993 0.770253
O O9 0.628353 0.498094 0.821292
O O10 0.757698 0.030145 0.911130
#
# Coordination Sequence:
#
# PCOD9130380 Si02
#       6
#     4   2   4   4   2   4
#     4  12  25  43  70  98 134 179 220 276 331 391
#     4  12  22  46  70  96 130 176 234 270 322 408
#     4  12  25  44  70  97 133 179 220 278 332 387
#     4  12  26  42  66 104 138 167 221 281 340 384
#     4  12  24  46  70  96 130 174 238 272 320 408
#     4  12  23  45  68  97 135 182 221 264 328 414
#
# _framework density 22.544903000000001
#
# number of rings (size 3 to 8) (size 9 to 14) (size 15 to 20)
#    0.000    0.000    4.000    7.200    0.000    1.600 
#    0.000    0.000    0.000    0.000    0.000    0.000 
#    0.000    0.000    0.000    0.000    0.000    0.000 
#
# Total GULP energy -56067.375856 kJ/mol
# GULP energy per Si atom -5606.737586 kJ/mol
# Density = 2.249359 g / cm^3
# Si number density = 22.544903 Si / 1000 Ang^3
#
#
#
# Elastic Constant Matrix: (Units=GPa)
#
#
# Indices 1 2 3 4 5 6 
#
# 1 83.7588 20.2014 -25.7589 0.0000 4.4574 0.0000
# 2 20.2014 51.4760 -7.3040 0.0000 6.8393 0.0000
# 3 -25.7589 -7.3040 53.9053 0.0000 -8.2250 0.0000
# 4 0.0000 0.0000 0.0000 26.5300 0.0000 -5.8061
# 5 4.4574 6.8393 -8.2250 0.0000 40.6361 0.0000
# 6 0.0000 0.0000 0.0000 -5.8061 0.0000 -16.1185
#
#
#
# Elastic Compliance Matrix: (Units=1/GPa)
#
#
# Indices 1 2 3 4 5 6 
#
# 1 0.015181 -0.005086 0.006647 0.000000 0.000536 0.000000
# 2 -0.005086 0.021843 0.000055 0.000000 -0.003107 0.000000
# 3 0.006647 0.000055 0.022311 0.000000 0.003777 0.000000
# 4 0.000000 0.000000 0.000000 0.034939 0.000000 -0.012586
# 5 0.000536 -0.003107 0.003777 0.000000 0.025837 0.000000
# 6 0.000000 0.000000 0.000000 -0.012586 0.000000 -0.057507
#
#
# Mechanical properties :
#
#
# Convention : Reuss Voigt Hill
#
# Bulk Modulus (GPa) = 15.98238 18.15746 17.06992
# Shear Modulus (GPa) = 62.32210 23.67628 42.99919
#
# Velocity S-wave (km/s) = 5.26342 3.24417 4.37197
# Velocity P-wave (km/s) = 6.63646 4.70151 5.75095
#
# Compressibility (1/GPa) = 0.06256891
#
# Stress axis : x y z
#
# Youngs Moduli (GPa) = 65.87003 45.78102 44.82033
#
# Poissons Ratio (x) = 0.23284 -0.29793
# Poissons Ratio (y) = 0.33501 -0.00248
# Poissons Ratio (z) = -0.43785 -0.00253
#
# Static dielectric constant tensor:
#      x y z
#    x 1.791150 0.000000 0.019100 
#    y 0.000000 1.828530 0.000000 
#    z 0.019100 0.000000 1.820860 
# 
# From -- ./inp_files/9122.got.cif
#   From: 2010.05.17/outbox.cif.g08.bks.cpg/sg5_5_cif.got.tgz:9122.got - 2010.06.03 18:56:24.
