data_PCOD9130422
_publ_section_title
;
Structure prediction by ZEFSAII (Michael W. Deem and Ramdas Pophale) SiO2 
 PCOD9130422
Probable space group: C 2
;
_chemical_formula_sum "Si O2"
_cell_formula_units_Z 20
_cell_length_a 16.730154
_cell_length_b 7.824907
_cell_length_c 10.173533
_cell_angle_alpha 90.000000
_cell_angle_beta 41.082832
_cell_angle_gamma 90.000000
_cell_volume 875.215601
_symmetry_space_group_name_H-M "C 2"
_symmetry_group_IT_number 5
_symmetry_cell_setting 'monoclinic'
loop_
_space_group_symop_operation_xyz
x,y,z
-x,y,-z
1/2+x,1/2+y,z
1/2-x,1/2+y,-z
loop_
_atom_site_type_symbol
_atom_site_label
_atom_site_fract_x
_atom_site_fract_y
_atom_site_fract_z
Si Si1 0.614547 0.937640 0.140001
Si Si2 0.819254 0.768125 0.782687
Si Si3 0.103954 0.964813 0.758131
Si Si4 0.634020 0.134044 0.553220
Si Si5 0.544992 0.574225 0.297459
O O1 0.611152 0.756234 0.217178
O O2 0.676924 0.085176 0.150072
O O3 0.477994 0.004421 0.288174
O O4 0.693241 0.874327 0.916803
O O5 0.881013 0.734836 0.566267
O O6 0.881491 0.897819 0.808373
O O7 0.235580 0.043686 0.626919
O O8 0.051054 0.072342 0.700641
O O9 0.127751 0.772654 0.676913
O O10 0.000000 0.969552 0.000000
O O11 0.500000 0.558521 0.500000
#
# Coordination Sequence:
#
# PCOD9130422 Si02
#       5
#     4   4   4   4   4
#     4  12  25  44  79 115 149 201 261 319 380 458
#     4  12  24  47  78 111 151 199 262 318 375 459
#     4  12  28  49  77 111 158 203 252 317 390 456
#     4  12  27  50  73 115 162 195 260 322 381 459
#     4  12  23  48  79 107 148 204 254 315 384 452
#
# _framework density 22.851513000000001
#
# number of rings (size 3 to 8) (size 9 to 14) (size 15 to 20)
#    0.000    0.000    6.000    4.200    0.000    1.600 
#    3.600    1.000    0.000    0.000    0.000    0.000 
#    0.000    0.000    0.000    0.000    0.000    0.000 
#
# Total GULP energy -55796.722509 kJ/mol
# GULP energy per Si atom -5579.672251 kJ/mol
# Density = 2.279950 g / cm^3
# Si number density = 22.851513 Si / 1000 Ang^3
#
#
#
# Elastic Constant Matrix: (Units=GPa)
#
#
# Indices 1 2 3 4 5 6 
#
# 1 84.5215 39.3172 51.3828 0.0000 -15.0665 0.0000
# 2 39.3172 166.7350 59.2250 0.0000 -12.9007 0.0000
# 3 51.3828 59.2250 119.1121 0.0000 -30.5600 0.0000
# 4 0.0000 0.0000 0.0000 4.3279 0.0000 -115.3842
# 5 -15.0665 -12.9007 -30.5600 0.0000 31.1603 0.0000
# 6 0.0000 0.0000 0.0000 -115.3842 0.0000 -167.7430
#
#
#
# Elastic Compliance Matrix: (Units=1/GPa)
#
#
# Indices 1 2 3 4 5 6 
#
# 1 0.016452 -0.001675 -0.005881 0.000000 0.001494 0.000000
# 2 -0.001675 0.007467 -0.003213 0.000000 -0.000870 0.000000
# 3 -0.005881 -0.003213 0.015312 0.000000 0.010843 0.000000
# 4 0.000000 0.000000 0.000000 0.011948 0.000000 -0.008219
# 5 0.001494 -0.000870 0.010843 0.000000 0.043088 0.000000
# 6 0.000000 0.000000 0.000000 -0.008219 0.000000 -0.000308
#
#
# Mechanical properties :
#
#
# Convention : Reuss Voigt Hill
#
# Bulk Modulus (GPa) = 56.52202 74.46874 65.49538
# Shear Modulus (GPa) = 41.18805 -11.75471 14.71667
#
# Velocity S-wave (km/s) = 4.25010 -2.27049 2.54049
# Velocity P-wave (km/s) = 6.99090 5.07793 6.10975
#
# Compressibility (1/GPa) = 0.01769222
#
# Stress axis : x y z
#
# Youngs Moduli (GPa) = 60.78312 133.93117 65.30788
#
# Poissons Ratio (x) = 0.22433 0.38408
# Poissons Ratio (y) = 0.10181 0.20984
# Poissons Ratio (z) = 0.35747 0.43034
#
# Static dielectric constant tensor:
#      x y z
#    x 1.882370 0.000000 0.062630 
#    y 0.000000 1.832200 0.000000 
#    z 0.062630 0.000000 3.885840 
# 
# From -- ./inp_files/44067.got.cif
#   From: 2010.05.17/outbox.cif.g08.bks.cpg/sg5_23_cif.got.tgz:44067.got - 2010.06.03 18:56:24.
