data_PCOD9130176
_publ_section_title
;
Structure prediction by ZEFSAII (Michael W. Deem and Ramdas Pophale) SiO2 
 PCOD9130176
Probable space group: C 2
;
_chemical_formula_sum "Si O2"
_cell_formula_units_Z 18
_cell_length_a 12.439322
_cell_length_b 11.108619
_cell_length_c 5.320312
_cell_angle_alpha 90.000000
_cell_angle_beta 80.382622
_cell_angle_gamma 90.000000
_cell_volume 724.847679
_symmetry_space_group_name_H-M "C 2"
_symmetry_group_IT_number 5
_symmetry_cell_setting 'monoclinic'
loop_
_space_group_symop_operation_xyz
x,y,z
-x,y,-z
1/2+x,1/2+y,z
1/2-x,1/2+y,-z
loop_
_atom_site_type_symbol
_atom_site_label
_atom_site_fract_x
_atom_site_fract_y
_atom_site_fract_z
Si Si1 0.845651 0.171570 0.345370
Si Si2 0.154637 0.010518 0.152863
Si Si3 0.887862 0.675061 0.419788
Si Si4 0.107107 0.430066 0.799685
Si Si5 0.000000 0.822098 0.000000
O O1 0.861150 0.092909 0.592169
O O2 0.721279 0.218397 0.412717
O O3 0.910639 0.295322 0.291314
O O4 0.856978 0.091663 0.092427
O O5 0.276497 0.951907 0.105887
O O6 0.060701 0.911165 0.168943
O O7 0.882731 0.530998 0.418003
O O8 0.000000 0.708610 0.500000
O O9 0.904189 0.736261 0.142788
O O10 0.000000 0.463256 0.000000
#
# Coordination Sequence:
#
# PCOD9130176 Si02
#       5
#     4   4   4   4   2
#     4  11  28  49  74 114 155 194 253 306 383 440
#     4  11  29  50  77 111 151 208 242 309 377 449
#     4  11  25  46  78 110 147 204 252 309 372 445
#     4  11  25  49  78 112 153 194 254 314 373 442
#     4  12  28  50  76 110 152 200 258 298 372 470
#
# _framework density 24.832799999999999
#
# number of rings (size 3 to 8) (size 9 to 14) (size 15 to 20)
#    0.000    0.889    1.111    2.667   20.222    1.778 
#    0.000    0.000    0.000    0.000    0.000    0.000 
#    0.000    0.000    0.000    0.000    0.000    0.000 
#
# Total GULP energy -50367.619788 kJ/mol
# GULP energy per Si atom -5596.402199 kJ/mol
# Density = 2.477628 g / cm^3
# Si number density = 24.832800 Si / 1000 Ang^3
#
#
#
# Elastic Constant Matrix: (Units=GPa)
#
#
# Indices 1 2 3 4 5 6 
#
# 1 88.7950 20.7885 5.0328 0.0000 3.6694 0.0000
# 2 20.7885 136.9109 59.3153 0.0000 6.7867 0.0000
# 3 5.0328 59.3153 120.0328 0.0000 10.6590 0.0000
# 4 0.0000 0.0000 0.0000 22.3091 0.0000 -13.3998
# 5 3.6694 6.7867 10.6590 0.0000 35.3383 0.0000
# 6 0.0000 0.0000 0.0000 -13.3998 0.0000 32.6240
#
#
#
# Elastic Compliance Matrix: (Units=1/GPa)
#
#
# Indices 1 2 3 4 5 6 
#
# 1 0.011735 -0.001982 0.000577 0.000000 -0.001012 0.000000
# 2 -0.001982 0.009634 -0.004656 0.000000 -0.000240 0.000000
# 3 0.000577 -0.004656 0.010824 0.000000 -0.002430 0.000000
# 4 0.000000 0.000000 0.000000 0.059505 0.000000 0.024441
# 5 -0.001012 -0.000240 -0.002430 0.000000 0.029182 0.000000
# 6 0.000000 0.000000 0.000000 0.024441 0.000000 0.040691
#
#
# Mechanical properties :
#
#
# Convention : Reuss Voigt Hill
#
# Bulk Modulus (GPa) = 49.82357 57.33464 53.57911
# Shear Modulus (GPa) = 27.71873 35.42775 31.57324
#
# Velocity S-wave (km/s) = 3.34460 3.78120 3.56958
# Velocity P-wave (km/s) = 5.91797 6.49628 6.21386
#
# Compressibility (1/GPa) = 0.02007082
#
# Stress axis : x y z
#
# Youngs Moduli (GPa) = 85.21550 103.79727 92.38987
#
# Poissons Ratio (x) = 0.20569 -0.05332
# Poissons Ratio (y) = 0.16887 0.43021
# Poissons Ratio (z) = -0.04918 0.48332
#
# Static dielectric constant tensor:
#      x y z
#    x 1.999170 0.000000 0.077760 
#    y 0.000000 1.895530 0.000000 
#    z 0.077760 0.000000 2.170270 
# 
# From -- ./inp_files/4423.got.cif
#   From: 2010.05.17/outbox.cif.g08.bks.cpg/sg5_3_cif.got.tgz:4423.got - 2010.06.03 18:56:24.
