data_PCOD9130388
_publ_section_title
;
Structure prediction by ZEFSAII (Michael W. Deem and Ramdas Pophale) SiO2 
 PCOD9130388
Probable space group: C 2
;
_chemical_formula_sum "Si O2"
_cell_formula_units_Z 20
_cell_length_a 20.447944
_cell_length_b 6.056072
_cell_length_c 11.562453
_cell_angle_alpha 90.000000
_cell_angle_beta 145.221857
_cell_angle_gamma 90.000000
_cell_volume 816.714724
_symmetry_space_group_name_H-M "C 2"
_symmetry_group_IT_number 5
_symmetry_cell_setting 'monoclinic'
loop_
_space_group_symop_operation_xyz
x,y,z
-x,y,-z
1/2+x,1/2+y,z
1/2-x,1/2+y,-z
loop_
_atom_site_type_symbol
_atom_site_label
_atom_site_fract_x
_atom_site_fract_y
_atom_site_fract_z
Si Si1 0.391296 0.900300 0.968566
Si Si2 0.214294 0.897034 0.902287
Si Si3 0.500000 0.277218 0.000000
Si Si4 0.607753 0.806403 0.436583
Si Si5 0.000000 0.099254 0.500000
Si Si6 0.802936 0.097903 0.644171
O O1 0.487299 0.795031 0.192235
O O2 0.442420 0.136917 0.017082
O O3 0.273562 0.894853 0.864432
O O4 0.364431 0.790779 0.806580
O O5 0.080328 0.945531 0.695195
O O6 0.237990 0.641140 0.980055
O O7 0.604019 0.410037 0.202651
O O8 0.577545 0.746299 0.524672
O O9 0.691422 0.646027 0.484063
O O10 0.680847 0.031035 0.521766
#
# Coordination Sequence:
#
# PCOD9130388 Si02
#       6
#     4   4   2   4   2   4
#     4  12  26  49  79 116 157 212 269 342 405 483
#     4  12  31  54  83 117 169 219 273 340 414 491
#     4  12  22  46  78 110 158 202 264 344 396 482
#     4  12  26  50  76 118 159 212 268 337 406 493
#     4  12  30  50  82 118 164 216 278 334 416 498
#     4  12  27  47  80 115 160 204 277 332 413 481
#
# _framework density 24.488353
#
# number of rings (size 3 to 8) (size 9 to 14) (size 15 to 20)
#    0.000    0.000    6.000    2.400   11.200    2.400 
#    0.000    0.000    0.000    0.000    0.000    0.000 
#    0.000    0.000    0.000    0.000    0.000    0.000 
#
# Total GULP energy -55787.962606 kJ/mol
# GULP energy per Si atom -5578.796261 kJ/mol
# Density = 2.443262 g / cm^3
# Si number density = 24.488353 Si / 1000 Ang^3
#
#
#
# Elastic Constant Matrix: (Units=GPa)
#
#
# Indices 1 2 3 4 5 6 
#
# 1 113.0644 7.9294 -1.0551 0.0000 -17.2084 0.0000
# 2 7.9294 88.3094 38.9076 0.0000 -7.7668 0.0000
# 3 -1.0551 38.9076 83.0387 0.0000 9.7463 0.0000
# 4 0.0000 0.0000 0.0000 -131.0576 0.0000 74.9943
# 5 -17.2084 -7.7668 9.7463 0.0000 38.7736 0.0000
# 6 0.0000 0.0000 0.0000 74.9943 0.0000 11.5691
#
#
#
# Elastic Compliance Matrix: (Units=1/GPa)
#
#
# Indices 1 2 3 4 5 6 
#
# 1 0.009508 -0.000407 -0.000180 0.000000 0.004184 0.000000
# 2 -0.000407 0.015160 -0.007670 0.000000 0.004784 0.000000
# 3 -0.000180 -0.007670 0.016305 0.000000 -0.005715 0.000000
# 4 0.000000 0.000000 0.000000 -0.001620 0.000000 0.010503
# 5 0.004184 0.004784 -0.005715 0.000000 0.030042 0.000000
# 6 0.000000 0.000000 0.000000 0.010503 0.000000 0.018354
#
#
# Mechanical properties :
#
#
# Convention : Reuss Voigt Hill
#
# Bulk Modulus (GPa) = 40.88218 41.77513 41.32866
# Shear Modulus (GPa) = 44.47759 -0.23427 22.12166
#
# Velocity S-wave (km/s) = 4.26640 -0.30964 3.00885
# Velocity P-wave (km/s) = 6.40315 4.11927 5.38371
#
# Compressibility (1/GPa) = 0.02446053
#
# Stress axis : x y z
#
# Youngs Moduli (GPa) = 105.17351 65.96124 61.33156
#
# Poissons Ratio (x) = 0.02682 0.01102
# Poissons Ratio (y) = 0.04277 0.47042
# Poissons Ratio (z) = 0.01890 0.50593
#
# Static dielectric constant tensor:
#      x y z
#    x 1.905450 0.000000 -0.058920 
#    y 0.000000 2.106820 0.000000 
#    z -0.058920 0.000000 2.822800 
# 
# From -- ./inp_files/45370.got.cif
#   From: 2010.05.17/outbox.cif.g08.bks.cpg/sg5_23_cif.got.tgz:45370.got - 2010.06.03 18:56:24.
