data_PCOD9130948
_publ_section_title
;
Structure prediction by ZEFSAII (Michael W. Deem and Ramdas Pophale) SiO2 
 PCOD9130948
Probable space group: P M
;
_chemical_formula_sum "Si O2"
_cell_formula_units_Z 14
_cell_length_a 9.011823
_cell_length_b 13.638423
_cell_length_c 5.897028
_cell_angle_alpha 90.000000
_cell_angle_beta 113.299599
_cell_angle_gamma 90.000000
_cell_volume 665.679397
_symmetry_space_group_name_H-M "P M"
_symmetry_group_IT_number 6
_symmetry_cell_setting 'monoclinic'
loop_
_space_group_symop_operation_xyz
x,y,z
x,-y,z
loop_
_atom_site_type_symbol
_atom_site_label
_atom_site_fract_x
_atom_site_fract_y
_atom_site_fract_z
Si Si1 0.383910 0.611912 0.371140
Si Si2 0.865364 0.175903 0.142817
Si Si3 0.580956 0.114009 0.634166
Si Si4 0.357211 0.254083 0.747147
Si Si5 0.198976 0.000000 0.078835
Si Si6 0.634154 0.272762 0.287749
Si Si7 0.176696 0.214477 0.025199
Si Si8 0.026175 0.000000 0.472826
O O1 0.343548 0.500000 0.303133
O O2 0.371277 0.644287 0.623925
O O3 0.565370 0.637107 0.393286
O O4 0.262076 0.691267 0.187521
O O5 0.795416 0.269541 0.235886
O O6 0.923082 0.097170 0.362551
O O7 0.719447 0.127990 0.909276
O O8 0.008210 0.198783 0.051290
O O9 0.416740 0.164471 0.628148
O O10 0.635601 0.180812 0.458110
O O11 0.560387 0.000000 0.569937
O O12 0.186107 0.235944 0.762196
O O13 0.491674 0.257438 0.021592
O O14 0.270484 0.109438 0.101606
O O15 0.092382 0.000000 0.773437
O O16 0.133198 0.000000 0.300822
#
# Coordination Sequence:
#
# PCOD9130948 Si02
#       8
#     2   2   2   2   1   2   2   1
#     4  10  22  45  68  86 116 166 221 274 337 388
#     4  10  21  35  60  92 135 167 214 250 319 391
#     4  10  20  35  55  86 126 174 210 251 305 380
#     4   9  21  39  55  89 119 164 212 266 317 378
#     4  10  24  38  59  96 146 179 213 252 329 399
#     4   9  21  37  60  88 119 157 211 263 320 380
#     4  10  23  39  62  95 129 170 208 266 323 398
#     4  10  22  36  57  94 136 197 205 250 317 403
#
# _framework density 21.031141999999999
#
# number of rings (size 3 to 8) (size 9 to 14) (size 15 to 20)
#    0.000    2.286    0.714    0.000   10.000    2.857 
#   10.286    0.714    0.000    3.429    0.000    0.000 
#    0.000    0.000    0.000    0.000    0.000    0.000 
#
# Total GULP energy -77963.747630 kJ/mol
# GULP energy per Si atom -5568.839116 kJ/mol
# Density = 2.098327 g / cm^3
# Si number density = 21.031142 Si / 1000 Ang^3
#
#
#
# Elastic Constant Matrix: (Units=GPa)
#
#
# Indices 1 2 3 4 5 6 
#
# 1 113.6132 35.6202 16.8609 0.0000 -26.4729 0.0000
# 2 35.6202 147.0963 24.6395 0.0000 0.9035 0.0000
# 3 16.8609 24.6395 95.6152 0.0000 -4.1822 0.0000
# 4 0.0000 0.0000 0.0000 14.9551 0.0000 5.2405
# 5 -26.4729 0.9035 -4.1822 0.0000 28.4927 0.0000
# 6 0.0000 0.0000 0.0000 5.2405 0.0000 16.5069
#
#
#
# Elastic Compliance Matrix: (Units=1/GPa)
#
#
# Indices 1 2 3 4 5 6 
#
# 1 0.012584 -0.002960 -0.000947 0.000000 0.011647 0.000000
# 2 -0.002960 0.007808 -0.001632 0.000000 -0.003238 0.000000
# 3 -0.000947 -0.001632 0.011081 0.000000 0.000799 0.000000
# 4 0.000000 0.000000 0.000000 0.075237 0.000000 -0.023885
# 5 0.011647 -0.003238 0.000799 0.000000 0.046138 0.000000
# 6 0.000000 0.000000 0.000000 -0.023885 0.000000 0.068164
#
#
# Mechanical properties :
#
#
# Convention : Reuss Voigt Hill
#
# Bulk Modulus (GPa) = 49.02960 56.72956 52.87958
# Shear Modulus (GPa) = 20.93026 30.60453 25.76739
#
# Velocity S-wave (km/s) = 3.15811 3.81885 3.50409
# Velocity P-wave (km/s) = 6.05489 6.81744 6.44744
#
# Compressibility (1/GPa) = 0.02039584
#
# Stress axis : x y z
#
# Youngs Moduli (GPa) = 79.46392 128.06820 90.24480
#
# Poissons Ratio (x) = 0.37912 0.08545
# Poissons Ratio (y) = 0.23524 0.14726
# Poissons Ratio (z) = 0.07524 0.20898
#
# Static dielectric constant tensor:
#      x y z
#    x 1.864280 0.000000 -0.038460 
#    y 0.000000 1.716380 0.000000 
#    z -0.038460 0.000000 1.858350 
# 
# From -- ./inp_files/1230.got.cif
#   From: 2010.05.17/outbox.cif.g08.bks.cpg/sg6_1_cif.got.tgz:1230.got - 2010.06.03 19:42:10.
