data_PCOD9130013
_publ_section_title
;
Structure prediction by ZEFSAII (Michael W. Deem and Ramdas Pophale) SiO2 
 PCOD9130013
Probable space group: C 2
;
_chemical_formula_sum "Si O2"
_cell_formula_units_Z 24
_cell_length_a 14.009449
_cell_length_b 6.108316
_cell_length_c 15.850035
_cell_angle_alpha 90.000000
_cell_angle_beta 44.551312
_cell_angle_gamma 90.000000
_cell_volume 951.546484
_symmetry_space_group_name_H-M "C 2"
_symmetry_group_IT_number 5
_symmetry_cell_setting 'monoclinic'
loop_
_space_group_symop_operation_xyz
x,y,z
-x,y,-z
1/2+x,1/2+y,z
1/2-x,1/2+y,-z
loop_
_atom_site_type_symbol
_atom_site_label
_atom_site_fract_x
_atom_site_fract_y
_atom_site_fract_z
Si Si1 0.958654 0.172410 0.868289
Si Si2 0.000000 0.916345 0.500000
Si Si3 0.693027 0.341965 0.937349
Si Si4 0.153786 0.544451 0.301124
Si Si5 0.400880 0.875538 0.359207
Si Si6 0.258461 0.737956 0.602903
Si Si7 0.000000 0.480127 0.000000
O O1 0.819690 0.266891 0.914391
O O2 0.004793 0.330618 0.914231
O O3 0.065612 0.180042 0.725101
O O4 0.923252 0.939754 0.929813
O O5 0.914870 0.762720 0.618544
O O6 0.885044 0.069035 0.532393
O O7 0.740585 0.534765 0.843260
O O8 0.631188 0.138187 0.925876
O O9 0.027525 0.413306 0.340743
O O10 0.219197 0.408028 0.336155
O O11 0.275576 0.844461 0.500290
O O12 0.374893 0.088258 0.317795
#
# Coordination Sequence:
#
# PCOD9130013 Si02
#       7
#     4   2   4   4   4   4   2
#     4  11  25  47  70 105 141 185 237 294 348 421
#     4  12  22  42  70 100 142 184 226 290 356 404
#     4  11  25  45  74 101 143 187 237 291 350 417
#     4  11  24  46  68 104 141 186 235 290 347 420
#     4  11  24  45  70 102 141 179 239 287 350 420
#     4  12  24  46  69 104 141 187 231 289 357 418
#     4  12  24  48  72 100 138 192 234 282 364 408
#
# _framework density 25.222100999999999
#
# number of rings (size 3 to 8) (size 9 to 14) (size 15 to 20)
#    0.000    0.667    5.000    2.500    0.000    5.333 
#    3.000    0.000    0.000    0.000    0.000    0.000 
#    0.000    0.000    0.000    0.000    0.000    0.000 
#
# Total GULP energy -67245.243228 kJ/mol
# GULP energy per Si atom -5603.770269 kJ/mol
# Density = 2.516469 g / cm^3
# Si number density = 25.222101 Si / 1000 Ang^3
#
#
#
# Elastic Constant Matrix: (Units=GPa)
#
#
# Indices 1 2 3 4 5 6 
#
# 1 151.7545 43.0123 25.1227 -0.0001 28.8191 0.0000
# 2 43.0123 51.2291 8.9715 -0.0002 17.8089 0.0001
# 3 25.1227 8.9715 77.1673 -0.0002 12.0308 0.0002
# 4 -0.0001 -0.0002 -0.0002 33.4699 0.0000 -8.4180
# 5 28.8191 17.8089 12.0308 0.0000 22.0770 0.0000
# 6 0.0000 0.0001 0.0002 -8.4180 0.0000 52.2753
#
#
#
# Elastic Compliance Matrix: (Units=1/GPa)
#
#
# Indices 1 2 3 4 5 6 
#
# 1 0.009787 -0.005275 -0.001360 0.000000 -0.007780 0.000000
# 2 -0.005275 0.029976 0.001015 0.000000 -0.017848 0.000000
# 3 -0.001360 0.001015 0.014354 0.000000 -0.006865 0.000000
# 4 0.000000 0.000000 0.000000 0.031139 0.000000 0.005014
# 5 -0.007780 -0.017848 -0.006865 0.000000 0.073591 0.000000
# 6 0.000000 0.000000 0.000000 0.005014 0.000000 0.019937
#
#
# Mechanical properties :
#
#
# Convention : Reuss Voigt Hill
#
# Bulk Modulus (GPa) = 23.32247 48.26266 35.79257
# Shear Modulus (GPa) = 24.47190 35.10073 29.78631
#
# Velocity S-wave (km/s) = 3.11827 3.73455 3.44024
# Velocity P-wave (km/s) = 4.71506 6.14593 5.47742
#
# Compressibility (1/GPa) = 0.04287710
#
# Stress axis : x y z
#
# Youngs Moduli (GPa) = 102.17362 33.36043 69.66683
#
# Poissons Ratio (x) = 0.17596 0.09476
# Poissons Ratio (y) = 0.53893 -0.07070
# Poissons Ratio (z) = 0.13897 -0.03386
#
# Static dielectric constant tensor:
#      x y z
#    x 1.937420 0.000000 -0.027520 
#    y 0.000000 2.010530 0.000000 
#    z -0.027520 0.000000 1.991010 
# 
# From -- ./inp_files/53771.got.cif
#   From: 2010.05.17/outbox.cif.g08.bks.cpg/sg5_27_cif.got.tgz:53771.got - 2010.06.03 18:56:24.
