data_PCOD9130945
_publ_section_title
;
Structure prediction by ZEFSAII (Michael W. Deem and Ramdas Pophale) SiO2 
 PCOD9130945
Probable space group: P M
;
_chemical_formula_sum "Si O2"
_cell_formula_units_Z 16
_cell_length_a 14.561472
_cell_length_b 7.577583
_cell_length_c 20.205148
_cell_angle_alpha 90.000000
_cell_angle_beta 160.547619
_cell_angle_gamma 90.000000
_cell_volume 742.459291
_symmetry_space_group_name_H-M "P M"
_symmetry_group_IT_number 6
_symmetry_cell_setting 'monoclinic'
loop_
_space_group_symop_operation_xyz
x,y,z
x,-y,z
loop_
_atom_site_type_symbol
_atom_site_label
_atom_site_fract_x
_atom_site_fract_y
_atom_site_fract_z
Si Si1 0.539070 0.213231 0.996210
Si Si2 0.219004 0.216113 0.153594
Si Si3 0.571314 0.785001 0.266619
Si Si4 0.647954 0.798116 0.709153
Si Si5 0.154177 0.298308 0.461988
Si Si6 0.583760 0.783886 0.518111
Si Si7 0.171569 0.786773 0.628934
Si Si8 0.188083 0.784982 0.883174
O O1 0.424433 0.273168 0.847091
O O2 0.328003 0.273446 0.910105
O O3 0.533653 0.000000 0.992334
O O4 0.846761 0.263538 0.226414
O O5 0.432207 0.268513 0.240706
O O6 0.333892 0.275921 0.302146
O O7 0.216922 0.000000 0.154155
O O8 0.915520 0.279258 0.927148
O O9 0.883232 0.726573 0.465605
O O10 0.575327 0.000000 0.269484
O O11 0.378407 0.730477 0.074250
O O12 0.384914 0.802558 0.577509
O O13 0.579548 0.720680 0.590826
O O14 0.731263 0.000000 0.750826
O O15 0.221583 0.500000 0.495693
O O16 0.173230 0.263607 0.553262
O O17 0.874512 0.731507 0.682733
O O18 0.575362 0.000000 0.512346
O O19 0.170879 0.000000 0.629743
O O20 0.188734 0.000000 0.882645
#
# Coordination Sequence:
#
# PCOD9130945 Si02
#       8
#     2   2   2   2   2   2   2   2
#     4  10  20  36  61  89 115 145 184 231 279 332
#     4   9  16  27  48  81 114 139 168 216 278 332
#     4   9  14  25  50  84 118 142 165 213 280 339
#     4  10  20  35  54  76 104 141 187 236 273 318
#     4  12  26  41  56  76 110 155 195 238 283 330
#     4   9  16  27  48  81 114 139 168 216 278 332
#     4  10  20  36  61  89 115 145 184 231 279 332
#     4   9  14  25  50  84 118 142 165 213 280 339
#
# _framework density 21.550004000000001
#
# number of rings (size 3 to 8) (size 9 to 14) (size 15 to 20)
#    0.000    2.250    2.500    1.875    0.000    4.500 
#    0.000    2.500    0.000    3.000    0.000    0.000 
#    0.000    0.000    0.000    0.000    0.000    0.000 
#
# Total GULP energy -89357.011597 kJ/mol
# GULP energy per Si atom -5584.813225 kJ/mol
# Density = 2.150095 g / cm^3
# Si number density = 21.550004 Si / 1000 Ang^3
#
#
#
# Elastic Constant Matrix: (Units=GPa)
#
#
# Indices 1 2 3 4 5 6 
#
# 1 116.3113 -5.1564 121.3498 0.0000 -10.7756 0.0000
# 2 -5.1564 50.0446 0.6000 0.0000 -7.2461 0.0000
# 3 121.3498 0.6000 159.7351 0.0000 -40.3175 0.0000
# 4 0.0000 0.0000 0.0000 -29.5982 0.0000 -16.2237
# 5 -10.7756 -7.2461 -40.3175 0.0000 39.3401 0.0000
# 6 0.0000 0.0000 0.0000 -16.2237 0.0000 -42.4731
#
#
#
# Elastic Compliance Matrix: (Units=1/GPa)
#
#
# Indices 1 2 3 4 5 6 
#
# 1 0.094387 0.001529 -0.087835 0.000000 -0.063882 0.000000
# 2 0.001529 0.020722 -0.000229 0.000000 0.004000 0.000000
# 3 -0.087835 -0.000229 0.090252 0.000000 0.068393 0.000000
# 4 0.000000 0.000000 0.000000 -0.042733 0.000000 0.016323
# 5 -0.063882 0.004000 0.068393 0.000000 0.078750 0.000000
# 6 0.000000 0.000000 0.000000 0.016323 0.000000 -0.029779
#
#
# Mechanical properties :
#
#
# Convention : Reuss Voigt Hill
#
# Bulk Modulus (GPa) = 30.97087 62.18643 46.57865
# Shear Modulus (GPa) = 12.64436 7.40695 10.02565
#
# Velocity S-wave (km/s) = 2.42491 1.85595 2.15925
# Velocity P-wave (km/s) = 4.71626 5.78897 5.27993
#
# Compressibility (1/GPa) = 0.03228841
#
# Stress axis : x y z
#
# Youngs Moduli (GPa) = 10.59466 48.25874 11.08014
#
# Poissons Ratio (x) = -0.07377 0.97323
# Poissons Ratio (y) = -0.01620 0.00254
# Poissons Ratio (z) = 0.93058 0.01108
#
# Static dielectric constant tensor:
#      x y z
#    x 1.748390 0.000000 -0.023540 
#    y 0.000000 1.818820 0.000000 
#    z -0.023540 0.000000 1.767330 
# 
# From -- ./inp_files/5946.got.cif
#   From: 2010.05.17/outbox.cif.g08.bks.cpg/sg6_3_cif.got.tgz:5946.got - 2010.06.03 19:42:10.
