data_PCOD9130621
_publ_section_title
;
Structure prediction by ZEFSAII (Michael W. Deem and Ramdas Pophale) SiO2 
 PCOD9130621
Probable space group: C 2
;
_chemical_formula_sum "Si O2"
_cell_formula_units_Z 16
_cell_length_a 10.200917
_cell_length_b 9.807953
_cell_length_c 7.381147
_cell_angle_alpha 90.000000
_cell_angle_beta 51.782902
_cell_angle_gamma 90.000000
_cell_volume 580.206907
_symmetry_space_group_name_H-M "C 2"
_symmetry_group_IT_number 5
_symmetry_cell_setting 'monoclinic'
loop_
_space_group_symop_operation_xyz
x,y,z
-x,y,-z
1/2+x,1/2+y,z
1/2-x,1/2+y,-z
loop_
_atom_site_type_symbol
_atom_site_label
_atom_site_fract_x
_atom_site_fract_y
_atom_site_fract_z
Si Si1 0.000000 0.448501 0.000000
Si Si2 0.907490 0.894889 0.866401
Si Si3 0.750010 0.264571 0.454126
Si Si4 0.686478 0.111894 0.161039
Si Si5 0.000000 0.105648 0.500000
O O1 0.132074 0.355144 0.776562
O O2 0.930302 0.537660 0.889263
O O3 0.792745 0.760329 0.953221
O O4 0.095198 0.836666 0.688560
O O5 0.897878 0.999713 0.707613
O O6 0.833381 0.002055 0.070069
O O7 0.661797 0.159159 0.391039
O O8 0.873979 0.192915 0.488147
#
# Coordination Sequence:
#
# PCOD9130621 Si02
#       5
#     2   4   4   4   2
#     4  12  28  52  86 136 174 234 302 366 460 526
#     4  12  28  57  85 128 179 240 295 369 452 529
#     4  12  29  58  87 134 180 236 300 373 452 540
#     4  12  27  55  86 125 182 231 303 364 442 542
#     4  12  28  54  90 130 182 232 302 370 450 538
#
# _framework density 27.576367000000001
#
# number of rings (size 3 to 8) (size 9 to 14) (size 15 to 20)
#    0.000    0.000    5.000    1.500    7.000    4.000 
#    0.000    0.000    0.000    0.000    0.000    0.000 
#    0.000    0.000    0.000    0.000    0.000    0.000 
#
# Total GULP energy -44668.937258 kJ/mol
# GULP energy per Si atom -5583.617157 kJ/mol
# Density = 2.751360 g / cm^3
# Si number density = 27.576367 Si / 1000 Ang^3
#
#
#
# Elastic Constant Matrix: (Units=GPa)
#
#
# Indices 1 2 3 4 5 6 
#
# 1 267.3520 129.9686 73.7933 0.0000 9.1383 0.0000
# 2 129.9686 236.1900 105.5452 0.0000 -16.2304 0.0000
# 3 73.7933 105.5452 82.7674 0.0000 -6.3756 0.0000
# 4 0.0000 0.0000 0.0000 212.9368 0.0000 -47.5283
# 5 9.1383 -16.2304 -6.3756 0.0000 48.5762 0.0000
# 6 0.0000 0.0000 0.0000 -47.5283 0.0000 96.8468
#
#
#
# Elastic Compliance Matrix: (Units=1/GPa)
#
#
# Indices 1 2 3 4 5 6 
#
# 1 0.005485 -0.002099 -0.002371 0.000000 -0.002045 0.000000
# 2 -0.002099 0.010780 -0.011685 0.000000 0.002463 0.000000
# 3 -0.002371 -0.011685 0.029125 0.000000 0.000364 0.000000
# 4 0.000000 0.000000 0.000000 0.005274 0.000000 0.002588
# 5 -0.002045 0.002463 0.000364 0.000000 0.021842 0.000000
# 6 0.000000 0.000000 0.000000 0.002588 0.000000 0.011596
#
#
# Mechanical properties :
#
#
# Convention : Reuss Voigt Hill
#
# Bulk Modulus (GPa) = 76.45667 133.88039 105.16853
# Shear Modulus (GPa) = 41.39998 90.13877 65.76937
#
# Velocity S-wave (km/s) = 3.87884 5.72345 4.88893
# Velocity P-wave (km/s) = 6.91710 9.60893 8.37191
#
# Compressibility (1/GPa) = 0.01307930
#
# Stress axis : x y z
#
# Youngs Moduli (GPa) = 182.30687 92.76242 34.33463
#
# Poissons Ratio (x) = 0.19475 0.08140
# Poissons Ratio (y) = 0.38275 0.40121
# Poissons Ratio (z) = 0.43221 1.08397
#
# Static dielectric constant tensor:
#      x y z
#    x 1.947720 0.000000 0.383550 
#    y 0.000000 2.110170 0.000000 
#    z 0.383550 0.000000 1.699820 
# 
# From -- ./inp_files/18188.got.cif
#   From: 2010.05.17/outbox.cif.g08.bks.cpg/sg5_10_cif.got.tgz:18188.got - 2010.06.03 18:56:24.
