data_PCOD9130850
_publ_section_title
;
Structure prediction by ZEFSAII (Michael W. Deem and Ramdas Pophale) SiO2 
 PCOD9130850
Probable space group: P M
;
_chemical_formula_sum "Si O2"
_cell_formula_units_Z 16
_cell_length_a 10.596871
_cell_length_b 17.548135
_cell_length_c 5.083233
_cell_angle_alpha 90.000000
_cell_angle_beta 79.070030
_cell_angle_gamma 90.000000
_cell_volume 928.107007
_symmetry_space_group_name_H-M "P M"
_symmetry_group_IT_number 6
_symmetry_cell_setting 'monoclinic'
loop_
_space_group_symop_operation_xyz
x,y,z
x,-y,z
loop_
_atom_site_type_symbol
_atom_site_label
_atom_site_fract_x
_atom_site_fract_y
_atom_site_fract_z
Si Si1 0.391370 0.178899 0.904160
Si Si2 0.769696 0.339911 0.169603
Si Si3 0.203062 0.411432 0.350398
Si Si4 0.427137 0.910858 0.383578
Si Si5 0.405812 0.315903 0.584240
Si Si6 0.632581 0.409050 0.723301
Si Si7 0.035228 0.588879 0.919574
Si Si8 0.601689 0.207957 0.179244
O O1 0.383061 0.114389 0.687656
O O2 0.540407 0.203143 0.911453
O O3 0.352154 0.139667 0.193579
O O4 0.334967 0.256411 0.807855
O O5 0.729033 0.372440 0.469466
O O6 0.735149 0.250490 0.154899
O O7 0.914583 0.359932 0.040587
O O8 0.678822 0.381740 0.990666
O O9 0.244737 0.500000 0.349524
O O10 0.313636 0.357762 0.417200
O O11 0.151256 0.397344 0.078486
O O12 0.085580 0.402129 0.603547
O O13 0.572361 0.876623 0.296658
O O14 0.419528 0.000000 0.340006
O O15 0.491871 0.376223 0.709608
O O16 0.503581 0.263017 0.378109
O O17 0.635026 0.500000 0.704834
O O18 0.996558 0.500000 0.969772
#
# Coordination Sequence:
#
# PCOD9130850 Si02
#       8
#     2   2   2   2   2   2   2   2
#     4   9  17  29  44  70  96 129 147 180 232 284
#     4  11  20  34  49  65  97 126 159 204 243 286
#     4  10  22  35  49  66  92 130 173 212 244 276
#     4   9  16  28  46  70 104 130 146 175 223 297
#     4  10  19  33  48  68  99 126 158 202 247 283
#     4  11  20  29  47  70  88 121 161 200 248 291
#     4  10  21  35  47  65  89 128 174 212 246 275
#     4   8  19  31  48  74  97 126 150 189 243 284
#
# _framework density 17.239391999999999
#
# number of rings (size 3 to 8) (size 9 to 14) (size 15 to 20)
#    0.750    1.500    1.250    2.625    1.750    1.000 
#    0.000    2.500    0.000    0.000    0.000    0.000 
#    0.000   14.000    0.000    0.000    0.000    0.000 
#
# Total GULP energy -89093.145416 kJ/mol
# GULP energy per Si atom -5568.321589 kJ/mol
# Density = 1.720015 g / cm^3
# Si number density = 17.239392 Si / 1000 Ang^3
#
#
#
# Elastic Constant Matrix: (Units=GPa)
#
#
# Indices 1 2 3 4 5 6 
#
# 1 24.3784 4.9935 -11.5176 0.0000 2.4661 0.0000
# 2 4.9935 54.2276 7.5232 0.0000 2.2055 0.0000
# 3 -11.5176 7.5232 70.6808 0.0000 8.2114 0.0000
# 4 0.0000 0.0000 0.0000 22.6519 0.0000 2.8756
# 5 2.4661 2.2055 8.2114 0.0000 14.4353 0.0000
# 6 0.0000 0.0000 0.0000 2.8756 0.0000 15.0204
#
#
#
# Elastic Compliance Matrix: (Units=1/GPa)
#
#
# Indices 1 2 3 4 5 6 
#
# 1 0.048106 -0.005275 0.009917 0.000000 -0.013054 0.000000
# 2 -0.005275 0.019342 -0.002869 0.000000 -0.000422 0.000000
# 3 0.009917 -0.002869 0.017363 0.000000 -0.011133 0.000000
# 4 0.000000 0.000000 0.000000 0.045246 0.000000 -0.008662
# 5 -0.013054 -0.000422 -0.011133 0.000000 0.077902 0.000000
# 6 0.000000 0.000000 0.000000 -0.008662 0.000000 0.068235
#
#
# Mechanical properties :
#
#
# Convention : Reuss Voigt Hill
#
# Bulk Modulus (GPa) = 11.31775 16.80943 14.06359
# Shear Modulus (GPa) = 16.55085 20.30736 18.42911
#
# Velocity S-wave (km/s) = 3.10185 3.43587 3.27312
# Velocity P-wave (km/s) = 4.40544 5.05094 4.73919
#
# Compressibility (1/GPa) = 0.08835679
#
# Stress axis : x y z
#
# Youngs Moduli (GPa) = 20.78739 51.70169 57.59426
#
# Poissons Ratio (x) = 0.27271 -0.57116
# Poissons Ratio (y) = 0.10965 0.16525
# Poissons Ratio (z) = -0.20615 0.14834
#
# Static dielectric constant tensor:
#      x y z
#    x 1.596350 0.000000 -0.007390 
#    y 0.000000 1.595630 0.000000 
#    z -0.007390 0.000000 1.636670 
# 
# From -- ./inp_files/1305.got.cif
#   From: 2010.05.17/outbox.cif.g08.bks.cpg/sg6_1_cif.got.tgz:1305.got - 2010.06.03 19:42:10.
