data_PCOD9130785
_publ_section_title
;
Structure prediction by ZEFSAII (Michael W. Deem and Ramdas Pophale) SiO2 
 PCOD9130785
Probable space group: P M
;
_chemical_formula_sum "Si O2"
_cell_formula_units_Z 16
_cell_length_a 12.619759
_cell_length_b 8.461834
_cell_length_c 10.656904
_cell_angle_alpha 90.000000
_cell_angle_beta 52.067106
_cell_angle_gamma 90.000000
_cell_volume 897.585205
_symmetry_space_group_name_H-M "P M"
_symmetry_group_IT_number 6
_symmetry_cell_setting 'monoclinic'
loop_
_space_group_symop_operation_xyz
x,y,z
x,-y,z
loop_
_atom_site_type_symbol
_atom_site_label
_atom_site_fract_x
_atom_site_fract_y
_atom_site_fract_z
Si Si1 0.550200 0.191347 0.700920
Si Si2 0.126459 0.690199 0.364340
Si Si3 0.413383 0.190847 0.542440
Si Si4 0.395135 0.190216 0.063315
Si Si5 0.565965 0.807142 0.181143
Si Si6 0.137014 0.688799 0.647209
Si Si7 0.824668 0.689514 0.600795
Si Si8 0.844064 0.189260 0.869848
O O1 0.480933 0.244381 0.622631
O O2 0.701782 0.250326 0.607765
O O3 0.552117 0.000000 0.700359
O O4 0.465297 0.245143 0.884339
O O5 0.133762 0.500000 0.356511
O O6 0.242107 0.757668 0.192663
O O7 0.152016 0.742143 0.490370
O O8 0.973295 0.736744 0.445192
O O9 0.497960 0.246374 0.359537
O O10 0.260583 0.245210 0.636050
O O11 0.414959 0.000000 0.540633
O O12 0.478905 0.245558 0.124261
O O13 0.400109 0.000000 0.059728
O O14 0.563854 0.000000 0.182732
O O15 0.720047 0.758796 0.047124
O O16 0.140887 0.500000 0.644884
O O17 0.989820 0.743445 0.797463
O O18 0.821756 0.500000 0.611277
O O19 0.811500 0.757301 0.751294
O O20 0.850711 0.000000 0.866908
#
# Coordination Sequence:
#
# PCOD9130785 Si02
#       8
#     2   2   2   2   2   2   2   2
#     4  10  21  36  54  78 107 137 175 217 260 312
#     4   9  19  33  50  77 106 134 170 215 257 305
#     4  10  20  36  56  77 104 141 176 212 261 313
#     4  10  18  32  53  79 104 130 173 220 256 301
#     4   9  17  31  53  80 104 129 173 220 256 303
#     4  10  20  34  51  78 111 138 173 215 259 312
#     4  10  20  34  52  77 109 139 174 214 261 313
#     4  10  18  32  55  80 107 136 172 219 264 303
#
# _framework density 17.825606000000001
#
# number of rings (size 3 to 8) (size 9 to 14) (size 15 to 20)
#    0.000    2.250    2.500    1.875    0.000    3.500 
#    0.000    2.500    0.000    6.000    0.000    0.000 
#    0.000    0.000    0.000    0.000    0.000    0.000 
#
# Total GULP energy -89265.335535 kJ/mol
# GULP energy per Si atom -5579.083471 kJ/mol
# Density = 1.778503 g / cm^3
# Si number density = 17.825606 Si / 1000 Ang^3
#
#
#
# Elastic Constant Matrix: (Units=GPa)
#
#
# Indices 1 2 3 4 5 6 
#
# 1 174.3607 21.3723 87.3007 0.0000 -8.6097 0.0000
# 2 21.3723 11.0086 16.8362 0.0000 2.5401 0.0000
# 3 87.3007 16.8362 113.4288 0.0000 -7.3294 0.0000
# 4 0.0000 0.0000 0.0000 -59.9258 0.0000 51.1058
# 5 -8.6097 2.5401 -7.3294 0.0000 28.7198 0.0000
# 6 0.0000 0.0000 0.0000 51.1058 0.0000 -21.0834
#
#
#
# Elastic Compliance Matrix: (Units=1/GPa)
#
#
# Indices 1 2 3 4 5 6 
#
# 1 0.010284 -0.011245 -0.006083 0.000000 0.002525 0.000000
# 2 -0.011245 0.136619 -0.012833 0.000000 -0.018729 0.000000
# 3 -0.006083 -0.012833 0.015616 0.000000 0.003297 0.000000
# 4 0.000000 0.000000 0.000000 0.015636 0.000000 0.037902
# 5 0.002525 -0.018729 0.003297 0.000000 0.038074 0.000000
# 6 0.000000 0.000000 0.000000 0.037902 0.000000 0.044443
#
#
# Mechanical properties :
#
#
# Convention : Reuss Voigt Hill
#
# Bulk Modulus (GPa) = 9.78521 61.09073 35.43797
# Shear Modulus (GPa) = 14.08214 1.09470 7.58842
#
# Velocity S-wave (km/s) = 2.81373 0.78451 2.06550
# Velocity P-wave (km/s) = 4.00718 5.93012 5.06082
#
# Compressibility (1/GPa) = 0.10219508
#
# Stress axis : x y z
#
# Youngs Moduli (GPa) = 97.23954 7.31965 64.03867
#
# Poissons Ratio (x) = 0.08231 0.38953
# Poissons Ratio (y) = 1.09349 0.82184
# Poissons Ratio (z) = 0.59148 0.09394
#
# Static dielectric constant tensor:
#      x y z
#    x 1.598170 0.000000 -0.009050 
#    y 0.000000 1.607360 0.000000 
#    z -0.009050 0.000000 1.605470 
# 
# From -- ./inp_files/3651.got.cif
#   From: 2010.05.17/outbox.cif.g08.bks.cpg/sg6_2_cif.got.tgz:3651.got - 2010.06.03 19:42:10.
