data_PCOD9130533
_publ_section_title
;
Structure prediction by ZEFSAII (Michael W. Deem and Ramdas Pophale) SiO2 
 PCOD9130533
Probable space group: C 2
;
_chemical_formula_sum "Si O2"
_cell_formula_units_Z 24
_cell_length_a 19.458253
_cell_length_b 5.616561
_cell_length_c 9.090555
_cell_angle_alpha 90.000000
_cell_angle_beta 77.559824
_cell_angle_gamma 90.000000
_cell_volume 970.167046
_symmetry_space_group_name_H-M "C 2"
_symmetry_group_IT_number 5
_symmetry_cell_setting 'monoclinic'
loop_
_space_group_symop_operation_xyz
x,y,z
-x,y,-z
1/2+x,1/2+y,z
1/2-x,1/2+y,-z
loop_
_atom_site_type_symbol
_atom_site_label
_atom_site_fract_x
_atom_site_fract_y
_atom_site_fract_z
Si Si1 0.256421 0.054260 0.301176
Si Si2 0.438212 0.497866 0.256508
Si Si3 0.000000 0.311271 0.000000
Si Si4 0.357858 0.876379 0.498381
Si Si5 0.627800 0.178924 0.957571
Si Si6 0.873888 0.770735 0.698730
Si Si7 0.000000 0.840708 0.500000
O O1 0.202975 0.258692 0.374083
O O2 0.315816 0.033613 0.397601
O O3 0.204931 0.828053 0.314801
O O4 0.295918 0.091008 0.129544
O O5 0.397262 0.688454 0.375403
O O6 0.466231 0.289202 0.351614
O O7 0.498238 0.642239 0.142807
O O8 0.391728 0.388775 0.147192
O O9 0.068610 0.476728 0.964297
O O10 0.401050 0.038660 0.595110
O O11 0.625528 0.249841 0.128287
O O12 0.929965 0.959196 0.607839
#
# Coordination Sequence:
#
# PCOD9130533 Si02
#       7
#     4   4   2   4   4   4   2
#     4  12  25  48  74 106 147 191 245 309 370 449
#     4  12  27  49  76 110 151 195 252 310 374 449
#     4  12  26  48  78 106 150 200 240 316 380 448
#     4  12  25  47  77 107 142 195 251 304 370 439
#     4  12  29  48  74 110 154 197 245 310 382 447
#     4  12  29  45  75 110 147 196 252 307 374 443
#     4  12  26  50  74 108 150 188 260 312 364 452
#
# _framework density 24.738009000000002
#
# number of rings (size 3 to 8) (size 9 to 14) (size 15 to 20)
#    0.000    0.000    5.000    4.500    7.000    1.333 
#    0.000    0.000    0.000    0.000    0.000    0.000 
#    0.000    0.000    0.000    0.000    0.000    0.000 
#
# Total GULP energy -66964.620339 kJ/mol
# GULP energy per Si atom -5580.385028 kJ/mol
# Density = 2.468170 g / cm^3
# Si number density = 24.738009 Si / 1000 Ang^3
#
#
#
# Elastic Constant Matrix: (Units=GPa)
#
#
# Indices 1 2 3 4 5 6 
#
# 1 47.6988 -1.7974 51.2266 0.0000 -7.4231 0.0000
# 2 -1.7974 69.1725 46.9742 0.0000 0.6022 0.0000
# 3 51.2266 46.9742 230.6677 0.0000 -10.9441 0.0000
# 4 0.0000 0.0000 0.0000 49.4258 0.0000 -11.3984
# 5 -7.4231 0.6022 -10.9441 0.0000 68.7587 0.0000
# 6 0.0000 0.0000 0.0000 -11.3984 0.0000 14.1247
#
#
#
# Elastic Compliance Matrix: (Units=1/GPa)
#
#
# Indices 1 2 3 4 5 6 
#
# 1 0.029826 0.006028 -0.007760 0.000000 0.001932 0.000000
# 2 0.006028 0.018028 -0.005024 0.000000 -0.000307 0.000000
# 3 -0.007760 -0.005024 0.007098 0.000000 0.000336 0.000000
# 4 0.000000 0.000000 0.000000 0.024859 0.000000 0.020061
# 5 0.001932 -0.000307 0.000336 0.000000 0.014808 0.000000
# 6 0.000000 0.000000 0.000000 0.020061 0.000000 0.086987
#
#
# Mechanical properties :
#
#
# Convention : Reuss Voigt Hill
#
# Bulk Modulus (GPa) = 24.13185 60.03843 42.08514
# Shear Modulus (GPa) = 23.93130 43.20420 33.56775
#
# Velocity S-wave (km/s) = 3.11366 4.18361 3.68765
# Velocity P-wave (km/s) = 4.76473 6.90357 5.93135
#
# Compressibility (1/GPa) = 0.04143902
#
# Stress axis : x y z
#
# Youngs Moduli (GPa) = 33.52746 55.46935 140.89159
#
# Poissons Ratio (x) = -0.33435 1.09327
# Poissons Ratio (y) = -0.20209 0.70791
# Poissons Ratio (z) = 0.26016 0.27871
#
# Static dielectric constant tensor:
#      x y z
#    x 2.008940 0.000000 0.003930 
#    y 0.000000 2.152860 0.000000 
#    z 0.003930 0.000000 1.912130 
# 
# From -- ./inp_files/30284.got.cif
#   From: 2010.05.17/outbox.cif.g08.bks.cpg/sg5_16_cif.got.tgz:30284.got - 2010.06.03 18:56:24.
