data_PCOD9130360
_publ_section_title
;
Structure prediction by ZEFSAII (Michael W. Deem and Ramdas Pophale) SiO2 
 PCOD9130360
Probable space group: C 2
;
_chemical_formula_sum "Si O2"
_cell_formula_units_Z 24
_cell_length_a 8.453186
_cell_length_b 23.430697
_cell_length_c 5.810816
_cell_angle_alpha 90.000000
_cell_angle_beta 73.545583
_cell_angle_gamma 90.000000
_cell_volume 1103.778466
_symmetry_space_group_name_H-M "C 2"
_symmetry_group_IT_number 5
_symmetry_cell_setting 'monoclinic'
loop_
_space_group_symop_operation_xyz
x,y,z
-x,y,-z
1/2+x,1/2+y,z
1/2-x,1/2+y,-z
loop_
_atom_site_type_symbol
_atom_site_label
_atom_site_fract_x
_atom_site_fract_y
_atom_site_fract_z
Si Si1 0.835701 0.136350 0.693829
Si Si2 0.165471 0.245010 0.067911
Si Si3 0.590094 0.332383 0.212280
Si Si4 0.844272 0.419302 0.229552
Si Si5 0.814803 0.024768 0.471463
Si Si6 0.500000 0.828902 0.500000
Si Si7 0.500000 0.554753 0.000000
O O1 0.751297 0.190888 0.841157
O O2 0.756999 0.089576 0.554461
O O3 0.000000 0.159809 0.500000
O O4 0.903983 0.096038 0.866937
O O5 0.105720 0.290000 0.284642
O O6 0.283434 0.279047 0.847712
O O7 0.000000 0.226154 0.000000
O O8 0.500000 0.331373 0.500000
O O9 0.688897 0.392206 0.162683
O O10 0.500000 0.327464 0.000000
O O11 0.800225 0.477676 0.373857
O O12 0.886816 0.370818 0.398241
O O13 0.000000 0.425527 0.000000
O O14 0.857815 0.019480 0.186141
O O15 0.000000 0.017518 0.500000
#
# Coordination Sequence:
#
# PCOD9130360 Si02
#       7
#     4   4   4   4   4   2   2
#     4   9  18  34  65  96 129 173 230 287 337 410
#     4  12  22  40  70 103 135 179 244 289 345 428
#     4  12  27  47  68 103 145 190 229 294 370 431
#     4  12  25  45  68  98 135 188 237 292 352 430
#     4   9  21  40  62  98 131 173 235 283 356 404
#     4  12  22  40  68 104 138 176 238 292 358 400
#     4   8  16  36  58  96 122 170 220 284 346 400
#
# _framework density 21.743492
#
# number of rings (size 3 to 8) (size 9 to 14) (size 15 to 20)
#    0.000    1.667    5.000    1.500    0.000    2.667 
#   10.500    0.833    0.000    0.000    0.000    0.000 
#    0.000    0.000    0.000    0.000    0.000    0.000 
#
# Total GULP energy -66951.214941 kJ/mol
# GULP energy per Si atom -5579.267912 kJ/mol
# Density = 2.169400 g / cm^3
# Si number density = 21.743492 Si / 1000 Ang^3
#
#
#
# Elastic Constant Matrix: (Units=GPa)
#
#
# Indices 1 2 3 4 5 6 
#
# 1 39.7031 16.5795 30.3672 0.0000 -3.5195 0.0000
# 2 16.5795 139.4277 59.3008 0.0000 -25.6766 0.0000
# 3 30.3672 59.3008 146.9862 0.0000 -26.3386 0.0000
# 4 0.0000 0.0000 0.0000 34.3647 0.0000 -8.7812
# 5 -3.5195 -25.6766 -26.3386 0.0000 33.7323 0.0000
# 6 0.0000 0.0000 0.0000 -8.7812 0.0000 0.6626
#
#
#
# Elastic Compliance Matrix: (Units=1/GPa)
#
#
# Indices 1 2 3 4 5 6 
#
# 1 0.030268 -0.001497 -0.006148 0.000000 -0.002782 0.000000
# 2 -0.001497 0.009359 -0.002579 0.000000 0.004954 0.000000
# 3 -0.006148 -0.002579 0.010054 0.000000 0.005246 0.000000
# 4 0.000000 0.000000 0.000000 -0.012193 0.000000 -0.161594
# 5 -0.002782 0.004954 0.005246 0.000000 0.037222 0.000000
# 6 0.000000 0.000000 0.000000 -0.161594 0.000000 -0.632389
#
#
# Mechanical properties :
#
#
# Convention : Reuss Voigt Hill
#
# Bulk Modulus (GPa) = 34.20676 59.84577 47.02627
# Shear Modulus (GPa) = -9.47890 28.40986 9.46548
#
# Velocity S-wave (km/s) = -2.09019 3.61860 2.08871
# Velocity P-wave (km/s) = 3.15292 6.71136 5.24325
#
# Compressibility (1/GPa) = 0.02923399
#
# Stress axis : x y z
#
# Youngs Moduli (GPa) = 33.03862 106.84405 99.46303
#
# Poissons Ratio (x) = 0.15990 0.61149
# Poissons Ratio (y) = 0.04945 0.25652
# Poissons Ratio (z) = 0.20312 0.27555
#
# Static dielectric constant tensor:
#      x y z
#    x 1.885740 0.000000 0.047120 
#    y 0.000000 1.778990 0.000000 
#    z 0.047120 0.000000 1.909280 
# 
# From -- ./inp_files/3367.got.cif
#   From: 2010.05.17/outbox.cif.g08.bks.cpg/sg5_2_cif.got.tgz:3367.got - 2010.06.03 18:56:24.
