data_PCOD9130626
_publ_section_title
;
Structure prediction by ZEFSAII (Michael W. Deem and Ramdas Pophale) SiO2 
 PCOD9130626
Probable space group: C 2
;
_chemical_formula_sum "Si O2"
_cell_formula_units_Z 18
_cell_length_a 9.198665
_cell_length_b 19.265304
_cell_length_c 5.399764
_cell_angle_alpha 90.000000
_cell_angle_beta 120.106942
_cell_angle_gamma 90.000000
_cell_volume 827.822196
_symmetry_space_group_name_H-M "C 2"
_symmetry_group_IT_number 5
_symmetry_cell_setting 'monoclinic'
loop_
_space_group_symop_operation_xyz
x,y,z
-x,y,-z
1/2+x,1/2+y,z
1/2-x,1/2+y,-z
loop_
_atom_site_type_symbol
_atom_site_label
_atom_site_fract_x
_atom_site_fract_y
_atom_site_fract_z
Si Si1 0.329072 0.581620 0.464762
Si Si2 0.308241 0.722203 0.237731
Si Si3 0.100828 0.838696 0.329324
Si Si4 0.892472 0.448890 0.657366
Si Si5 0.000000 0.184547 0.000000
O O1 0.500000 0.548235 0.500000
O O2 0.261534 0.640898 0.220217
O O3 0.196273 0.524157 0.417428
O O4 0.397810 0.631079 0.740253
O O5 0.500000 0.731925 0.500000
O O6 0.183448 0.769833 0.279263
O O7 0.352833 0.732616 0.988837
O O8 0.247544 0.891701 0.523553
O O9 0.000000 0.826412 0.500000
O O10 0.000000 0.867692 0.000000
O O11 0.000000 0.441176 0.500000
O O12 0.000000 0.441756 0.000000
#
# Coordination Sequence:
#
# PCOD9130626 Si02
#       5
#     4   4   4   4   2
#     4   9  21  40  71 101 137 180 224 282 348 419
#     4   9  21  41  69 103 136 185 221 287 345 421
#     4  12  28  46  71 101 142 186 236 289 345 412
#     4  12  28  47  71 102 140 186 233 290 346 413
#     4   8  18  38  74 100 142 172 234 272 362 406
#
# _framework density 21.743801000000001
#
# number of rings (size 3 to 8) (size 9 to 14) (size 15 to 20)
#    0.000    2.222    0.000    2.667   14.000    1.778 
#    4.000    0.000    0.000    0.000    0.000    0.000 
#    0.000    0.000    0.000    0.000    0.000    0.000 
#
# Total GULP energy -50153.836911 kJ/mol
# GULP energy per Si atom -5572.648546 kJ/mol
# Density = 2.169431 g / cm^3
# Si number density = 21.743801 Si / 1000 Ang^3
#
#
#
# Elastic Constant Matrix: (Units=GPa)
#
#
# Indices 1 2 3 4 5 6 
#
# 1 198.8939 83.3158 66.6929 0.0000 -30.7091 0.0000
# 2 83.3158 91.6965 26.8285 0.0000 -0.7756 0.0000
# 3 66.6929 26.8285 121.5429 0.0000 -11.1862 0.0000
# 4 0.0000 0.0000 0.0000 18.8710 0.0000 11.6569
# 5 -30.7091 -0.7756 -11.1862 0.0000 36.1742 0.0000
# 6 0.0000 0.0000 0.0000 11.6569 0.0000 31.3495
#
#
#
# Elastic Compliance Matrix: (Units=1/GPa)
#
#
# Indices 1 2 3 4 5 6 
#
# 1 0.011325 -0.009222 -0.003409 0.000000 0.008362 0.000000
# 2 -0.009222 0.019179 0.000148 0.000000 -0.007372 0.000000
# 3 -0.003409 0.000148 0.010086 0.000000 0.000228 0.000000
# 4 0.000000 0.000000 0.000000 0.068792 0.000000 -0.025580
# 5 0.008362 -0.007372 0.000228 0.000000 0.034655 0.000000
# 6 0.000000 0.000000 0.000000 -0.025580 0.000000 0.041410
#
#
# Mechanical properties :
#
#
# Convention : Reuss Voigt Hill
#
# Bulk Modulus (GPa) = 63.99939 85.08973 74.54456
# Shear Modulus (GPa) = 23.18880 32.96534 28.07707
#
# Velocity S-wave (km/s) = 3.26921 3.89791 3.59732
# Velocity P-wave (km/s) = 6.61419 7.71208 7.18414
#
# Compressibility (1/GPa) = 0.01562515
#
# Stress axis : x y z
#
# Youngs Moduli (GPa) = 88.29999 52.14104 99.14312
#
# Poissons Ratio (x) = 0.48083 0.33799
# Poissons Ratio (y) = 0.81429 -0.01471
# Poissons Ratio (z) = 0.30102 -0.00774
#
# Static dielectric constant tensor:
#      x y z
#    x 1.931170 0.000000 -0.179250 
#    y 0.000000 1.768320 0.000000 
#    z -0.179250 0.000000 2.060990 
# 
# From -- ./inp_files/2496.got.cif
#   From: 2010.05.17/outbox.cif.g08.bks.cpg/sg5_2_cif.got.tgz:2496.got - 2010.06.03 18:56:24.
