data_PCOD9130756
_publ_section_title
;
Structure prediction by ZEFSAII (Michael W. Deem and Ramdas Pophale) SiO2 
 PCOD9130756
Probable space group: P M
;
_chemical_formula_sum "Si O2"
_cell_formula_units_Z 16
_cell_length_a 12.007325
_cell_length_b 8.045027
_cell_length_c 7.406829
_cell_angle_alpha 90.000000
_cell_angle_beta 69.615490
_cell_angle_gamma 90.000000
_cell_volume 670.687186
_symmetry_space_group_name_H-M "P M"
_symmetry_group_IT_number 6
_symmetry_cell_setting 'monoclinic'
loop_
_space_group_symop_operation_xyz
x,y,z
x,-y,z
loop_
_atom_site_type_symbol
_atom_site_label
_atom_site_fract_x
_atom_site_fract_y
_atom_site_fract_z
Si Si1 0.463370 0.697591 0.681690
Si Si2 0.473912 0.703418 0.249361
Si Si3 0.968782 0.189338 0.056545
Si Si4 0.729891 0.693046 0.107952
Si Si5 0.712897 0.805874 0.530016
Si Si6 0.962417 0.312843 0.445560
Si Si7 0.220694 0.688590 0.359371
Si Si8 0.226090 0.809109 0.741352
O O1 0.458777 0.500000 0.700721
O O2 0.470440 0.747593 0.464542
O O3 0.588368 0.756807 0.691132
O O4 0.336431 0.770868 0.810169
O O5 0.473098 0.500000 0.239845
O O6 0.603258 0.759941 0.108905
O O7 0.349593 0.760890 0.231829
O O8 0.961145 0.311661 0.229003
O O9 0.854508 0.219612 0.995682
O O10 0.959767 0.000000 0.130998
O O11 0.096464 0.209698 0.897249
O O12 0.739265 0.500000 0.054349
O O13 0.717904 0.710030 0.334307
O O14 0.835207 0.765944 0.565071
O O15 0.710314 0.000000 0.490035
O O16 0.965354 0.500000 0.518347
O O17 0.091107 0.229476 0.408497
O O18 0.212621 0.500000 0.290087
O O19 0.232763 0.686264 0.568991
O O20 0.237583 0.000000 0.671874
#
# Coordination Sequence:
#
# PCOD9130756 Si02
#       8
#     2   2   2   2   2   2   2   2
#     4   9  16  28  46  67  92 120 155 198 237 277
#     4   7  12  24  42  65  89 112 143 189 235 270
#     4  10  20  32  46  68  99 129 158 195 238 286
#     4   9  15  25  44  67  90 119 157 197 236 277
#     4  10  17  26  43  67  95 123 153 194 241 282
#     4  10  19  31  49  72  96 126 164 200 236 281
#     4   9  18  32  50  71  96 125 158 198 241 285
#     4  10  20  32  48  71  97 126 160 197 240 288
#
# _framework density 23.856127999999998
#
# number of rings (size 3 to 8) (size 9 to 14) (size 15 to 20)
#    0.000    2.750    0.000    6.000    0.000    3.000 
#    0.000    0.625    0.000    1.500    0.000    8.750 
#    0.000    0.000    0.000    0.000    0.000    0.000 
#
# Total GULP energy -89157.019181 kJ/mol
# GULP energy per Si atom -5572.313699 kJ/mol
# Density = 2.380183 g / cm^3
# Si number density = 23.856128 Si / 1000 Ang^3
#
#
#
# Elastic Constant Matrix: (Units=GPa)
#
#
# Indices 1 2 3 4 5 6 
#
# 1 177.1908 12.9132 70.2013 0.0000 -79.6170 0.0000
# 2 12.9132 48.8439 17.9185 0.0000 -19.5148 0.0000
# 3 70.2013 17.9185 50.4181 0.0000 -39.3095 0.0000
# 4 0.0000 0.0000 0.0000 14.0297 0.0000 -22.8288
# 5 -79.6170 -19.5148 -39.3095 0.0000 76.1991 0.0000
# 6 0.0000 0.0000 0.0000 -22.8288 0.0000 15.5513
#
#
#
# Elastic Compliance Matrix: (Units=1/GPa)
#
#
# Indices 1 2 3 4 5 6 
#
# 1 0.016550 0.005965 -0.017549 0.000000 0.009767 0.000000
# 2 0.005965 0.026073 -0.012557 0.000000 0.006432 0.000000
# 3 -0.017549 -0.012557 0.053411 0.000000 0.006002 0.000000
# 4 0.000000 0.000000 0.000000 -0.051329 0.000000 -0.075349
# 5 0.009767 0.006432 0.006002 0.000000 0.028072 0.000000
# 6 0.000000 0.000000 0.000000 -0.075349 0.000000 -0.046306
#
#
# Mechanical properties :
#
#
# Convention : Reuss Voigt Hill
#
# Bulk Modulus (GPa) = 20.94153 53.16875 37.05514
# Shear Modulus (GPa) = 55.14457 32.85067 43.99762
#
# Velocity S-wave (km/s) = 4.81307 3.71487 4.29918
# Velocity P-wave (km/s) = 6.29959 6.38247 6.34117
#
# Compressibility (1/GPa) = 0.04775200
#
# Stress axis : x y z
#
# Youngs Moduli (GPa) = 60.42147 38.35444 18.72266
#
# Poissons Ratio (x) = -0.22877 0.32857
# Poissons Ratio (y) = -0.36040 0.23509
# Poissons Ratio (z) = 1.06035 0.48160
#
# Static dielectric constant tensor:
#      x y z
#    x 2.038900 0.000000 -0.052330 
#    y 0.000000 1.849520 0.000000 
#    z -0.052330 0.000000 1.984960 
# 
# From -- ./inp_files/4964.got.cif
#   From: 2010.05.17/outbox.cif.g08.bks.cpg/sg6_3_cif.got.tgz:4964.got - 2010.06.03 19:42:10.
