data_PCOD9130557
_publ_section_title
;
Structure prediction by ZEFSAII (Michael W. Deem and Ramdas Pophale) SiO2 
 PCOD9130557
Probable space group: C 2
;
_chemical_formula_sum "Si O2"
_cell_formula_units_Z 16
_cell_length_a 4.829092
_cell_length_b 12.810163
_cell_length_c 10.401937
_cell_angle_alpha 90.000000
_cell_angle_beta 124.905009
_cell_angle_gamma 90.000000
_cell_volume 527.718292
_symmetry_space_group_name_H-M "C 2"
_symmetry_group_IT_number 5
_symmetry_cell_setting 'monoclinic'
loop_
_space_group_symop_operation_xyz
x,y,z
-x,y,-z
1/2+x,1/2+y,z
1/2-x,1/2+y,-z
loop_
_atom_site_type_symbol
_atom_site_label
_atom_site_fract_x
_atom_site_fract_y
_atom_site_fract_z
Si Si1 0.191997 0.377050 0.814957
Si Si2 0.808006 0.202271 0.685042
Si Si3 0.930091 0.956220 0.330483
Si Si4 0.569904 0.123102 0.169516
O O1 0.299083 0.419815 0.702879
O O2 0.221554 0.244387 0.786412
O O3 0.978483 0.488887 0.813071
O O4 0.500000 0.380368 0.000000
O O5 0.500000 0.198953 0.500000
O O6 0.778450 0.334934 0.713589
O O7 0.700921 0.159507 0.797121
O O8 0.000000 0.963254 0.500000
O O9 0.978480 0.090435 0.313071
O O10 0.500000 0.116066 0.000000
#
# Coordination Sequence:
#
# PCOD9130557 Si02
#       4
#     4   4   4   4
#     4  12  26  47  72 105 146 193 241 299 364 434
#     4  12  26  47  72 105 146 193 241 299 364 434
#     4  12  26  47  74 107 144 191 244 301 363 434
#     4  12  26  47  74 107 144 191 244 301 363 434
#
# _framework density 30.319208
#
# number of rings (size 3 to 8) (size 9 to 14) (size 15 to 20)
#    0.000    0.000    0.000   10.500    0.000    4.000 
#    0.000    0.000    0.000    0.000    0.000    0.000 
#    0.000    0.000    0.000    0.000    0.000    0.000 
#
# Total GULP energy -44839.326225 kJ/mol
# GULP energy per Si atom -5604.915778 kJ/mol
# Density = 3.025020 g / cm^3
# Si number density = 30.319208 Si / 1000 Ang^3
#
#
#
# Elastic Constant Matrix: (Units=GPa)
#
#
# Indices 1 2 3 4 5 6 
#
# 1 295.5098 114.1904 145.4354 0.0001 -18.9918 0.0001
# 2 114.1904 407.0781 131.2970 0.0000 -0.8481 0.0000
# 3 145.4354 131.2970 231.9637 0.0001 -16.5815 0.0001
# 4 0.0001 0.0000 0.0001 81.0787 0.0001 -4.7525
# 5 -18.9918 -0.8481 -16.5815 0.0001 72.9961 0.0001
# 6 0.0001 0.0000 0.0001 -4.7525 0.0001 110.5201
#
#
#
# Elastic Compliance Matrix: (Units=1/GPa)
#
#
# Indices 1 2 3 4 5 6 
#
# 1 0.004999 -0.000496 -0.002807 0.000000 0.000657 0.000000
# 2 -0.000496 0.003064 -0.001454 0.000000 -0.000424 0.000000
# 3 -0.002807 -0.001454 0.006953 0.000000 0.000832 0.000000
# 4 0.000000 0.000000 0.000000 0.012365 0.000000 0.000532
# 5 0.000657 -0.000424 0.000832 0.000000 0.014055 0.000000
# 6 0.000000 0.000000 0.000000 0.000532 0.000000 0.009071
#
#
# Mechanical properties :
#
#
# Convention : Reuss Voigt Hill
#
# Bulk Modulus (GPa) = 181.69547 190.71079 186.20313
# Shear Modulus (GPa) = 80.83748 89.16090 84.99919
#
# Velocity S-wave (km/s) = 5.16914 5.42874 5.30053
# Velocity P-wave (km/s) = 9.78183 10.11595 9.95030
#
# Compressibility (1/GPa) = 0.00550371
#
# Stress axis : x y z
#
# Youngs Moduli (GPa) = 200.03533 326.42401 143.82239
#
# Poissons Ratio (x) = 0.16180 0.40368
# Poissons Ratio (y) = 0.09915 0.20905
# Poissons Ratio (z) = 0.56145 0.47447
#
# Static dielectric constant tensor:
#      x y z
#    x 2.131290 0.000000 0.153660 
#    y 0.000000 2.773610 0.000000 
#    z 0.153660 0.000000 2.118610 
# 
# From -- ./inp_files/33182.got.cif
#   From: 2010.05.17/outbox.cif.g08.bks.cpg/sg5_17_cif.got.tgz:33182.got - 2010.06.03 18:56:24.
