data_PCOD9130401
_publ_section_title
;
Structure prediction by ZEFSAII (Michael W. Deem and Ramdas Pophale) SiO2 
 PCOD9130401
Probable space group: C 2
;
_chemical_formula_sum "Si O2"
_cell_formula_units_Z 32
_cell_length_a 14.647482
_cell_length_b 17.235262
_cell_length_c 11.299285
_cell_angle_alpha 90.000000
_cell_angle_beta 150.581368
_cell_angle_gamma 90.000000
_cell_volume 1401.130938
_symmetry_space_group_name_H-M "C 2"
_symmetry_group_IT_number 5
_symmetry_cell_setting 'monoclinic'
loop_
_space_group_symop_operation_xyz
x,y,z
-x,y,-z
1/2+x,1/2+y,z
1/2-x,1/2+y,-z
loop_
_atom_site_type_symbol
_atom_site_label
_atom_site_fract_x
_atom_site_fract_y
_atom_site_fract_z
Si Si1 0.616037 0.558850 0.020187
Si Si2 0.222825 0.730293 0.758840
Si Si3 0.607857 0.014944 0.851032
Si Si4 0.115989 0.795878 0.020178
Si Si5 0.777160 0.124446 0.241147
Si Si6 0.608014 0.839895 0.851272
Si Si7 0.257713 0.268443 0.479050
Si Si8 0.242007 0.086183 0.520736
O O1 0.462520 0.558702 0.743239
O O2 0.500000 0.526849 0.000000
O O3 0.679423 0.646514 0.123281
O O4 0.797655 0.519724 0.170823
O O5 0.280777 0.773739 0.703696
O O6 0.000000 0.719815 0.500000
O O7 0.287229 0.779578 0.944133
O O8 0.394948 0.042155 0.616158
O O9 0.624324 0.927428 0.914339
O O10 0.712576 0.075308 0.055540
O O11 0.962332 0.795791 0.743165
O O12 0.179580 0.708268 0.123682
O O13 0.297416 0.835070 0.170463
O O14 0.000000 0.827978 0.000000
O O15 0.719235 0.080895 0.296244
O O16 0.000000 0.134852 0.500000
O O17 0.395137 0.812622 0.616390
O O18 0.249642 0.177320 0.499674
#
# Coordination Sequence:
#
# PCOD9130401 Si02
#       8
#     4   4   4   4   4   4   4   4
#     4  12  25  44  74 101 138 184 239 287 335 409
#     4  12  23  43  77 106 136 179 235 289 343 408
#     4  12  28  46  68 105 145 182 228 287 352 413
#     4  12  25  44  74 101 138 184 239 287 335 409
#     4  12  23  43  77 106 136 179 235 289 343 408
#     4  12  28  46  68 105 145 182 228 287 352 413
#     4  12  23  45  73 104 135 181 235 288 341 405
#     4  12  23  45  73 104 135 181 235 288 341 405
#
# _framework density 22.838694
#
# number of rings (size 3 to 8) (size 9 to 14) (size 15 to 20)
#    0.000    0.000    7.500    3.000    0.000    4.000 
#    0.000    1.250    0.000    0.000    0.000    0.000 
#    0.000    0.000    0.000    0.000    0.000    0.000 
#
# Total GULP energy -89581.251461 kJ/mol
# GULP energy per Si atom -5598.828216 kJ/mol
# Density = 2.278671 g / cm^3
# Si number density = 22.838694 Si / 1000 Ang^3
#
#
#
# Elastic Constant Matrix: (Units=GPa)
#
#
# Indices 1 2 3 4 5 6 
#
# 1 150.7260 17.7558 19.8673 0.0000 30.0613 0.0000
# 2 17.7558 56.1733 7.1390 0.0000 10.8429 0.0000
# 3 19.8673 7.1390 93.5629 0.0000 28.6318 0.0000
# 4 0.0000 0.0000 0.0000 6.3477 0.0000 2.7696
# 5 30.0613 10.8429 28.6318 0.0000 48.2253 0.0000
# 6 0.0000 0.0000 0.0000 2.7696 0.0000 -8.3653
#
#
#
# Elastic Compliance Matrix: (Units=1/GPa)
#
#
# Indices 1 2 3 4 5 6 
#
# 1 0.007711 -0.001576 -0.000189 0.000000 -0.004340 0.000000
# 2 -0.001576 0.018934 -0.000132 0.000000 -0.003197 0.000000
# 3 -0.000189 -0.000132 0.013067 0.000000 -0.007611 0.000000
# 4 0.000000 0.000000 0.000000 0.137653 0.000000 0.045574
# 5 -0.004340 -0.003197 -0.007611 0.000000 0.028679 0.000000
# 6 0.000000 0.000000 0.000000 0.045574 0.000000 -0.104453
#
#
# Mechanical properties :
#
#
# Convention : Reuss Voigt Hill
#
# Bulk Modulus (GPa) = 27.84048 43.33184 35.58616
# Shear Modulus (GPa) = 42.60531 26.28820 34.44675
#
# Velocity S-wave (km/s) = 4.32382 3.39638 3.88785
# Velocity P-wave (km/s) = 6.09456 5.86470 5.98073
#
# Compressibility (1/GPa) = 0.03591892
#
# Stress axis : x y z
#
# Youngs Moduli (GPa) = 129.69076 52.81546 76.52761
#
# Poissons Ratio (x) = 0.08321 0.01446
# Poissons Ratio (y) = 0.20433 0.01009
# Poissons Ratio (z) = 0.02451 0.00697
#
# Static dielectric constant tensor:
#      x y z
#    x 1.904350 0.000000 -0.008990 
#    y 0.000000 1.776840 0.000000 
#    z -0.008990 0.000000 1.833710 
# 
# From -- ./inp_files/43375.got.cif
#   From: 2010.05.17/outbox.cif.g08.bks.cpg/sg5_22_cif.got.tgz:43375.got - 2010.06.03 18:56:24.
