data_PCOD9130488
_publ_section_title
;
Structure prediction by ZEFSAII (Michael W. Deem and Ramdas Pophale) SiO2 
 PCOD9130488
Probable space group: C 2
;
_chemical_formula_sum "Si O2"
_cell_formula_units_Z 18
_cell_length_a 17.481434
_cell_length_b 5.262500
_cell_length_c 9.407166
_cell_angle_alpha 90.000000
_cell_angle_beta 60.318159
_cell_angle_gamma 90.000000
_cell_volume 751.868750
_symmetry_space_group_name_H-M "C 2"
_symmetry_group_IT_number 5
_symmetry_cell_setting 'monoclinic'
loop_
_space_group_symop_operation_xyz
x,y,z
-x,y,-z
1/2+x,1/2+y,z
1/2-x,1/2+y,-z
loop_
_atom_site_type_symbol
_atom_site_label
_atom_site_fract_x
_atom_site_fract_y
_atom_site_fract_z
Si Si1 0.075652 0.631730 0.762800
Si Si2 0.073102 0.340344 0.217398
Si Si3 0.135277 0.141587 0.869465
Si Si4 0.839511 0.628982 0.617006
Si Si5 0.500000 0.505911 0.500000
O O1 0.088126 0.384232 0.846215
O O2 0.141342 0.600014 0.568091
O O3 0.976142 0.593283 0.795266
O O4 0.097822 0.884228 0.832084
O O5 0.134922 0.408958 0.293870
O O6 0.996841 0.176177 0.362187
O O7 0.119374 0.178952 0.052269
O O8 0.237719 0.174517 0.738378
O O9 0.911325 0.843937 0.588096
#
# Coordination Sequence:
#
# PCOD9130488 Si02
#       5
#     4   4   4   4   2
#     4  12  26  54  74 117 157 212 250 328 402 474
#     4  12  28  49  80 115 154 216 265 322 390 480
#     4  12  32  47  82 117 161 197 269 331 395 452
#     4  12  27  50  80 112 158 209 269 317 393 476
#     4  12  24  48  82 110 156 210 266 318 390 470
#
# _framework density 23.940346999999999
#
# number of rings (size 3 to 8) (size 9 to 14) (size 15 to 20)
#    0.000    0.000    4.444    3.333    9.333    3.556 
#    0.000    0.000    0.000    0.000    0.000    0.000 
#    0.000    0.000    0.000    0.000    0.000    0.000 
#
# Total GULP energy -50369.635704 kJ/mol
# GULP energy per Si atom -5596.626189 kJ/mol
# Density = 2.388586 g / cm^3
# Si number density = 23.940347 Si / 1000 Ang^3
#
#
#
# Elastic Constant Matrix: (Units=GPa)
#
#
# Indices 1 2 3 4 5 6 
#
# 1 82.7858 39.4438 47.9184 0.0000 -15.2561 0.0000
# 2 39.4438 148.4702 60.0002 0.0000 15.0940 0.0000
# 3 47.9184 60.0002 235.6575 0.0000 8.1457 0.0000
# 4 0.0000 0.0000 0.0000 33.6785 0.0000 -1.7468
# 5 -15.2561 15.0940 8.1457 0.0000 47.7808 0.0000
# 6 0.0000 0.0000 0.0000 -1.7468 0.0000 -7.1388
#
#
#
# Elastic Compliance Matrix: (Units=1/GPa)
#
#
# Indices 1 2 3 4 5 6 
#
# 1 0.016898 -0.004156 -0.002625 0.000000 0.007156 0.000000
# 2 -0.004156 0.008737 -0.001245 0.000000 -0.003874 0.000000
# 3 -0.002625 -0.001245 0.005140 0.000000 -0.001321 0.000000
# 4 0.000000 0.000000 0.000000 0.029320 0.000000 -0.007174
# 5 0.007156 -0.003874 -0.001321 0.000000 0.024663 0.000000
# 6 0.000000 0.000000 0.000000 -0.007174 0.000000 -0.138324
#
#
# Mechanical properties :
#
#
# Convention : Reuss Voigt Hill
#
# Bulk Modulus (GPa) = 67.92812 84.62649 76.27731
# Shear Modulus (GPa) = -153.34296 36.16751 -58.58773
#
# Velocity S-wave (km/s) = -8.01194 3.89103 -4.95232
# Velocity P-wave (km/s) = 7.55994 7.45738 0.87756
#
# Compressibility (1/GPa) = 0.01472144
#
# Stress axis : x y z
#
# Youngs Moduli (GPa) = 59.18017 114.46087 194.55176
#
# Poissons Ratio (x) = 0.47567 0.51074
# Poissons Ratio (y) = 0.24594 0.24231
# Poissons Ratio (z) = 0.15536 0.14256
#
# Static dielectric constant tensor:
#      x y z
#    x 1.954550 0.000000 0.066550 
#    y 0.000000 1.969140 0.000000 
#    z 0.066550 0.000000 1.951380 
# 
# From -- ./inp_files/25919.got.cif
#   From: 2010.05.17/outbox.cif.g08.bks.cpg/sg5_13_cif.got.tgz:25919.got - 2010.06.03 18:56:24.
