data_PCOD9130529
_publ_section_title
;
Structure prediction by ZEFSAII (Michael W. Deem and Ramdas Pophale) SiO2 
 PCOD9130529
Probable space group: C 2
;
_chemical_formula_sum "Si O2"
_cell_formula_units_Z 20
_cell_length_a 28.026354
_cell_length_b 4.855397
_cell_length_c 10.903683
_cell_angle_alpha 90.000000
_cell_angle_beta 151.643581
_cell_angle_gamma 90.000000
_cell_volume 704.720677
_symmetry_space_group_name_H-M "C 2"
_symmetry_group_IT_number 5
_symmetry_cell_setting 'monoclinic'
loop_
_space_group_symop_operation_xyz
x,y,z
-x,y,-z
1/2+x,1/2+y,z
1/2-x,1/2+y,-z
loop_
_atom_site_type_symbol
_atom_site_label
_atom_site_fract_x
_atom_site_fract_y
_atom_site_fract_z
Si Si1 0.432224 0.532730 0.467194
Si Si2 0.898357 0.887897 0.811872
Si Si3 0.274193 0.691621 0.743369
Si Si4 0.039457 0.513893 0.839210
Si Si5 0.758819 0.518704 0.067066
O O1 0.500000 0.591493 0.500000
O O2 0.465922 0.759063 0.650656
O O3 0.328481 0.748139 0.189405
O O4 0.330650 0.299140 0.202878
O O5 0.828593 0.816477 0.539001
O O6 0.828665 0.043634 0.753084
O O7 0.935958 0.616011 0.968290
O O8 0.000000 0.033962 0.000000
O O9 0.255201 0.508853 0.819281
O O10 0.351102 0.923898 0.963063
O O11 0.995185 0.773074 0.670042
#
# Coordination Sequence:
#
# PCOD9130529 Si02
#       5
#     4   4   4   4   4
#     4  12  25  46  79 112 157 213 271 330 415 483
#     4  12  29  53  86 122 163 226 279 352 425 492
#     4  12  28  54  84 122 174 210 290 351 412 504
#     4  12  25  48  79 115 160 211 270 346 403 490
#     4  12  30  50  81 121 169 221 273 344 419 505
#
# _framework density 28.380034999999999
#
# number of rings (size 3 to 8) (size 9 to 14) (size 15 to 20)
#    0.000    0.000    6.000    1.800   11.200    0.800 
#    0.000    0.000    0.000    0.000    0.000    0.000 
#    0.000    0.000    0.000    0.000    0.000    0.000 
#
# Total GULP energy -56041.514988 kJ/mol
# GULP energy per Si atom -5604.151499 kJ/mol
# Density = 2.831544 g / cm^3
# Si number density = 28.380035 Si / 1000 Ang^3
#
#
#
# Elastic Constant Matrix: (Units=GPa)
#
#
# Indices 1 2 3 4 5 6 
#
# 1 136.9701 55.5914 47.2684 0.0005 14.0339 0.0001
# 2 55.5914 242.6202 65.6836 0.0015 1.6263 0.0022
# 3 47.2684 65.6836 298.2125 0.0001 12.0804 0.0001
# 4 0.0005 0.0015 0.0001 51.5583 0.0000 -3.0089
# 5 14.0339 1.6263 12.0804 0.0000 53.8431 0.0002
# 6 0.0001 0.0022 0.0001 -3.0089 0.0002 54.1081
#
#
#
# Elastic Compliance Matrix: (Units=1/GPa)
#
#
# Indices 1 2 3 4 5 6 
#
# 1 0.008497 -0.001692 -0.000895 0.000000 -0.001963 0.000000
# 2 -0.001692 0.004720 -0.000791 0.000000 0.000476 0.000000
# 3 -0.000895 -0.000791 0.003692 0.000000 -0.000571 0.000000
# 4 0.000000 0.000000 0.000000 0.019459 0.000000 0.001082
# 5 -0.001963 0.000476 -0.000571 0.000000 0.019198 0.000000
# 6 0.000000 0.000000 0.000000 0.001082 0.000000 0.018542
#
#
# Mechanical properties :
#
#
# Convention : Reuss Voigt Hill
#
# Bulk Modulus (GPa) = 98.46753 112.76552 105.61652
# Shear Modulus (GPa) = 59.34873 65.85252 62.60063
#
# Velocity S-wave (km/s) = 4.57794 4.82226 4.70169
# Velocity P-wave (km/s) = 7.91927 8.41582 8.17131
#
# Compressibility (1/GPa) = 0.01015563
#
# Stress axis : x y z
#
# Youngs Moduli (GPa) = 117.68408 211.85711 270.82186
#
# Poissons Ratio (x) = 0.35838 0.24232
# Poissons Ratio (y) = 0.19907 0.21417
# Poissons Ratio (z) = 0.10530 0.16754
#
# Static dielectric constant tensor:
#      x y z
#    x 2.188200 0.000000 0.053910 
#    y 0.000000 2.197290 0.000000 
#    z 0.053910 0.000000 2.221740 
# 
# From -- ./inp_files/37879.got.cif
#   From: 2010.05.17/outbox.cif.g08.bks.cpg/sg5_19_cif.got.tgz:37879.got - 2010.06.03 18:56:24.
