data_PCOD9130012
_publ_section_title
;
Structure prediction by ZEFSAII (Michael W. Deem and Ramdas Pophale) SiO2 
 PCOD9130012
Probable space group: C 2
;
_chemical_formula_sum "Si O2"
_cell_formula_units_Z 28
_cell_length_a 26.633729
_cell_length_b 5.116742
_cell_length_c 8.702605
_cell_angle_alpha 90.000000
_cell_angle_beta 59.017452
_cell_angle_gamma 90.000000
_cell_volume 1016.763201
_symmetry_space_group_name_H-M "C 2"
_symmetry_group_IT_number 5
_symmetry_cell_setting 'monoclinic'
loop_
_space_group_symop_operation_xyz
x,y,z
-x,y,-z
1/2+x,1/2+y,z
1/2-x,1/2+y,-z
loop_
_atom_site_type_symbol
_atom_site_label
_atom_site_fract_x
_atom_site_fract_y
_atom_site_fract_z
Si Si1 0.875443 0.319380 0.750566
Si Si2 0.776212 0.575464 0.531468
Si Si3 0.723668 0.203157 0.121482
Si Si4 0.014263 0.899100 0.742037
Si Si5 0.120970 0.231212 0.602911
Si Si6 0.900438 0.123232 0.028636
Si Si7 0.000000 0.525364 0.500000
Si Si8 0.000000 0.505464 0.000000
O O1 0.842715 0.598466 0.795017
O O2 0.859727 0.182230 0.609092
O O3 0.862526 0.208838 0.941728
O O4 0.945924 0.352978 0.641708
O O5 0.746004 0.293601 0.551318
O O6 0.763337 0.687922 0.719078
O O7 0.845005 0.501267 0.420157
O O8 0.740044 0.479391 0.025371
O O9 0.027279 0.730489 0.574502
O O10 0.051994 0.162729 0.690917
O O11 0.035636 0.706325 0.839740
O O12 0.944858 0.911913 0.884146
O O13 0.131584 0.090619 0.755094
O O14 0.950248 0.337054 0.995295
#
# Coordination Sequence:
#
# PCOD9130012 Si02
#       8
#     4   4   4   4   4   4   2   2
#     4  11  26  45  73 108 145 196 241 310 382 450
#     4  11  27  50  78 114 148 202 264 326 399 457
#     4  11  27  52  81 112 157 204 266 330 390 468
#     4  12  23  41  66 102 141 190 233 297 363 452
#     4  11  24  45  70 101 147 191 239 309 377 450
#     4  12  23  43  66 101 144 181 239 290 366 441
#     4  12  24  42  72 108 148 192 246 304 376 466
#     4  12  20  40  62  96 142 176 240 280 354 434
#
# _framework density 27.538367000000001
#
# number of rings (size 3 to 8) (size 9 to 14) (size 15 to 20)
#    0.000    0.571    4.286    3.429    4.000    6.857 
#    0.000    0.000    0.000    0.000    0.000    0.000 
#    0.000    0.000    0.000    0.000    0.000    0.000 
#
# Total GULP energy -78167.477933 kJ/mol
# GULP energy per Si atom -5583.391281 kJ/mol
# Density = 2.747569 g / cm^3
# Si number density = 27.538367 Si / 1000 Ang^3
#
#
#
# Elastic Constant Matrix: (Units=GPa)
#
#
# Indices 1 2 3 4 5 6 
#
# 1 125.0821 33.0696 54.7100 0.0000 8.8523 0.0000
# 2 33.0696 76.0450 22.4937 0.0000 1.1946 0.0000
# 3 54.7100 22.4937 144.5898 0.0000 19.1645 0.0000
# 4 0.0000 0.0000 0.0000 42.8488 0.0000 -1.6816
# 5 8.8523 1.1946 19.1645 0.0000 64.8285 0.0000
# 6 0.0000 0.0000 0.0000 -1.6816 0.0000 55.2580
#
#
#
# Elastic Compliance Matrix: (Units=1/GPa)
#
#
# Indices 1 2 3 4 5 6 
#
# 1 0.010418 -0.003536 -0.003343 0.000000 -0.000369 0.000000
# 2 -0.003536 0.014994 -0.001064 0.000000 0.000521 0.000000
# 3 -0.003343 -0.001064 0.008621 0.000000 -0.002073 0.000000
# 4 0.000000 0.000000 0.000000 0.023366 0.000000 0.000711
# 5 -0.000369 0.000521 -0.002073 0.000000 0.016079 0.000000
# 6 0.000000 0.000000 0.000000 0.000711 0.000000 0.018119
#
#
# Mechanical properties :
#
#
# Convention : Reuss Voigt Hill
#
# Bulk Modulus (GPa) = 55.10183 62.91816 59.00999
# Shear Modulus (GPa) = 44.04089 48.28330 46.16210
#
# Velocity S-wave (km/s) = 4.00341 4.19180 4.09869
# Velocity P-wave (km/s) = 6.43601 6.80627 6.62373
#
# Compressibility (1/GPa) = 0.01814822
#
# Stress axis : x y z
#
# Youngs Moduli (GPa) = 95.98917 66.69246 115.99299
#
# Poissons Ratio (x) = 0.23581 0.38776
# Poissons Ratio (y) = 0.33940 0.12340
# Poissons Ratio (z) = 0.32088 0.07095
#
# Static dielectric constant tensor:
#      x y z
#    x 2.118790 0.000000 -0.074780 
#    y 0.000000 2.095980 0.000000 
#    z -0.074780 0.000000 2.099140 
# 
# From -- ./inp_files/32255.got.cif
#   From: 2010.05.17/outbox.cif.g08.bks.cpg/sg5_17_cif.got.tgz:32255.got - 2010.06.03 18:56:24.
