data_PCOD9130173
_publ_section_title
;
Structure prediction by ZEFSAII (Michael W. Deem and Ramdas Pophale) SiO2 
 PCOD9130173
Probable space group: C 2
;
_chemical_formula_sum "Si O2"
_cell_formula_units_Z 16
_cell_length_a 31.849721
_cell_length_b 4.560950
_cell_length_c 14.492798
_cell_angle_alpha 90.000000
_cell_angle_beta 15.644073
_cell_angle_gamma 90.000000
_cell_volume 567.715455
_symmetry_space_group_name_H-M "C 2"
_symmetry_group_IT_number 5
_symmetry_cell_setting 'monoclinic'
loop_
_space_group_symop_operation_xyz
x,y,z
-x,y,-z
1/2+x,1/2+y,z
1/2-x,1/2+y,-z
loop_
_atom_site_type_symbol
_atom_site_label
_atom_site_fract_x
_atom_site_fract_y
_atom_site_fract_z
Si Si1 0.775086 0.214670 0.883474
Si Si2 0.304051 0.514787 0.446670
Si Si3 0.590648 0.853173 0.128642
Si Si4 0.129352 0.543331 0.565349
O O1 0.752430 0.047008 0.028144
O O2 0.736093 0.672825 0.783693
O O3 0.948585 0.182658 0.477779
O O4 0.653891 0.093407 0.066121
O O5 0.185013 0.259868 0.659721
O O6 0.079803 0.783909 0.747319
O O7 0.300631 0.754562 0.535493
O O8 0.511343 0.977036 0.204170
#
# Coordination Sequence:
#
# PCOD9130173 Si02
#       4
#     4   4   4   4
#     4  12  30  52  78 112 154 202 254 316 382 452
#     4   9  21  46  75 113 154 200 250 309 377 450
#     4  12  29  50  79 114 152 202 256 314 379 450
#     4  11  25  46  77 111 154 202 254 313 375 450
#
# _framework density 28.183129999999998
#
# number of rings (size 3 to 8) (size 9 to 14) (size 15 to 20)
#    0.000    1.000    0.000    3.750    0.000   24.000 
#    0.000   18.750    0.000    0.000    0.000    0.000 
#    0.000    0.000    0.000    0.000    0.000    0.000 
#
# Total GULP energy -44778.193418 kJ/mol
# GULP energy per Si atom -5597.274177 kJ/mol
# Density = 2.811898 g / cm^3
# Si number density = 28.183130 Si / 1000 Ang^3
#
#
#
# Elastic Constant Matrix: (Units=GPa)
#
#
# Indices 1 2 3 4 5 6 
#
# 1 173.2088 57.7802 49.4082 0.0000 -15.0061 0.0000
# 2 57.7802 160.1528 40.1065 0.0000 -0.8586 0.0000
# 3 49.4082 40.1065 117.7799 0.0000 -5.1696 0.0000
# 4 0.0000 0.0000 0.0000 38.0304 0.0000 2.4134
# 5 -15.0061 -0.8586 -5.1696 0.0000 48.9872 0.0000
# 6 0.0000 0.0000 0.0000 2.4134 0.0000 59.8838
#
#
#
# Elastic Compliance Matrix: (Units=1/GPa)
#
#
# Indices 1 2 3 4 5 6 
#
# 1 0.007272 -0.002045 -0.002268 0.000000 0.001952 0.000000
# 2 -0.002045 0.007402 -0.001692 0.000000 -0.000675 0.000000
# 3 -0.002268 -0.001692 0.010033 0.000000 0.000334 0.000000
# 4 0.000000 0.000000 0.000000 0.026362 0.000000 -0.001062
# 5 0.001952 -0.000675 0.000334 0.000000 0.021035 0.000000
# 6 0.000000 0.000000 0.000000 -0.001062 0.000000 0.016742
#
#
# Mechanical properties :
#
#
# Convention : Reuss Voigt Hill
#
# Bulk Modulus (GPa) = 78.76946 82.85904 80.81425
# Shear Modulus (GPa) = 47.57874 49.63671 48.60772
#
# Velocity S-wave (km/s) = 4.11323 4.20124 4.15747
# Velocity P-wave (km/s) = 7.11112 7.27997 7.19604
#
# Compressibility (1/GPa) = 0.01269528
#
# Stress axis : x y z
#
# Youngs Moduli (GPa) = 137.51802 135.09839 99.67164
#
# Poissons Ratio (x) = 0.27627 0.22610
# Poissons Ratio (y) = 0.28122 0.16868
# Poissons Ratio (z) = 0.31195 0.22863
#
# Static dielectric constant tensor:
#      x y z
#    x 2.231770 0.000000 0.106140 
#    y 0.000000 2.138950 0.000000 
#    z 0.106140 0.000000 2.267950 
# 
# From -- ./inp_files/46864.got.cif
#   From: 2010.05.17/outbox.cif.g08.bks.cpg/sg5_24_cif.got.tgz:46864.got - 2010.06.03 18:56:24.
