data_PCOD9130346
_publ_section_title
;
Structure prediction by ZEFSAII (Michael W. Deem and Ramdas Pophale) SiO2 
 PCOD9130346
Probable space group: C 2
;
_chemical_formula_sum "Si O2"
_cell_formula_units_Z 24
_cell_length_a 23.143759
_cell_length_b 5.782397
_cell_length_c 9.882063
_cell_angle_alpha 90.000000
_cell_angle_beta 59.786741
_cell_angle_gamma 90.000000
_cell_volume 1142.832979
_symmetry_space_group_name_H-M "C 2"
_symmetry_group_IT_number 5
_symmetry_cell_setting 'monoclinic'
loop_
_space_group_symop_operation_xyz
x,y,z
-x,y,-z
1/2+x,1/2+y,z
1/2-x,1/2+y,-z
loop_
_atom_site_type_symbol
_atom_site_label
_atom_site_fract_x
_atom_site_fract_y
_atom_site_fract_z
Si Si1 0.584290 0.896210 0.714396
Si Si2 0.749126 0.723605 0.081028
Si Si3 0.548707 0.049453 0.266897
Si Si4 0.880780 0.236915 0.589802
Si Si5 0.500000 0.547322 0.000000
Si Si6 0.113837 0.692941 0.936335
Si Si7 0.000000 0.936109 0.500000
O O1 0.637965 0.824708 0.538008
O O2 0.544369 0.701547 0.846226
O O3 0.526828 0.002836 0.687400
O O4 0.611846 0.072885 0.793160
O O5 0.684912 0.670367 0.250154
O O6 0.813761 0.768767 0.099359
O O7 0.759922 0.476638 0.985449
O O8 0.544092 0.300740 0.337835
O O9 0.580173 0.899997 0.348994
O O10 0.590344 0.018096 0.081827
O O11 0.941021 0.060206 0.488373
O O12 0.555362 0.384993 0.005740
#
# Coordination Sequence:
#
# PCOD9130346 Si02
#       7
#     4   4   4   4   2   4   2
#     4  12  24  43  68 109 149 179 245 314 377 440
#     4  12  30  53  78 109 152 206 259 310 375 458
#     4  12  21  43  69 104 142 182 246 306 368 438
#     4  12  26  44  72 109 145 193 249 314 367 448
#     4  12  24  42  76 104 146 188 250 304 388 444
#     4  12  26  45  73 103 144 200 242 308 377 454
#     4  12  22  38  76 106 140 184 256 308 374 428
#
# _framework density 21.000446
#
# number of rings (size 3 to 8) (size 9 to 14) (size 15 to 20)
#    0.000    0.000    8.333    2.000    4.667    0.000 
#    3.000    0.000    0.000    0.000    0.000    0.000 
#    0.000    0.000    0.000    0.000    0.000    0.000 
#
# Total GULP energy -66848.163451 kJ/mol
# GULP energy per Si atom -5570.680288 kJ/mol
# Density = 2.095265 g / cm^3
# Si number density = 21.000446 Si / 1000 Ang^3
#
#
#
# Elastic Constant Matrix: (Units=GPa)
#
#
# Indices 1 2 3 4 5 6 
#
# 1 117.3904 12.2651 -7.9479 0.0000 3.9971 0.0000
# 2 12.2651 42.4362 -14.5441 0.0000 15.1993 0.0000
# 3 -7.9479 -14.5441 68.4531 0.0000 16.3299 0.0000
# 4 0.0000 0.0000 0.0000 30.2857 0.0000 2.0300
# 5 3.9971 15.1993 16.3299 0.0000 39.1507 0.0000
# 6 0.0000 0.0000 0.0000 2.0300 0.0000 9.3342
#
#
#
# Elastic Compliance Matrix: (Units=1/GPa)
#
#
# Indices 1 2 3 4 5 6 
#
# 1 0.008803 -0.002228 0.000618 0.000000 -0.000292 0.000000
# 2 -0.002228 0.034508 0.011343 0.000000 -0.017901 0.000000
# 3 0.000618 0.011343 0.020162 0.000000 -0.012877 0.000000
# 4 0.000000 0.000000 0.000000 0.033507 0.000000 -0.007287
# 5 -0.000292 -0.017901 -0.012877 0.000000 0.037892 0.000000
# 6 0.000000 0.000000 0.000000 -0.007287 0.000000 0.108717
#
#
# Mechanical properties :
#
#
# Convention : Reuss Voigt Hill
#
# Bulk Modulus (GPa) = 12.05675 23.09176 17.57426
# Shear Modulus (GPa) = 19.85942 31.65458 25.75700
#
# Velocity S-wave (km/s) = 3.07851 3.88665 3.50594
# Velocity P-wave (km/s) = 4.28835 5.58221 4.97750
#
# Compressibility (1/GPa) = 0.08294109
#
# Stress axis : x y z
#
# Youngs Moduli (GPa) = 113.59562 28.97891 49.59758
#
# Poissons Ratio (x) = 0.06456 -0.03067
# Poissons Ratio (y) = 0.25308 -0.56261
# Poissons Ratio (z) = -0.07024 -0.32872
#
# Static dielectric constant tensor:
#      x y z
#    x 1.731450 0.000000 0.001490 
#    y 0.000000 1.935140 0.000000 
#    z 0.001490 0.000000 1.843280 
# 
# From -- ./inp_files/30258.got.cif
#   From: 2010.05.17/outbox.cif.g08.bks.cpg/sg5_16_cif.got.tgz:30258.got - 2010.06.03 18:56:24.
