data_PCOD9130963
_publ_section_title
;
Structure prediction by ZEFSAII (Michael W. Deem and Ramdas Pophale) SiO2 
 PCOD9130963
Probable space group: P M
;
_chemical_formula_sum "Si O2"
_cell_formula_units_Z 16
_cell_length_a 12.243613
_cell_length_b 7.558813
_cell_length_c 10.061939
_cell_angle_alpha 90.000000
_cell_angle_beta 127.475147
_cell_angle_gamma 90.000000
_cell_volume 739.019701
_symmetry_space_group_name_H-M "P M"
_symmetry_group_IT_number 6
_symmetry_cell_setting 'monoclinic'
loop_
_space_group_symop_operation_xyz
x,y,z
x,-y,z
loop_
_atom_site_type_symbol
_atom_site_label
_atom_site_fract_x
_atom_site_fract_y
_atom_site_fract_z
Si Si1 0.861400 0.786034 0.349960
Si Si2 0.673172 0.785035 0.451046
Si Si3 0.427291 0.796672 0.636463
Si Si4 0.713694 0.216485 0.973722
Si Si5 0.147902 0.786033 0.922963
Si Si6 0.178932 0.296805 0.636462
Si Si7 0.376430 0.216485 0.299202
Si Si8 0.858587 0.785035 0.821873
O O1 0.779642 0.722857 0.419361
O O2 0.022221 0.738705 0.473925
O O3 0.858960 0.000000 0.348955
O O4 0.773142 0.724146 0.158510
O O5 0.515952 0.730750 0.326647
O O6 0.730236 0.733213 0.636460
O O7 0.674246 0.000000 0.445910
O O8 0.562495 0.722845 0.812465
O O9 0.295848 0.798219 0.636462
O O10 0.386491 0.722845 0.460460
O O11 0.466919 0.000000 0.636462
O O12 0.825768 0.269252 0.946274
O O13 0.708867 0.000000 0.976438
O O14 0.184763 0.738700 0.799004
O O15 0.996742 0.722857 0.853557
O O16 0.146468 0.000000 0.923966
O O17 0.251089 0.724145 0.114414
O O18 0.209603 0.500000 0.636459
O O19 0.368885 0.000000 0.296485
O O20 0.864797 0.000000 0.827010
#
# Coordination Sequence:
#
# PCOD9130963 Si02
#       8
#     2   2   2   2   2   2   2   2
#     4  10  20  35  59  87 113 146 187 234 284 337
#     4   9  15  28  51  82 115 139 171 226 283 330
#     4  10  20  37  60  88 118 149 185 232 285 342
#     4   9  18  31  56  92 119 140 177 232 289 339
#     4  10  20  35  59  87 113 146 187 234 284 337
#     4  12  26  41  54  76 116 161 197 236 279 332
#     4   9  18  31  56  92 119 140 177 232 289 339
#     4   9  15  28  51  82 115 139 171 226 283 330
#
# _framework density 21.650300999999999
#
# number of rings (size 3 to 8) (size 9 to 14) (size 15 to 20)
#    0.000    2.250    2.500    1.125    3.500    0.000 
#    0.000    1.250    0.000    3.000    0.000    0.000 
#    0.000    0.000    0.000    0.000    0.000    0.000 
#
# Total GULP energy -89287.462996 kJ/mol
# GULP energy per Si atom -5580.466437 kJ/mol
# Density = 2.160102 g / cm^3
# Si number density = 21.650301 Si / 1000 Ang^3
#
#
#
# Elastic Constant Matrix: (Units=GPa)
#
#
# Indices 1 2 3 4 5 6 
#
# 1 100.5806 -13.0475 38.9517 0.0000 0.4998 0.0000
# 2 -13.0475 52.6017 0.5735 0.0000 1.3200 0.0000
# 3 38.9517 0.5735 140.7272 0.0000 3.3883 0.0000
# 4 0.0000 0.0000 0.0000 -22.2862 0.0000 0.3440
# 5 0.4998 1.3200 3.3883 0.0000 33.6790 0.0000
# 6 0.0000 0.0000 0.0000 0.3440 0.0000 -25.8479
#
#
#
# Elastic Compliance Matrix: (Units=1/GPa)
#
#
# Indices 1 2 3 4 5 6 
#
# 1 0.011563 0.002902 -0.003213 0.000000 0.000038 0.000000
# 2 0.002902 0.019758 -0.000866 0.000000 -0.000730 0.000000
# 3 -0.003213 -0.000866 0.008016 0.000000 -0.000725 0.000000
# 4 0.000000 0.000000 0.000000 -0.044880 0.000000 -0.000597
# 5 0.000038 -0.000730 -0.000725 0.000000 0.029793 0.000000
# 6 0.000000 0.000000 0.000000 -0.000597 0.000000 -0.038696
#
#
# Mechanical properties :
#
#
# Convention : Reuss Voigt Hill
#
# Bulk Modulus (GPa) = 27.03933 38.54054 32.78994
# Shear Modulus (GPa) = 21082.14229 14.93777 10548.54003
#
# Velocity S-wave (km/s) = 98.78620 2.62955 69.87714
# Velocity P-wave (km/s) = 114.12333 5.20187 80.78117
#
# Compressibility (1/GPa) = 0.03698316
#
# Stress axis : x y z
#
# Youngs Moduli (GPa) = 86.48314 50.61128 124.74557
#
# Poissons Ratio (x) = -0.14688 0.40084
# Poissons Ratio (y) = -0.25099 0.10806
# Poissons Ratio (z) = 0.27789 0.04384
#
# Static dielectric constant tensor:
#      x y z
#    x 1.746590 0.000000 0.002210 
#    y 0.000000 1.849750 0.000000 
#    z 0.002210 0.000000 1.769360 
# 
# From -- ./inp_files/3749.got.cif
#   From: 2010.05.17/outbox.cif.g08.bks.cpg/sg6_2_cif.got.tgz:3749.got - 2010.06.03 19:42:10.
