data_PCOD9130484
_publ_section_title
;
Structure prediction by ZEFSAII (Michael W. Deem and Ramdas Pophale) SiO2 
 PCOD9130484
Probable space group: C 2
;
_chemical_formula_sum "Si O2"
_cell_formula_units_Z 22
_cell_length_a 12.541871
_cell_length_b 13.769752
_cell_length_c 11.264154
_cell_angle_alpha 90.000000
_cell_angle_beta 154.963357
_cell_angle_gamma 90.000000
_cell_volume 823.247508
_symmetry_space_group_name_H-M "C 2"
_symmetry_group_IT_number 5
_symmetry_cell_setting 'monoclinic'
loop_
_space_group_symop_operation_xyz
x,y,z
-x,y,-z
1/2+x,1/2+y,z
1/2-x,1/2+y,-z
loop_
_atom_site_type_symbol
_atom_site_label
_atom_site_fract_x
_atom_site_fract_y
_atom_site_fract_z
Si Si1 0.176737 0.547000 0.276378
Si Si2 0.000000 0.872946 0.500000
Si Si3 0.608583 0.740288 0.477209
Si Si4 0.489794 0.259206 0.306654
Si Si5 0.675978 0.919300 0.925864
Si Si6 0.742800 0.577890 0.165826
O O1 0.289501 0.457561 0.322109
O O2 0.383672 0.623316 0.531475
O O3 0.016979 0.497314 0.218535
O O4 0.000000 0.600584 0.000000
O O5 0.170242 0.777518 0.599831
O O6 0.500000 0.752187 0.500000
O O7 0.449299 0.821488 0.248782
O O8 0.884339 0.761283 0.695204
O O9 0.318455 0.166674 0.155134
O O10 0.362378 0.365902 0.207338
O O11 0.818643 0.979632 0.969777
O O12 0.000000 0.557790 0.500000
O O13 0.500000 0.597387 0.000000
#
# Coordination Sequence:
#
# PCOD9130484 Si02
#       6
#     4   2   4   4   4   4
#     4  12  26  48  75 112 150 205 261 333 396 478
#     4  12  24  48  78 114 152 202 278 328 400 470
#     4  12  29  48  74 112 161 204 265 327 413 471
#     4  12  28  47  82 114 156 211 275 336 399 487
#     4  12  29  49  77 113 159 211 267 332 410 478
#     4  12  31  54  82 118 167 215 271 335 408 486
#
# _framework density 26.723434000000001
#
# number of rings (size 3 to 8) (size 9 to 14) (size 15 to 20)
#    0.000    0.000    7.273    0.545   12.727    1.455 
#    0.000    0.000    0.000    0.000    0.000    0.000 
#    0.000    0.000    0.000    0.000    0.000    0.000 
#
# Total GULP energy -61334.360884 kJ/mol
# GULP energy per Si atom -5575.850989 kJ/mol
# Density = 2.666261 g / cm^3
# Si number density = 26.723434 Si / 1000 Ang^3
#
#
#
# Elastic Constant Matrix: (Units=GPa)
#
#
# Indices 1 2 3 4 5 6 
#
# 1 194.8641 94.5786 56.5191 0.0004 30.6907 0.0000
# 2 94.5786 201.5181 68.7645 0.0001 -11.2418 0.0000
# 3 56.5191 68.7645 104.9602 0.0013 0.4648 0.0007
# 4 0.0004 0.0001 0.0013 47.8919 0.0006 1.2357
# 5 30.6907 -11.2418 0.4648 0.0006 33.3387 0.0001
# 6 0.0000 0.0000 0.0007 1.2357 0.0001 62.4949
#
#
#
# Elastic Compliance Matrix: (Units=1/GPa)
#
#
# Indices 1 2 3 4 5 6 
#
# 1 0.009414 -0.004204 -0.002270 0.000000 -0.010053 0.000000
# 2 -0.004204 0.008436 -0.003293 0.000000 0.006761 0.000000
# 3 -0.002270 -0.003293 0.012904 0.000000 0.000800 0.000000
# 4 0.000000 0.000000 0.000000 0.020891 0.000000 -0.000413
# 5 -0.010053 0.006761 0.000800 0.000000 0.041518 0.000000
# 6 0.000000 0.000000 0.000000 -0.000413 0.000000 0.016009
#
#
# Mechanical properties :
#
#
# Convention : Reuss Voigt Hill
#
# Bulk Modulus (GPa) = 89.13563 104.56300 96.84931
# Shear Modulus (GPa) = 37.75055 47.51044 42.63050
#
# Velocity S-wave (km/s) = 3.76259 4.22104 3.99839
# Velocity P-wave (km/s) = 7.23210 7.93530 7.59185
#
# Compressibility (1/GPa) = 0.01121886
#
# Stress axis : x y z
#
# Youngs Moduli (GPa) = 106.22265 118.53259 77.49624
#
# Poissons Ratio (x) = 0.49836 0.17594
# Poissons Ratio (y) = 0.44661 0.25520
# Poissons Ratio (z) = 0.24116 0.39034
#
# Static dielectric constant tensor:
#      x y z
#    x 2.276000 0.000000 -0.080000 
#    y 0.000000 2.037850 0.000000 
#    z -0.080000 0.000000 2.446850 
# 
# From -- ./inp_files/40024.got.cif
#   From: 2010.05.17/outbox.cif.g08.bks.cpg/sg5_21_cif.got.tgz:40024.got - 2010.06.03 18:56:24.
