data_PCOD9130122
_publ_section_title
;
Structure prediction by ZEFSAII (Michael W. Deem and Ramdas Pophale) SiO2 
 PCOD9130122
Probable space group: C 2
;
_chemical_formula_sum "Si O2"
_cell_formula_units_Z 20
_cell_length_a 13.597087
_cell_length_b 4.967412
_cell_length_c 11.298221
_cell_angle_alpha 90.000000
_cell_angle_beta 83.080766
_cell_angle_gamma 90.000000
_cell_volume 757.550456
_symmetry_space_group_name_H-M "C 2"
_symmetry_group_IT_number 5
_symmetry_cell_setting 'monoclinic'
loop_
_space_group_symop_operation_xyz
x,y,z
-x,y,-z
1/2+x,1/2+y,z
1/2-x,1/2+y,-z
loop_
_atom_site_type_symbol
_atom_site_label
_atom_site_fract_x
_atom_site_fract_y
_atom_site_fract_z
Si Si1 0.857873 0.276270 0.119758
Si Si2 0.039358 0.042616 0.244827
Si Si3 0.851227 0.519682 0.869376
Si Si4 0.285918 0.090148 0.352391
Si Si5 0.877515 0.087473 0.448538
O O1 0.765348 0.080515 0.107324
O O2 0.814796 0.489469 0.219871
O O3 0.950587 0.131363 0.167728
O O4 0.883076 0.426852 0.995124
O O5 0.119207 0.279734 0.222177
O O6 0.088621 0.774564 0.187684
O O7 0.985673 0.025827 0.380390
O O8 0.178082 0.022117 0.420686
O O9 0.358337 0.902879 0.424381
O O10 0.310727 0.400329 0.370427
#
# Coordination Sequence:
#
# PCOD9130122 Si02
#       5
#     4   4   4   4   4
#     4  11  26  45  66  94 134 172 211 267 318 376
#     4  11  25  44  68  95 130 170 212 268 322 373
#     4  12  27  42  66  99 129 171 220 257 315 391
#     4   9  19  36  65  92 124 169 209 258 322 371
#     4   9  18  37  64  96 122 162 217 258 313 387
#
# _framework density 26.400880999999998
#
# number of rings (size 3 to 8) (size 9 to 14) (size 15 to 20)
#    0.000    1.600    0.000    4.200    0.000   19.200 
#    0.000    1.000    0.000   12.000    0.000    0.000 
#    0.000    0.000    0.000    0.000    0.000    0.000 
#
# Total GULP energy -56050.632083 kJ/mol
# GULP energy per Si atom -5605.063208 kJ/mol
# Density = 2.634079 g / cm^3
# Si number density = 26.400881 Si / 1000 Ang^3
#
#
#
# Elastic Constant Matrix: (Units=GPa)
#
#
# Indices 1 2 3 4 5 6 
#
# 1 122.3350 32.6060 11.7427 0.0000 -37.7930 0.0000
# 2 32.6060 136.8097 55.1178 0.0000 -18.1075 0.0000
# 3 11.7427 55.1178 134.0083 0.0000 -46.8951 0.0000
# 4 0.0000 0.0000 0.0000 40.6987 0.0000 -11.0320
# 5 -37.7930 -18.1075 -46.8951 0.0000 43.8716 0.0000
# 6 0.0000 0.0000 0.0000 -11.0320 0.0000 51.3618
#
#
#
# Elastic Compliance Matrix: (Units=1/GPa)
#
#
# Indices 1 2 3 4 5 6 
#
# 1 0.013792 -0.003533 0.006218 0.000000 0.017070 0.000000
# 2 -0.003533 0.009670 -0.005330 0.000000 -0.004749 0.000000
# 3 0.006218 -0.005330 0.016318 0.000000 0.020599 0.000000
# 4 0.000000 0.000000 0.000000 0.026090 0.000000 0.005604
# 5 0.017070 -0.004749 0.020599 0.000000 0.057557 0.000000
# 6 0.000000 0.000000 0.000000 0.005604 0.000000 0.020673
#
#
# Mechanical properties :
#
#
# Convention : Reuss Voigt Hill
#
# Bulk Modulus (GPa) = 28.99303 65.78733 47.39018
# Shear Modulus (GPa) = 31.07766 46.76554 38.92160
#
# Velocity S-wave (km/s) = 3.43468 4.21332 3.84377
# Velocity P-wave (km/s) = 5.17059 6.97439 6.13910
#
# Compressibility (1/GPa) = 0.03449105
#
# Stress axis : x y z
#
# Youngs Moduli (GPa) = 72.50354 103.41177 61.28192
#
# Poissons Ratio (x) = 0.36535 -0.38105
# Poissons Ratio (y) = 0.25615 0.32661
# Poissons Ratio (z) = -0.45082 0.55115
#
# Static dielectric constant tensor:
#      x y z
#    x 2.182920 0.000000 0.118180 
#    y 0.000000 1.988370 0.000000 
#    z 0.118180 0.000000 2.083230 
# 
# From -- ./inp_files/41106.got.cif
#   From: 2010.05.17/outbox.cif.g08.bks.cpg/sg5_21_cif.got.tgz:41106.got - 2010.06.03 18:56:24.
