data_PCOD9130362
_publ_section_title
;
Structure prediction by ZEFSAII (Michael W. Deem and Ramdas Pophale) SiO2 
 PCOD9130362
Probable space group: C 2
;
_chemical_formula_sum "Si O2"
_cell_formula_units_Z 24
_cell_length_a 14.613014
_cell_length_b 14.320160
_cell_length_c 12.097565
_cell_angle_alpha 90.000000
_cell_angle_beta 30.401001
_cell_angle_gamma 90.000000
_cell_volume 1281.085343
_symmetry_space_group_name_H-M "C 2"
_symmetry_group_IT_number 5
_symmetry_cell_setting 'monoclinic'
loop_
_space_group_symop_operation_xyz
x,y,z
-x,y,-z
1/2+x,1/2+y,z
1/2-x,1/2+y,-z
loop_
_atom_site_type_symbol
_atom_site_label
_atom_site_fract_x
_atom_site_fract_y
_atom_site_fract_z
Si Si1 0.849346 0.961570 0.750890
Si Si2 0.000000 0.913691 0.000000
Si Si3 0.648085 0.643355 0.106020
Si Si4 0.000000 0.390461 0.000000
Si Si5 0.562780 0.303807 0.160151
Si Si6 0.213428 0.571113 0.275164
Si Si7 0.690751 0.734668 0.652700
O O1 0.652290 0.950258 0.902369
O O2 0.873482 0.881484 0.817929
O O3 0.000000 0.947295 0.500000
O O4 0.872047 0.061458 0.784583
O O5 0.964905 0.851940 0.928947
O O6 0.170973 0.982505 0.805961
O O7 0.457440 0.690235 0.273966
O O8 0.789127 0.722110 0.996709
O O9 0.723821 0.598144 0.913457
O O10 0.101105 0.322820 0.807677
O O11 0.372826 0.263451 0.401259
O O12 0.260469 0.658331 0.304795
O O13 0.000000 0.553628 0.500000
#
# Coordination Sequence:
#
# PCOD9130362 Si02
#       7
#     4   2   4   2   4   4   4
#     4  12  26  45  71 104 139 177 228 285 339 402
#     4  12  27  47  66 104 144 174 224 292 338 396
#     4  12  25  43  70 103 139 174 227 287 336 399
#     4  12  23  39  74 100 132 176 232 276 334 402
#     4  12  26  45  72 102 138 181 228 280 341 405
#     4  12  22  41  72 101 130 182 235 274 329 405
#     4  12  22  41  73 100 129 183 236 273 327 408
#
# _framework density 18.734116
#
# number of rings (size 3 to 8) (size 9 to 14) (size 15 to 20)
#    0.000    0.000   10.000    0.000    0.000    6.000 
#    0.000    0.000    0.000    0.000    0.000    0.000 
#    0.000    0.000    0.000    0.000    0.000    0.000 
#
# Total GULP energy -67168.981475 kJ/mol
# GULP energy per Si atom -5597.415123 kJ/mol
# Density = 1.869148 g / cm^3
# Si number density = 18.734116 Si / 1000 Ang^3
#
#
#
# Elastic Constant Matrix: (Units=GPa)
#
#
# Indices 1 2 3 4 5 6 
#
# 1 113.2183 24.6957 28.3388 -0.0005 -15.6379 -0.0003
# 2 24.6957 47.8783 -8.4575 -0.0013 1.4499 0.0002
# 3 28.3388 -8.4575 46.3794 -0.0026 -16.7372 0.0022
# 4 -0.0005 -0.0013 -0.0026 12.9843 0.0009 -4.1681
# 5 -15.6379 1.4499 -16.7372 0.0009 39.9298 -0.0005
# 6 -0.0003 0.0002 0.0022 -4.1681 -0.0005 44.2999
#
#
#
# Elastic Compliance Matrix: (Units=1/GPa)
#
#
# Indices 1 2 3 4 5 6 
#
# 1 0.013142 -0.008411 -0.008950 -0.000002 0.001701 0.000000
# 2 -0.008411 0.027000 0.010039 0.000004 -0.000067 0.000000
# 3 -0.008950 0.010039 0.032359 0.000006 0.009694 -0.000001
# 4 -0.000002 0.000004 0.000006 0.079415 0.000000 0.007472
# 5 0.001701 -0.000067 0.009694 0.000000 0.029776 0.000000
# 6 0.000000 0.000000 -0.000001 0.007472 0.000000 0.023276
#
#
# Mechanical properties :
#
#
# Convention : Reuss Voigt Hill
#
# Bulk Modulus (GPa) = 17.28411 32.95890 25.12151
# Shear Modulus (GPa) = 20.92926 30.30275 25.61601
#
# Velocity S-wave (km/s) = 3.34604 4.02620 3.70177
# Velocity P-wave (km/s) = 4.91671 6.26457 5.63111
#
# Compressibility (1/GPa) = 0.05785659
#
# Stress axis : x y z
#
# Youngs Moduli (GPa) = 76.08921 37.03659 30.90308
#
# Poissons Ratio (x) = 0.31153 0.27660
# Poissons Ratio (y) = 0.64002 -0.31024
# Poissons Ratio (z) = 0.68103 -0.37182
#
# Static dielectric constant tensor:
#      x y z
#    x 1.626300 0.000000 -0.002460 
#    y 0.000000 1.624260 0.000000 
#    z -0.002460 0.000000 1.620600 
# 
# From -- ./inp_files/42883.got.cif
#   From: 2010.05.17/outbox.cif.g08.bks.cpg/sg5_22_cif.got.tgz:42883.got - 2010.06.03 18:56:24.
