data_PCOD9130420
_publ_section_title
;
Structure prediction by ZEFSAII (Michael W. Deem and Ramdas Pophale) SiO2 
 PCOD9130420
Probable space group: C 2
;
_chemical_formula_sum "Si O2"
_cell_formula_units_Z 22
_cell_length_a 7.598741
_cell_length_b 11.916588
_cell_length_c 12.657155
_cell_angle_alpha 90.000000
_cell_angle_beta 72.487474
_cell_angle_gamma 90.000000
_cell_volume 1092.997627
_symmetry_space_group_name_H-M "C 2"
_symmetry_group_IT_number 5
_symmetry_cell_setting 'monoclinic'
loop_
_space_group_symop_operation_xyz
x,y,z
-x,y,-z
1/2+x,1/2+y,z
1/2-x,1/2+y,-z
loop_
_atom_site_type_symbol
_atom_site_label
_atom_site_fract_x
_atom_site_fract_y
_atom_site_fract_z
Si Si1 0.206468 0.046690 0.306087
Si Si2 0.000000 0.199348 0.500000
Si Si3 0.979905 0.706497 0.125750
Si Si4 0.513192 0.851699 0.694134
Si Si5 0.105341 0.191472 0.874377
Si Si6 0.608615 0.449211 0.782824
O O1 0.320122 0.130375 0.207402
O O2 0.149139 0.120455 0.416924
O O3 0.683174 0.914530 0.287440
O O4 0.027747 0.984355 0.288221
O O5 0.934244 0.278169 0.416842
O O6 0.174845 0.698566 0.150455
O O7 0.941999 0.838396 0.143107
O O8 0.000000 0.673000 0.000000
O O9 0.527946 0.767682 0.792561
O O10 0.656798 0.948963 0.687929
O O11 0.083401 0.059609 0.857610
O O12 0.000000 0.225656 0.000000
#
# Coordination Sequence:
#
# PCOD9130420 Si02
#       6
#     4   2   4   4   4   4
#     4  12  27  48  72 107 145 193 246 302 364 427
#     4  12  28  48  74 106 144 190 252 302 352 432
#     4  12  25  45  74 110 150 190 241 300 365 439
#     4  12  27  48  72 107 145 193 246 302 364 427
#     4  12  25  45  74 110 150 190 241 300 365 439
#     4  12  23  48  72 108 146 192 243 292 370 426
#
# _framework density 20.128132000000001
#
# number of rings (size 3 to 8) (size 9 to 14) (size 15 to 20)
#    0.000    0.000    7.273    2.727    2.545    0.727 
#    0.000    1.818    0.000    0.000    0.000    0.000 
#    0.000    0.000    0.000    0.000    0.000    0.000 
#
# Total GULP energy -61416.866622 kJ/mol
# GULP energy per Si atom -5583.351511 kJ/mol
# Density = 2.008232 g / cm^3
# Si number density = 20.128132 Si / 1000 Ang^3
#
#
#
# Elastic Constant Matrix: (Units=GPa)
#
#
# Indices 1 2 3 4 5 6 
#
# 1 154.9389 57.1732 53.4272 0.0000 3.6148 0.0000
# 2 57.1732 170.0785 84.4325 0.0000 1.1534 0.0000
# 3 53.4272 84.4325 172.3662 0.0000 -0.1446 0.0000
# 4 0.0000 0.0000 0.0000 9.5225 0.0000 0.4724
# 5 3.6148 1.1534 -0.1446 0.0000 6.2867 0.0000
# 6 0.0000 0.0000 0.0000 0.4724 0.0000 33.9625
#
#
#
# Elastic Compliance Matrix: (Units=1/GPa)
#
#
# Indices 1 2 3 4 5 6 
#
# 1 0.007745 -0.001826 -0.001510 0.000000 -0.004153 0.000000
# 2 -0.001826 0.008214 -0.003458 0.000000 -0.000537 0.000000
# 3 -0.001510 -0.003458 0.007965 0.000000 0.001686 0.000000
# 4 0.000000 0.000000 0.000000 0.105087 0.000000 -0.001462
# 5 -0.004153 -0.000537 0.001686 0.000000 0.161591 0.000000
# 6 0.000000 0.000000 0.000000 -0.001462 0.000000 0.029465
#
#
# Mechanical properties :
#
#
# Convention : Reuss Voigt Hill
#
# Bulk Modulus (GPa) = 96.74397 98.60549 97.67473
# Shear Modulus (GPa) = 14.83241 30.11105 22.47173
#
# Velocity S-wave (km/s) = 2.71753 3.87197 3.34493
# Velocity P-wave (km/s) = 7.61676 8.31173 7.97182
#
# Compressibility (1/GPa) = 0.01033656
#
# Stress axis : x y z
#
# Youngs Moduli (GPa) = 129.10738 121.74761 125.55183
#
# Poissons Ratio (x) = 0.22231 0.18956
# Poissons Ratio (y) = 0.23575 0.43414
# Poissons Ratio (z) = 0.19493 0.42099
#
# Static dielectric constant tensor:
#      x y z
#    x 1.761820 0.000000 0.001630 
#    y 0.000000 1.686180 0.000000 
#    z 0.001630 0.000000 1.691560 
# 
# From -- ./inp_files/35177.got.cif
#   From: 2010.05.17/outbox.cif.g08.bks.cpg/sg5_18_cif.got.tgz:35177.got - 2010.06.03 18:56:24.
