data_PCOD9130264
_publ_section_title
;
Structure prediction by ZEFSAII (Michael W. Deem and Ramdas Pophale) SiO2 
 PCOD9130264
Probable space group: C 2
;
_chemical_formula_sum "Si O2"
_cell_formula_units_Z 18
_cell_length_a 18.129182
_cell_length_b 7.449318
_cell_length_c 6.599606
_cell_angle_alpha 90.000000
_cell_angle_beta 56.863417
_cell_angle_gamma 90.000000
_cell_volume 746.328555
_symmetry_space_group_name_H-M "C 2"
_symmetry_group_IT_number 5
_symmetry_cell_setting 'monoclinic'
loop_
_space_group_symop_operation_xyz
x,y,z
-x,y,-z
1/2+x,1/2+y,z
1/2-x,1/2+y,-z
loop_
_atom_site_type_symbol
_atom_site_label
_atom_site_fract_x
_atom_site_fract_y
_atom_site_fract_z
Si Si1 0.597407 0.325480 0.394528
Si Si2 0.238657 0.786725 0.835987
Si Si3 0.332663 0.047743 0.391798
Si Si4 0.500000 0.807321 0.000000
Si Si5 0.578948 0.710714 0.281754
O O1 0.500000 0.252557 0.500000
O O2 0.637346 0.221525 0.523888
O O3 0.586287 0.540353 0.421810
O O4 0.656175 0.309005 0.105541
O O5 0.217279 0.612122 0.734354
O O6 0.323683 0.785614 0.853747
O O7 0.265438 0.938977 0.635122
O O8 0.419670 0.930829 0.206204
O O9 0.547139 0.687842 0.100862
O O10 0.500000 0.825985 0.500000
#
# Coordination Sequence:
#
# PCOD9130264 Si02
#       5
#     4   4   4   2   4
#     4  11  27  47  75 106 155 197 253 310 377 443
#     4  12  27  45  78 110 156 196 256 309 380 449
#     4  12  28  46  77 114 153 200 253 311 382 449
#     4  12  28  48  82 112 154 200 254 310 384 448
#     4  11  26  48  75 110 154 199 252 309 379 448
#
# _framework density 24.118067
#
# number of rings (size 3 to 8) (size 9 to 14) (size 15 to 20)
#    0.000    0.444    2.222    4.000   15.556    3.556 
#    0.000    0.000    0.000    0.000    0.000    0.000 
#    0.000    0.000    0.000    0.000    0.000    0.000 
#
# Total GULP energy -50313.191586 kJ/mol
# GULP energy per Si atom -5590.354621 kJ/mol
# Density = 2.406317 g / cm^3
# Si number density = 24.118067 Si / 1000 Ang^3
#
#
#
# Elastic Constant Matrix: (Units=GPa)
#
#
# Indices 1 2 3 4 5 6 
#
# 1 175.8598 29.6731 70.7476 0.0000 -8.4301 0.0000
# 2 29.6731 80.2987 27.8319 0.0000 1.8194 0.0000
# 3 70.7476 27.8319 145.9383 0.0000 -33.3793 0.0000
# 4 0.0000 0.0000 0.0000 21.4923 0.0000 -16.9178
# 5 -8.4301 1.8194 -33.3793 0.0000 50.9634 0.0000
# 6 0.0000 0.0000 0.0000 -16.9178 0.0000 14.3621
#
#
#
# Elastic Compliance Matrix: (Units=1/GPa)
#
#
# Indices 1 2 3 4 5 6 
#
# 1 0.007287 -0.001460 -0.003489 0.000000 -0.001028 0.000000
# 2 -0.001460 0.013908 -0.002486 0.000000 -0.002366 0.000000
# 3 -0.003489 -0.002486 0.010475 0.000000 0.006373 0.000000
# 4 0.000000 0.000000 0.000000 0.639402 0.000000 0.753184
# 5 -0.001028 -0.002366 0.006373 0.000000 0.023710 0.000000
# 6 0.000000 0.000000 0.000000 0.753184 0.000000 0.956842
#
#
# Mechanical properties :
#
#
# Convention : Reuss Voigt Hill
#
# Bulk Modulus (GPa) = 59.52261 73.17798 66.35029
# Shear Modulus (GPa) = 2.99026 35.61984 19.30505
#
# Velocity S-wave (km/s) = 1.11469 3.84721 2.83227
# Velocity P-wave (km/s) = 5.13712 7.08111 6.18595
#
# Compressibility (1/GPa) = 0.01680034
#
# Stress axis : x y z
#
# Youngs Moduli (GPa) = 137.22737 71.89960 95.46231
#
# Poissons Ratio (x) = 0.10499 0.33309
# Poissons Ratio (y) = 0.20038 0.23730
# Poissons Ratio (z) = 0.47882 0.17873
#
# Static dielectric constant tensor:
#      x y z
#    x 1.982470 0.000000 -0.086940 
#    y 0.000000 2.004320 0.000000 
#    z -0.086940 0.000000 1.970320 
# 
# From -- ./inp_files/7878.got.cif
#   From: 2010.05.17/outbox.cif.g08.bks.cpg/sg5_4_cif.got.tgz:7878.got - 2010.06.03 18:56:24.
