data_PCOD9130441
_publ_section_title
;
Structure prediction by ZEFSAII (Michael W. Deem and Ramdas Pophale) SiO2 
 PCOD9130441
Probable space group: C 2
;
_chemical_formula_sum "Si O2"
_cell_formula_units_Z 24
_cell_length_a 8.287301
_cell_length_b 5.308779
_cell_length_c 23.673209
_cell_angle_alpha 90.000000
_cell_angle_beta 104.022144
_cell_angle_gamma 90.000000
_cell_volume 1010.478614
_symmetry_space_group_name_H-M "C 2"
_symmetry_group_IT_number 5
_symmetry_cell_setting 'monoclinic'
loop_
_space_group_symop_operation_xyz
x,y,z
-x,y,-z
1/2+x,1/2+y,z
1/2-x,1/2+y,-z
loop_
_atom_site_type_symbol
_atom_site_label
_atom_site_fract_x
_atom_site_fract_y
_atom_site_fract_z
Si Si1 0.938967 0.634360 0.559116
Si Si2 0.371931 0.634360 0.399825
Si Si3 0.236726 0.134362 0.232099
Si Si4 0.892325 0.634361 0.724069
Si Si5 0.627782 0.134366 0.062748
Si Si6 0.317821 0.134367 0.106451
O O1 0.015077 0.381243 0.592227
O O2 0.000000 0.634359 0.500000
O O3 0.741316 0.634360 0.552962
O O4 0.015076 0.887479 0.592227
O O5 0.237582 0.634360 0.338287
O O6 0.139898 0.886019 0.242739
O O7 0.275404 0.134366 0.168906
O O8 0.139892 0.382698 0.242740
O O9 0.416114 0.134367 0.277440
O O10 0.511976 0.134363 0.108522
O O11 0.738600 0.884853 0.072898
O O12 0.738594 0.383885 0.072897
O O13 0.500000 0.134363 0.000000
#
# Coordination Sequence:
#
# PCOD9130441 Si02
#       6
#     4   4   4   4   4   4
#     4  12  25  44  67  96 129 168 213 264 318 378
#     4  12  24  43  67  96 129 169 212 262 318 378
#     4  12  25  43  66  96 130 169 213 262 316 378
#     4  12  25  43  66  96 130 169 213 262 316 378
#     4  12  25  44  67  96 129 168 213 264 318 378
#     4  12  24  43  67  96 129 169 212 262 318 378
#
# _framework density 23.751123
#
# number of rings (size 3 to 8) (size 9 to 14) (size 15 to 20)
#    0.000    0.000    0.000   12.000    0.000    0.000 
#    0.000    0.000    0.000    0.000    0.000    0.000 
#    0.000    0.000    0.000    0.000    0.000    0.000 
#
# Total GULP energy -67367.080566 kJ/mol
# GULP energy per Si atom -5613.923380 kJ/mol
# Density = 2.369706 g / cm^3
# Si number density = 23.751123 Si / 1000 Ang^3
#
#
#
# Elastic Constant Matrix: (Units=GPa)
#
#
# Indices 1 2 3 4 5 6 
#
# 1 100.6735 54.8952 -39.0834 0.0000 -3.6174 0.0000
# 2 54.8952 231.9998 17.6550 0.0000 12.2521 0.0000
# 3 -39.0834 17.6550 68.1977 0.0000 -2.7168 0.0000
# 4 0.0000 0.0000 0.0000 14.2779 0.0000 -16.3652
# 5 -3.6174 12.2521 -2.7168 0.0000 43.2971 0.0000
# 6 0.0000 0.0000 0.0000 -16.3652 0.0000 114.3800
#
#
#
# Elastic Compliance Matrix: (Units=1/GPa)
#
#
# Indices 1 2 3 4 5 6 
#
# 1 0.017291 -0.005149 0.011386 0.000000 0.003616 0.000000
# 2 -0.005149 0.006007 -0.004602 0.000000 -0.002419 0.000000
# 3 0.011386 -0.004602 0.022526 0.000000 0.003667 0.000000
# 4 0.000000 0.000000 0.000000 0.083777 0.000000 0.011987
# 5 0.003616 -0.002419 0.003667 0.000000 0.024313 0.000000
# 6 0.000000 0.000000 0.000000 0.011987 0.000000 0.010458
#
#
# Mechanical properties :
#
#
# Convention : Reuss Voigt Hill
#
# Bulk Modulus (GPa) = 20.36896 51.97827 36.17361
# Shear Modulus (GPa) = 28.17450 58.88463 43.52956
#
# Velocity S-wave (km/s) = 3.44792 4.98459 4.28569
# Velocity P-wave (km/s) = 4.94424 7.42026 6.30499
#
# Compressibility (1/GPa) = 0.04909432
#
# Stress axis : x y z
#
# Youngs Moduli (GPa) = 57.83383 166.48396 44.39307
#
# Poissons Ratio (x) = 0.85719 -0.50547
# Poissons Ratio (y) = 0.29777 0.20430
# Poissons Ratio (z) = -0.65851 0.76617
#
# Static dielectric constant tensor:
#      x y z
#    x 1.830310 0.000000 -0.030380 
#    y 0.000000 1.884030 0.000000 
#    z -0.030380 0.000000 1.952100 
# 
# From -- ./inp_files/67849.got.cif
#   From: 2010.05.17/outbox.cif.g08.bks.cpg/sg5_34_cif.got.tgz:67849.got - 2010.06.03 18:56:24.
