data_PCOD9130630
_publ_section_title
;
Structure prediction by ZEFSAII (Michael W. Deem and Ramdas Pophale) SiO2 
 PCOD9130630
Probable space group: C 2
;
_chemical_formula_sum "Si O2"
_cell_formula_units_Z 18
_cell_length_a 8.816387
_cell_length_b 4.794669
_cell_length_c 16.214748
_cell_angle_alpha 90.000000
_cell_angle_beta 89.898545
_cell_angle_gamma 90.000000
_cell_volume 685.423198
_symmetry_space_group_name_H-M "C 2"
_symmetry_group_IT_number 5
_symmetry_cell_setting 'monoclinic'
loop_
_space_group_symop_operation_xyz
x,y,z
-x,y,-z
1/2+x,1/2+y,z
1/2-x,1/2+y,-z
loop_
_atom_site_type_symbol
_atom_site_label
_atom_site_fract_x
_atom_site_fract_y
_atom_site_fract_z
Si Si1 0.744263 0.490590 0.222074
Si Si2 0.737187 0.490722 0.890208
Si Si3 0.751073 0.147332 0.441915
Si Si4 0.000000 0.317337 0.000000
Si Si5 0.018426 0.826541 0.671405
O O1 0.577978 0.508318 0.262549
O O2 0.768016 0.672721 0.139774
O O3 0.399190 0.617366 0.057742
O O4 0.868191 0.611053 0.284560
O O5 0.745617 0.672078 0.806908
O O6 0.888369 0.504395 0.944881
O O7 0.783838 0.445798 0.481484
O O8 0.609722 0.170438 0.381120
O O9 0.110595 0.021614 0.609302
#
# Coordination Sequence:
#
# PCOD9130630 Si02
#       5
#     4   4   4   2   4
#     4  12  28  50  78 114 154 202 256 316 382 456
#     4  12  28  50  78 114 154 202 256 316 382 456
#     4  12  30  52  80 116 156 204 258 318 384 458
#     4  12  28  52  80 114 156 204 258 318 384 456
#     4  12  29  52  80 115 156 204 258 318 384 457
#
# _framework density 26.261147999999999
#
# number of rings (size 3 to 8) (size 9 to 14) (size 15 to 20)
#    0.000    0.000    0.000    7.333    0.000   25.778 
#    0.000    0.000    0.000    0.000    0.000    0.000 
#    0.000    0.000    0.000    0.000    0.000    0.000 
#
# Total GULP energy -50616.197361 kJ/mol
# GULP energy per Si atom -5624.021929 kJ/mol
# Density = 2.620138 g / cm^3
# Si number density = 26.261148 Si / 1000 Ang^3
#
#
#
# Elastic Constant Matrix: (Units=GPa)
#
#
# Indices 1 2 3 4 5 6 
#
# 1 199.3000 25.0765 38.4045 0.0000 -2.4841 0.0000
# 2 25.0765 86.4897 9.7650 0.0000 1.9883 0.0000
# 3 38.4045 9.7650 100.8871 0.0000 -4.1502 0.0000
# 4 0.0000 0.0000 0.0000 50.1200 0.0000 11.3462
# 5 -2.4841 1.9883 -4.1502 0.0000 27.8977 0.0000
# 6 0.0000 0.0000 0.0000 11.3462 0.0000 44.8890
#
#
#
# Elastic Compliance Matrix: (Units=1/GPa)
#
#
# Indices 1 2 3 4 5 6 
#
# 1 0.005578 -0.001401 -0.001975 0.000000 0.000303 0.000000
# 2 -0.001401 0.012070 -0.000680 0.000000 -0.001086 0.000000
# 3 -0.001975 -0.000680 0.010791 0.000000 0.001478 0.000000
# 4 0.000000 0.000000 0.000000 0.021163 0.000000 -0.005349
# 5 0.000303 -0.001086 0.001478 0.000000 0.036169 0.000000
# 6 0.000000 0.000000 0.000000 -0.005349 0.000000 0.023629
#
#
# Mechanical properties :
#
#
# Convention : Reuss Voigt Hill
#
# Bulk Modulus (GPa) = 49.19682 59.24100 54.21891
# Shear Modulus (GPa) = 40.22894 45.47673 42.85284
#
# Velocity S-wave (km/s) = 3.91817 4.16590 4.04393
# Velocity P-wave (km/s) = 6.26449 6.76365 6.51885
#
# Compressibility (1/GPa) = 0.02032652
#
# Stress axis : x y z
#
# Youngs Moduli (GPa) = 179.26604 82.84975 92.67325
#
# Poissons Ratio (x) = 0.11610 0.18307
# Poissons Ratio (y) = 0.25120 0.06297
# Poissons Ratio (z) = 0.35412 0.05630
#
# Static dielectric constant tensor:
#      x y z
#    x 1.994140 0.000000 -0.024960 
#    y 0.000000 1.982010 0.000000 
#    z -0.024960 0.000000 2.020780 
# 
# From -- ./inp_files/68087.got.cif
#   From: 2010.05.17/outbox.cif.g08.bks.cpg/sg5_35_cif.got.tgz:68087.got - 2010.06.03 18:56:24.
