data_PCOD9130760
_publ_section_title
;
Structure prediction by ZEFSAII (Michael W. Deem and Ramdas Pophale) SiO2 
 PCOD9130760
Probable space group: P M
;
_chemical_formula_sum "Si O2"
_cell_formula_units_Z 16
_cell_length_a 12.796355
_cell_length_b 7.492889
_cell_length_c 10.505638
_cell_angle_alpha 90.000000
_cell_angle_beta 51.806336
_cell_angle_gamma 90.000000
_cell_volume 791.661029
_symmetry_space_group_name_H-M "P M"
_symmetry_group_IT_number 6
_symmetry_cell_setting 'monoclinic'
loop_
_space_group_symop_operation_xyz
x,y,z
x,-y,z
loop_
_atom_site_type_symbol
_atom_site_label
_atom_site_fract_x
_atom_site_fract_y
_atom_site_fract_z
Si Si1 0.768590 0.280575 0.940280
Si Si2 0.041049 0.717377 0.848180
Si Si3 0.602137 0.706504 0.306200
Si Si4 0.609830 0.707953 0.816762
Si Si5 0.752172 0.793930 0.448500
Si Si6 0.336867 0.281897 0.626987
Si Si7 0.334691 0.281979 0.924564
Si Si8 0.037285 0.715474 0.146342
O O1 0.772305 0.500000 0.937194
O O2 0.699702 0.218068 0.862658
O O3 0.919918 0.223294 0.851768
O O4 0.681952 0.219339 0.126640
O O5 0.041425 0.500000 0.849000
O O6 0.189155 0.773849 0.698020
O O7 0.018741 0.771265 0.012454
O O8 0.578080 0.500000 0.291460
O O9 0.691774 0.710590 0.365739
O O10 0.459300 0.784604 0.451190
O O11 0.590377 0.500000 0.862834
O O12 0.687239 0.717387 0.624676
O O13 0.461447 0.782966 0.908232
O O14 0.911364 0.776064 0.322164
O O15 0.715297 0.000000 0.472413
O O16 0.340326 0.500000 0.623054
O O17 0.354826 0.231057 0.761427
O O18 0.335740 0.500000 0.926126
O O19 0.185559 0.226566 0.075309
O O20 0.035973 0.500000 0.148681
#
# Coordination Sequence:
#
# PCOD9130760 Si02
#       8
#     2   2   2   2   2   2   2   2
#     4   9  17  28  49  78 103 129 160 201 251 303
#     4   8  13  24  45  76 104 123 154 198 247 296
#     4  10  17  31  53  76 100 128 165 209 254 293
#     4  10  19  34  53  75 105 135 166 204 251 302
#     4  12  23  33  48  75 104 134 174 211 247 294
#     4   8  13  22  44  74 100 125 154 197 248 291
#     4   8  14  26  49  77  99 127 164 203 250 298
#     4   9  16  30  53  75  99 129 165 211 254 291
#
# _framework density 20.210671000000001
#
# number of rings (size 3 to 8) (size 9 to 14) (size 15 to 20)
#    0.000    2.750    2.500    2.625    0.000    0.000 
#    0.000    2.500    0.000    6.000    0.000    1.750 
#    0.000    0.000    0.000    0.000    0.000    0.000 
#
# Total GULP energy -89240.209746 kJ/mol
# GULP energy per Si atom -5577.513109 kJ/mol
# Density = 2.016467 g / cm^3
# Si number density = 20.210671 Si / 1000 Ang^3
#
#
#
# Elastic Constant Matrix: (Units=GPa)
#
#
# Indices 1 2 3 4 5 6 
#
# 1 189.7658 -1.5334 72.1048 0.0000 -19.8080 0.0000
# 2 -1.5334 54.2042 -11.8649 0.0000 0.1934 0.0000
# 3 72.1048 -11.8649 75.6632 0.0000 -12.2962 0.0000
# 4 0.0000 0.0000 0.0000 175.6915 0.0000 84.5263
# 5 -19.8080 0.1934 -12.2962 0.0000 35.3556 0.0000
# 6 0.0000 0.0000 0.0000 84.5263 0.0000 8.0655
#
#
#
# Elastic Compliance Matrix: (Units=1/GPa)
#
#
# Indices 1 2 3 4 5 6 
#
# 1 0.008517 -0.001524 -0.008032 0.000000 0.001986 0.000000
# 2 -0.001524 0.019410 0.004600 0.000000 0.000640 0.000000
# 3 -0.008032 0.004600 0.022107 0.000000 0.003163 0.000000
# 4 0.000000 0.000000 0.000000 -0.001408 0.000000 0.014758
# 5 0.001986 0.000640 0.003163 0.000000 0.030493 0.000000
# 6 0.000000 0.000000 0.000000 0.014758 0.000000 -0.030674
#
#
# Mechanical properties :
#
#
# Convention : Reuss Voigt Hill
#
# Bulk Modulus (GPa) = 24.92468 48.56068 36.74268
# Shear Modulus (GPa) = 69.70494 61.21764 65.46129
#
# Velocity S-wave (km/s) = 5.87912 5.50958 5.69735
# Velocity P-wave (km/s) = 7.64491 8.03452 7.84213
#
# Compressibility (1/GPa) = 0.04012088
#
# Stress axis : x y z
#
# Youngs Moduli (GPa) = 117.41605 51.51890 45.23547
#
# Poissons Ratio (x) = 0.07854 0.36335
# Poissons Ratio (y) = 0.17899 -0.20810
# Poissons Ratio (z) = 0.94314 -0.23701
#
# Static dielectric constant tensor:
#      x y z
#    x 1.729890 0.000000 -0.026110 
#    y 0.000000 1.767230 0.000000 
#    z -0.026110 0.000000 1.686370 
# 
# From -- ./inp_files/3755.got.cif
#   From: 2010.05.17/outbox.cif.g08.bks.cpg/sg6_2_cif.got.tgz:3755.got - 2010.06.03 19:42:10.
