data_PCOD9130049
_publ_section_title
;
Structure prediction by ZEFSAII (Michael W. Deem and Ramdas Pophale) SiO2 
 PCOD9130049
Probable space group: C 2
;
_chemical_formula_sum "Si O2"
_cell_formula_units_Z 24
_cell_length_a 12.090687
_cell_length_b 8.579037
_cell_length_c 10.564458
_cell_angle_alpha 90.000000
_cell_angle_beta 102.260555
_cell_angle_gamma 90.000000
_cell_volume 1070.820420
_symmetry_space_group_name_H-M "C 2"
_symmetry_group_IT_number 5
_symmetry_cell_setting 'monoclinic'
loop_
_space_group_symop_operation_xyz
x,y,z
-x,y,-z
1/2+x,1/2+y,z
1/2-x,1/2+y,-z
loop_
_atom_site_type_symbol
_atom_site_label
_atom_site_fract_x
_atom_site_fract_y
_atom_site_fract_z
Si Si1 0.395735 0.695020 0.569209
Si Si2 0.328440 0.335030 0.557057
Si Si3 0.000000 0.628561 0.000000
Si Si4 0.499437 0.677715 0.853781
Si Si5 0.638339 0.380680 0.154877
Si Si6 0.390544 0.951352 0.211838
Si Si7 0.000000 0.584035 0.500000
O O1 0.500000 0.712968 0.500000
O O2 0.362455 0.513672 0.544286
O O3 0.301594 0.814312 0.503983
O O4 0.410730 0.725038 0.722850
O O5 0.347251 0.299781 0.707616
O O6 0.397610 0.204074 0.501482
O O7 0.105613 0.744835 0.051325
O O8 0.961823 0.530777 0.114712
O O9 0.470737 0.494997 0.856357
O O10 0.605750 0.763573 0.815280
O O11 0.500000 0.728146 0.000000
O O12 0.754691 0.480787 0.167158
O O13 0.453821 0.998722 0.358970
#
# Coordination Sequence:
#
# PCOD9130049 Si02
#       7
#     4   4   2   4   4   4   2
#     4  11  25  45  72 102 140 188 237 299 358 416
#     4  11  24  46  72 108 142 191 242 296 362 425
#     4  12  26  46  76 106 144 188 244 290 362 436
#     4  11  25  47  69 103 143 181 240 288 349 433
#     4  11  26  49  73 104 144 193 238 298 360 421
#     4  12  28  47  75 106 143 194 235 298 364 423
#     4  12  24  48  76 108 150 182 248 304 354 440
#
# _framework density 22.412721999999999
#
# number of rings (size 3 to 8) (size 9 to 14) (size 15 to 20)
#    0.000    0.667    4.167    3.000    8.167    0.000 
#    0.000    0.000    0.000    0.000    0.000    0.000 
#    0.000    0.000    0.000    0.000    0.000    0.000 
#
# Total GULP energy -66815.208887 kJ/mol
# GULP energy per Si atom -5567.934074 kJ/mol
# Density = 2.236171 g / cm^3
# Si number density = 22.412722 Si / 1000 Ang^3
#
#
#
# Elastic Constant Matrix: (Units=GPa)
#
#
# Indices 1 2 3 4 5 6 
#
# 1 107.3381 41.0432 42.5785 0.0000 -5.7809 0.0000
# 2 41.0432 77.9852 68.6640 0.0000 -2.4899 0.0000
# 3 42.5785 68.6640 167.7447 0.0000 -6.7893 0.0000
# 4 0.0000 0.0000 0.0000 28.6073 0.0000 13.4624
# 5 -5.7809 -2.4899 -6.7893 0.0000 25.8504 0.0000
# 6 0.0000 0.0000 0.0000 13.4624 0.0000 25.1587
#
#
#
# Elastic Compliance Matrix: (Units=1/GPa)
#
#
# Indices 1 2 3 4 5 6 
#
# 1 0.011812 -0.005603 -0.000626 0.000000 0.001937 0.000000
# 2 -0.005603 0.022708 -0.007919 0.000000 -0.001146 0.000000
# 3 -0.000626 -0.007919 0.009426 0.000000 0.001573 0.000000
# 4 0.000000 0.000000 0.000000 0.046721 0.000000 -0.025001
# 5 0.001937 -0.001146 0.001573 0.000000 0.039420 0.000000
# 6 0.000000 0.000000 0.000000 -0.025001 0.000000 0.053125
#
#
# Mechanical properties :
#
#
# Convention : Reuss Voigt Hill
#
# Bulk Modulus (GPa) = 63.90604 73.07105 68.48855
# Shear Modulus (GPa) = 23.07065 29.30877 26.18971
#
# Velocity S-wave (km/s) = 3.21184 3.62012 3.42207
# Velocity P-wave (km/s) = 6.50613 7.08145 6.79988
#
# Compressibility (1/GPa) = 0.01564797
#
# Stress axis : x y z
#
# Youngs Moduli (GPa) = 84.66268 44.03715 106.09299
#
# Poissons Ratio (x) = 0.24675 0.06642
# Poissons Ratio (y) = 0.47439 0.84019
# Poissons Ratio (z) = 0.05301 0.34875
#
# Static dielectric constant tensor:
#      x y z
#    x 1.991360 0.000000 0.106860 
#    y 0.000000 1.899600 0.000000 
#    z 0.106860 0.000000 1.926470 
# 
# From -- ./inp_files/38303.got.cif
#   From: 2010.05.17/outbox.cif.g08.bks.cpg/sg5_20_cif.got.tgz:38303.got - 2010.06.03 18:56:24.
