data_PCOD9130581
_publ_section_title
;
Structure prediction by ZEFSAII (Michael W. Deem and Ramdas Pophale) SiO2 
 PCOD9130581
Probable space group: C 2
;
_chemical_formula_sum "Si O2"
_cell_formula_units_Z 20
_cell_length_a 19.413673
_cell_length_b 5.150818
_cell_length_c 8.735579
_cell_angle_alpha 90.000000
_cell_angle_beta 58.528293
_cell_angle_gamma 90.000000
_cell_volume 745.028255
_symmetry_space_group_name_H-M "C 2"
_symmetry_group_IT_number 5
_symmetry_cell_setting 'monoclinic'
loop_
_space_group_symop_operation_xyz
x,y,z
-x,y,-z
1/2+x,1/2+y,z
1/2-x,1/2+y,-z
loop_
_atom_site_type_symbol
_atom_site_label
_atom_site_fract_x
_atom_site_fract_y
_atom_site_fract_z
Si Si1 0.702828 0.022280 0.577952
Si Si2 0.799994 0.502893 0.095546
Si Si3 0.445782 0.670172 0.917984
Si Si4 0.548687 0.974227 0.582583
Si Si5 0.625496 0.339811 0.252471
O O1 0.739525 0.276585 0.456128
O O2 0.674475 0.137442 0.774783
O O3 0.632799 0.890320 0.559463
O O4 0.703034 0.512935 0.203360
O O5 0.852038 0.239236 0.056179
O O6 0.830173 0.618997 0.900856
O O7 0.489085 0.925354 0.794706
O O8 0.438188 0.464593 0.790601
O O9 0.500000 0.592803 0.000000
O O10 0.500000 0.838750 0.500000
O O11 0.581076 0.226437 0.451989
#
# Coordination Sequence:
#
# PCOD9130581 Si02
#       5
#     4   4   4   4   4
#     4  12  30  50  82 119 168 221 282 346 426 512
#     4  12  26  50  81 115 156 216 282 336 418 505
#     4  12  28  52  81 117 164 212 276 349 424 500
#     4  12  28  50  75 124 161 209 270 354 423 490
#     4  12  28  50  83 114 163 216 278 345 421 512
#
# _framework density 26.844622000000001
#
# number of rings (size 3 to 8) (size 9 to 14) (size 15 to 20)
#    0.000    0.000    8.000    0.000    8.400    4.800 
#    0.000    0.000    0.000    0.000    0.000    0.000 
#    0.000    0.000    0.000    0.000    0.000    0.000 
#
# Total GULP energy -55771.304835 kJ/mol
# GULP energy per Si atom -5577.130484 kJ/mol
# Density = 2.678352 g / cm^3
# Si number density = 26.844622 Si / 1000 Ang^3
#
#
#
# Elastic Constant Matrix: (Units=GPa)
#
#
# Indices 1 2 3 4 5 6 
#
# 1 203.4505 29.5453 54.6933 0.0000 27.8725 0.0000
# 2 29.5453 75.9910 19.6023 0.0000 -12.0816 0.0000
# 3 54.6933 19.6023 64.5275 0.0000 -19.3307 0.0000
# 4 0.0000 0.0000 0.0000 42.6619 0.0000 13.5523
# 5 27.8725 -12.0816 -19.3307 0.0000 31.2101 0.0000
# 6 0.0000 0.0000 0.0000 13.5523 0.0000 10.8499
#
#
#
# Elastic Compliance Matrix: (Units=1/GPa)
#
#
# Indices 1 2 3 4 5 6 
#
# 1 0.013926 -0.004825 -0.017954 0.000000 -0.025424 0.000000
# 2 -0.004825 0.016266 0.002855 0.000000 0.012374 0.000000
# 3 -0.017954 0.002855 0.042952 0.000000 0.043743 0.000000
# 4 0.000000 0.000000 0.000000 0.038859 0.000000 -0.048538
# 5 -0.025424 0.012374 0.043743 0.000000 0.086630 0.000000
# 6 0.000000 0.000000 0.000000 -0.048538 0.000000 0.152795
#
#
# Mechanical properties :
#
#
# Convention : Reuss Voigt Hill
#
# Bulk Modulus (GPa) = 30.03353 61.29455 45.66404
# Shear Modulus (GPa) = 12.42628 32.95291 22.68960
#
# Velocity S-wave (km/s) = 2.15384 3.50743 2.91042
# Velocity P-wave (km/s) = 4.17104 6.26781 5.32367
#
# Compressibility (1/GPa) = 0.03329612
#
# Stress axis : x y z
#
# Youngs Moduli (GPa) = 71.81029 61.47702 23.28196
#
# Poissons Ratio (x) = 0.29663 0.41800
# Poissons Ratio (y) = 0.34649 -0.06648
# Poissons Ratio (z) = 1.28928 -0.17554
#
# Static dielectric constant tensor:
#      x y z
#    x 2.067670 0.000000 -0.027520 
#    y 0.000000 2.269620 0.000000 
#    z -0.027520 0.000000 2.201770 
# 
# From -- ./inp_files/28257.got.cif
#   From: 2010.05.17/outbox.cif.g08.bks.cpg/sg5_15_cif.got.tgz:28257.got - 2010.06.03 18:56:24.
