data_PCOD9130531
_publ_section_title
;
Structure prediction by ZEFSAII (Michael W. Deem and Ramdas Pophale) SiO2 
 PCOD9130531
Probable space group: C 2
;
_chemical_formula_sum "Si O2"
_cell_formula_units_Z 20
_cell_length_a 28.074452
_cell_length_b 7.679438
_cell_length_c 22.367697
_cell_angle_alpha 90.000000
_cell_angle_beta 11.313727
_cell_angle_gamma 90.000000
_cell_volume 946.060932
_symmetry_space_group_name_H-M "C 2"
_symmetry_group_IT_number 5
_symmetry_cell_setting 'monoclinic'
loop_
_space_group_symop_operation_xyz
x,y,z
-x,y,-z
1/2+x,1/2+y,z
1/2-x,1/2+y,-z
loop_
_atom_site_type_symbol
_atom_site_label
_atom_site_fract_x
_atom_site_fract_y
_atom_site_fract_z
Si Si1 0.003633 0.138950 0.670116
Si Si2 0.788808 0.277172 0.711226
Si Si3 0.508838 0.639300 0.056630
Si Si4 0.063101 0.487930 0.803562
Si Si5 0.475951 0.993046 0.288575
O O1 0.115942 0.218643 0.470920
O O2 0.006331 0.290480 0.716155
O O3 0.175055 0.988081 0.486213
O O4 0.732735 0.077307 0.989679
O O5 0.000000 0.263129 0.500000
O O6 0.685552 0.473037 0.839066
O O7 0.580185 0.144758 0.988804
O O8 0.571816 0.804896 0.019656
O O9 0.247172 0.571599 0.399887
O O10 0.500000 0.706416 0.000000
O O11 0.079336 0.519102 0.713184
#
# Coordination Sequence:
#
# PCOD9130531 Si02
#       5
#     4   4   4   4   4
#     4  12  25  48  75 108 156 190 241 313 366 433
#     4  12  25  49  76 105 153 200 240 304 373 436
#     4  12  25  47  73 104 147 195 243 298 369 435
#     4  12  26  47  75 107 149 192 247 304 364 437
#     4  12  26  46  75 110 146 195 245 301 372 433
#
# _framework density 21.140288000000002
#
# number of rings (size 3 to 8) (size 9 to 14) (size 15 to 20)
#    0.000    0.000    6.000    4.200    0.000    4.000 
#    3.600    0.000    0.000    0.000    0.000    0.000 
#    0.000    0.000    0.000    0.000    0.000    0.000 
#
# Total GULP energy -55990.171140 kJ/mol
# GULP energy per Si atom -5599.017114 kJ/mol
# Density = 2.109217 g / cm^3
# Si number density = 21.140288 Si / 1000 Ang^3
#
#
#
# Elastic Constant Matrix: (Units=GPa)
#
#
# Indices 1 2 3 4 5 6 
#
# 1 -227.6388 -157.5868 -180.2997 -0.0193 -78.8992 -0.0043
# 2 -157.5868 -4.9500 -110.9817 -0.0088 -33.1047 -0.0016
# 3 -180.2997 -110.9817 -83.3779 -0.0198 -53.6190 -0.0014
# 4 -0.0193 -0.0088 -0.0198 33.5908 -0.0018 -2.9842
# 5 -78.8992 -33.1047 -53.6190 -0.0018 20.4736 -0.0025
# 6 -0.0043 -0.0016 -0.0014 -2.9842 -0.0025 31.9683
#
#
#
# Elastic Compliance Matrix: (Units=1/GPa)
#
#
# Indices 1 2 3 4 5 6 
#
# 1 0.009118 -0.004444 -0.011838 -0.000003 -0.003052 0.000000
# 2 -0.004444 0.010777 -0.001836 -0.000001 -0.004508 -0.000001
# 3 -0.011838 -0.001836 0.017619 0.000003 -0.002443 -0.000001
# 4 -0.000003 -0.000001 0.000003 0.030019 -0.000003 0.002802
# 5 -0.003052 -0.004508 -0.002443 -0.000003 0.023393 0.000001
# 6 0.000000 -0.000001 -0.000001 0.002802 0.000001 0.031543
#
#
# Mechanical properties :
#
#
# Convention : Reuss Voigt Hill
#
# Bulk Modulus (GPa) = 781.93510 -134.85591 323.53960
# Shear Modulus (GPa) = 31.42061 26.06664 28.74363
#
# Velocity S-wave (km/s) = 3.85943 3.51526 3.69136
# Velocity P-wave (km/s) = 19.76214 6.88864 13.09750
#
# Compressibility (1/GPa) = 0.00127888
#
# Stress axis : x y z
#
# Youngs Moduli (GPa) = 109.67876 92.78603 56.75557
#
# Poissons Ratio (x) = 0.41237 0.67185
# Poissons Ratio (y) = 0.48745 0.10419
# Poissons Ratio (z) = 1.29834 0.17033
#
# Static dielectric constant tensor:
#      x y z
#    x 1.715190 0.000000 -0.014270 
#    y 0.000000 1.773780 0.000000 
#    z -0.014270 0.000000 1.747130 
# 
# From -- ./inp_files/55540.got.cif
#   From: 2010.05.17/outbox.cif.g08.bks.cpg/sg5_28_cif.got.tgz:55540.got - 2010.06.03 18:56:24.
