data_PCOD9130096
_publ_section_title
;
Structure prediction by ZEFSAII (Michael W. Deem and Ramdas Pophale) SiO2 
 PCOD9130096
Probable space group: C 2
;
_chemical_formula_sum "Si O2"
_cell_formula_units_Z 16
_cell_length_a 9.332890
_cell_length_b 6.864332
_cell_length_c 11.305294
_cell_angle_alpha 90.000000
_cell_angle_beta 126.677108
_cell_angle_gamma 90.000000
_cell_volume 580.869309
_symmetry_space_group_name_H-M "C 2"
_symmetry_group_IT_number 5
_symmetry_cell_setting 'monoclinic'
loop_
_space_group_symop_operation_xyz
x,y,z
-x,y,-z
1/2+x,1/2+y,z
1/2-x,1/2+y,-z
loop_
_atom_site_type_symbol
_atom_site_label
_atom_site_fract_x
_atom_site_fract_y
_atom_site_fract_z
Si Si1 0.748798 0.881100 0.899701
Si Si2 0.804156 0.627761 0.358700
Si Si3 0.674734 0.558376 0.535358
Si Si4 0.462239 0.156523 0.831009
O O1 0.799595 0.691368 0.844448
O O2 0.748855 0.048478 0.796734
O O3 0.572985 0.953023 0.882713
O O4 0.901873 0.833984 0.072131
O O5 0.666776 0.556706 0.391190
O O6 0.808794 0.859133 0.382301
O O7 0.000000 0.560376 0.500000
O O8 0.500000 0.658062 0.500000
O O9 0.859503 0.663718 0.657541
#
# Coordination Sequence:
#
# PCOD9130096 Si02
#       4
#     4   4   4   4
#     4  11  27  50  81 118 174 221 289 348 441 517
#     4  11  24  48  81 124 162 224 293 366 432 520
#     4  11  26  46  86 124 170 221 297 365 442 517
#     4  11  27  51  78 123 168 231 279 358 433 527
#
# _framework density 27.544922
#
# number of rings (size 3 to 8) (size 9 to 14) (size 15 to 20)
#    0.000    1.000    2.500    1.500    7.000   10.000 
#    4.500    0.000    0.000    0.000    0.000    0.000 
#    0.000    0.000    0.000    0.000    0.000    0.000 
#
# Total GULP energy -44561.643835 kJ/mol
# GULP energy per Si atom -5570.205479 kJ/mol
# Density = 2.748223 g / cm^3
# Si number density = 27.544922 Si / 1000 Ang^3
#
#
#
# Elastic Constant Matrix: (Units=GPa)
#
#
# Indices 1 2 3 4 5 6 
#
# 1 133.6599 50.1129 40.5560 0.0000 3.1166 0.0000
# 2 50.1129 148.3120 42.9374 0.0000 0.9615 0.0000
# 3 40.5560 42.9374 143.5985 0.0000 4.9335 0.0000
# 4 0.0000 0.0000 0.0000 40.5583 0.0000 -19.6957
# 5 3.1166 0.9615 4.9335 0.0000 58.1628 0.0000
# 6 0.0000 0.0000 0.0000 -19.6957 0.0000 49.8098
#
#
#
# Elastic Compliance Matrix: (Units=1/GPa)
#
#
# Indices 1 2 3 4 5 6 
#
# 1 0.008969 -0.002516 -0.001771 0.000000 -0.000289 0.000000
# 2 -0.002516 0.008088 -0.001713 0.000000 0.000146 0.000000
# 3 -0.001771 -0.001713 0.007995 0.000000 -0.000555 0.000000
# 4 0.000000 0.000000 0.000000 0.030515 0.000000 0.012066
# 5 -0.000289 0.000146 -0.000555 0.000000 0.017253 0.000000
# 6 0.000000 0.000000 0.000000 0.012066 0.000000 0.024848
#
#
# Mechanical properties :
#
#
# Convention : Reuss Voigt Hill
#
# Bulk Modulus (GPa) = 76.61271 76.97589 76.79430
# Shear Modulus (GPa) = 43.85268 49.17047 46.51157
#
# Velocity S-wave (km/s) = 3.99437 4.22963 4.11368
# Velocity P-wave (km/s) = 7.01052 7.20134 7.10657
#
# Compressibility (1/GPa) = 0.01305266
#
# Stress axis : x y z
#
# Youngs Moduli (GPa) = 111.49448 123.64670 125.07525
#
# Poissons Ratio (x) = 0.31109 0.22149
# Poissons Ratio (y) = 0.28052 0.21422
# Poissons Ratio (z) = 0.19744 0.21177
#
# Static dielectric constant tensor:
#      x y z
#    x 2.225500 0.000000 0.098720 
#    y 0.000000 2.166150 0.000000 
#    z 0.098720 0.000000 2.424040 
# 
# From -- ./inp_files/34686.got.cif
#   From: 2010.05.17/outbox.cif.g08.bks.cpg/sg5_18_cif.got.tgz:34686.got - 2010.06.03 18:56:24.
