data_PCOD9130926
_publ_section_title
;
Structure prediction by ZEFSAII (Michael W. Deem and Ramdas Pophale) SiO2 
 PCOD9130926
Probable space group: P M
;
_chemical_formula_sum "Si O2"
_cell_formula_units_Z 16
_cell_length_a 20.955663
_cell_length_b 8.418975
_cell_length_c 16.529902
_cell_angle_alpha 90.000000
_cell_angle_beta 17.931569
_cell_angle_gamma 90.000000
_cell_volume 897.870346
_symmetry_space_group_name_H-M "P M"
_symmetry_group_IT_number 6
_symmetry_cell_setting 'monoclinic'
loop_
_space_group_symop_operation_xyz
x,y,z
x,-y,z
loop_
_atom_site_type_symbol
_atom_site_label
_atom_site_fract_x
_atom_site_fract_y
_atom_site_fract_z
Si Si1 0.198140 0.307933 0.330310
Si Si2 0.697659 0.190393 0.332213
Si Si3 0.651533 0.690080 0.726104
Si Si4 0.555800 0.307927 0.332444
Si Si5 0.505348 0.808082 0.733581
Si Si6 0.005431 0.693500 0.731317
Si Si7 0.052064 0.190056 0.337675
Si Si8 0.141210 0.692243 0.743300
O O1 0.196439 0.500000 0.332777
O O2 0.065877 0.251431 0.412944
O O3 0.106637 0.250933 0.525925
O O4 0.435700 0.256053 0.028451
O O5 0.575071 0.250148 0.401177
O O6 0.596245 0.246493 0.538364
O O7 0.696931 0.000000 0.332726
O O8 0.932952 0.249528 0.038001
O O9 0.653480 0.500000 0.724052
O O10 0.637225 0.749215 0.651078
O O11 0.851691 0.750796 0.531821
O O12 0.555212 0.500000 0.334053
O O13 0.348978 0.252701 0.536972
O O14 0.766508 0.257615 0.032417
O O15 0.507990 0.000000 0.731034
O O16 0.267548 0.756222 0.035436
O O17 0.007949 0.500000 0.726441
O O18 0.125211 0.742156 0.668551
O O19 0.051394 0.000000 0.339332
O O20 0.139098 0.500000 0.746843
#
# Coordination Sequence:
#
# PCOD9130926 Si02
#       8
#     2   2   2   2   2   2   2   2
#     4   9  18  33  53  76 100 128 166 209 246 285
#     4  10  20  34  52  73  99 131 166 205 247 293
#     4  10  20  33  52  78 103 127 161 207 251 290
#     4   9  18  33  53  75 100 131 166 204 245 292
#     4   9  20  37  53  70  96 133 171 203 242 294
#     4   8  15  30  52  75  99 129 165 204 245 289
#     4  10  20  35  53  72 100 135 166 200 244 297
#     4   9  18  33  52  75 101 130 165 204 248 294
#
# _framework density 17.819945000000001
#
# number of rings (size 3 to 8) (size 9 to 14) (size 15 to 20)
#    0.000    2.750    0.000    1.875    0.000    4.500 
#    0.000   10.000    0.000    3.000    0.000    0.000 
#    0.000    0.000    0.000    0.000    0.000    0.000 
#
# Total GULP energy -89226.578579 kJ/mol
# GULP energy per Si atom -5576.661161 kJ/mol
# Density = 1.777939 g / cm^3
# Si number density = 17.819945 Si / 1000 Ang^3
#
#
#
# Elastic Constant Matrix: (Units=GPa)
#
#
# Indices 1 2 3 4 5 6 
#
# 1 189.1947 22.0790 136.1413 0.0000 2.8756 0.0000
# 2 22.0790 10.3997 18.3713 0.0000 0.0040 0.0000
# 3 136.1413 18.3713 119.0087 0.0000 -6.5422 0.0000
# 4 0.0000 0.0000 0.0000 22.8531 0.0000 4.2735
# 5 2.8756 0.0040 -6.5422 0.0000 44.7548 0.0000
# 6 0.0000 0.0000 0.0000 4.2735 0.0000 50.4496
#
#
#
# Elastic Compliance Matrix: (Units=1/GPa)
#
#
# Indices 1 2 3 4 5 6 
#
# 1 0.032314 -0.003541 -0.036829 0.000000 -0.007460 0.000000
# 2 -0.003541 0.133003 -0.016603 0.000000 -0.002211 0.000000
# 3 -0.036829 -0.016603 0.053658 0.000000 0.010212 0.000000
# 4 0.000000 0.000000 0.000000 0.044462 0.000000 -0.003766
# 5 -0.007460 -0.002211 0.010212 0.000000 0.024316 0.000000
# 6 0.000000 0.000000 0.000000 -0.003766 0.000000 0.020141
#
#
# Mechanical properties :
#
#
# Convention : Reuss Voigt Hill
#
# Bulk Modulus (GPa) = 9.52110 74.64292 42.08201
# Shear Modulus (GPa) = 10.94452 33.07894 22.01173
#
# Velocity S-wave (km/s) = 2.48094 4.31314 3.51840
# Velocity P-wave (km/s) = 3.68257 8.17205 6.33813
#
# Compressibility (1/GPa) = 0.10502985
#
# Stress axis : x y z
#
# Youngs Moduli (GPa) = 30.94646 7.51862 18.63646
#
# Poissons Ratio (x) = 0.02662 0.68637
# Poissons Ratio (y) = 0.10958 0.30941
# Poissons Ratio (z) = 1.13974 0.12483
#
# Static dielectric constant tensor:
#      x y z
#    x 1.585440 0.000000 0.008240 
#    y 0.000000 1.611770 0.000000 
#    z 0.008240 0.000000 1.603200 
# 
# From -- ./inp_files/5622.got.cif
#   From: 2010.05.17/outbox.cif.g08.bks.cpg/sg6_3_cif.got.tgz:5622.got - 2010.06.03 19:42:10.
