data_PCOD9130573
_publ_section_title
;
Structure prediction by ZEFSAII (Michael W. Deem and Ramdas Pophale) SiO2 
 PCOD9130573
Probable space group: C 2
;
_chemical_formula_sum "Si O2"
_cell_formula_units_Z 16
_cell_length_a 4.828152
_cell_length_b 13.980405
_cell_length_c 10.752121
_cell_angle_alpha 90.000000
_cell_angle_beta 115.635388
_cell_angle_gamma 90.000000
_cell_volume 654.322878
_symmetry_space_group_name_H-M "C 2"
_symmetry_group_IT_number 5
_symmetry_cell_setting 'monoclinic'
loop_
_space_group_symop_operation_xyz
x,y,z
-x,y,-z
1/2+x,1/2+y,z
1/2-x,1/2+y,-z
loop_
_atom_site_type_symbol
_atom_site_label
_atom_site_fract_x
_atom_site_fract_y
_atom_site_fract_z
Si Si1 0.179979 0.701370 0.275476
Si Si2 0.749401 0.324806 0.654854
Si Si3 0.068762 0.509813 0.657275
Si Si4 0.818170 0.064010 0.092681
O O1 0.510286 0.749132 0.355160
O O2 0.097857 0.609482 0.343054
O O3 0.199552 0.658173 0.141571
O O4 0.922547 0.779093 0.260684
O O5 0.500000 0.342539 0.500000
O O6 0.931099 0.422574 0.709023
O O7 0.424278 0.520633 0.764966
O O8 0.000000 0.489042 0.500000
O O9 0.500000 0.009588 0.000000
O O10 0.000000 0.081935 0.000000
#
# Coordination Sequence:
#
# PCOD9130573 Si02
#       4
#     4   4   4   4
#     4  12  26  49  79 108 164 212 257 324 402 460
#     4  12  28  44  76 124 161 197 269 328 399 478
#     4  12  29  48  85 120 163 204 266 328 407 464
#     4  12  26  51  83 113 160 218 267 322 397 480
#
# _framework density 24.452759
#
# number of rings (size 3 to 8) (size 9 to 14) (size 15 to 20)
#    0.000    0.000    5.000    3.000   10.500    0.000 
#    0.000    1.250   16.500    0.000    0.000    0.000 
#    0.000    0.000    0.000    0.000    0.000    0.000 
#
# Total GULP energy -44802.599472 kJ/mol
# GULP energy per Si atom -5600.324934 kJ/mol
# Density = 2.439710 g / cm^3
# Si number density = 24.452759 Si / 1000 Ang^3
#
#
#
# Elastic Constant Matrix: (Units=GPa)
#
#
# Indices 1 2 3 4 5 6 
#
# 1 226.4764 68.6377 76.9569 0.0000 2.2141 0.0000
# 2 68.6377 108.0728 29.5816 0.0000 1.6263 0.0000
# 3 76.9569 29.5816 142.9388 0.0000 -4.4689 0.0000
# 4 0.0000 0.0000 0.0000 7.3944 0.0000 -7.1171
# 5 2.2141 1.6263 -4.4689 0.0000 59.1606 0.0000
# 6 0.0000 0.0000 0.0000 -7.1171 0.0000 59.0361
#
#
#
# Elastic Compliance Matrix: (Units=1/GPa)
#
#
# Indices 1 2 3 4 5 6 
#
# 1 0.006345 -0.003272 -0.002750 0.000000 -0.000355 0.000000
# 2 -0.003272 0.011506 -0.000627 0.000000 -0.000241 0.000000
# 3 -0.002750 -0.000627 0.008631 0.000000 0.000772 0.000000
# 4 0.000000 0.000000 0.000000 0.152988 0.000000 0.018444
# 5 -0.000355 -0.000241 0.000772 0.000000 0.016981 0.000000
# 6 0.000000 0.000000 0.000000 0.018444 0.000000 0.019162
#
#
# Mechanical properties :
#
#
# Convention : Reuss Voigt Hill
#
# Bulk Modulus (GPa) = 75.85194 91.98227 83.91711
# Shear Modulus (GPa) = 21.43103 45.27234 33.35168
#
# Velocity S-wave (km/s) = 2.96366 4.30748 3.69714
# Velocity P-wave (km/s) = 6.54203 7.90172 7.25380
#
# Compressibility (1/GPa) = 0.01318358
#
# Stress axis : x y z
#
# Youngs Moduli (GPa) = 157.60556 86.90961 115.86671
#
# Poissons Ratio (x) = 0.28434 0.31864
# Poissons Ratio (y) = 0.51563 0.07269
# Poissons Ratio (z) = 0.43343 0.05452
#
# Static dielectric constant tensor:
#      x y z
#    x 1.966430 0.000000 0.032630 
#    y 0.000000 1.948190 0.000000 
#    z 0.032630 0.000000 2.085990 
# 
# From -- ./inp_files/33057.got.cif
#   From: 2010.05.17/outbox.cif.g08.bks.cpg/sg5_17_cif.got.tgz:33057.got - 2010.06.03 18:56:24.
