data_PCOD9130986
_publ_section_title
;
Structure prediction by ZEFSAII (Michael W. Deem and Ramdas Pophale) SiO2 
 PCOD9130986
Probable space group: P M
;
_chemical_formula_sum "Si O2"
_cell_formula_units_Z 14
_cell_length_a 8.075222
_cell_length_b 16.925856
_cell_length_c 9.370852
_cell_angle_alpha 90.000000
_cell_angle_beta 148.400679
_cell_angle_gamma 90.000000
_cell_volume 671.112659
_symmetry_space_group_name_H-M "P M"
_symmetry_group_IT_number 6
_symmetry_cell_setting 'monoclinic'
loop_
_space_group_symop_operation_xyz
x,y,z
x,-y,z
loop_
_atom_site_type_symbol
_atom_site_label
_atom_site_fract_x
_atom_site_fract_y
_atom_site_fract_z
Si Si1 0.046420 0.329943 0.653580
Si Si2 0.296155 0.910332 0.598310
Si Si3 0.298480 0.239560 0.404688
Si Si4 0.567495 0.089930 0.101270
Si Si5 0.927742 0.500000 0.465720
Si Si6 0.663753 0.327335 0.904433
Si Si7 0.409334 0.241521 0.150439
Si Si8 0.647576 0.500000 0.955096
O O1 0.356252 0.322738 0.780877
O O2 0.920390 0.419593 0.550159
O O3 0.762861 0.275363 0.390915
O O4 0.166108 0.300407 0.894449
O O5 0.338339 0.844570 0.510107
O O6 0.941845 0.905398 0.401029
O O7 0.342264 0.000000 0.579114
O O8 0.520263 0.896242 0.897881
O O9 0.541866 0.298012 0.662297
O O10 0.351314 0.235294 0.275394
O O11 0.945802 0.273073 0.167509
O O12 0.391505 0.156778 0.060885
O O13 0.460736 0.000000 0.053153
O O14 0.274793 0.500000 0.647397
O O15 0.685804 0.500000 0.155786
O O16 0.779973 0.417935 0.993894
#
# Coordination Sequence:
#
# PCOD9130986 Si02
#       8
#     2   2   2   2   1   2   2   1
#     4  11  22  40  63  86 114 154 201 243 284 342
#     4  10  21  38  61  86 112 149 197 241 283 338
#     4  12  24  38  58  89 124 155 189 235 296 351
#     4  10  21  38  61  86 112 149 197 241 283 338
#     4  10  20  36  61  90 111 144 201 252 285 328
#     4  11  22  40  63  86 114 154 201 243 284 342
#     4  12  24  38  58  89 124 155 189 235 296 351
#     4  10  20  36  61  90 111 144 201 252 285 328
#
# _framework density 20.860879000000001
#
# number of rings (size 3 to 8) (size 9 to 14) (size 15 to 20)
#    0.000    1.143    0.000    9.429    0.000    0.571 
#    0.000    4.286    0.000    8.571    0.000    0.000 
#    0.000    0.000    0.000    0.000    0.000    0.000 
#
# Total GULP energy -78307.211662 kJ/mol
# GULP energy per Si atom -5593.372262 kJ/mol
# Density = 2.081340 g / cm^3
# Si number density = 20.860879 Si / 1000 Ang^3
#
#
#
# Elastic Constant Matrix: (Units=GPa)
#
#
# Indices 1 2 3 4 5 6 
#
# 1 59.9019 56.5342 11.3079 0.0000 -19.7464 0.0000
# 2 56.5342 192.6632 52.6258 0.0000 -31.8905 0.0000
# 3 11.3079 52.6258 95.0016 0.0000 -9.5350 0.0000
# 4 0.0000 0.0000 0.0000 36.0303 0.0000 -6.3646
# 5 -19.7464 -31.8905 -9.5350 0.0000 38.4450 0.0000
# 6 0.0000 0.0000 0.0000 -6.3646 0.0000 -5.2597
#
#
#
# Elastic Compliance Matrix: (Units=1/GPa)
#
#
# Indices 1 2 3 4 5 6 
#
# 1 0.025113 -0.006435 0.001369 0.000000 0.007900 0.000000
# 2 -0.006435 0.008563 -0.003688 0.000000 0.002883 0.000000
# 3 0.001369 -0.003688 0.012481 0.000000 0.000739 0.000000
# 4 0.000000 0.000000 0.000000 0.022867 0.000000 -0.027670
# 5 0.007900 0.002883 0.000739 0.000000 0.032644 0.000000
# 6 0.000000 0.000000 0.000000 -0.027670 0.000000 -0.156643
#
#
# Mechanical properties :
#
#
# Convention : Reuss Voigt Hill
#
# Bulk Modulus (GPa) = 34.90744 65.38916 50.14830
# Shear Modulus (GPa) = -179.10859 28.98305 -75.06277
#
# Velocity S-wave (km/s) = -9.27604 3.73144 -6.00505
# Velocity P-wave (km/s) = 9.89732 7.06953 4.89789
#
# Compressibility (1/GPa) = 0.02864719
#
# Stress axis : x y z
#
# Youngs Moduli (GPa) = 39.81943 116.77503 80.12476
#
# Poissons Ratio (x) = 0.75148 -0.10965
# Poissons Ratio (y) = 0.25625 0.29553
# Poissons Ratio (z) = -0.05449 0.43070
#
# Static dielectric constant tensor:
#      x y z
#    x 1.731320 0.000000 0.014280 
#    y 0.000000 1.773580 0.000000 
#    z 0.014280 0.000000 1.726850 
# 
# From -- ./inp_files/3226.got.cif
#   From: 2010.05.17/outbox.cif.g08.bks.cpg/sg6_2_cif.got.tgz:3226.got - 2010.06.03 19:42:10.
