data_PCOD9130119
_publ_section_title
;
Structure prediction by ZEFSAII (Michael W. Deem and Ramdas Pophale) SiO2 
 PCOD9130119
Probable space group: C 2
;
_chemical_formula_sum "Si O2"
_cell_formula_units_Z 26
_cell_length_a 11.539534
_cell_length_b 10.794840
_cell_length_c 17.757173
_cell_angle_alpha 90.000000
_cell_angle_beta 147.412012
_cell_angle_gamma 90.000000
_cell_volume 1191.351571
_symmetry_space_group_name_H-M "C 2"
_symmetry_group_IT_number 5
_symmetry_cell_setting 'monoclinic'
loop_
_space_group_symop_operation_xyz
x,y,z
-x,y,-z
1/2+x,1/2+y,z
1/2-x,1/2+y,-z
loop_
_atom_site_type_symbol
_atom_site_label
_atom_site_fract_x
_atom_site_fract_y
_atom_site_fract_z
Si Si1 0.500000 0.131630 0.500000
Si Si2 0.667262 0.924383 0.482087
Si Si3 0.145567 0.953115 0.802375
Si Si4 0.660228 0.633921 0.937609
Si Si5 0.500000 0.740375 0.000000
Si Si6 0.000000 0.215312 0.500000
Si Si7 0.393420 0.823921 0.716531
Si Si8 0.355699 0.068503 0.786255
O O1 0.704206 0.222101 0.617457
O O2 0.545041 0.041047 0.453394
O O3 0.600941 0.803565 0.492446
O O4 0.614468 0.895781 0.366829
O O5 0.921962 0.940222 0.635554
O O6 0.290953 0.830392 0.884981
O O7 0.102643 0.007788 0.861719
O O8 0.279738 0.056972 0.830452
O O9 0.523546 0.658441 0.938015
O O10 0.605965 0.747165 0.852130
O O11 0.911125 0.627556 0.093982
O O12 0.181670 0.134883 0.639313
O O13 0.366451 0.926765 0.765200
#
# Coordination Sequence:
#
# PCOD9130119 Si02
#       8
#     2   4   4   4   2   2   4   4
#     4  11  25  46  72 110 155 191 256 312 368 459
#     4  11  26  43  74 111 151 196 257 314 382 447
#     4  12  22  47  72 106 151 193 248 315 371 452
#     4  12  25  46  75 107 147 199 259 305 378 451
#     4  12  26  46  74 106 146 204 246 316 374 440
#     4  11  25  44  66 112 149 197 256 320 372 451
#     4  12  25  46  76 109 146 206 247 316 383 446
#     4  12  25  46  76 109 149 204 258 309 386 460
#
# _framework density 21.823951999999998
#
# number of rings (size 3 to 8) (size 9 to 14) (size 15 to 20)
#    0.000    0.308    4.615    4.154    2.154    1.231 
#    0.000    0.000    6.769    0.000    0.000    0.000 
#    0.000    0.000    0.000    0.000    0.000    0.000 
#
# Total GULP energy -72775.760268 kJ/mol
# GULP energy per Si atom -5598.135405 kJ/mol
# Density = 2.177428 g / cm^3
# Si number density = 21.823952 Si / 1000 Ang^3
#
#
#
# Elastic Constant Matrix: (Units=GPa)
#
#
# Indices 1 2 3 4 5 6 
#
# 1 123.3749 56.2342 35.3411 0.0000 -19.6532 0.0000
# 2 56.2342 116.9760 53.5047 0.0000 6.9371 0.0000
# 3 35.3411 53.5047 114.5703 0.0002 -8.6416 0.0000
# 4 0.0000 0.0000 0.0002 28.1193 0.0000 0.8377
# 5 -19.6532 6.9371 -8.6416 0.0000 27.5658 0.0000
# 6 0.0000 0.0000 0.0000 0.8377 0.0000 38.3224
#
#
#
# Elastic Compliance Matrix: (Units=1/GPa)
#
#
# Indices 1 2 3 4 5 6 
#
# 1 0.013008 -0.006934 0.000059 0.000000 0.011037 0.000000
# 2 -0.006934 0.015123 -0.005719 0.000000 -0.010543 0.000000
# 3 0.000059 -0.005719 0.011771 0.000000 0.005171 0.000000
# 4 0.000000 0.000000 0.000000 0.035586 0.000000 -0.000778
# 5 0.011037 -0.010543 0.005171 0.000000 0.048420 0.000000
# 6 0.000000 0.000000 0.000000 -0.000778 0.000000 0.026111
#
#
# Mechanical properties :
#
#
# Convention : Reuss Voigt Hill
#
# Bulk Modulus (GPa) = 67.97005 71.67567 69.82286
# Shear Modulus (GPa) = 27.76036 32.79091 30.27563
#
# Velocity S-wave (km/s) = 3.57040 3.88044 3.72864
# Velocity P-wave (km/s) = 6.94329 7.27949 7.11338
#
# Compressibility (1/GPa) = 0.01471236
#
# Stress axis : x y z
#
# Youngs Moduli (GPa) = 76.87857 66.12280 84.95498
#
# Poissons Ratio (x) = 0.45853 -0.00497
# Poissons Ratio (y) = 0.53311 0.48584
# Poissons Ratio (z) = -0.00450 0.37814
#
# Static dielectric constant tensor:
#      x y z
#    x 1.849810 0.000000 -0.032890 
#    y 0.000000 1.777150 0.000000 
#    z -0.032890 0.000000 1.850610 
# 
# From -- ./inp_files/29680.got.cif
#   From: 2010.05.17/outbox.cif.g08.bks.cpg/sg5_15_cif.got.tgz:29680.got - 2010.06.03 18:56:24.
