data_PCOD9130890
_publ_section_title
;
Structure prediction by ZEFSAII (Michael W. Deem and Ramdas Pophale) SiO2 
 PCOD9130890
Probable space group: P M
;
_chemical_formula_sum "Si O2"
_cell_formula_units_Z 16
_cell_length_a 12.312444
_cell_length_b 8.022787
_cell_length_c 7.927762
_cell_angle_alpha 90.000000
_cell_angle_beta 87.904274
_cell_angle_gamma 90.000000
_cell_volume 782.581447
_symmetry_space_group_name_H-M "P M"
_symmetry_group_IT_number 6
_symmetry_cell_setting 'monoclinic'
loop_
_space_group_symop_operation_xyz
x,y,z
x,-y,z
loop_
_atom_site_type_symbol
_atom_site_label
_atom_site_fract_x
_atom_site_fract_y
_atom_site_fract_z
Si Si1 0.708820 0.200526 0.140250
Si Si2 0.723525 0.698846 0.510644
Si Si3 0.255548 0.698928 0.544519
Si Si4 0.489109 0.298819 0.646862
Si Si5 0.240943 0.201058 0.173694
Si Si6 0.104196 0.200317 0.863459
Si Si7 0.859664 0.200970 0.825126
Si Si8 0.475703 0.798764 0.039358
O O1 0.752697 0.246320 0.320911
O O2 0.584992 0.262815 0.124304
O O3 0.705646 0.000000 0.128803
O O4 0.782519 0.262347 0.981443
O O5 0.719231 0.500000 0.514815
O O6 0.602288 0.764432 0.562999
O O7 0.806245 0.755370 0.649923
O O8 0.258518 0.500000 0.552991
O O9 0.379525 0.762471 0.561953
O O10 0.211852 0.750632 0.364793
O O11 0.181951 0.760927 0.702067
O O12 0.490261 0.500000 0.636558
O O13 0.482206 0.249577 0.843031
O O14 0.362911 0.263044 0.124570
O O15 0.242835 0.000000 0.164158
O O16 0.159781 0.262555 0.032765
O O17 0.982454 0.264166 0.839667
O O18 0.097439 0.000000 0.877698
O O19 0.862427 0.000000 0.836009
O O20 0.474624 0.000000 0.049183
#
# Coordination Sequence:
#
# PCOD9130890 Si02
#       8
#     2   2   2   2   2   2   2   2
#     4  10  21  37  59  88 118 151 193 241 290 344
#     4  11  23  38  59  88 121 157 192 234 289 351
#     4  11  23  38  59  88 121 157 192 234 289 351
#     4  10  21  36  56  85 121 157 189 229 291 352
#     4  10  21  37  59  88 118 151 193 241 290 344
#     4  10  22  41  63  85 113 152 198 247 293 338
#     4  10  22  41  63  85 113 152 198 247 293 338
#     4  10  19  34  60  89 115 149 195 241 287 340
#
# _framework density 20.445153999999999
#
# number of rings (size 3 to 8) (size 9 to 14) (size 15 to 20)
#    0.000    1.750    2.500    1.500    0.000    4.500 
#    0.000    2.500    0.000    0.000    0.000    0.000 
#    0.000    0.000    0.000    0.000    0.000    0.000 
#
# Total GULP energy -89411.438893 kJ/mol
# GULP energy per Si atom -5588.214931 kJ/mol
# Density = 2.039862 g / cm^3
# Si number density = 20.445154 Si / 1000 Ang^3
#
#
#
# Elastic Constant Matrix: (Units=GPa)
#
#
# Indices 1 2 3 4 5 6 
#
# 1 153.3115 15.1172 63.4334 0.0000 32.8443 0.0000
# 2 15.1172 11.5072 -4.1962 0.0000 1.4915 0.0000
# 3 63.4334 -4.1962 143.7243 0.0000 45.2370 0.0000
# 4 0.0000 0.0000 0.0000 75.7640 0.0000 11.3762
# 5 32.8443 1.4915 45.2370 0.0000 15.0025 0.0000
# 6 0.0000 0.0000 0.0000 11.3762 0.0000 16.1887
#
#
#
# Elastic Compliance Matrix: (Units=1/GPa)
#
#
# Indices 1 2 3 4 5 6 
#
# 1 -0.001015 -0.029810 -0.040332 0.000000 0.126799 0.000000
# 2 -0.029810 0.089869 -0.038246 0.000000 0.171649 0.000000
# 3 -0.040332 -0.038246 -0.104954 0.000000 0.408568 0.000000
# 4 0.000000 0.000000 0.000000 0.014756 0.000000 -0.010369
# 5 0.126799 0.171649 0.408568 0.000000 -1.459961 0.000000
# 6 0.000000 0.000000 0.000000 -0.010369 0.000000 0.069058
#
#
# Mechanical properties :
#
#
# Convention : Reuss Voigt Hill
#
# Bulk Modulus (GPa) = -4.29413 50.80576 23.25581
# Shear Modulus (GPa) = -3.99011 37.00361 16.50675
#
# Velocity S-wave (km/s) = -1.39852 4.25890 2.84450
# Velocity P-wave (km/s) = 2.17087 7.00629 4.71038
#
# Compressibility (1/GPa) = -0.23287584
#
# Stress axis : x y z
#
# Youngs Moduli (GPa) = -985.45660 11.12736 -9.52797
#
# Poissons Ratio (x) = 0.33171 -0.38428
# Poissons Ratio (y) = -29.37641 -0.36440
# Poissons Ratio (z) = -39.74559 0.42557
#
# Static dielectric constant tensor:
#      x y z
#    x 1.742610 0.000000 0.000960 
#    y 0.000000 1.724100 0.000000 
#    z 0.000960 0.000000 1.687170 
# 
# From -- ./inp_files/3539.got.cif
#   From: 2010.05.17/outbox.cif.g08.bks.cpg/sg6_2_cif.got.tgz:3539.got - 2010.06.03 19:42:10.
