data_PCOD9130538
_publ_section_title
;
Structure prediction by ZEFSAII (Michael W. Deem and Ramdas Pophale) SiO2 
 PCOD9130538
Probable space group: C 2
;
_chemical_formula_sum "Si O2"
_cell_formula_units_Z 28
_cell_length_a 21.678841
_cell_length_b 5.632343
_cell_length_c 11.196698
_cell_angle_alpha 90.000000
_cell_angle_beta 62.589593
_cell_angle_gamma 90.000000
_cell_volume 1213.659578
_symmetry_space_group_name_H-M "C 2"
_symmetry_group_IT_number 5
_symmetry_cell_setting 'monoclinic'
loop_
_space_group_symop_operation_xyz
x,y,z
-x,y,-z
1/2+x,1/2+y,z
1/2-x,1/2+y,-z
loop_
_atom_site_type_symbol
_atom_site_label
_atom_site_fract_x
_atom_site_fract_y
_atom_site_fract_z
Si Si1 0.131570 0.834710 0.846254
Si Si2 0.755400 0.999285 0.422975
Si Si3 0.540436 0.984573 0.770081
Si Si4 0.431168 0.267546 0.735086
Si Si5 0.890683 0.439993 0.550673
Si Si6 0.500000 0.560981 0.500000
Si Si7 0.211135 0.809314 0.010918
Si Si8 0.000000 0.113163 0.000000
O O1 0.173177 0.995252 0.714198
O O2 0.092473 0.632163 0.807286
O O3 0.185759 0.757063 0.898565
O O4 0.068922 0.968157 0.966880
O O5 0.754713 0.757889 0.505653
O O6 0.691215 0.955476 0.390802
O O7 0.578354 0.962900 0.609639
O O8 0.467047 0.104843 0.802244
O O9 0.520397 0.758812 0.865068
O O10 0.492605 0.438365 0.635228
O O11 0.415862 0.132058 0.623971
O O12 0.357892 0.356064 0.848510
O O13 0.927715 0.203103 0.562812
O O14 0.246436 0.559978 0.022806
#
# Coordination Sequence:
#
# PCOD9130538 Si02
#       8
#     4   4   4   4   4   2   4   2
#     4  12  29  51  77 116 153 210 262 330 396 475
#     4  12  29  50  80 114 159 206 262 325 393 470
#     4  12  25  50  74 116 155 197 268 327 397 462
#     4  12  27  49  78 115 155 205 263 326 396 466
#     4  12  26  47  77 114 156 205 257 330 388 474
#     4  12  26  44  82 112 152 206 266 320 402 456
#     4  12  32  54  80 112 161 212 264 323 397 484
#     4  12  28  46  82 106 158 206 264 328 398 466
#
# _framework density 23.070719
#
# number of rings (size 3 to 8) (size 9 to 14) (size 15 to 20)
#    0.000    0.000    4.286    3.857   16.000    0.000 
#    0.000    0.000    0.000    0.000    0.000    0.000 
#    0.000    0.000    0.000    0.000    0.000    0.000 
#
# Total GULP energy -78248.318393 kJ/mol
# GULP energy per Si atom -5589.165599 kJ/mol
# Density = 2.301821 g / cm^3
# Si number density = 23.070719 Si / 1000 Ang^3
#
#
#
# Elastic Constant Matrix: (Units=GPa)
#
#
# Indices 1 2 3 4 5 6 
#
# 1 115.0523 25.3544 13.7938 0.0000 9.7820 0.0000
# 2 25.3544 60.5608 22.8220 0.0000 8.8932 0.0001
# 3 13.7938 22.8220 120.9283 0.0000 -3.6332 0.0000
# 4 0.0000 0.0000 0.0000 34.2663 0.0000 13.9416
# 5 9.7820 8.8932 -3.6332 0.0000 51.0759 0.0000
# 6 0.0000 0.0001 0.0000 13.9416 0.0000 28.3216
#
#
#
# Elastic Compliance Matrix: (Units=1/GPa)
#
#
# Indices 1 2 3 4 5 6 
#
# 1 0.009665 -0.003698 -0.000442 0.000000 -0.001239 0.000000
# 2 -0.003698 0.019779 -0.003400 0.000000 -0.002978 0.000000
# 3 -0.000442 -0.003400 0.009001 0.000000 0.001317 0.000000
# 4 0.000000 0.000000 0.000000 0.036492 0.000000 -0.017963
# 5 -0.001239 -0.002978 0.001317 0.000000 0.020428 0.000000
# 6 0.000000 0.000000 0.000000 -0.017963 0.000000 0.044151
#
#
# Mechanical properties :
#
#
# Convention : Reuss Voigt Hill
#
# Bulk Modulus (GPa) = 42.79933 46.72019 44.75976
# Shear Modulus (GPa) = 30.79100 38.37083 34.58091
#
# Velocity S-wave (km/s) = 3.65723 4.08264 3.87578
# Velocity P-wave (km/s) = 6.03535 6.52064 6.28268
#
# Compressibility (1/GPa) = 0.02336485
#
# Stress axis : x y z
#
# Youngs Moduli (GPa) = 103.46722 50.55818 111.09806
#
# Poissons Ratio (x) = 0.18696 0.04908
# Poissons Ratio (y) = 0.38262 0.37778
# Poissons Ratio (z) = 0.04571 0.17192
#
# Static dielectric constant tensor:
#      x y z
#    x 1.861770 0.000000 0.040690 
#    y 0.000000 1.956670 0.000000 
#    z 0.040690 0.000000 1.884620 
# 
# From -- ./inp_files/45596.got.cif
#   From: 2010.05.17/outbox.cif.g08.bks.cpg/sg5_23_cif.got.tgz:45596.got - 2010.06.03 18:56:24.
