data_PCOD9130967
_publ_section_title
;
Structure prediction by ZEFSAII (Michael W. Deem and Ramdas Pophale) SiO2 
 PCOD9130967
Probable space group: P M
;
_chemical_formula_sum "Si O2"
_cell_formula_units_Z 16
_cell_length_a 23.051093
_cell_length_b 8.793929
_cell_length_c 10.392172
_cell_angle_alpha 90.000000
_cell_angle_beta 25.766352
_cell_angle_gamma 90.000000
_cell_volume 915.741165
_symmetry_space_group_name_H-M "P M"
_symmetry_group_IT_number 6
_symmetry_cell_setting 'monoclinic'
loop_
_space_group_symop_operation_xyz
x,y,z
x,-y,z
loop_
_atom_site_type_symbol
_atom_site_label
_atom_site_fract_x
_atom_site_fract_y
_atom_site_fract_z
Si Si1 0.220020 0.819002 0.433490
Si Si2 0.715721 0.317364 0.210576
Si Si3 0.730541 0.181795 0.900575
Si Si4 0.231248 0.317319 0.686630
Si Si5 0.530547 0.817251 0.802103
Si Si6 0.023411 0.316081 0.320429
Si Si7 0.541119 0.682924 0.060266
Si Si8 0.026805 0.681674 0.607795
O O1 0.186676 0.750550 0.639564
O O2 0.120710 0.760346 0.523206
O O3 0.213647 0.000000 0.453861
O O4 0.374131 0.776428 0.096403
O O5 0.703832 0.500000 0.227220
O O6 0.618440 0.250522 0.512160
O O7 0.689601 0.247448 0.122043
O O8 0.870062 0.280901 0.936721
O O9 0.881558 0.239467 0.575813
O O10 0.726019 0.000000 0.911485
O O11 0.635861 0.247385 0.978975
O O12 0.225893 0.500000 0.688381
O O13 0.386268 0.275579 0.397514
O O14 0.135321 0.270581 0.994518
O O15 0.541988 0.000000 0.782510
O O16 0.572480 0.748330 0.856127
O O17 0.006022 0.500000 0.350302
O O18 0.062331 0.277698 0.389442
O O19 0.552626 0.500000 0.036119
O O20 0.040588 0.500000 0.593976
#
# Coordination Sequence:
#
# PCOD9130967 Si02
#       8
#     2   2   2   2   2   2   2   2
#     4  10  21  35  53  79 111 142 174 214 264 318
#     4  10  21  38  58  80 106 141 182 224 267 317
#     4  11  22  36  55  81 111 143 177 220 270 320
#     4   9  19  36  58  80 104 137 179 222 264 311
#     4  10  21  37  55  80 111 142 178 223 270 318
#     4   9  19  37  57  79 106 137 177 224 266 314
#     4  10  20  36  57  81 108 143 183 222 265 317
#     4   9  19  35  55  78 105 137 176 219 264 313
#
# _framework density 17.472187000000002
#
# number of rings (size 3 to 8) (size 9 to 14) (size 15 to 20)
#    0.000    2.250    0.000    3.375    0.000    7.000 
#    0.000    2.500    0.000    0.000    0.000    0.000 
#    0.000    0.000    0.000    0.000    0.000    0.000 
#
# Total GULP energy -89320.538426 kJ/mol
# GULP energy per Si atom -5582.533652 kJ/mol
# Density = 1.743242 g / cm^3
# Si number density = 17.472187 Si / 1000 Ang^3
#
#
#
# Elastic Constant Matrix: (Units=GPa)
#
#
# Indices 1 2 3 4 5 6 
#
# 1 317.3378 124.9349 219.1888 0.0000 23.8581 0.0000
# 2 124.9349 88.2685 111.0044 0.0000 15.0684 0.0000
# 3 219.1888 111.0044 263.0569 0.0000 51.4755 0.0000
# 4 0.0000 0.0000 0.0000 15.0279 0.0000 -4.7348
# 5 23.8581 15.0684 51.4755 0.0000 20.0667 0.0000
# 6 0.0000 0.0000 0.0000 -4.7348 0.0000 11.0074
#
#
#
# Elastic Compliance Matrix: (Units=1/GPa)
#
#
# Indices 1 2 3 4 5 6 
#
# 1 0.011378 -0.006080 -0.010363 0.000000 0.017622 0.000000
# 2 -0.006080 0.030278 -0.009389 0.000000 0.008577 0.000000
# 3 -0.010363 -0.009389 0.025315 0.000000 -0.045567 0.000000
# 4 0.000000 0.000000 0.000000 0.076975 0.000000 0.033111
# 5 0.017622 0.008577 -0.045567 0.000000 0.139331 0.000000
# 6 0.000000 0.000000 0.000000 0.033111 0.000000 0.105090
#
#
# Mechanical properties :
#
#
# Convention : Reuss Voigt Hill
#
# Bulk Modulus (GPa) = 65.33097 175.43549 120.38323
# Shear Modulus (GPa) = 11.23258 23.45608 17.34433
#
# Velocity S-wave (km/s) = 2.53827 3.66796 3.15410
# Velocity P-wave (km/s) = 6.78697 10.88876 9.07271
#
# Compressibility (1/GPa) = 0.01530668
#
# Stress axis : x y z
#
# Youngs Moduli (GPa) = 87.88769 33.02749 39.50252
#
# Poissons Ratio (x) = 0.20082 0.40937
# Poissons Ratio (y) = 0.53438 0.37087
# Poissons Ratio (z) = 0.91080 0.31008
#
# Static dielectric constant tensor:
#      x y z
#    x 1.560150 0.000000 -0.002900 
#    y 0.000000 1.581940 0.000000 
#    z -0.002900 0.000000 1.582990 
# 
# From -- ./inp_files/2699.got.cif
#   From: 2010.05.17/outbox.cif.g08.bks.cpg/sg6_2_cif.got.tgz:2699.got - 2010.06.03 19:42:10.
