data_PCOD9130695
_publ_section_title
;
Structure prediction by ZEFSAII (Michael W. Deem and Ramdas Pophale) SiO2 
 PCOD9130695
Probable space group: C 2
;
_chemical_formula_sum "Si O2"
_cell_formula_units_Z 13
_cell_length_a 9.000000
_cell_length_b 21.000000
_cell_length_c 12.000000
_cell_angle_alpha 90.000000
_cell_angle_beta 40.000000
_cell_angle_gamma 90.000000
_cell_volume 1457.842299
_symmetry_space_group_name_H-M "C 2"
_symmetry_group_IT_number 5
_symmetry_cell_setting 'monoclinic'
loop_
_space_group_symop_operation_xyz
x,y,z
-x,y,-z
1/2+x,1/2+y,z
1/2-x,1/2+y,-z
loop_
_atom_site_type_symbol
_atom_site_label
_atom_site_fract_x
_atom_site_fract_y
_atom_site_fract_z
Si Si1 0.391671 0.292660 0.680740
Si Si2 0.225881 0.064004 0.289940
Si Si3 0.868096 0.419011 0.253114
Si Si4 0.739200 0.879481 0.431172
Si Si5 0.764130 0.091622 0.978388
Si Si6 0.500000 0.696568 0.000000
Si Si7 0.401961 0.447445 0.936495
O O1 0.500000 0.270592 0.500000
O O2 0.254786 0.358753 0.733403
O O3 0.608992 0.315532 0.632011
O O4 0.209776 0.241888 0.835045
O O5 0.197702 0.088602 0.178330
O O6 0.000000 0.078202 0.500000
O O7 0.262819 0.986819 0.273672
O O8 0.487029 0.090463 0.168157
O O9 0.824125 0.409731 0.411421
O O10 0.142429 0.419990 0.069718
O O11 0.500000 0.869744 0.500000
O O12 0.912779 0.924887 0.261674
O O13 0.893501 0.149833 0.965578
O O14 0.867046 0.023593 0.957535
O O15 0.500000 0.426622 0.000000
#
# Coordination Sequence:
#
# PCOD9130695 Si02
#       7
#     4   4   4   4   4   2   4
#     4  10  23  41  62  86 117 162 205 249 297 363
#     4  10  20  40  65  93 120 155 190 252 318 362
#     4  10  20  38  62  93 124 152 198 242 311 374
#     4  11  21  36  60  95 125 151 194 252 308 368
#     4  10  23  38  59  88 123 158 208 243 286 367
#     4  12  24  44  60  84 118 168 214 252 286 344
#     4  11  19  33  57  91 125 153 180 246 310 356
#
# _framework density 8.9172879999999992
#
# number of rings (size 3 to 8) (size 9 to 14) (size 15 to 20)
#    0.000    1.538    2.308    4.154    0.000    3.692 
#    0.000    7.692    0.000    0.000    0.000    0.000 
#    0.000    0.000    0.000    0.000    0.000    0.000 
#
# Total GULP energy -72567.756198 kJ/mol
# GULP energy per Si atom -5582.135092 kJ/mol
# Density = 0.889699 g / cm^3
# Si number density = 8.917288 Si / 1000 Ang^3
#
#
#
# Elastic Constant Matrix: (Units=GPa)
#
#
# Indices 1 2 3 4 5 6 
#
# 1 130.6671 55.1301 63.2328 0.0000 -8.6205 0.0000
# 2 55.1301 94.4290 56.8510 0.0000 -2.3049 0.0000
# 3 63.2328 56.8510 172.2132 0.0000 -16.3656 0.0000
# 4 0.0000 0.0000 0.0000 30.0466 0.0000 -4.5004
# 5 -8.6205 -2.3049 -16.3656 0.0000 35.5401 0.0000
# 6 0.0000 0.0000 0.0000 -4.5004 0.0000 27.9503
#
#
#
# Elastic Compliance Matrix: (Units=1/GPa)
#
#
# Indices 1 2 3 4 5 6 
#
# 1 0.010933 -0.005003 -0.002240 0.000000 0.001296 0.000000
# 2 -0.005003 0.015556 -0.003470 0.000000 -0.001802 0.000000
# 3 -0.002240 -0.003470 0.008054 0.000000 0.002940 0.000000
# 4 0.000000 0.000000 0.000000 0.034104 0.000000 0.005491
# 5 0.001296 -0.001802 0.002940 0.000000 0.029689 0.000000
# 6 0.000000 0.000000 0.000000 0.005491 0.000000 0.036662
#
#
# Mechanical properties :
#
#
# Convention : Reuss Voigt Hill
#
# Bulk Modulus (GPa) = 76.22904 83.08191 79.65548
# Shear Modulus (GPa) = 31.09549 33.51374 32.30462
#
# Velocity S-wave (km/s) = 4.18011 4.33961 4.26061
# Velocity P-wave (km/s) = 8.13221 8.47322 8.30447
#
# Compressibility (1/GPa) = 0.01311836
#
# Stress axis : x y z
#
# Youngs Moduli (GPa) = 91.46426 64.28500 124.16363
#
# Poissons Ratio (x) = 0.32162 0.27808
# Poissons Ratio (y) = 0.45760 0.43079
# Poissons Ratio (z) = 0.20485 0.22304
#
# Static dielectric constant tensor:
#      x y z
#    x 1.650540 0.000000 0.004440 
#    y 0.000000 1.585970 0.000000 
#    z 0.004440 0.000000 1.613830 
# 
# From -- ./inp_files/37264.got.cif
#   From: 2010.05.17/outbox.ucp.g08.bks.cvg/sg5_19_cif.got.tgz:37264.got - 2010.06.11 12:53:14.
