data_PCOD9130951
_publ_section_title
;
Structure prediction by ZEFSAII (Michael W. Deem and Ramdas Pophale) SiO2 
 PCOD9130951
Probable space group: P M
;
_chemical_formula_sum "Si O2"
_cell_formula_units_Z 16
_cell_length_a 12.420298
_cell_length_b 11.594837
_cell_length_c 9.463497
_cell_angle_alpha 90.000000
_cell_angle_beta 144.666424
_cell_angle_gamma 90.000000
_cell_volume 788.185394
_symmetry_space_group_name_H-M "P M"
_symmetry_group_IT_number 6
_symmetry_cell_setting 'monoclinic'
loop_
_space_group_symop_operation_xyz
x,y,z
x,-y,z
loop_
_atom_site_type_symbol
_atom_site_label
_atom_site_fract_x
_atom_site_fract_y
_atom_site_fract_z
Si Si1 0.845300 0.865500 0.024350
Si Si2 0.349733 0.629853 0.948556
Si Si3 0.967065 0.324337 0.660446
Si Si4 0.073718 0.868504 0.979077
Si Si5 0.826345 0.364696 0.192324
Si Si6 0.379675 0.631249 0.677177
Si Si7 0.623519 0.629939 0.463502
Si Si8 0.454747 0.209124 0.513460
O O1 0.884200 0.750367 0.163452
O O2 0.952148 0.843653 0.990171
O O3 0.895220 0.000000 0.122517
O O4 0.620534 0.865565 0.758822
O O5 0.415387 0.500000 0.984745
O O6 0.171139 0.624708 0.855828
O O7 0.300431 0.676445 0.741729
O O8 0.513030 0.685970 0.212876
O O9 0.874543 0.339892 0.407836
O O10 0.834197 0.376476 0.637642
O O11 0.007799 0.200647 0.771341
O O12 0.291741 0.848468 0.248068
O O13 0.042543 0.000000 0.914282
O O14 0.891165 0.500000 0.229937
O O15 0.603461 0.369617 0.935396
O O16 0.317786 0.500000 0.580984
O O17 0.345327 0.718197 0.514474
O O18 0.553693 0.500000 0.410917
O O19 0.572209 0.701867 0.544087
#
# Coordination Sequence:
#
# PCOD9130951 Si02
#       8
#     2   2   2   2   2   2   2   2
#     4  10  23  44  66  89 125 172 215 262 316 375
#     4  10  20  35  56  85 124 164 200 244 308 376
#     4  12  22  39  62  90 126 166 204 254 319 380
#     4  11  25  43  62  89 122 166 221 268 309 372
#     4  10  21  39  64  95 128 163 208 263 319 376
#     4   9  19  36  58  88 127 162 199 253 315 375
#     4  11  21  36  58  90 128 163 204 255 313 382
#     4  11  21  40  64  88 120 164 210 265 309 370
#
# _framework density 20.299792
#
# number of rings (size 3 to 8) (size 9 to 14) (size 15 to 20)
#    0.000    1.500    3.750    1.875    1.750    1.000 
#    0.000    0.625    0.000    0.750    0.000    0.000 
#    0.000    0.000    0.000    0.000    0.000    0.000 
#
# Total GULP energy -89090.768537 kJ/mol
# GULP energy per Si atom -5568.173034 kJ/mol
# Density = 2.025359 g / cm^3
# Si number density = 20.299792 Si / 1000 Ang^3
#
#
#
# Elastic Constant Matrix: (Units=GPa)
#
#
# Indices 1 2 3 4 5 6 
#
# 1 90.4834 42.3819 -4.7807 0.0000 1.4375 0.0000
# 2 42.3819 125.7263 28.0646 0.0000 -22.9597 0.0000
# 3 -4.7807 28.0646 42.1543 0.0000 1.2017 0.0000
# 4 0.0000 0.0000 0.0000 26.9002 0.0000 -19.7444
# 5 1.4375 -22.9597 1.2017 0.0000 31.0748 0.0000
# 6 0.0000 0.0000 0.0000 -19.7444 0.0000 30.4422
#
#
#
# Elastic Compliance Matrix: (Units=1/GPa)
#
#
# Indices 1 2 3 4 5 6 
#
# 1 0.015327 -0.008067 0.007307 0.000000 -0.006952 0.000000
# 2 -0.008067 0.015501 -0.011584 0.000000 0.012274 0.000000
# 3 0.007307 -0.011584 0.032553 0.000000 -0.010156 0.000000
# 4 0.000000 0.000000 0.000000 0.070951 0.000000 0.046018
# 5 -0.006952 0.012274 -0.010156 0.000000 0.041963 0.000000
# 6 0.000000 0.000000 0.000000 0.046018 0.000000 0.062696
#
#
# Mechanical properties :
#
#
# Convention : Reuss Voigt Hill
#
# Bulk Modulus (GPa) = 25.84535 43.29951 34.57243
# Shear Modulus (GPa) = 18.07815 30.52998 24.30406
#
# Velocity S-wave (km/s) = 2.98746 3.88229 3.46389
# Velocity P-wave (km/s) = 4.96582 6.43992 5.75030
#
# Compressibility (1/GPa) = 0.03869168
#
# Stress axis : x y z
#
# Youngs Moduli (GPa) = 65.24423 64.51371 30.71904
#
# Poissons Ratio (x) = 0.52046 -0.22448
# Poissons Ratio (y) = 0.52635 0.35586
# Poissons Ratio (z) = -0.47676 0.74736
#
# Static dielectric constant tensor:
#      x y z
#    x 1.744670 0.000000 0.002700 
#    y 0.000000 1.729460 0.000000 
#    z 0.002700 0.000000 1.777820 
# 
# From -- ./inp_files/4032.got.cif
#   From: 2010.05.17/outbox.cif.g08.bks.cpg/sg6_3_cif.got.tgz:4032.got - 2010.06.03 19:42:10.
