data_PCOD9130155
_publ_section_title
;
Structure prediction by ZEFSAII (Michael W. Deem and Ramdas Pophale) SiO2 
 PCOD9130155
Probable space group: C 2
;
_chemical_formula_sum "Si O2"
_cell_formula_units_Z 16
_cell_length_a 5.548596
_cell_length_b 23.095407
_cell_length_c 5.176183
_cell_angle_alpha 90.000000
_cell_angle_beta 83.214611
_cell_angle_gamma 90.000000
_cell_volume 658.666691
_symmetry_space_group_name_H-M "C 2"
_symmetry_group_IT_number 5
_symmetry_cell_setting 'monoclinic'
loop_
_space_group_symop_operation_xyz
x,y,z
-x,y,-z
1/2+x,1/2+y,z
1/2-x,1/2+y,-z
loop_
_atom_site_type_symbol
_atom_site_label
_atom_site_fract_x
_atom_site_fract_y
_atom_site_fract_z
Si Si1 0.755902 0.969050 0.365995
Si Si2 0.725351 0.848465 0.149823
Si Si3 0.653682 0.228665 0.720762
Si Si4 0.500000 0.628435 0.500000
Si Si5 0.000000 0.047090 0.000000
O O1 0.500000 0.991417 0.500000
O O2 0.743695 0.899773 0.352316
O O3 0.000000 0.981802 0.500000
O O4 0.788845 0.000363 0.084866
O O5 0.672121 0.782313 0.235020
O O6 0.500000 0.866380 0.000000
O O7 0.000000 0.846165 0.000000
O O8 0.500000 0.252235 0.500000
O O9 0.780509 0.171733 0.594083
O O10 0.500000 0.215446 0.000000
O O11 0.480875 0.589185 0.248059
#
# Coordination Sequence:
#
# PCOD9130155 Si02
#       5
#     4   4   4   2   2
#     4  12  27  50  81 117 160 210 264 327 399 467
#     4  11  25  45  80 120 163 201 261 328 400 472
#     4  11  27  48  78 117 155 209 261 325 395 467
#     4  12  28  50  80 108 162 206 270 316 392 468
#     4  12  28  52  74 120 154 216 266 324 386 476
#
# _framework density 24.291499999999999
#
# number of rings (size 3 to 8) (size 9 to 14) (size 15 to 20)
#    0.000    0.500    2.500    3.750   10.500    3.000 
#    4.500    0.000    0.000    0.000    0.000    0.000 
#    0.000    0.000    0.000    0.000    0.000    0.000 
#
# Total GULP energy -44676.473201 kJ/mol
# GULP energy per Si atom -5584.559150 kJ/mol
# Density = 2.423621 g / cm^3
# Si number density = 24.291500 Si / 1000 Ang^3
#
#
#
# Elastic Constant Matrix: (Units=GPa)
#
#
# Indices 1 2 3 4 5 6 
#
# 1 140.4806 19.2787 58.2473 0.0000 -13.1298 0.0000
# 2 19.2787 136.3285 43.3351 0.0000 -12.7974 0.0000
# 3 58.2473 43.3351 153.6386 0.0000 -27.4662 0.0000
# 4 0.0000 0.0000 0.0000 52.7973 0.0000 46.8158
# 5 -13.1298 -12.7974 -27.4662 0.0000 60.9273 0.0000
# 6 0.0000 0.0000 0.0000 46.8158 0.0000 20.6869
#
#
#
# Elastic Compliance Matrix: (Units=1/GPa)
#
#
# Indices 1 2 3 4 5 6 
#
# 1 0.008459 -0.000178 -0.003086 0.000000 0.000394 0.000000
# 2 -0.000178 0.008091 -0.002086 0.000000 0.000721 0.000000
# 3 -0.003086 -0.002086 0.008777 0.000000 0.002854 0.000000
# 4 0.000000 0.000000 0.000000 -0.018815 0.000000 0.042579
# 5 0.000394 0.000721 0.002854 0.000000 0.017936 0.000000
# 6 0.000000 0.000000 0.000000 0.042579 0.000000 -0.048019
#
#
# Mechanical properties :
#
#
# Convention : Reuss Voigt Hill
#
# Bulk Modulus (GPa) = 68.36578 74.68554 71.52566
# Shear Modulus (GPa) = -625.50137 47.52140 -288.98998
#
# Velocity S-wave (km/s) = -16.06415 4.42780 -10.91906
# Velocity P-wave (km/s) = 17.77276 7.54671 11.37801
#
# Compressibility (1/GPa) = 0.01462720
#
# Stress axis : x y z
#
# Youngs Moduli (GPa) = 118.21139 123.59282 113.92970
#
# Poissons Ratio (x) = 0.02202 0.35163
# Poissons Ratio (y) = 0.02106 0.23763
# Poissons Ratio (z) = 0.36485 0.25778
#
# Static dielectric constant tensor:
#      x y z
#    x 2.178890 0.000000 0.009310 
#    y 0.000000 1.908210 0.000000 
#    z 0.009310 0.000000 1.876280 
# 
# From -- ./inp_files/655.got.cif
#   From: 2010.05.17/outbox.cif.g08.bks.cpg/sg5_1_cif.got.tgz:655.got - 2010.06.03 18:56:24.
