data_PCOD9130321
_publ_section_title
;
Structure prediction by ZEFSAII (Michael W. Deem and Ramdas Pophale) SiO2 
 PCOD9130321
Probable space group: C 2
;
_chemical_formula_sum "Si O2"
_cell_formula_units_Z 20
_cell_length_a 10.042990
_cell_length_b 7.918310
_cell_length_c 20.040601
_cell_angle_alpha 90.000000
_cell_angle_beta 148.448805
_cell_angle_gamma 90.000000
_cell_volume 833.919217
_symmetry_space_group_name_H-M "C 2"
_symmetry_group_IT_number 5
_symmetry_cell_setting 'monoclinic'
loop_
_space_group_symop_operation_xyz
x,y,z
-x,y,-z
1/2+x,1/2+y,z
1/2-x,1/2+y,-z
loop_
_atom_site_type_symbol
_atom_site_label
_atom_site_fract_x
_atom_site_fract_y
_atom_site_fract_z
Si Si1 0.023740 0.098020 0.624257
Si Si2 0.551144 0.918693 0.841600
Si Si3 0.990784 0.093128 0.896418
Si Si4 0.092841 0.088638 0.279340
Si Si5 0.495047 0.995097 0.635937
O O1 0.947432 0.021112 0.664668
O O2 0.017805 0.299568 0.627033
O O3 0.304152 0.033702 0.729893
O O4 0.796639 0.041746 0.478897
O O5 0.519274 0.790627 0.892330
O O6 0.532105 0.774619 0.776664
O O7 0.805912 0.019715 0.966683
O O8 0.691714 0.054371 0.777278
O O9 0.034607 0.005385 0.841015
O O10 0.383169 0.095503 0.376316
#
# Coordination Sequence:
#
# PCOD9130321 Si02
#       5
#     4   4   4   4   4
#     4  12  19  39  61  77 114 153 185 222 289 324
#     4   9  19  35  61  81 111 150 181 230 277 330
#     4   8  18  38  54  81 117 139 180 238 271 317
#     4   8  22  37  58  79 114 146 184 226 280 325
#     4   9  21  34  58  83 109 145 186 233 267 332
#
# _framework density 23.983138
#
# number of rings (size 3 to 8) (size 9 to 14) (size 15 to 20)
#    2.400    0.000    0.000    4.200    0.000    0.800 
#    0.000    8.000    8.800    0.000    0.000    0.000 
#    0.000    0.000    0.000    0.000    0.000    0.000 
#
# Total GULP energy -55672.350368 kJ/mol
# GULP energy per Si atom -5567.235037 kJ/mol
# Density = 2.392855 g / cm^3
# Si number density = 23.983138 Si / 1000 Ang^3
#
#
#
# Elastic Constant Matrix: (Units=GPa)
#
#
# Indices 1 2 3 4 5 6 
#
# 1 64.7117 -17.7775 39.6177 0.0000 -1.2120 0.0000
# 2 -17.7775 79.2992 70.9149 0.0003 2.6150 0.0000
# 3 39.6177 70.9149 246.0535 0.0031 14.9045 0.0003
# 4 0.0000 0.0003 0.0031 46.4768 0.0002 8.1574
# 5 -1.2120 2.6150 14.9045 0.0002 27.3361 0.0000
# 6 0.0000 0.0000 0.0003 8.1574 0.0000 17.2246
#
#
#
# Elastic Compliance Matrix: (Units=1/GPa)
#
#
# Indices 1 2 3 4 5 6 
#
# 1 0.023201 0.011619 -0.007321 0.000000 0.003909 0.000000
# 2 0.011619 0.022839 -0.008638 0.000000 0.003040 0.000000
# 3 -0.007321 -0.008638 0.007965 0.000000 -0.003841 0.000000
# 4 0.000000 0.000000 0.000000 0.023467 0.000000 -0.011114
# 5 0.003909 0.003040 -0.003841 0.000000 0.038558 0.000000
# 6 0.000000 0.000000 0.000000 -0.011114 0.000000 0.063320
#
#
# Mechanical properties :
#
#
# Convention : Reuss Voigt Hill
#
# Bulk Modulus (GPa) = 22.06225 63.95273 43.00749
# Shear Modulus (GPa) = 24.61388 38.02813 31.32100
#
# Velocity S-wave (km/s) = 3.20707 3.98630 3.61773
# Velocity P-wave (km/s) = 4.78881 6.92178 5.95163
#
# Compressibility (1/GPa) = 0.04532630
#
# Stress axis : x y z
#
# Youngs Moduli (GPa) = 43.10244 43.78408 125.54866
#
# Poissons Ratio (x) = -0.50874 0.91916
# Poissons Ratio (y) = -0.50082 1.08443
# Poissons Ratio (z) = 0.31556 0.37819
#
# Static dielectric constant tensor:
#      x y z
#    x 2.017090 0.000000 -0.038330 
#    y 0.000000 1.900880 0.000000 
#    z -0.038330 0.000000 1.916500 
# 
# From -- ./inp_files/71870.got.cif
#   From: 2010.05.17/outbox.cif.g08.bks.cpg/sg5_36_cif.got.tgz:71870.got - 2010.06.03 18:56:24.
