data_PCOD9130851
_publ_section_title
;
Structure prediction by ZEFSAII (Michael W. Deem and Ramdas Pophale) SiO2 
 PCOD9130851
Probable space group: P M
;
_chemical_formula_sum "Si O2"
_cell_formula_units_Z 12
_cell_length_a 9.410931
_cell_length_b 8.901224
_cell_length_c 9.375259
_cell_angle_alpha 90.000000
_cell_angle_beta 61.136872
_cell_angle_gamma 90.000000
_cell_volume 687.793891
_symmetry_space_group_name_H-M "P M"
_symmetry_group_IT_number 6
_symmetry_cell_setting 'monoclinic'
loop_
_space_group_symop_operation_xyz
x,y,z
x,-y,z
loop_
_atom_site_type_symbol
_atom_site_label
_atom_site_fract_x
_atom_site_fract_y
_atom_site_fract_z
Si Si1 0.962890 0.319492 0.830840
Si Si2 0.630484 0.318775 0.473895
Si Si3 0.932843 0.818279 0.157183
Si Si4 0.289935 0.679612 0.502674
Si Si5 0.131420 0.827017 0.321945
Si Si6 0.788321 0.825474 0.660027
O O1 0.953214 0.500000 0.846326
O O2 0.825658 0.258376 0.789378
O O3 0.135718 0.277986 0.675063
O O4 0.950428 0.243604 0.990328
O O5 0.641436 0.500000 0.470307
O O6 0.772101 0.251110 0.306367
O O7 0.457638 0.271676 0.492872
O O8 0.661313 0.255440 0.617599
O O9 0.083687 0.772980 0.187090
O O10 0.923066 0.000000 0.164997
O O11 0.291846 0.500000 0.494625
O O12 0.257149 0.739926 0.359775
O O13 0.959073 0.821011 0.489858
O O14 0.182283 0.000000 0.288930
O O15 0.747225 0.000000 0.702551
#
# Coordination Sequence:
#
# PCOD9130851 Si02
#       6
#     2   2   2   2   2   2
#     4  10  19  33  53  76 100 131 166 204 248 295
#     4  10  19  33  52  75 101 132 167 205 246 293
#     4  10  20  34  51  75 102 130 166 208 248 293
#     4   9  19  33  51  75 101 128 164 204 245 293
#     4   8  16  30  49  70  95 128 166 202 241 289
#     4   9  17  31  50  73  99 131 167 203 242 293
#
# _framework density 17.447088000000001
#
# number of rings (size 3 to 8) (size 9 to 14) (size 15 to 20)
#    0.000    2.667    0.000    3.000    0.000    6.667 
#    0.000    1.667    0.000    6.000    0.000    0.000 
#    0.000    0.000    0.000    0.000    0.000    0.000 
#
# Total GULP energy -66880.962344 kJ/mol
# GULP energy per Si atom -5573.413529 kJ/mol
# Density = 1.740738 g / cm^3
# Si number density = 17.447088 Si / 1000 Ang^3
#
#
#
# Elastic Constant Matrix: (Units=GPa)
#
#
# Indices 1 2 3 4 5 6 
#
# 1 162.0470 54.7654 63.5079 0.0000 41.1750 0.0000
# 2 54.7654 64.3608 39.3695 0.0000 17.1282 0.0000
# 3 63.5079 39.3695 93.2007 0.0000 42.3097 0.0000
# 4 0.0000 0.0000 0.0000 18.5655 0.0000 15.9632
# 5 41.1750 17.1282 42.3097 0.0000 31.6926 0.0000
# 6 0.0000 0.0000 0.0000 15.9632 0.0000 25.8716
#
#
#
# Elastic Compliance Matrix: (Units=1/GPa)
#
#
# Indices 1 2 3 4 5 6 
#
# 1 0.011195 -0.006732 0.000422 0.000000 -0.011470 0.000000
# 2 -0.006732 0.025018 -0.009679 0.000000 0.008147 0.000000
# 3 0.000422 -0.009679 0.031488 0.000000 -0.037353 0.000000
# 4 0.000000 0.000000 0.000000 0.114732 0.000000 -0.070792
# 5 -0.011470 0.008147 -0.037353 0.000000 0.091919 0.000000
# 6 0.000000 0.000000 0.000000 -0.070792 0.000000 0.082332
#
#
# Mechanical properties :
#
#
# Convention : Reuss Voigt Hill
#
# Bulk Modulus (GPa) = 27.99315 70.54378 49.26847
# Shear Modulus (GPa) = 12.48220 26.02364 19.25292
#
# Velocity S-wave (km/s) = 2.67766 3.86628 3.32551
# Velocity P-wave (km/s) = 5.06352 7.77506 6.56090
#
# Compressibility (1/GPa) = 0.03572302
#
# Stress axis : x y z
#
# Youngs Moduli (GPa) = 89.32417 39.97068 31.75845
#
# Poissons Ratio (x) = 0.26907 -0.01341
# Poissons Ratio (y) = 0.60131 0.30740
# Poissons Ratio (z) = -0.03771 0.38689
#
# Static dielectric constant tensor:
#      x y z
#    x 1.601710 0.000000 0.009550 
#    y 0.000000 1.585610 0.000000 
#    z 0.009550 0.000000 1.584640 
# 
# From -- ./inp_files/2409.got.cif
#   From: 2010.05.17/outbox.cif.g08.bks.cpg/sg6_2_cif.got.tgz:2409.got - 2010.06.03 19:42:10.
