data_PCOD9130773
_publ_section_title
;
Structure prediction by ZEFSAII (Michael W. Deem and Ramdas Pophale) SiO2 
 PCOD9130773
Probable space group: P M
;
_chemical_formula_sum "Si O2"
_cell_formula_units_Z 12
_cell_length_a 9.481261
_cell_length_b 8.452520
_cell_length_c 9.514955
_cell_angle_alpha 90.000000
_cell_angle_beta 120.469918
_cell_angle_gamma 90.000000
_cell_volume 657.224384
_symmetry_space_group_name_H-M "P M"
_symmetry_group_IT_number 6
_symmetry_cell_setting 'monoclinic'
loop_
_space_group_symop_operation_xyz
x,y,z
x,-y,z
loop_
_atom_site_type_symbol
_atom_site_label
_atom_site_fract_x
_atom_site_fract_y
_atom_site_fract_z
Si Si1 0.867860 0.189833 0.706700
Si Si2 0.208213 0.686864 0.860059
Si Si3 0.196891 0.186927 0.538332
Si Si4 0.548847 0.189522 0.048621
Si Si5 0.852224 0.312667 0.379942
Si Si6 0.554149 0.192641 0.724639
O O1 0.847321 0.239848 0.534042
O O2 0.709841 0.244383 0.714030
O O3 0.038723 0.263301 0.846610
O O4 0.879096 0.000000 0.720374
O O5 0.205722 0.500000 0.830178
O O6 0.206516 0.781280 0.711133
O O7 0.378766 0.735392 0.016828
O O8 0.375493 0.243010 0.576878
O O9 0.030819 0.270430 0.406828
O O10 0.180599 0.000000 0.505132
O O11 0.705069 0.243052 0.214993
O O12 0.534074 0.000000 0.045066
O O13 0.569179 0.240003 0.895550
O O14 0.837273 0.500000 0.383301
O O15 0.551842 0.000000 0.721603
#
# Coordination Sequence:
#
# PCOD9130773 Si02
#       6
#     2   2   2   2   2   2
#     4  10  18  33  54  76 100 133 168 203 244 294
#     4  10  18  30  48  74 102 131 164 203 244 294
#     4   9  16  31  52  73  96 131 170 204 240 292
#     4  10  19  35  55  75  97 130 169 208 248 295
#     4  11  21  33  49  76 105 132 165 206 248 294
#     4   8  17  32  54  78  98 123 168 212 244 287
#
# _framework density 18.258603999999998
#
# number of rings (size 3 to 8) (size 9 to 14) (size 15 to 20)
#    0.000    2.333    0.000    7.500    0.000    0.000 
#    0.000   11.667    0.000    4.000    0.000    0.000 
#    0.000    0.000    0.000    0.000    0.000    0.000 
#
# Total GULP energy -66893.161510 kJ/mol
# GULP energy per Si atom -5574.430126 kJ/mol
# Density = 1.821705 g / cm^3
# Si number density = 18.258604 Si / 1000 Ang^3
#
#
#
# Elastic Constant Matrix: (Units=GPa)
#
#
# Indices 1 2 3 4 5 6 
#
# 1 168.4877 19.7765 54.2345 0.0000 36.9770 0.0000
# 2 19.7765 47.8910 14.6150 0.0000 6.0102 0.0000
# 3 54.2345 14.6150 75.6021 0.0000 34.6526 0.0000
# 4 0.0000 0.0000 0.0000 -3.7285 0.0000 10.7971
# 5 36.9770 6.0102 34.6526 0.0000 30.0537 0.0000
# 6 0.0000 0.0000 0.0000 10.7971 0.0000 -0.6226
#
#
#
# Elastic Compliance Matrix: (Units=1/GPa)
#
#
# Indices 1 2 3 4 5 6 
#
# 1 0.008543 -0.001875 -0.002376 0.000000 -0.007397 0.000000
# 2 -0.001875 0.022618 -0.004266 0.000000 0.002702 0.000000
# 3 -0.002376 -0.004266 0.029746 0.000000 -0.030521 0.000000
# 4 0.000000 0.000000 0.000000 0.005450 0.000000 0.094500
# 5 -0.007397 0.002702 -0.030521 0.000000 0.077026 0.000000
# 6 0.000000 0.000000 0.000000 0.094500 0.000000 0.032633
#
#
# Mechanical properties :
#
#
# Convention : Reuss Voigt Hill
#
# Bulk Modulus (GPa) = 22.79273 52.13699 37.46486
# Shear Modulus (GPa) = 24.07625 18.69750 21.38687
#
# Velocity S-wave (km/s) = 3.63523 3.20353 3.42618
# Velocity P-wave (km/s) = 5.48910 6.50386 6.01791
#
# Compressibility (1/GPa) = 0.04387365
#
# Stress axis : x y z
#
# Youngs Moduli (GPa) = 117.05013 44.21325 33.61827
#
# Poissons Ratio (x) = 0.08288 0.07987
# Poissons Ratio (y) = 0.21942 0.14342
# Poissons Ratio (z) = 0.27809 0.18862
#
# Static dielectric constant tensor:
#      x y z
#    x 1.678720 0.000000 0.025580 
#    y 0.000000 1.612460 0.000000 
#    z 0.025580 0.000000 1.613970 
# 
# From -- ./inp_files/2414.got.cif
#   From: 2010.05.17/outbox.cif.g08.bks.cpg/sg6_2_cif.got.tgz:2414.got - 2010.06.03 19:42:10.
