data_PCOD9130392
_publ_section_title
;
Structure prediction by ZEFSAII (Michael W. Deem and Ramdas Pophale) SiO2 
 PCOD9130392
Probable space group: C 2
;
_chemical_formula_sum "Si O2"
_cell_formula_units_Z 24
_cell_length_a 14.696528
_cell_length_b 5.686061
_cell_length_c 17.792621
_cell_angle_alpha 90.000000
_cell_angle_beta 141.052062
_cell_angle_gamma 90.000000
_cell_volume 934.652605
_symmetry_space_group_name_H-M "C 2"
_symmetry_group_IT_number 5
_symmetry_cell_setting 'monoclinic'
loop_
_space_group_symop_operation_xyz
x,y,z
-x,y,-z
1/2+x,1/2+y,z
1/2-x,1/2+y,-z
loop_
_atom_site_type_symbol
_atom_site_label
_atom_site_fract_x
_atom_site_fract_y
_atom_site_fract_z
Si Si1 0.500000 0.738220 0.500000
Si Si2 0.973973 0.960233 0.636655
Si Si3 0.193327 0.604591 0.552101
Si Si4 0.500000 0.547855 0.000000
Si Si5 0.875698 0.366509 0.784966
Si Si6 0.216379 0.633337 0.135431
Si Si7 0.825555 0.426329 0.034583
O O1 0.499720 0.588659 0.574621
O O2 0.635810 0.906264 0.570743
O O3 0.937361 0.694160 0.585777
O O4 0.117328 0.051128 0.771218
O O5 0.829418 0.031685 0.588401
O O6 0.252506 0.800471 0.647133
O O7 0.573615 0.659821 0.124106
O O8 0.637682 0.377844 0.064465
O O9 0.823436 0.574651 0.805077
O O10 0.017002 0.433213 0.827625
O O11 0.139646 0.444980 0.032106
O O12 0.748303 0.675603 0.999823
#
# Coordination Sequence:
#
# PCOD9130392 Si02
#       7
#     2   4   4   2   4   4   4
#     4  12  24  52  76 110 156 206 258 340 394 488
#     4  12  27  50  78 115 159 210 271 332 416 497
#     4  12  27  50  78 115 159 210 271 332 416 497
#     4  12  22  48  76 114 160 204 286 330 428 488
#     4  12  25  46  75 109 154 210 263 344 409 494
#     4  12  25  46  75 109 154 210 263 344 409 494
#     4  12  26  46  71 113 160 208 274 336 414 498
#
# _framework density 25.677993000000001
#
# number of rings (size 3 to 8) (size 9 to 14) (size 15 to 20)
#    0.000    0.000    5.000    5.500    0.000    1.333 
#    6.000    0.000    0.000    0.000    0.000    0.000 
#    0.000    0.000    0.000    0.000    0.000    0.000 
#
# Total GULP energy -66967.103869 kJ/mol
# GULP energy per Si atom -5580.591989 kJ/mol
# Density = 2.561955 g / cm^3
# Si number density = 25.677993 Si / 1000 Ang^3
#
#
#
# Elastic Constant Matrix: (Units=GPa)
#
#
# Indices 1 2 3 4 5 6 
#
# 1 125.0748 31.6210 9.4830 0.0000 15.4956 0.0000
# 2 31.6210 68.1379 21.3747 0.0000 9.1163 0.0002
# 3 9.4830 21.3747 94.6037 -0.0001 17.9356 0.0000
# 4 0.0000 0.0000 -0.0001 32.0718 0.0000 -0.4768
# 5 15.4956 9.1163 17.9356 0.0000 56.1607 0.0000
# 6 0.0000 0.0002 0.0000 -0.4768 0.0000 53.8352
#
#
#
# Elastic Compliance Matrix: (Units=1/GPa)
#
#
# Indices 1 2 3 4 5 6 
#
# 1 0.009264 -0.004153 0.000390 0.000000 -0.002007 0.000000
# 2 -0.004153 0.017780 -0.003482 0.000000 -0.000628 0.000000
# 3 0.000390 -0.003482 0.011955 0.000000 -0.003360 0.000000
# 4 0.000000 0.000000 0.000000 0.031184 0.000000 0.000276
# 5 -0.002007 -0.000628 -0.003360 0.000000 0.019535 0.000000
# 6 0.000000 0.000000 0.000000 0.000276 0.000000 0.018578
#
#
# Mechanical properties :
#
#
# Convention : Reuss Voigt Hill
#
# Bulk Modulus (GPa) = 40.80053 45.86377 43.33215
# Shear Modulus (GPa) = 38.18102 43.43608 40.80855
#
# Velocity S-wave (km/s) = 3.86024 4.11733 3.99085
# Velocity P-wave (km/s) = 5.98267 6.36420 6.17639
#
# Compressibility (1/GPa) = 0.02450948
#
# Stress axis : x y z
#
# Youngs Moduli (GPa) = 107.94205 56.24363 83.64656
#
# Poissons Ratio (x) = 0.23359 -0.03264
# Poissons Ratio (y) = 0.44831 0.29124
# Poissons Ratio (z) = -0.04211 0.19583
#
# Static dielectric constant tensor:
#      x y z
#    x 2.106110 0.000000 0.050700 
#    y 0.000000 2.083480 0.000000 
#    z 0.050700 0.000000 2.077240 
# 
# From -- ./inp_files/65738.got.cif
#   From: 2010.05.17/outbox.cif.g08.bks.cpg/sg5_33_cif.got.tgz:65738.got - 2010.06.03 18:56:24.
