data_PCOD9130725
_publ_section_title
;
Structure prediction by ZEFSAII (Michael W. Deem and Ramdas Pophale) SiO2 
 PCOD9130725
Probable space group: C 2
;
_chemical_formula_sum "Si O2"
_cell_formula_units_Z 11
_cell_length_a 9.000000
_cell_length_b 9.000000
_cell_length_c 27.000000
_cell_angle_alpha 90.000000
_cell_angle_beta 30.000000
_cell_angle_gamma 90.000000
_cell_volume 1093.500000
_symmetry_space_group_name_H-M "C 2"
_symmetry_group_IT_number 5
_symmetry_cell_setting 'monoclinic'
loop_
_space_group_symop_operation_xyz
x,y,z
-x,y,-z
1/2+x,1/2+y,z
1/2-x,1/2+y,-z
loop_
_atom_site_type_symbol
_atom_site_label
_atom_site_fract_x
_atom_site_fract_y
_atom_site_fract_z
Si Si1 0.319211 0.343870 0.739712
Si Si2 0.256201 0.032356 0.890220
Si Si3 0.618575 0.506034 0.819706
Si Si4 0.000000 0.334220 0.000000
Si Si5 0.603056 0.906844 0.360661
Si Si6 0.222601 0.718931 0.541419
O O1 0.160714 0.182547 0.794954
O O2 0.588699 0.374761 0.699757
O O3 0.487986 0.326638 0.637836
O O4 0.077843 0.476056 0.815388
O O5 0.250865 0.979327 0.835619
O O6 0.000000 0.964445 0.000000
O O7 0.154247 0.207191 0.919514
O O8 0.801949 0.418374 0.724354
O O9 0.281178 0.445242 0.923797
O O10 0.368063 0.786810 0.449753
O O11 0.451327 0.065404 0.417070
O O12 0.500000 0.695858 0.500000
#
# Coordination Sequence:
#
# PCOD9130725 Si02
#       6
#     4   4   4   2   4   4
#     4  10  23  44  66  94 135 170 212 265 323 381
#     4  10  26  41  63  95 133 171 217 266 317 375
#     4  11  24  42  66  93 128 172 218 266 318 380
#     4  10  26  38  64  94 128 172 224 264 314 374
#     4  10  22  43  70  96 129 170 214 264 322 386
#     4   9  21  42  66  98 132 168 208 267 324 383
#
# _framework density 10.059442000000001
#
# number of rings (size 3 to 8) (size 9 to 14) (size 15 to 20)
#    0.545    1.455    0.000    1.091    6.364    8.727 
#    0.000   11.818    0.000    0.000    0.000    0.000 
#    0.000    0.000    0.000    0.000    0.000    0.000 
#
# Total GULP energy -61251.523566 kJ/mol
# GULP energy per Si atom -5568.320324 kJ/mol
# Density = 1.003655 g / cm^3
# Si number density = 10.059442 Si / 1000 Ang^3
#
#
#
# Elastic Constant Matrix: (Units=GPa)
#
#
# Indices 1 2 3 4 5 6 
#
# 1 60.3488 29.6189 52.8568 -0.0012 13.6796 0.0001
# 2 29.6189 71.6070 51.5794 -0.0001 -3.2824 -0.0009
# 3 52.8568 51.5794 148.8788 -0.0033 -6.3554 0.0039
# 4 -0.0012 -0.0001 -0.0033 60.3425 0.0016 -6.1704
# 5 13.6796 -3.2824 -6.3554 0.0016 36.0414 -0.0005
# 6 0.0001 -0.0009 0.0039 -6.1704 -0.0005 23.7054
#
#
#
# Elastic Compliance Matrix: (Units=1/GPa)
#
#
# Indices 1 2 3 4 5 6 
#
# 1 0.031352 -0.006882 -0.009352 0.000001 -0.014176 0.000001
# 2 -0.006882 0.020131 -0.004374 0.000000 0.003674 0.000002
# 3 -0.009352 -0.004374 0.011776 0.000000 0.005228 -0.000002
# 4 0.000001 0.000000 0.000000 0.017025 -0.000001 0.004432
# 5 -0.014176 0.003674 0.005228 -0.000001 0.034383 0.000000
# 6 0.000001 0.000002 -0.000002 0.004432 0.000000 0.043338
#
#
# Mechanical properties :
#
#
# Convention : Reuss Voigt Hill
#
# Bulk Modulus (GPa) = 45.36626 60.99385 53.18006
# Shear Modulus (GPa) = 24.20509 33.80316 29.00413
#
# Velocity S-wave (km/s) = 3.47234 4.10344 3.80101
# Velocity P-wave (km/s) = 6.21886 7.26866 6.76416
#
# Compressibility (1/GPa) = 0.02204281
#
# Stress axis : x y z
#
# Youngs Moduli (GPa) = 31.89585 49.67489 84.91995
#
# Poissons Ratio (x) = 0.34184 0.79417
# Poissons Ratio (y) = 0.21950 0.37147
# Poissons Ratio (z) = 0.29829 0.21730
#
# Static dielectric constant tensor:
#      x y z
#    x 1.755160 0.000000 0.007880 
#    y 0.000000 1.731810 -0.000010 
#    z 0.007880 -0.000010 1.719660 
# 
# From -- ./inp_files/49877.got.cif
#   From: 2010.05.17/outbox.ucp.g08.bks.cvg/sg5_25_cif.got.tgz:49877.got - 2010.06.11 12:53:14.
