data_PCOD9130445
_publ_section_title
;
Structure prediction by ZEFSAII (Michael W. Deem and Ramdas Pophale) SiO2 
 PCOD9130445
Probable space group: C 2
;
_chemical_formula_sum "Si O2"
_cell_formula_units_Z 20
_cell_length_a 26.362234
_cell_length_b 4.925708
_cell_length_c 8.909361
_cell_angle_alpha 90.000000
_cell_angle_beta 135.707240
_cell_angle_gamma 90.000000
_cell_volume 807.895005
_symmetry_space_group_name_H-M "C 2"
_symmetry_group_IT_number 5
_symmetry_cell_setting 'monoclinic'
loop_
_space_group_symop_operation_xyz
x,y,z
-x,y,-z
1/2+x,1/2+y,z
1/2-x,1/2+y,-z
loop_
_atom_site_type_symbol
_atom_site_label
_atom_site_fract_x
_atom_site_fract_y
_atom_site_fract_z
Si Si1 0.278630 0.711930 0.648076
Si Si2 0.432152 0.955646 0.933979
Si Si3 0.558725 0.225876 0.346796
Si Si4 0.278141 0.533483 0.978613
Si Si5 0.076509 0.231569 0.579476
O O1 0.260839 0.486971 0.486039
O O2 0.364220 0.782650 0.836774
O O3 0.090360 0.654476 0.250501
O O4 0.473741 0.133951 0.147399
O O5 0.500000 0.794819 0.000000
O O6 0.755853 0.102919 0.762504
O O7 0.590838 0.025705 0.540228
O O8 0.570548 0.526517 0.426889
O O9 0.235463 0.723109 0.007048
O O10 0.361009 0.621604 0.181158
O O11 0.000000 0.231292 0.500000
#
# Coordination Sequence:
#
# PCOD9130445 Si02
#       5
#     4   4   4   4   4
#     4  12  28  48  76 106 147 197 246 296 366 435
#     4   8  23  46  72 100 142 177 248 289 356 419
#     4   9  23  40  73 101 133 181 236 300 348 420
#     4  12  29  48  72 109 152 191 243 304 364 437
#     4  12  24  43  73  98 142 184 245 285 371 416
#
# _framework density 24.755694999999999
#
# number of rings (size 3 to 8) (size 9 to 14) (size 15 to 20)
#    1.200    0.000    0.000    4.200    8.400    8.000 
#    0.000    0.000    0.000    0.000    0.000    0.000 
#    0.000    0.000    0.000    0.000    0.000    0.000 
#
# Total GULP energy -56011.767586 kJ/mol
# GULP energy per Si atom -5601.176759 kJ/mol
# Density = 2.469935 g / cm^3
# Si number density = 24.755695 Si / 1000 Ang^3
#
#
#
# Elastic Constant Matrix: (Units=GPa)
#
#
# Indices 1 2 3 4 5 6 
#
# 1 70.4490 3.8241 16.7974 0.0000 -2.3209 0.0000
# 2 3.8241 72.9933 9.4705 0.0000 -1.3699 0.0000
# 3 16.7974 9.4705 114.0559 0.0000 5.6334 0.0000
# 4 0.0000 0.0000 0.0000 34.3922 0.0000 -4.5202
# 5 -2.3209 -1.3699 5.6334 0.0000 48.1432 0.0000
# 6 0.0000 0.0000 0.0000 -4.5202 0.0000 28.2972
#
#
#
# Elastic Compliance Matrix: (Units=1/GPa)
#
#
# Indices 1 2 3 4 5 6 
#
# 1 0.014772 -0.000473 -0.002183 0.000000 0.000954 0.000000
# 2 -0.000473 0.013878 -0.001107 0.000000 0.000502 0.000000
# 3 -0.002183 -0.001107 0.009241 0.000000 -0.001218 0.000000
# 4 0.000000 0.000000 0.000000 0.029700 0.000000 0.004744
# 5 0.000954 0.000502 -0.001218 0.000000 0.020974 0.000000
# 6 0.000000 0.000000 0.000000 0.004744 0.000000 0.036097
#
#
# Mechanical properties :
#
#
# Convention : Reuss Voigt Hill
#
# Bulk Modulus (GPa) = 32.93360 35.29802 34.11581
# Shear Modulus (GPa) = 35.13427 37.32695 36.23061
#
# Velocity S-wave (km/s) = 3.77137 3.88727 3.82976
# Velocity P-wave (km/s) = 5.68301 5.86833 5.77641
#
# Compressibility (1/GPa) = 0.03036413
#
# Stress axis : x y z
#
# Youngs Moduli (GPa) = 67.69400 72.05771 108.20970
#
# Poissons Ratio (x) = 0.03406 0.23627
# Poissons Ratio (y) = 0.03200 0.11984
# Poissons Ratio (z) = 0.14781 0.07980
#
# Static dielectric constant tensor:
#      x y z
#    x 1.963560 0.000000 0.041830 
#    y 0.000000 1.882670 0.000000 
#    z 0.041830 0.000000 2.012180 
# 
# From -- ./inp_files/46880.got.cif
#   From: 2010.05.17/outbox.cif.g08.bks.cpg/sg5_24_cif.got.tgz:46880.got - 2010.06.03 18:56:24.
