data_PCOD9130235
_publ_section_title
;
Structure prediction by ZEFSAII (Michael W. Deem and Ramdas Pophale) SiO2 
 PCOD9130235
Probable space group: C 2
;
_chemical_formula_sum "Si O2"
_cell_formula_units_Z 28
_cell_length_a 9.269462
_cell_length_b 10.687096
_cell_length_c 12.925146
_cell_angle_alpha 90.000000
_cell_angle_beta 113.015956
_cell_angle_gamma 90.000000
_cell_volume 1178.485983
_symmetry_space_group_name_H-M "C 2"
_symmetry_group_IT_number 5
_symmetry_cell_setting 'monoclinic'
loop_
_space_group_symop_operation_xyz
x,y,z
-x,y,-z
1/2+x,1/2+y,z
1/2-x,1/2+y,-z
loop_
_atom_site_type_symbol
_atom_site_label
_atom_site_fract_x
_atom_site_fract_y
_atom_site_fract_z
Si Si1 0.885475 0.566990 0.565161
Si Si2 0.334174 0.534520 0.977924
Si Si3 0.534734 0.905918 0.792040
Si Si4 0.417050 0.265667 0.730717
Si Si5 0.815709 0.134953 0.203256
Si Si6 0.216804 0.241247 0.198994
Si Si7 0.874846 0.034160 0.658435
O O1 0.856318 0.701523 0.608444
O O2 0.723215 0.517937 0.473090
O O3 0.000000 0.576305 0.500000
O O4 0.972195 0.482817 0.675757
O O5 0.175409 0.470571 0.893550
O O6 0.180870 0.069724 0.906763
O O7 0.346268 0.660356 0.913598
O O8 0.500000 0.464710 0.000000
O O9 0.604875 0.771553 0.781337
O O10 0.381497 0.867280 0.814544
O O11 0.353314 0.170753 0.799710
O O12 0.603056 0.266456 0.773667
O O13 0.359047 0.407569 0.720916
O O14 0.940590 0.058962 0.307674
O O15 0.193866 0.149736 0.292588
#
# Coordination Sequence:
#
# PCOD9130235 Si02
#       7
#     4   4   4   4   4   4   4
#     4  12  25  48  79 110 153 206 253 316 390 454
#     4  12  23  51  79 110 156 204 259 321 389 458
#     4  11  26  51  80 110 154 200 262 321 381 461
#     4  12  27  48  77 113 156 198 255 321 384 460
#     4  11  28  49  76 120 152 199 262 318 386 464
#     4  11  25  53  75 114 152 200 256 315 390 457
#     4  11  26  49  76 110 153 203 254 313 387 459
#
# _framework density 23.759298999999999
#
# number of rings (size 3 to 8) (size 9 to 14) (size 15 to 20)
#    0.000    0.571    5.714    1.714    6.000    2.286 
#    2.571    0.000    0.000    0.000    0.000    0.000 
#    0.000    0.000    0.000    0.000    0.000    0.000 
#
# Total GULP energy -78359.408190 kJ/mol
# GULP energy per Si atom -5597.100585 kJ/mol
# Density = 2.370522 g / cm^3
# Si number density = 23.759299 Si / 1000 Ang^3
#
#
#
# Elastic Constant Matrix: (Units=GPa)
#
#
# Indices 1 2 3 4 5 6 
#
# 1 170.1732 44.5239 62.2197 0.0000 7.4462 0.0000
# 2 44.5239 95.4210 46.3363 0.0000 10.4149 0.0000
# 3 62.2197 46.3363 111.3300 0.0000 26.8840 0.0000
# 4 0.0000 0.0000 0.0000 18.1851 0.0000 -2.5064
# 5 7.4462 10.4149 26.8840 0.0000 40.8309 0.0000
# 6 0.0000 0.0000 0.0000 -2.5064 0.0000 39.1832
#
#
#
# Elastic Compliance Matrix: (Units=1/GPa)
#
#
# Indices 1 2 3 4 5 6 
#
# 1 0.007737 -0.001876 -0.003945 0.000000 0.001665 0.000000
# 2 -0.001876 0.013592 -0.004583 0.000000 -0.000107 0.000000
# 3 -0.003945 -0.004583 0.015028 0.000000 -0.008006 0.000000
# 4 0.000000 0.000000 0.000000 0.055479 0.000000 0.003549
# 5 0.001665 -0.000107 -0.008006 0.000000 0.029487 0.000000
# 6 0.000000 0.000000 0.000000 0.003549 0.000000 0.025748
#
#
# Mechanical properties :
#
#
# Convention : Reuss Voigt Hill
#
# Bulk Modulus (GPa) = 64.31263 75.89824 70.10543
# Shear Modulus (GPa) = 28.89135 34.56279 31.72707
#
# Velocity S-wave (km/s) = 3.49090 3.81820 3.65821
# Velocity P-wave (km/s) = 6.58602 7.17302 6.88578
#
# Compressibility (1/GPa) = 0.01554905
#
# Stress axis : x y z
#
# Youngs Moduli (GPa) = 129.25216 73.57070 66.54249
#
# Poissons Ratio (x) = 0.13802 0.26253
# Poissons Ratio (y) = 0.24248 0.30495
# Poissons Ratio (z) = 0.50993 0.33716
#
# Static dielectric constant tensor:
#      x y z
#    x 2.014430 0.000000 -0.008430 
#    y 0.000000 1.916790 0.000000 
#    z -0.008430 0.000000 1.885110 
# 
# From -- ./inp_files/50155.got.cif
#   From: 2010.05.17/outbox.cif.g08.bks.cpg/sg5_26_cif.got.tgz:50155.got - 2010.06.03 18:56:24.
