data_PCOD9130521
_publ_section_title
;
Structure prediction by ZEFSAII (Michael W. Deem and Ramdas Pophale) SiO2 
 PCOD9130521
Probable space group: C 2
;
_chemical_formula_sum "Si O2"
_cell_formula_units_Z 20
_cell_length_a 16.549727
_cell_length_b 7.044723
_cell_length_c 15.097172
_cell_angle_alpha 90.000000
_cell_angle_beta 25.182120
_cell_angle_gamma 90.000000
_cell_volume 748.939549
_symmetry_space_group_name_H-M "C 2"
_symmetry_group_IT_number 5
_symmetry_cell_setting 'monoclinic'
loop_
_space_group_symop_operation_xyz
x,y,z
-x,y,-z
1/2+x,1/2+y,z
1/2-x,1/2+y,-z
loop_
_atom_site_type_symbol
_atom_site_label
_atom_site_fract_x
_atom_site_fract_y
_atom_site_fract_z
Si Si1 0.513960 0.395050 0.579741
Si Si2 0.633040 0.338955 0.001617
Si Si3 0.341975 0.577535 0.382284
Si Si4 0.786933 0.163459 0.193795
Si Si5 0.944333 0.467220 0.835059
O O1 0.500000 0.511856 0.500000
O O2 0.581817 0.513787 0.595457
O O3 0.660858 0.231529 0.400975
O O4 0.315719 0.280833 0.783729
O O5 0.426551 0.426589 0.229140
O O6 0.618818 0.113980 0.025798
O O7 0.773163 0.414326 0.939689
O O8 0.706784 0.443702 0.840705
O O9 0.115570 0.580992 0.615357
O O10 0.054535 0.272636 0.744182
O O11 0.000000 0.226182 0.000000
#
# Coordination Sequence:
#
# PCOD9130521 Si02
#       5
#     4   4   4   4   4
#     4   8  23  44  73 109 150 198 251 311 383 450
#     4  12  25  45  75 113 154 197 258 322 370 462
#     4  12  25  45  76 109 158 200 251 320 384 452
#     4   9  22  43  77 107 153 200 251 315 385 450
#     4  12  27  43  76 115 154 197 260 312 388 443
#
# _framework density 26.704426999999999
#
# number of rings (size 3 to 8) (size 9 to 14) (size 15 to 20)
#    1.200    0.000    4.000    1.200    2.800    1.600 
#    0.000    2.000    0.000    0.000    0.000    0.000 
#    0.000    0.000    0.000    0.000    0.000    0.000 
#
# Total GULP energy -55949.829971 kJ/mol
# GULP energy per Si atom -5594.982997 kJ/mol
# Density = 2.664365 g / cm^3
# Si number density = 26.704427 Si / 1000 Ang^3
#
#
#
# Elastic Constant Matrix: (Units=GPa)
#
#
# Indices 1 2 3 4 5 6 
#
# 1 138.6063 41.2873 29.8664 -0.0001 8.7632 0.0000
# 2 41.2873 197.0674 54.1815 -0.0012 18.8489 0.0003
# 3 29.8664 54.1815 138.9116 -0.0010 -23.4009 0.0002
# 4 -0.0001 -0.0012 -0.0010 45.0990 0.0002 4.2681
# 5 8.7632 18.8489 -23.4009 0.0002 48.7356 0.0001
# 6 0.0000 0.0003 0.0002 4.2681 0.0001 31.3724
#
#
#
# Elastic Compliance Matrix: (Units=1/GPa)
#
#
# Indices 1 2 3 4 5 6 
#
# 1 0.007991 -0.001060 -0.001608 0.000000 -0.001799 0.000000
# 2 -0.001060 0.006451 -0.002912 0.000000 -0.003703 0.000000
# 3 -0.001608 -0.002912 0.009704 0.000000 0.006075 0.000000
# 4 0.000000 0.000000 0.000000 0.022463 0.000000 -0.003056
# 5 -0.001799 -0.003703 0.006075 0.000000 0.025191 0.000000
# 6 0.000000 0.000000 0.000000 -0.003056 0.000000 0.032291
#
#
# Mechanical properties :
#
#
# Convention : Reuss Voigt Hill
#
# Bulk Modulus (GPa) = 77.00579 80.58394 78.79487
# Shear Modulus (GPa) = 41.81357 48.32474 45.06915
#
# Velocity S-wave (km/s) = 3.96130 4.25857 4.11262
# Velocity P-wave (km/s) = 7.05843 7.37715 7.21955
#
# Compressibility (1/GPa) = 0.01298604
#
# Stress axis : x y z
#
# Youngs Moduli (GPa) = 125.14778 155.00697 103.05417
#
# Poissons Ratio (x) = 0.16432 0.16566
# Poissons Ratio (y) = 0.13267 0.30011
# Poissons Ratio (z) = 0.20118 0.45140
#
# Static dielectric constant tensor:
#      x y z
#    x 2.160200 0.000000 -0.006330 
#    y 0.000000 2.108620 0.000000 
#    z -0.006330 0.000000 2.152870 
# 
# From -- ./inp_files/10658.got.cif
#   From: 2010.05.17/outbox.cif.g08.bks.cpg/sg5_6_cif.got.tgz:10658.got - 2010.06.03 18:56:24.
