data_PCOD9130125
_publ_section_title
;
Structure prediction by ZEFSAII (Michael W. Deem and Ramdas Pophale) SiO2 
 PCOD9130125
Probable space group: C 2
;
_chemical_formula_sum "Si O2"
_cell_formula_units_Z 30
_cell_length_a 15.082794
_cell_length_b 16.205762
_cell_length_c 11.434084
_cell_angle_alpha 90.000000
_cell_angle_beta 28.030371
_cell_angle_gamma 90.000000
_cell_volume 1313.392728
_symmetry_space_group_name_H-M "C 2"
_symmetry_group_IT_number 5
_symmetry_cell_setting 'monoclinic'
loop_
_space_group_symop_operation_xyz
x,y,z
-x,y,-z
1/2+x,1/2+y,z
1/2-x,1/2+y,-z
loop_
_atom_site_type_symbol
_atom_site_label
_atom_site_fract_x
_atom_site_fract_y
_atom_site_fract_z
Si Si1 0.801039 0.992350 0.451363
Si Si2 0.777873 0.295431 0.753881
Si Si3 0.769466 0.669280 0.410395
Si Si4 0.500000 0.439641 0.000000
Si Si5 0.414605 0.701832 0.975632
Si Si6 0.134356 0.017161 0.234069
Si Si7 0.960928 0.396215 0.914988
Si Si8 0.642359 0.178831 0.109901
O O1 0.880988 0.996075 0.227299
O O2 0.650842 0.918459 0.624678
O O3 0.699813 0.070593 0.631637
O O4 0.988787 0.983449 0.308028
O O5 0.727522 0.227733 0.708159
O O6 0.000000 0.314720 0.500000
O O7 0.648681 0.375979 0.886676
O O8 0.736283 0.251960 0.925658
O O9 0.560856 0.673145 0.706126
O O10 0.924198 0.691687 0.328778
O O11 0.424332 0.800096 0.962122
O O12 0.500000 0.674704 0.000000
O O13 0.207990 0.678747 0.168345
O O14 0.000000 0.039844 0.500000
O O15 0.265559 0.094623 0.047459
O O16 0.278085 0.943663 0.087745
O O17 0.000000 0.425497 0.000000
#
# Coordination Sequence:
#
# PCOD9130125 Si02
#       8
#     4   4   4   2   4   4   4   4
#     4  12  26  44  69 106 149 185 233 294 366 430
#     4  12  24  45  75 108 136 183 245 304 358 426
#     4  12  24  45  74 100 140 186 243 287 344 435
#     4  12  30  44  70 108 156 192 226 298 382 446
#     4  11  27  46  67  98 141 187 236 289 346 431
#     4  12  24  43  74 106 135 177 239 306 358 414
#     4  11  25  44  70 103 140 180 235 298 356 418
#     4  12  24  43  75 103 133 184 239 302 353 420
#
# _framework density 22.841608000000001
#
# number of rings (size 3 to 8) (size 9 to 14) (size 15 to 20)
#    0.000    0.267    6.667    2.000    2.800    0.533 
#    0.000    0.000    0.000    0.000    0.000    0.000 
#    0.000    0.000    0.000    0.000    0.000    0.000 
#
# Total GULP energy -83789.841059 kJ/mol
# GULP energy per Si atom -5585.989404 kJ/mol
# Density = 2.278962 g / cm^3
# Si number density = 22.841608 Si / 1000 Ang^3
#
#
#
# Elastic Constant Matrix: (Units=GPa)
#
#
# Indices 1 2 3 4 5 6 
#
# 1 125.1975 9.6236 12.9676 -0.0009 -23.5444 0.0006
# 2 9.6236 85.3866 1.0796 0.0004 -3.9460 -0.0011
# 3 12.9676 1.0796 52.8619 0.0026 -18.0856 -0.0017
# 4 -0.0009 0.0004 0.0026 20.8227 -0.0009 -11.6034
# 5 -23.5444 -3.9460 -18.0856 -0.0009 53.4591 0.0021
# 6 0.0006 -0.0011 -0.0017 -11.6034 0.0021 75.1886
#
#
#
# Elastic Compliance Matrix: (Units=1/GPa)
#
#
# Indices 1 2 3 4 5 6 
#
# 1 0.008806 -0.000819 -0.000947 0.000001 0.003498 0.000000
# 2 -0.000819 0.011828 0.000152 0.000000 0.000564 0.000000
# 3 -0.000947 0.000152 0.021496 -0.000002 0.006866 0.000000
# 4 0.000001 0.000000 -0.000002 0.052543 0.000000 0.008109
# 5 0.003498 0.000564 0.006866 0.000000 0.022611 0.000000
# 6 0.000000 0.000000 0.000000 0.008109 0.000000 0.014551
#
#
# Mechanical properties :
#
#
# Convention : Reuss Voigt Hill
#
# Bulk Modulus (GPa) = 25.70526 34.53195 30.11860
# Shear Modulus (GPa) = 33.77713 45.87910 39.82811
#
# Velocity S-wave (km/s) = 3.84963 4.48658 4.18025
# Velocity P-wave (km/s) = 5.57115 6.47997 6.04267
#
# Compressibility (1/GPa) = 0.03890255
#
# Stress axis : x y z
#
# Youngs Moduli (GPa) = 113.55695 84.54613 46.52123
#
# Poissons Ratio (x) = 0.06923 0.04405
# Poissons Ratio (y) = 0.09299 -0.00708
# Poissons Ratio (z) = 0.10752 -0.01287
#
# Static dielectric constant tensor:
#      x y z
#    x 1.819170 0.000000 0.071270 
#    y 0.000000 1.929510 0.000000 
#    z 0.071270 0.000000 1.821560 
# 
# From -- ./inp_files/43307.got.cif
#   From: 2010.05.17/outbox.cif.g08.bks.cpg/sg5_22_cif.got.tgz:43307.got - 2010.06.03 18:56:24.
