data_PCOD9130226
_publ_section_title
;
Structure prediction by ZEFSAII (Michael W. Deem and Ramdas Pophale) SiO2 
 PCOD9130226
Probable space group: C 2
;
_chemical_formula_sum "Si O2"
_cell_formula_units_Z 16
_cell_length_a 9.551094
_cell_length_b 12.213302
_cell_length_c 7.120580
_cell_angle_alpha 90.000000
_cell_angle_beta 133.190264
_cell_angle_gamma 90.000000
_cell_volume 605.591418
_symmetry_space_group_name_H-M "C 2"
_symmetry_group_IT_number 5
_symmetry_cell_setting 'monoclinic'
loop_
_space_group_symop_operation_xyz
x,y,z
-x,y,-z
1/2+x,1/2+y,z
1/2-x,1/2+y,-z
loop_
_atom_site_type_symbol
_atom_site_label
_atom_site_fract_x
_atom_site_fract_y
_atom_site_fract_z
Si Si1 0.992882 0.415300 0.795149
Si Si2 0.804459 0.092611 0.552785
Si Si3 0.250193 0.610487 0.939178
Si Si4 0.703822 0.287610 0.159811
O O1 0.124177 0.521930 0.930689
O O2 0.784400 0.471509 0.574725
O O3 0.112142 0.354874 0.742132
O O4 0.000000 0.352081 0.000000
O O5 0.733894 0.107444 0.701670
O O6 0.750485 0.195432 0.364155
O O7 0.033990 0.095494 0.786335
O O8 0.164397 0.722071 0.933413
O O9 0.500000 0.349499 0.000000
#
# Coordination Sequence:
#
# PCOD9130226 Si02
#       4
#     4   4   4   4
#     4  12  27  52  80 119 163 210 269 325 400 479
#     4  11  25  50  82 110 161 211 258 338 398 463
#     4  11  25  50  82 116 160 206 262 336 402 464
#     4  12  27  52  80 119 163 210 269 325 400 479
#
# _framework density 26.420452000000001
#
# number of rings (size 3 to 8) (size 9 to 14) (size 15 to 20)
#    0.000    0.500    5.000    1.500    7.000    4.000 
#    0.000    2.500    0.000    0.000    0.000    0.000 
#    0.000    0.000    0.000    0.000    0.000    0.000 
#
# Total GULP energy -44664.164569 kJ/mol
# GULP energy per Si atom -5583.020571 kJ/mol
# Density = 2.636032 g / cm^3
# Si number density = 26.420452 Si / 1000 Ang^3
#
#
#
# Elastic Constant Matrix: (Units=GPa)
#
#
# Indices 1 2 3 4 5 6 
#
# 1 147.3657 26.0786 57.4191 0.0000 0.7784 0.0000
# 2 26.0786 73.8571 23.2927 0.0000 3.1957 0.0000
# 3 57.4191 23.2927 87.8746 0.0000 -22.0345 0.0000
# 4 0.0000 0.0000 0.0000 13.1056 0.0000 2.2759
# 5 0.7784 3.1957 -22.0345 0.0000 42.2317 0.0000
# 6 0.0000 0.0000 0.0000 2.2759 0.0000 59.9111
#
#
#
# Elastic Compliance Matrix: (Units=1/GPa)
#
#
# Indices 1 2 3 4 5 6 
#
# 1 0.009728 -0.001059 -0.007019 0.000000 -0.003761 0.000000
# 2 -0.001059 0.015392 -0.004229 0.000000 -0.003352 0.000000
# 3 -0.007019 -0.004229 0.019789 0.000000 0.010774 0.000000
# 4 0.000000 0.000000 0.000000 0.076810 0.000000 -0.002918
# 5 -0.003761 -0.003352 0.010774 0.000000 0.029623 0.000000
# 6 0.000000 0.000000 0.000000 -0.002918 0.000000 0.016802
#
#
# Mechanical properties :
#
#
# Convention : Reuss Voigt Hill
#
# Bulk Modulus (GPa) = 49.27010 58.07538 53.67274
# Shear Modulus (GPa) = 25.05992 36.53682 30.79837
#
# Velocity S-wave (km/s) = 3.08312 3.72277 3.41794
# Velocity P-wave (km/s) = 5.60028 6.36456 5.99461
#
# Compressibility (1/GPa) = 0.02029628
#
# Stress axis : x y z
#
# Youngs Moduli (GPa) = 102.79723 64.96864 50.53384
#
# Poissons Ratio (x) = 0.06877 0.35470
# Poissons Ratio (y) = 0.10881 0.21369
# Poissons Ratio (z) = 0.72153 0.27473
#
# Static dielectric constant tensor:
#      x y z
#    x 2.064830 0.000000 -0.013040 
#    y 0.000000 2.170210 0.000000 
#    z -0.013040 0.000000 2.175400 
# 
# From -- ./inp_files/18866.got.cif
#   From: 2010.05.17/outbox.cif.g08.bks.cpg/sg5_10_cif.got.tgz:18866.got - 2010.06.03 18:56:24.
