data_PCOD9130222
_publ_section_title
;
Structure prediction by ZEFSAII (Michael W. Deem and Ramdas Pophale) SiO2 
 PCOD9130222
Probable space group: C 2
;
_chemical_formula_sum "Si O2"
_cell_formula_units_Z 12
_cell_length_a 7.032367
_cell_length_b 9.543156
_cell_length_c 11.270981
_cell_angle_alpha 90.000000
_cell_angle_beta 141.397811
_cell_angle_gamma 90.000000
_cell_volume 471.929184
_symmetry_space_group_name_H-M "C 2"
_symmetry_group_IT_number 5
_symmetry_cell_setting 'monoclinic'
loop_
_space_group_symop_operation_xyz
x,y,z
-x,y,-z
1/2+x,1/2+y,z
1/2-x,1/2+y,-z
loop_
_atom_site_type_symbol
_atom_site_label
_atom_site_fract_x
_atom_site_fract_y
_atom_site_fract_z
Si Si1 0.090007 0.273180 0.221749
Si Si2 0.117218 0.561983 0.921816
Si Si3 0.791129 0.766118 0.583092
O O1 0.180150 0.227372 0.397393
O O2 0.382006 0.332397 0.291027
O O3 0.859329 0.402617 0.108981
O O4 0.935487 0.142237 0.085291
O O5 0.886843 0.641605 0.719137
O O6 0.000000 0.570300 0.000000
O O7 0.500000 0.842851 0.500000
#
# Coordination Sequence:
#
# PCOD9130222 Si02
#       3
#     4   4   4
#     4  11  28  50  78 112 155 196 255 313 376 450
#     4  12  25  49  79 111 154 197 253 312 377 450
#     4  11  25  50  74 114 148 201 248 312 373 448
#
# _framework density 25.427544000000001
#
# number of rings (size 3 to 8) (size 9 to 14) (size 15 to 20)
#    0.000    0.667    3.333    3.000    4.667    5.333 
#   18.000    0.000    0.000    0.000    0.000    0.000 
#    0.000    0.000    0.000    0.000    0.000    0.000 
#
# Total GULP energy -33543.466379 kJ/mol
# GULP energy per Si atom -5590.577730 kJ/mol
# Density = 2.536967 g / cm^3
# Si number density = 25.427544 Si / 1000 Ang^3
#
#
#
# Elastic Constant Matrix: (Units=GPa)
#
#
# Indices 1 2 3 4 5 6 
#
# 1 154.2220 3.1846 57.9766 0.0032 0.1749 0.0015
# 2 3.1846 71.8815 63.2763 0.0007 0.0977 0.0002
# 3 57.9766 63.2763 184.5001 0.0048 -29.7223 0.0041
# 4 0.0032 0.0007 0.0048 16.4386 0.0036 -0.6505
# 5 0.1749 0.0977 -29.7223 0.0036 66.9995 0.0025
# 6 0.0015 0.0002 0.0041 -0.6505 0.0025 13.2629
#
#
#
# Elastic Compliance Matrix: (Units=1/GPa)
#
#
# Indices 1 2 3 4 5 6 
#
# 1 0.007833 0.002953 -0.003746 0.000000 -0.001686 0.000001
# 2 0.002953 0.021741 -0.009036 0.000002 -0.004048 0.000003
# 3 -0.003746 -0.009036 0.010446 -0.000003 0.004657 -0.000004
# 4 0.000000 0.000002 -0.000003 0.060951 -0.000005 0.002989
# 5 -0.001686 -0.004048 0.004657 -0.000005 0.017002 -0.000005
# 6 0.000001 0.000003 -0.000004 0.002989 -0.000005 0.075545
#
#
# Mechanical properties :
#
#
# Convention : Reuss Voigt Hill
#
# Bulk Modulus (GPa) = 49.11149 73.27542 61.19346
# Shear Modulus (GPa) = 22.73095 38.41793 30.57444
#
# Velocity S-wave (km/s) = 2.99314 3.89122 3.47135
# Velocity P-wave (km/s) = 5.59477 7.00490 6.33917
#
# Compressibility (1/GPa) = 0.02036183
#
# Stress axis : x y z
#
# Youngs Moduli (GPa) = 127.66066 45.99609 95.72615
#
# Poissons Ratio (x) = -0.13581 0.35857
# Poissons Ratio (y) = -0.37694 0.86501
# Poissons Ratio (z) = 0.47819 0.41563
#
# Static dielectric constant tensor:
#      x y z
#    x 2.093220 0.000000 0.042650 
#    y 0.000000 1.888900 0.000000 
#    z 0.042650 0.000000 1.965840 
# 
# From -- ./inp_files/13508.got.cif
#   From: 2010.05.17/outbox.cif.g08.bks.cpg/sg5_7_cif.got.tgz:13508.got - 2010.06.03 18:56:24.
