data_PCOD9130903
_publ_section_title
;
Structure prediction by ZEFSAII (Michael W. Deem and Ramdas Pophale) SiO2 
 PCOD9130903
Probable space group: P M
;
_chemical_formula_sum "Si O2"
_cell_formula_units_Z 16
_cell_length_a 7.543256
_cell_length_b 8.852386
_cell_length_c 12.704883
_cell_angle_alpha 90.000000
_cell_angle_beta 69.859605
_cell_angle_gamma 90.000000
_cell_volume 796.501999
_symmetry_space_group_name_H-M "P M"
_symmetry_group_IT_number 6
_symmetry_cell_setting 'monoclinic'
loop_
_space_group_symop_operation_xyz
x,y,z
x,-y,z
loop_
_atom_site_type_symbol
_atom_site_label
_atom_site_fract_x
_atom_site_fract_y
_atom_site_fract_z
Si Si1 0.822370 0.178797 0.398990
Si Si2 0.299245 0.320792 0.018128
Si Si3 0.710657 0.322563 0.636746
Si Si4 0.646447 0.680822 0.225207
Si Si5 0.336082 0.178179 0.797167
Si Si6 0.206303 0.679974 0.271352
Si Si7 0.975478 0.823281 0.744466
Si Si8 0.698756 0.820887 0.997266
O O1 0.720212 0.234599 0.525159
O O2 0.732006 0.258398 0.315597
O O3 0.041070 0.229841 0.361441
O O4 0.808503 0.000000 0.390931
O O5 0.290286 0.500000 0.001883
O O6 0.192388 0.287363 0.148867
O O7 0.513681 0.269428 0.997847
O O8 0.242717 0.232187 0.925328
O O9 0.704096 0.500000 0.619034
O O10 0.527400 0.268226 0.738325
O O11 0.890510 0.278337 0.670643
O O12 0.668152 0.500000 0.213724
O O13 0.420905 0.715030 0.262626
O O14 0.743291 0.757538 0.103857
O O15 0.190956 0.204801 0.731952
O O16 0.376518 0.000000 0.796366
O O17 0.178267 0.500000 0.291427
O O18 0.952926 0.000000 0.719588
O O19 0.855846 0.799998 0.875977
O O20 0.657291 0.000000 0.012399
#
# Coordination Sequence:
#
# PCOD9130903 Si02
#       8
#     2   2   2   2   2   2   2   2
#     4  12  26  43  67  93 124 167 214 260 315 377
#     4  10  20  36  60  93 130 168 206 254 315 371
#     4  12  26  45  67  90 124 167 214 263 316 373
#     4  10  22  41  64  93 129 166 209 260 312 369
#     4  11  23  40  63  93 128 165 209 259 313 375
#     4   9  21  41  63  92 128 165 207 258 312 369
#     4  10  23  41  63  93 127 165 208 259 315 372
#     4  10  19  35  61  93 130 167 205 255 314 372
#
# _framework density 20.087834000000001
#
# number of rings (size 3 to 8) (size 9 to 14) (size 15 to 20)
#    0.000    1.500    1.250    4.500    1.750    5.500 
#    0.000    0.000    0.000    0.000    0.000    0.000 
#    0.000    0.000    0.000    0.000    0.000    0.000 
#
# Total GULP energy -89460.061961 kJ/mol
# GULP energy per Si atom -5591.253873 kJ/mol
# Density = 2.004211 g / cm^3
# Si number density = 20.087834 Si / 1000 Ang^3
#
#
#
# Elastic Constant Matrix: (Units=GPa)
#
#
# Indices 1 2 3 4 5 6 
#
# 1 40.4085 14.2745 3.2001 0.0000 8.4501 0.0000
# 2 14.2745 40.2949 11.3967 0.0000 0.7811 0.0000
# 3 3.2001 11.3967 56.5679 0.0000 10.7234 0.0000
# 4 0.0000 0.0000 0.0000 76.1818 0.0000 15.9633
# 5 8.4501 0.7811 10.7234 0.0000 24.1322 0.0000
# 6 0.0000 0.0000 0.0000 15.9633 0.0000 19.9573
#
#
#
# Elastic Compliance Matrix: (Units=1/GPa)
#
#
# Indices 1 2 3 4 5 6 
#
# 1 0.031070 -0.011571 0.002801 0.000000 -0.011749 0.000000
# 2 -0.011571 0.030686 -0.006669 0.000000 0.006022 0.000000
# 3 0.002801 -0.006669 0.020757 0.000000 -0.009988 0.000000
# 4 0.000000 0.000000 0.000000 0.015770 0.000000 -0.012614
# 5 -0.011749 0.006022 -0.009988 0.000000 0.049796 0.000000
# 6 0.000000 0.000000 0.000000 -0.012614 0.000000 0.060197
#
#
# Mechanical properties :
#
#
# Convention : Reuss Voigt Hill
#
# Bulk Modulus (GPa) = 19.36732 21.66822 20.51777
# Shear Modulus (GPa) = 19.50351 31.28092 25.39222
#
# Velocity S-wave (km/s) = 3.11933 3.95043 3.55922
# Velocity P-wave (km/s) = 4.75771 5.62299 5.20835
#
# Compressibility (1/GPa) = 0.05163336
#
# Stress axis : x y z
#
# Youngs Moduli (GPa) = 32.18545 32.58855 48.17765
#
# Poissons Ratio (x) = 0.37708 -0.13494
# Poissons Ratio (y) = 0.37242 0.32131
# Poissons Ratio (z) = -0.09015 0.21734
#
# Static dielectric constant tensor:
#      x y z
#    x 1.720010 0.000000 0.000530 
#    y 0.000000 1.662050 0.000000 
#    z 0.000530 0.000000 1.697190 
# 
# From -- ./inp_files/4647.got.cif
#   From: 2010.05.17/outbox.cif.g08.bks.cpg/sg6_3_cif.got.tgz:4647.got - 2010.06.03 19:42:10.
