data_PCOD9130058
_publ_section_title
;
Structure prediction by ZEFSAII (Michael W. Deem and Ramdas Pophale) SiO2 
 PCOD9130058
Probable space group: C 2
;
_chemical_formula_sum "Si O2"
_cell_formula_units_Z 12
_cell_length_a 7.142429
_cell_length_b 12.323445
_cell_length_c 7.099816
_cell_angle_alpha 90.000000
_cell_angle_beta 132.796114
_cell_angle_gamma 90.000000
_cell_volume 458.552037
_symmetry_space_group_name_H-M "C 2"
_symmetry_group_IT_number 5
_symmetry_cell_setting 'monoclinic'
loop_
_space_group_symop_operation_xyz
x,y,z
-x,y,-z
1/2+x,1/2+y,z
1/2-x,1/2+y,-z
loop_
_atom_site_type_symbol
_atom_site_label
_atom_site_fract_x
_atom_site_fract_y
_atom_site_fract_z
Si Si1 0.500000 0.582960 0.500000
Si Si2 0.500000 0.923129 0.500000
Si Si3 0.258024 0.934537 0.970469
Si Si4 0.901527 0.753478 0.643368
O O1 0.563149 0.510035 0.723572
O O2 0.754506 0.652699 0.633455
O O3 0.679653 0.844501 0.498958
O O4 0.666850 0.980203 0.773878
O O5 0.135876 0.814201 0.907595
O O6 0.500000 0.928010 0.000000
O O7 0.000000 0.732647 0.500000
#
# Coordination Sequence:
#
# PCOD9130058 Si02
#       4
#     2   2   4   4
#     4  11  28  50  86 119 158 209 276 322 398 479
#     4  11  24  46  90 109 160 217 254 330 406 459
#     4  12  24  52  86 115 161 211 264 330 401 469
#     4  11  24  52  83 116 160 213 262 331 394 475
#
# _framework density 26.169332000000001
#
# number of rings (size 3 to 8) (size 9 to 14) (size 15 to 20)
#    0.000    0.667    5.000    1.000    0.000    5.333 
#   21.000    0.000   22.000    0.000    0.000    0.000 
#    0.000    0.000    0.000    0.000    0.000    0.000 
#
# Total GULP energy -33622.346173 kJ/mol
# GULP energy per Si atom -5603.724362 kJ/mol
# Density = 2.610977 g / cm^3
# Si number density = 26.169332 Si / 1000 Ang^3
#
#
#
# Elastic Constant Matrix: (Units=GPa)
#
#
# Indices 1 2 3 4 5 6 
#
# 1 204.4870 69.4115 48.4102 0.0002 -7.8282 0.0006
# 2 69.4115 109.2476 67.8920 0.0001 -0.8389 0.0000
# 3 48.4102 67.8920 197.4611 0.0001 -41.5278 0.0005
# 4 0.0002 0.0001 0.0001 20.9753 0.0001 13.9657
# 5 -7.8282 -0.8389 -41.5278 0.0001 58.9421 0.0005
# 6 0.0006 0.0000 0.0005 13.9657 0.0005 63.5936
#
#
#
# Elastic Compliance Matrix: (Units=1/GPa)
#
#
# Indices 1 2 3 4 5 6 
#
# 1 0.006270 -0.003972 -0.000010 0.000000 0.000769 0.000000
# 2 -0.003972 0.014666 -0.004855 0.000000 -0.003739 0.000000
# 3 -0.000010 -0.004855 0.007890 0.000000 0.005489 0.000000
# 4 0.000000 0.000000 0.000000 0.055840 0.000000 -0.012263
# 5 0.000769 -0.003739 0.005489 0.000000 0.020882 0.000000
# 6 0.000000 0.000000 0.000000 -0.012263 0.000000 0.018418
#
#
# Mechanical properties :
#
#
# Convention : Reuss Voigt Hill
#
# Bulk Modulus (GPa) = 89.66478 98.06922 93.86700
# Shear Modulus (GPa) = 34.39809 50.40101 42.39955
#
# Velocity S-wave (km/s) = 3.62946 4.39333 4.02954
# Velocity P-wave (km/s) = 7.20428 7.95559 7.58924
#
# Compressibility (1/GPa) = 0.01115265
#
# Stress axis : x y z
#
# Youngs Moduli (GPa) = 159.48245 68.18698 126.73762
#
# Poissons Ratio (x) = 0.27083 0.00124
# Poissons Ratio (y) = 0.63344 0.61532
# Poissons Ratio (z) = 0.00157 0.33105
#
# Static dielectric constant tensor:
#      x y z
#    x 2.017230 0.000000 0.036730 
#    y 0.000000 2.060480 0.000000 
#    z 0.036730 0.000000 2.120350 
# 
# From -- ./inp_files/13706.got.cif
#   From: 2010.05.17/outbox.cif.g08.bks.cpg/sg5_7_cif.got.tgz:13706.got - 2010.06.03 18:56:24.
