data_PCOD9130375
_publ_section_title
;
Structure prediction by ZEFSAII (Michael W. Deem and Ramdas Pophale) SiO2 
 PCOD9130375
Probable space group: C 2
;
_chemical_formula_sum "Si O2"
_cell_formula_units_Z 18
_cell_length_a 16.587008
_cell_length_b 7.474976
_cell_length_c 16.987177
_cell_angle_alpha 90.000000
_cell_angle_beta 157.555326
_cell_angle_gamma 90.000000
_cell_volume 804.127493
_symmetry_space_group_name_H-M "C 2"
_symmetry_group_IT_number 5
_symmetry_cell_setting 'monoclinic'
loop_
_space_group_symop_operation_xyz
x,y,z
-x,y,-z
1/2+x,1/2+y,z
1/2-x,1/2+y,-z
loop_
_atom_site_type_symbol
_atom_site_label
_atom_site_fract_x
_atom_site_fract_y
_atom_site_fract_z
Si Si1 0.192126 0.061350 0.619129
Si Si2 0.310877 0.525908 0.973496
Si Si3 0.411805 0.890729 0.009752
Si Si4 0.576005 0.671594 0.766170
Si Si5 0.000000 0.812017 0.000000
O O1 0.000000 0.990415 0.500000
O O2 0.100866 0.155147 0.459556
O O3 0.360380 0.913383 0.743470
O O4 0.320006 0.197225 0.791750
O O5 0.134914 0.378359 0.835733
O O6 0.264091 0.727325 0.902491
O O7 0.452911 0.563481 0.178744
O O8 0.416014 0.438203 0.992883
O O9 0.500000 0.869228 0.000000
O O10 0.280217 0.068890 0.912305
#
# Coordination Sequence:
#
# PCOD9130375 Si02
#       5
#     4   4   4   4   2
#     4  12  22  44  77 104 146 193 237 299 368 423
#     4  12  25  46  73 105 146 186 239 303 359 428
#     4  12  23  44  72 102 139 185 243 297 353 431
#     4  12  26  47  71 107 148 188 238 309 361 428
#     4  12  24  46  76 108 148 184 246 304 356 438
#
# _framework density 22.384511
#
# number of rings (size 3 to 8) (size 9 to 14) (size 15 to 20)
#    0.000    0.000   11.111    0.000    0.000    1.778 
#    4.000    3.333    0.000    0.000    0.000    0.000 
#    0.000    0.000    0.000    0.000    0.000    0.000 
#
# Total GULP energy -50143.526051 kJ/mol
# GULP energy per Si atom -5571.502895 kJ/mol
# Density = 2.233356 g / cm^3
# Si number density = 22.384511 Si / 1000 Ang^3
#
#
#
# Elastic Constant Matrix: (Units=GPa)
#
#
# Indices 1 2 3 4 5 6 
#
# 1 124.4629 24.5937 38.3415 0.0001 -31.9612 -0.0001
# 2 24.5937 136.6979 41.5540 0.0016 -8.2871 0.0006
# 3 38.3415 41.5540 114.6393 0.0016 -28.0456 0.0007
# 4 0.0001 0.0016 0.0016 5.5069 0.0005 -8.3326
# 5 -31.9612 -8.2871 -28.0456 0.0005 44.4766 0.0000
# 6 -0.0001 0.0006 0.0007 -8.3326 0.0000 44.7387
#
#
#
# Elastic Compliance Matrix: (Units=1/GPa)
#
#
# Indices 1 2 3 4 5 6 
#
# 1 0.010316 -0.001004 -0.001559 0.000000 0.006243 0.000000
# 2 -0.001004 0.008325 -0.002931 -0.000002 -0.001018 0.000000
# 3 -0.001559 -0.002931 0.011705 -0.000004 0.005714 -0.000001
# 4 0.000000 -0.000002 -0.000004 0.252845 -0.000006 0.047092
# 5 0.006243 -0.001018 0.005714 -0.000006 0.030384 -0.000001
# 6 0.000000 0.000000 -0.000001 0.047092 -0.000001 0.031123
#
#
# Mechanical properties :
#
#
# Convention : Reuss Voigt Hill
#
# Bulk Modulus (GPa) = 51.65666 64.97541 58.31603
# Shear Modulus (GPa) = 13.80687 37.03183 25.41935
#
# Velocity S-wave (km/s) = 2.48625 4.07178 3.37349
# Velocity P-wave (km/s) = 5.60080 7.15513 6.42514
#
# Compressibility (1/GPa) = 0.01935859
#
# Stress axis : x y z
#
# Youngs Moduli (GPa) = 96.93330 120.11636 85.43428
#
# Poissons Ratio (x) = 0.12055 0.13321
# Poissons Ratio (y) = 0.09728 0.25042
# Poissons Ratio (z) = 0.15114 0.35208
#
# Static dielectric constant tensor:
#      x y z
#    x 1.925170 0.000000 -0.008960 
#    y 0.000000 1.871840 0.000000 
#    z -0.008960 0.000000 1.836170 
# 
# From -- ./inp_files/7946.got.cif
#   From: 2010.05.17/outbox.cif.g08.bks.cpg/sg5_4_cif.got.tgz:7946.got - 2010.06.03 18:56:24.
