data_PCOD9130124
_publ_section_title
;
Structure prediction by ZEFSAII (Michael W. Deem and Ramdas Pophale) SiO2 
 PCOD9130124
Probable space group: C 2
;
_chemical_formula_sum "Si O2"
_cell_formula_units_Z 26
_cell_length_a 14.296870
_cell_length_b 5.133402
_cell_length_c 14.067835
_cell_angle_alpha 90.000000
_cell_angle_beta 96.298582
_cell_angle_gamma 90.000000
_cell_volume 1026.228380
_symmetry_space_group_name_H-M "C 2"
_symmetry_group_IT_number 5
_symmetry_cell_setting 'monoclinic'
loop_
_space_group_symop_operation_xyz
x,y,z
-x,y,-z
1/2+x,1/2+y,z
1/2-x,1/2+y,-z
loop_
_atom_site_type_symbol
_atom_site_label
_atom_site_fract_x
_atom_site_fract_y
_atom_site_fract_z
Si Si1 0.374611 0.546920 0.291975
Si Si2 0.154919 0.701188 0.044464
Si Si3 0.329776 0.856222 0.782332
Si Si4 0.313700 0.516942 0.497246
Si Si5 0.417470 0.358925 0.696635
Si Si6 0.137651 0.394599 0.877750
Si Si7 0.500000 0.584515 0.000000
O O1 0.281186 0.396187 0.247294
O O2 0.361979 0.584956 0.402778
O O3 0.471522 0.400443 0.281930
O O4 0.375312 0.816752 0.232349
O O5 0.147057 0.439874 0.106807
O O6 0.258470 0.799209 0.079571
O O7 0.072750 0.895744 0.061968
O O8 0.139319 0.672311 0.929504
O O9 0.382941 0.076007 0.725671
O O10 0.361697 0.575683 0.751415
O O11 0.241719 0.275202 0.475286
O O12 0.385696 0.419348 0.585306
O O13 0.056893 0.248254 0.928285
#
# Coordination Sequence:
#
# PCOD9130124 Si02
#       7
#     4   4   4   4   4   4   2
#     4  11  26  47  74 109 145 195 249 301 366 446
#     4  11  25  44  69 101 144 190 242 303 357 428
#     4  11  27  46  73 107 148 188 246 306 360 436
#     4  12  24  50  75 108 149 193 236 312 374 432
#     4  12  25  48  77 109 144 193 245 298 376 432
#     4  11  25  47  68 104 144 192 244 298 364 429
#     4  12  24  44  70  98 146 188 238 298 366 420
#
# _framework density 25.335488999999999
#
# number of rings (size 3 to 8) (size 9 to 14) (size 15 to 20)
#    0.000    0.615    4.615    1.846    6.462    2.462 
#    2.769    3.077    0.000    0.000    0.000    0.000 
#    0.000    0.000    0.000    0.000    0.000    0.000 
#
# Total GULP energy -72922.222489 kJ/mol
# GULP energy per Si atom -5609.401730 kJ/mol
# Density = 2.527782 g / cm^3
# Si number density = 25.335489 Si / 1000 Ang^3
#
#
#
# Elastic Constant Matrix: (Units=GPa)
#
#
# Indices 1 2 3 4 5 6 
#
# 1 175.3144 14.4873 25.7459 0.0000 6.3107 0.0000
# 2 14.4873 56.4475 10.9454 0.0000 9.2578 0.0000
# 3 25.7459 10.9454 178.0194 0.0000 -0.3370 0.0000
# 4 0.0000 0.0000 0.0000 42.7387 0.0000 -4.1198
# 5 6.3107 9.2578 -0.3370 0.0000 26.3676 0.0000
# 6 0.0000 0.0000 0.0000 -4.1198 0.0000 35.2610
#
#
#
# Elastic Compliance Matrix: (Units=1/GPa)
#
#
# Indices 1 2 3 4 5 6 
#
# 1 0.005956 -0.001210 -0.000789 0.000000 -0.001011 0.000000
# 2 -0.001210 0.019290 -0.001023 0.000000 -0.006496 0.000000
# 3 -0.000789 -0.001023 0.005796 0.000000 0.000622 0.000000
# 4 0.000000 0.000000 0.000000 0.023665 0.000000 0.002765
# 5 -0.001011 -0.006496 0.000622 0.000000 0.040456 0.000000
# 6 0.000000 0.000000 0.000000 0.002765 0.000000 0.028683
#
#
# Mechanical properties :
#
#
# Convention : Reuss Voigt Hill
#
# Bulk Modulus (GPa) = 40.00417 56.90428 48.45423
# Shear Modulus (GPa) = 36.17360 44.78030 40.47695
#
# Velocity S-wave (km/s) = 3.78270 4.20872 4.00138
# Velocity P-wave (km/s) = 5.90783 6.79167 6.36511
#
# Compressibility (1/GPa) = 0.02499739
#
# Stress axis : x y z
#
# Youngs Moduli (GPa) = 167.89040 51.84040 172.54577
#
# Poissons Ratio (x) = 0.06272 0.13613
# Poissons Ratio (y) = 0.20313 0.17657
# Poissons Ratio (z) = 0.13246 0.05305
#
# Static dielectric constant tensor:
#      x y z
#    x 1.956320 0.000000 -0.009150 
#    y 0.000000 2.048480 0.000000 
#    z -0.009150 0.000000 2.037120 
# 
# From -- ./inp_files/53850.got.cif
#   From: 2010.05.17/outbox.cif.g08.bks.cpg/sg5_27_cif.got.tgz:53850.got - 2010.06.03 18:56:24.
