data_PCOD9130450
_publ_section_title
;
Structure prediction by ZEFSAII (Michael W. Deem and Ramdas Pophale) SiO2 
 PCOD9130450
Probable space group: C 2
;
_chemical_formula_sum "Si O2"
_cell_formula_units_Z 20
_cell_length_a 12.569116
_cell_length_b 8.467691
_cell_length_c 16.225334
_cell_angle_alpha 90.000000
_cell_angle_beta 26.702279
_cell_angle_gamma 90.000000
_cell_volume 775.983539
_symmetry_space_group_name_H-M "C 2"
_symmetry_group_IT_number 5
_symmetry_cell_setting 'monoclinic'
loop_
_space_group_symop_operation_xyz
x,y,z
-x,y,-z
1/2+x,1/2+y,z
1/2-x,1/2+y,-z
loop_
_atom_site_type_symbol
_atom_site_label
_atom_site_fract_x
_atom_site_fract_y
_atom_site_fract_z
Si Si1 0.902245 0.143280 0.153492
Si Si2 0.387796 0.322123 0.953558
Si Si3 0.118394 0.715680 0.642999
Si Si4 0.137942 0.334246 0.290259
Si Si5 0.797865 0.889424 0.579937
O O1 0.841506 0.273319 0.262209
O O2 0.081204 0.011259 0.065517
O O3 0.692763 0.018466 0.272189
O O4 0.000000 0.208496 0.000000
O O5 0.403661 0.273163 0.848590
O O6 0.637728 0.255738 0.818036
O O7 0.190606 0.286949 0.158382
O O8 0.371881 0.791785 0.495826
O O9 0.094360 0.783451 0.567936
O O10 0.160144 0.531097 0.630616
O O11 0.000000 0.958018 0.500000
#
# Coordination Sequence:
#
# PCOD9130450 Si02
#       5
#     4   4   4   4   4
#     4   8  19  42  69  97 137 181 221 285 346 395
#     4   8  17  38  71 102 130 181 229 279 345 399
#     4  12  24  44  69 101 143 183 228 284 347 414
#     4   8  18  38  74  98 133 184 225 280 345 401
#     4  12  28  44  67 109 137 180 236 281 346 414
#
# _framework density 25.773741999999999
#
# number of rings (size 3 to 8) (size 9 to 14) (size 15 to 20)
#    1.200    1.200    0.000    3.000    5.600    0.000 
#   10.800    0.000    0.000    0.000    0.000    0.000 
#    0.000    0.000    0.000    0.000    0.000    0.000 
#
# Total GULP energy -55878.255564 kJ/mol
# GULP energy per Si atom -5587.825556 kJ/mol
# Density = 2.571508 g / cm^3
# Si number density = 25.773742 Si / 1000 Ang^3
#
#
#
# Elastic Constant Matrix: (Units=GPa)
#
#
# Indices 1 2 3 4 5 6 
#
# 1 132.4613 45.4457 42.5503 -0.0009 28.8338 0.0004
# 2 45.4457 90.4712 42.5779 -0.0023 34.3821 0.0010
# 3 42.5503 42.5779 142.3393 -0.0048 48.4858 0.0022
# 4 -0.0009 -0.0023 -0.0048 47.9773 0.0021 -1.5704
# 5 28.8338 34.3821 48.4858 0.0021 69.4528 -0.0007
# 6 0.0004 0.0010 0.0022 -1.5704 -0.0007 43.7716
#
#
#
# Elastic Compliance Matrix: (Units=1/GPa)
#
#
# Indices 1 2 3 4 5 6 
#
# 1 0.009503 -0.003697 -0.001331 0.000000 -0.001186 0.000000
# 2 -0.003697 0.015669 -0.001919 0.000001 -0.004882 0.000000
# 3 -0.001331 -0.001919 0.009821 0.000001 -0.005354 0.000000
# 4 0.000000 0.000001 0.000001 0.020868 -0.000002 0.000749
# 5 -0.001186 -0.004882 -0.005354 -0.000002 0.021045 0.000001
# 6 0.000000 0.000000 0.000000 0.000749 0.000001 0.022873
#
#
# Mechanical properties :
#
#
# Convention : Reuss Voigt Hill
#
# Bulk Modulus (GPa) = 47.39294 69.60217 58.49755
# Shear Modulus (GPa) = 41.42338 47.88689 44.65513
#
# Velocity S-wave (km/s) = 4.01333 4.31510 4.16695
# Velocity P-wave (km/s) = 6.31694 7.20350 6.77474
#
# Compressibility (1/GPa) = 0.02110019
#
# Stress axis : x y z
#
# Youngs Moduli (GPa) = 105.22555 63.82187 101.82280
#
# Poissons Ratio (x) = 0.23592 0.13554
# Poissons Ratio (y) = 0.38897 0.19538
# Poissons Ratio (z) = 0.14007 0.12246
#
# Static dielectric constant tensor:
#      x y z
#    x 2.232190 0.000000 -0.085550 
#    y 0.000000 1.992700 0.000000 
#    z -0.085550 0.000000 1.987390 
# 
# From -- ./inp_files/61296.got.cif
#   From: 2010.05.17/outbox.cif.g08.bks.cpg/sg5_31_cif.got.tgz:61296.got - 2010.06.03 18:56:24.
