data_PCOD9130447
_publ_section_title
;
Structure prediction by ZEFSAII (Michael W. Deem and Ramdas Pophale) SiO2 
 PCOD9130447
Probable space group: C 2
;
_chemical_formula_sum "Si O2"
_cell_formula_units_Z 18
_cell_length_a 13.190827
_cell_length_b 7.104839
_cell_length_c 10.941375
_cell_angle_alpha 90.000000
_cell_angle_beta 131.462228
_cell_angle_gamma 90.000000
_cell_volume 768.435545
_symmetry_space_group_name_H-M "C 2"
_symmetry_group_IT_number 5
_symmetry_cell_setting 'monoclinic'
loop_
_space_group_symop_operation_xyz
x,y,z
-x,y,-z
1/2+x,1/2+y,z
1/2-x,1/2+y,-z
loop_
_atom_site_type_symbol
_atom_site_label
_atom_site_fract_x
_atom_site_fract_y
_atom_site_fract_z
Si Si1 0.150304 0.816250 0.562769
Si Si2 0.249099 0.018900 0.193296
Si Si3 0.969594 0.539726 0.729975
Si Si4 0.000000 0.769419 0.000000
Si Si5 0.868682 0.241275 0.483078
O O1 0.249222 0.724227 0.742450
O O2 0.410406 0.834176 0.645162
O O3 0.000000 0.816702 0.500000
O O4 0.117934 0.687347 0.420546
O O5 0.375179 0.025476 0.199448
O O6 0.114641 0.915289 0.040101
O O7 0.279771 0.885922 0.334893
O O8 0.681106 0.529264 0.554463
O O9 0.970282 0.626729 0.864640
O O10 0.000000 0.237116 0.500000
#
# Coordination Sequence:
#
# PCOD9130447 Si02
#       5
#     4   4   4   2   4
#     4   8  15  37  72  96 124 179 230 282 336 389
#     4   9  20  41  66  96 138 178 226 280 337 408
#     4   9  20  41  66  96 138 178 226 280 337 408
#     4  12  24  44  66 106 144 184 220 274 356 414
#     4   8  15  37  72  96 124 179 230 282 336 389
#
# _framework density 23.424216000000001
#
# number of rings (size 3 to 8) (size 9 to 14) (size 15 to 20)
#    0.000    3.111    0.000    2.667    0.000    0.000 
#   24.000    2.222    0.000    0.000    0.000    0.000 
#    0.000    0.000    0.000    0.000    0.000    0.000 
#
# Total GULP energy -50195.118249 kJ/mol
# GULP energy per Si atom -5577.235361 kJ/mol
# Density = 2.337090 g / cm^3
# Si number density = 23.424216 Si / 1000 Ang^3
#
#
#
# Elastic Constant Matrix: (Units=GPa)
#
#
# Indices 1 2 3 4 5 6 
#
# 1 92.9893 38.5223 16.7918 0.0000 -11.5651 0.0000
# 2 38.5223 172.7071 46.9607 0.0000 -6.2830 0.0000
# 3 16.7918 46.9607 66.2569 0.0000 -12.0348 0.0000
# 4 0.0000 0.0000 0.0000 33.7872 0.0000 10.3227
# 5 -11.5651 -6.2830 -12.0348 0.0000 31.5838 0.0000
# 6 0.0000 0.0000 0.0000 10.3227 0.0000 33.8232
#
#
#
# Elastic Compliance Matrix: (Units=1/GPa)
#
#
# Indices 1 2 3 4 5 6 
#
# 1 0.012357 -0.002420 -0.000733 0.000000 0.003764 0.000000
# 2 -0.002420 0.007655 -0.005046 0.000000 -0.001286 0.000000
# 3 -0.000733 -0.005046 0.020009 0.000000 0.006352 0.000000
# 4 0.000000 0.000000 0.000000 0.032641 0.000000 -0.009962
# 5 0.003764 -0.001286 0.006352 0.000000 0.035205 0.000000
# 6 0.000000 0.000000 0.000000 -0.009962 0.000000 0.032606
#
#
# Mechanical properties :
#
#
# Convention : Reuss Voigt Hill
#
# Bulk Modulus (GPa) = 42.33116 59.61142 50.97129
# Shear Modulus (GPa) = 30.35014 35.15074 32.75044
#
# Velocity S-wave (km/s) = 3.60345 3.87798 3.74323
# Velocity P-wave (km/s) = 5.95180 6.74948 6.36315
#
# Compressibility (1/GPa) = 0.02362326
#
# Stress axis : x y z
#
# Youngs Moduli (GPa) = 80.92624 130.62986 49.97826
#
# Poissons Ratio (x) = 0.31613 0.03662
# Poissons Ratio (y) = 0.19584 0.25219
# Poissons Ratio (z) = 0.05930 0.65916
#
# Static dielectric constant tensor:
#      x y z
#    x 2.046980 0.000000 0.058730 
#    y 0.000000 1.866550 0.000000 
#    z 0.058730 0.000000 1.909770 
# 
# From -- ./inp_files/34936.got.cif
#   From: 2010.05.17/outbox.cif.g08.bks.cpg/sg5_18_cif.got.tgz:34936.got - 2010.06.03 18:56:24.
