data_PCOD9130999
_publ_section_title
;
Structure prediction by ZEFSAII (Michael W. Deem and Ramdas Pophale) SiO2 
 PCOD9130999
Probable space group: P M
;
_chemical_formula_sum "Si O2"
_cell_formula_units_Z 16
_cell_length_a 9.475462
_cell_length_b 8.631408
_cell_length_c 11.447950
_cell_angle_alpha 90.000000
_cell_angle_beta 114.272888
_cell_angle_gamma 90.000000
_cell_volume 853.518778
_symmetry_space_group_name_H-M "P M"
_symmetry_group_IT_number 6
_symmetry_cell_setting 'monoclinic'
loop_
_space_group_symop_operation_xyz
x,y,z
x,-y,z
loop_
_atom_site_type_symbol
_atom_site_label
_atom_site_fract_x
_atom_site_fract_y
_atom_site_fract_z
Si Si1 0.971340 0.812626 0.599220
Si Si2 0.207653 0.684711 0.076063
Si Si3 0.282856 0.685537 0.593312
Si Si4 0.665605 0.187871 0.361856
Si Si5 0.339082 0.813879 0.356921
Si Si6 0.517933 0.813579 0.069787
Si Si7 0.590354 0.314171 0.840290
Si Si8 0.908782 0.185710 0.847476
O O1 0.827028 0.758610 0.470499
O O2 0.937489 0.771936 0.722007
O O3 0.131313 0.743068 0.609066
O O4 0.980364 0.000000 0.594922
O O5 0.217879 0.500000 0.075746
O O6 0.237647 0.744255 0.217553
O O7 0.346226 0.756341 0.045274
O O8 0.044500 0.741254 0.971145
O O9 0.280844 0.500000 0.585028
O O10 0.289052 0.755769 0.466036
O O11 0.437212 0.732792 0.716147
O O12 0.517072 0.233246 0.389341
O O13 0.627039 0.234488 0.216015
O O14 0.669211 0.000000 0.364158
O O15 0.330552 0.000000 0.348369
O O16 0.517043 0.000000 0.063292
O O17 0.572071 0.744213 0.966344
O O18 0.600496 0.500000 0.842749
O O19 0.742618 0.243817 0.833551
O O20 0.915600 0.000000 0.859312
#
# Coordination Sequence:
#
# PCOD9130999 Si02
#       8
#     2   2   2   2   2   2   2   2
#     4  10  21  38  60  84 112 149 194 241 289 344
#     4  11  22  38  60  87 121 155 190 237 296 354
#     4  11  24  39  56  83 118 154 192 237 294 352
#     4   8  17  35  59  86 112 142 184 236 287 334
#     4  10  20  38  63  87 114 150 194 240 287 344
#     4  10  20  37  61  87 117 154 198 242 287 345
#     4  11  24  40  58  83 118 157 196 243 299 351
#     4  11  23  39  61  87 114 151 200 246 291 348
#
# _framework density 18.745925
#
# number of rings (size 3 to 8) (size 9 to 14) (size 15 to 20)
#    0.000    1.750    0.000    5.250    0.000    7.000 
#    0.000    7.500    0.000    0.000    0.000    0.000 
#    0.000    0.000    0.000    0.000    0.000    0.000 
#
# Total GULP energy -89428.446992 kJ/mol
# GULP energy per Si atom -5589.277937 kJ/mol
# Density = 1.870326 g / cm^3
# Si number density = 18.745925 Si / 1000 Ang^3
#
#
#
# Elastic Constant Matrix: (Units=GPa)
#
#
# Indices 1 2 3 4 5 6 
#
# 1 138.0396 34.1449 104.6824 0.0000 -3.4235 0.0000
# 2 34.1449 49.0702 41.0523 0.0000 -2.5763 0.0000
# 3 104.6824 41.0523 134.9740 0.0000 5.2888 0.0000
# 4 0.0000 0.0000 0.0000 16.7923 0.0000 12.1605
# 5 -3.4235 -2.5763 5.2888 0.0000 43.0524 0.0000
# 6 0.0000 0.0000 0.0000 12.1605 0.0000 14.4162
#
#
#
# Elastic Compliance Matrix: (Units=1/GPa)
#
#
# Indices 1 2 3 4 5 6 
#
# 1 0.018031 -0.000783 -0.013867 0.000000 0.003090 0.000000
# 2 -0.000783 0.027677 -0.007911 0.000000 0.002566 0.000000
# 3 -0.013867 -0.007911 0.020732 0.000000 -0.004123 0.000000
# 4 0.000000 0.000000 0.000000 0.153031 0.000000 -0.129086
# 5 0.003090 0.002566 -0.004123 0.000000 0.024133 0.000000
# 6 0.000000 0.000000 0.000000 -0.129086 0.000000 0.178254
#
#
# Mechanical properties :
#
#
# Convention : Reuss Voigt Hill
#
# Bulk Modulus (GPa) = 46.91155 75.76033 61.33594
# Shear Modulus (GPa) = 10.54660 24.33247 17.43954
#
# Velocity S-wave (km/s) = 2.37451 3.60670 3.05341
# Velocity P-wave (km/s) = 5.70938 7.60569 6.72471
#
# Compressibility (1/GPa) = 0.02131671
#
# Stress axis : x y z
#
# Youngs Moduli (GPa) = 55.46071 36.13095 48.23544
#
# Poissons Ratio (x) = 0.02829 0.66889
# Poissons Ratio (y) = 0.04342 0.38161
# Poissons Ratio (z) = 0.76908 0.28584
#
# Static dielectric constant tensor:
#      x y z
#    x 1.610250 0.000000 0.008210 
#    y 0.000000 1.631770 0.000000 
#    z 0.008210 0.000000 1.635540 
# 
# From -- ./inp_files/3740.got.cif
#   From: 2010.05.17/outbox.cif.g08.bks.cpg/sg6_2_cif.got.tgz:3740.got - 2010.06.03 19:42:10.
