data_PCOD9130377
_publ_section_title
;
Structure prediction by ZEFSAII (Michael W. Deem and Ramdas Pophale) SiO2 
 PCOD9130377
Probable space group: C 2
;
_chemical_formula_sum "Si O2"
_cell_formula_units_Z 22
_cell_length_a 22.599029
_cell_length_b 5.275300
_cell_length_c 9.214020
_cell_angle_alpha 90.000000
_cell_angle_beta 66.922477
_cell_angle_gamma 90.000000
_cell_volume 1010.560406
_symmetry_space_group_name_H-M "C 2"
_symmetry_group_IT_number 5
_symmetry_cell_setting 'monoclinic'
loop_
_space_group_symop_operation_xyz
x,y,z
-x,y,-z
1/2+x,1/2+y,z
1/2-x,1/2+y,-z
loop_
_atom_site_type_symbol
_atom_site_label
_atom_site_fract_x
_atom_site_fract_y
_atom_site_fract_z
Si Si1 0.419704 0.513440 0.258371
Si Si2 0.538942 0.240791 0.223161
Si Si3 0.114448 0.516201 0.887679
Si Si4 0.500000 0.923164 0.500000
Si Si5 0.616923 0.550289 0.374424
Si Si6 0.250339 0.092188 0.094895
O O1 0.496937 0.471485 0.200160
O O2 0.394242 0.269354 0.197789
O O3 0.388051 0.509152 0.448661
O O4 0.403784 0.767426 0.185238
O O5 0.592097 0.330575 0.288716
O O6 0.487965 0.090130 0.370322
O O7 0.568883 0.068545 0.070302
O O8 0.187096 0.507318 0.876016
O O9 0.562194 0.760940 0.404129
O O10 0.687632 0.622400 0.255322
O O11 0.262563 0.361793 0.005203
#
# Coordination Sequence:
#
# PCOD9130377 Si02
#       6
#     4   4   4   2   4   4
#     4  12  27  47  72 115 151 195 244 319 387 445
#     4  12  25  47  75 110 151 203 251 314 373 460
#     4  12  29  48  74 110 157 195 248 314 394 435
#     4  12  22  44  78 116 144 192 266 306 374 434
#     4  12  26  45  81 105 151 202 258 308 371 456
#     4  12  27  51  78 108 145 202 260 307 369 464
#
# _framework density 21.770098999999998
#
# number of rings (size 3 to 8) (size 9 to 14) (size 15 to 20)
#    0.000    0.000    5.455    3.818    2.545    4.364 
#    0.000    0.000    0.000    0.000    0.000    0.000 
#    0.000    0.000    0.000    0.000    0.000    0.000 
#
# Total GULP energy -61572.455489 kJ/mol
# GULP energy per Si atom -5597.495954 kJ/mol
# Density = 2.172055 g / cm^3
# Si number density = 21.770099 Si / 1000 Ang^3
#
#
#
# Elastic Constant Matrix: (Units=GPa)
#
#
# Indices 1 2 3 4 5 6 
#
# 1 114.1130 34.2115 67.5782 0.0000 -9.4819 0.0000
# 2 34.2115 136.4376 69.1964 0.0000 9.0028 0.0000
# 3 67.5782 69.1964 169.6839 0.0000 -7.9073 0.0000
# 4 0.0000 0.0000 0.0000 40.8257 0.0000 13.7024
# 5 -9.4819 9.0028 -7.9073 0.0000 48.1772 0.0000
# 6 0.0000 0.0000 0.0000 13.7024 0.0000 15.2692
#
#
#
# Elastic Compliance Matrix: (Units=1/GPa)
#
#
# Indices 1 2 3 4 5 6 
#
# 1 0.011667 -0.000918 -0.004189 0.000000 0.001780 0.000000
# 2 -0.000918 0.009588 -0.003664 0.000000 -0.002574 0.000000
# 3 -0.004189 -0.003664 0.009119 0.000000 0.001357 0.000000
# 4 0.000000 0.000000 0.000000 0.035052 0.000000 -0.031455
# 5 0.001780 -0.002574 0.001357 0.000000 0.021811 0.000000
# 6 0.000000 0.000000 0.000000 -0.031455 0.000000 0.093718
#
#
# Mechanical properties :
#
#
# Convention : Reuss Voigt Hill
#
# Bulk Modulus (GPa) = 77.93631 84.68966 81.31298
# Shear Modulus (GPa) = 24.65788 37.47097 31.06443
#
# Velocity S-wave (km/s) = 3.36914 4.15325 3.78157
# Velocity P-wave (km/s) = 7.14228 7.87309 7.51657
#
# Compressibility (1/GPa) = 0.01283099
#
# Stress axis : x y z
#
# Youngs Moduli (GPa) = 85.70927 104.29986 109.66042
#
# Poissons Ratio (x) = 0.09580 0.45938
# Poissons Ratio (y) = 0.07872 0.40179
# Poissons Ratio (z) = 0.35905 0.38215
#
# Static dielectric constant tensor:
#      x y z
#    x 1.850220 0.000000 0.056480 
#    y 0.000000 1.843120 0.000000 
#    z 0.056480 0.000000 1.801240 
# 
# From -- ./inp_files/28295.got.cif
#   From: 2010.05.17/outbox.cif.g08.bks.cpg/sg5_15_cif.got.tgz:28295.got - 2010.06.03 18:56:24.
