data_PCOD9130324
_publ_section_title
;
Structure prediction by ZEFSAII (Michael W. Deem and Ramdas Pophale) SiO2 
 PCOD9130324
Probable space group: C 2
;
_chemical_formula_sum "Si O2"
_cell_formula_units_Z 16
_cell_length_a 17.751315
_cell_length_b 4.819304
_cell_length_c 11.141345
_cell_angle_alpha 90.000000
_cell_angle_beta 45.546536
_cell_angle_gamma 90.000000
_cell_volume 680.363304
_symmetry_space_group_name_H-M "C 2"
_symmetry_group_IT_number 5
_symmetry_cell_setting 'monoclinic'
loop_
_space_group_symop_operation_xyz
x,y,z
-x,y,-z
1/2+x,1/2+y,z
1/2-x,1/2+y,-z
loop_
_atom_site_type_symbol
_atom_site_label
_atom_site_fract_x
_atom_site_fract_y
_atom_site_fract_z
Si Si1 0.890412 0.967870 0.095463
Si Si2 0.275712 0.768585 0.899292
Si Si3 0.045915 0.134860 0.740953
Si Si4 0.995435 0.595779 0.642024
O O1 0.796042 0.812898 0.137377
O O2 0.867252 0.092985 0.251709
O O3 0.940824 0.186567 0.942864
O O4 0.000000 0.797021 0.000000
O O5 0.387909 0.914737 0.763388
O O6 0.279365 0.449707 0.933260
O O7 0.014212 0.856871 0.706314
O O8 0.072908 0.366447 0.614064
O O9 0.000000 0.689174 0.500000
#
# Coordination Sequence:
#
# PCOD9130324 Si02
#       4
#     4   4   4   4
#     4   8  18  36  59  81 110 135 194 230 269 306
#     4  12  20  36  58  85 106 144 191 226 264 325
#     4   9  21  37  57  81 112 145 182 226 278 316
#     4  12  22  38  56  84 117 146 178 226 281 332
#
# _framework density 23.516849000000001
#
# number of rings (size 3 to 8) (size 9 to 14) (size 15 to 20)
#    1.500    0.000    5.000    0.750    0.000    6.000 
#    0.000    2.500    0.000    0.000    0.000    0.000 
#    0.000    0.000    0.000    0.000    0.000    0.000 
#
# Total GULP energy -44535.553532 kJ/mol
# GULP energy per Si atom -5566.944192 kJ/mol
# Density = 2.346332 g / cm^3
# Si number density = 23.516849 Si / 1000 Ang^3
#
#
#
# Elastic Constant Matrix: (Units=GPa)
#
#
# Indices 1 2 3 4 5 6 
#
# 1 128.5130 23.2399 24.8595 -0.0050 57.0465 0.0022
# 2 23.2399 80.9885 3.3575 -0.0015 21.4359 0.0195
# 3 24.8595 3.3575 57.8811 -0.0089 46.2784 0.0088
# 4 -0.0050 -0.0015 -0.0089 17.6137 0.0081 9.5085
# 5 57.0465 21.4359 46.2784 0.0081 53.0554 -0.0044
# 6 0.0022 0.0195 0.0088 9.5085 -0.0044 14.8804
#
#
#
# Elastic Compliance Matrix: (Units=1/GPa)
#
#
# Indices 1 2 3 4 5 6 
#
# 1 0.041950 0.015400 0.073130 0.000243 -0.115117 -0.000259
# 2 0.015400 0.022633 0.041718 0.000147 -0.062092 -0.000169
# 3 0.073130 0.041718 0.197610 0.000594 -0.267856 -0.000641
# 4 0.000243 0.000147 0.000594 0.086673 -0.000857 -0.055385
# 5 -0.115117 -0.062092 -0.267856 -0.000857 0.401353 0.000922
# 6 -0.000259 -0.000169 -0.000641 -0.055385 0.000922 0.102594
#
#
# Mechanical properties :
#
#
# Convention : Reuss Voigt Hill
#
# Bulk Modulus (GPa) = 1.91318 41.14404 21.52861
# Shear Modulus (GPa) = 6.52275 31.50496 19.01386
#
# Velocity S-wave (km/s) = 1.66724 3.66413 2.84653
# Velocity P-wave (km/s) = 2.12639 5.95270 4.46969
#
# Compressibility (1/GPa) = 0.52269074
#
# Stress axis : x y z
#
# Youngs Moduli (GPa) = 23.83772 44.18241 5.06047
#
# Poissons Ratio (x) = -0.68039 -0.37007
# Poissons Ratio (y) = -0.36709 -0.21111
# Poissons Ratio (z) = -1.74326 -1.84322
#
# Static dielectric constant tensor:
#      x y z
#    x 1.952690 -0.000010 -0.004840 
#    y -0.000010 1.850000 0.000000 
#    z -0.004840 0.000000 1.968000 
# 
# From -- ./inp_files/25912.got.cif
#   From: 2010.05.17/outbox.cif.g08.bks.cpg/sg5_13_cif.got.tgz:25912.got - 2010.06.03 18:56:24.
