data_PCOD9130384
_publ_section_title
;
Structure prediction by ZEFSAII (Michael W. Deem and Ramdas Pophale) SiO2 
 PCOD9130384
Probable space group: C 2
;
_chemical_formula_sum "Si O2"
_cell_formula_units_Z 14
_cell_length_a 7.160627
_cell_length_b 13.057814
_cell_length_c 9.830687
_cell_angle_alpha 90.000000
_cell_angle_beta 139.919983
_cell_angle_gamma 90.000000
_cell_volume 591.826888
_symmetry_space_group_name_H-M "C 2"
_symmetry_group_IT_number 5
_symmetry_cell_setting 'monoclinic'
loop_
_space_group_symop_operation_xyz
x,y,z
-x,y,-z
1/2+x,1/2+y,z
1/2-x,1/2+y,-z
loop_
_atom_site_type_symbol
_atom_site_label
_atom_site_fract_x
_atom_site_fract_y
_atom_site_fract_z
Si Si1 0.690604 0.654420 0.810592
Si Si2 0.500000 0.358096 0.500000
Si Si3 0.631943 0.016790 0.435618
Si Si4 0.579725 0.216137 0.804326
O O1 0.420360 0.583452 0.632673
O O2 0.673845 0.718931 0.941188
O O3 0.788225 0.722570 0.736273
O O4 0.000000 0.593984 0.000000
O O5 0.230980 0.431167 0.386691
O O6 0.559272 0.292167 0.667862
O O7 0.500000 0.973811 0.500000
O O8 0.417809 0.101606 0.255394
#
# Coordination Sequence:
#
# PCOD9130384 Si02
#       4
#     4   2   4   4
#     4   8  20  44  71  97 143 186 226 287 353 412
#     4  12  22  46  76 108 134 192 240 288 354 420
#     4  12  23  42  74 108 141 179 239 295 348 418
#     4   9  21  43  72  97 142 188 227 295 342 417
#
# _framework density 23.655567999999999
#
# number of rings (size 3 to 8) (size 9 to 14) (size 15 to 20)
#    1.714    0.000    4.286    0.000    0.000    3.429 
#    0.000   14.286    0.000    0.000    0.000    0.000 
#    0.000    0.000    0.000    0.000    0.000    0.000 
#
# Total GULP energy -39033.664375 kJ/mol
# GULP energy per Si atom -5576.237768 kJ/mol
# Density = 2.360173 g / cm^3
# Si number density = 23.655568 Si / 1000 Ang^3
#
#
#
# Elastic Constant Matrix: (Units=GPa)
#
#
# Indices 1 2 3 4 5 6 
#
# 1 179.3287 79.2472 44.6631 0.0009 -40.2201 0.0005
# 2 79.2472 108.0470 21.7376 0.0000 -27.9547 -0.0004
# 3 44.6631 21.7376 79.8836 0.0016 -10.7775 0.0032
# 4 0.0009 0.0000 0.0016 5.4579 0.0011 3.9352
# 5 -40.2201 -27.9547 -10.7775 0.0011 50.3410 0.0020
# 6 0.0005 -0.0004 0.0032 3.9352 0.0020 41.3216
#
#
#
# Elastic Compliance Matrix: (Units=1/GPa)
#
#
# Indices 1 2 3 4 5 6 
#
# 1 0.009717 -0.005395 -0.003421 -0.000002 0.004036 0.000000
# 2 -0.005395 0.014190 -0.000374 0.000000 0.003490 0.000000
# 3 -0.003421 -0.000374 0.014556 -0.000003 0.000176 -0.000001
# 4 -0.000002 0.000000 -0.000003 0.196730 -0.000005 -0.018735
# 5 0.004036 0.003490 0.000176 -0.000005 0.025064 -0.000001
# 6 0.000000 0.000000 -0.000001 -0.018735 -0.000001 0.025985
#
#
# Mechanical properties :
#
#
# Convention : Reuss Voigt Hill
#
# Bulk Modulus (GPa) = 49.78990 73.17280 61.48135
# Shear Modulus (GPa) = 16.06079 34.19819 25.12949
#
# Velocity S-wave (km/s) = 2.60848 3.80632 3.26284
# Velocity P-wave (km/s) = 5.49234 7.09346 6.34362
#
# Compressibility (1/GPa) = 0.02008440
#
# Stress axis : x y z
#
# Youngs Moduli (GPa) = 102.90731 70.47045 68.69927
#
# Poissons Ratio (x) = 0.38019 0.23499
# Poissons Ratio (y) = 0.55519 0.02571
# Poissons Ratio (z) = 0.35200 0.02637
#
# Static dielectric constant tensor:
#      x y z
#    x 1.998780 0.000000 -0.017300 
#    y 0.000000 1.879730 0.000000 
#    z -0.017300 0.000000 1.933810 
# 
# From -- ./inp_files/11628.got.cif
#   From: 2010.05.17/outbox.cif.g08.bks.cpg/sg5_6_cif.got.tgz:11628.got - 2010.06.03 18:56:24.
