data_PCOD9130603
_publ_section_title
;
Structure prediction by ZEFSAII (Michael W. Deem and Ramdas Pophale) SiO2 
 PCOD9130603
Probable space group: C 2
;
_chemical_formula_sum "Si O2"
_cell_formula_units_Z 20
_cell_length_a 17.824553
_cell_length_b 5.353288
_cell_length_c 9.753889
_cell_angle_alpha 90.000000
_cell_angle_beta 118.924965
_cell_angle_gamma 90.000000
_cell_volume 814.612563
_symmetry_space_group_name_H-M "C 2"
_symmetry_group_IT_number 5
_symmetry_cell_setting 'monoclinic'
loop_
_space_group_symop_operation_xyz
x,y,z
-x,y,-z
1/2+x,1/2+y,z
1/2-x,1/2+y,-z
loop_
_atom_site_type_symbol
_atom_site_label
_atom_site_fract_x
_atom_site_fract_y
_atom_site_fract_z
Si Si1 0.854135 0.411990 0.618388
Si Si2 0.012645 0.701542 0.672874
Si Si3 0.242276 0.186160 0.715635
Si Si4 0.886372 0.200266 0.160860
Si Si5 0.903844 0.036043 0.884673
O O1 0.823005 0.337418 0.440073
O O2 0.771070 0.463425 0.639765
O O3 0.901813 0.195650 0.744109
O O4 0.921124 0.637579 0.660486
O O5 0.071138 0.458919 0.753974
O O6 0.000000 0.723957 0.500000
O O7 0.056380 0.955264 0.760010
O O8 0.197495 0.147690 0.821374
O O9 0.330435 0.330959 0.817835
O O10 0.877295 0.213163 0.989262
O O11 0.000000 0.943004 0.000000
#
# Coordination Sequence:
#
# PCOD9130603 Si02
#       5
#     4   4   4   4   4
#     4  12  27  49  80 118 162 219 271 333 407 492
#     4  12  27  51  84 115 164 213 273 327 402 494
#     4  12  29  48  81 116 164 216 272 338 404 489
#     4  12  30  50  83 120 159 212 272 337 404 474
#     4  12  28  52  79 118 165 215 271 340 410 483
#
# _framework density 24.551548
#
# number of rings (size 3 to 8) (size 9 to 14) (size 15 to 20)
#    0.000    0.000    6.000    1.800   11.200    0.800 
#    0.000    0.000    0.000    0.000    0.000    0.000 
#    0.000    0.000    0.000    0.000    0.000    0.000 
#
# Total GULP energy -56045.355007 kJ/mol
# GULP energy per Si atom -5604.535501 kJ/mol
# Density = 2.449567 g / cm^3
# Si number density = 24.551548 Si / 1000 Ang^3
#
#
#
# Elastic Constant Matrix: (Units=GPa)
#
#
# Indices 1 2 3 4 5 6 
#
# 1 183.6827 25.1507 40.4116 0.0000 -2.3430 0.0000
# 2 25.1507 100.2549 20.1388 0.0000 10.5601 0.0000
# 3 40.4116 20.1388 99.9116 0.0000 8.9601 0.0000
# 4 0.0000 0.0000 0.0000 38.6824 0.0000 0.7344
# 5 -2.3430 10.5601 8.9601 0.0000 31.8844 0.0000
# 6 0.0000 0.0000 0.0000 0.7344 0.0000 29.8160
#
#
#
# Elastic Compliance Matrix: (Units=1/GPa)
#
#
# Indices 1 2 3 4 5 6 
#
# 1 0.006155 -0.001227 -0.002379 0.000000 0.001527 0.000000
# 2 -0.001227 0.010914 -0.001407 0.000000 -0.003309 0.000000
# 3 -0.002379 -0.001407 0.011519 0.000000 -0.002946 0.000000
# 4 0.000000 0.000000 0.000000 0.025864 0.000000 -0.000637
# 5 0.001527 -0.003309 -0.002946 0.000000 0.033400 0.000000
# 6 0.000000 0.000000 0.000000 -0.000637 0.000000 0.033555
#
#
# Mechanical properties :
#
#
# Convention : Reuss Voigt Hill
#
# Bulk Modulus (GPa) = 53.87456 61.69458 57.78457
# Shear Modulus (GPa) = 36.33229 39.95310 38.14270
#
# Velocity S-wave (km/s) = 3.85104 4.03838 3.94582
# Velocity P-wave (km/s) = 6.46259 6.85039 6.65931
#
# Compressibility (1/GPa) = 0.01856164
#
# Stress axis : x y z
#
# Youngs Moduli (GPa) = 162.46651 91.62904 86.81368
#
# Poissons Ratio (x) = 0.11243 0.20655
# Poissons Ratio (y) = 0.19936 0.12212
# Poissons Ratio (z) = 0.38654 0.12890
#
# Static dielectric constant tensor:
#      x y z
#    x 1.982200 0.000000 -0.009120 
#    y 0.000000 1.987060 0.000000 
#    z -0.009120 0.000000 1.965670 
# 
# From -- ./inp_files/28256.got.cif
#   From: 2010.05.17/outbox.cif.g08.bks.cpg/sg5_15_cif.got.tgz:28256.got - 2010.06.03 18:56:24.
