data_PCOD9130329
_publ_section_title
;
Structure prediction by ZEFSAII (Michael W. Deem and Ramdas Pophale) SiO2 
 PCOD9130329
Probable space group: C 2
;
_chemical_formula_sum "Si O2"
_cell_formula_units_Z 18
_cell_length_a 21.128480
_cell_length_b 5.793973
_cell_length_c 9.188721
_cell_angle_alpha 90.000000
_cell_angle_beta 139.321052
_cell_angle_gamma 90.000000
_cell_volume 733.208239
_symmetry_space_group_name_H-M "C 2"
_symmetry_group_IT_number 5
_symmetry_cell_setting 'monoclinic'
loop_
_space_group_symop_operation_xyz
x,y,z
-x,y,-z
1/2+x,1/2+y,z
1/2-x,1/2+y,-z
loop_
_atom_site_type_symbol
_atom_site_label
_atom_site_fract_x
_atom_site_fract_y
_atom_site_fract_z
Si Si1 0.317920 0.009470 0.928942
Si Si2 0.340571 0.183695 0.291546
Si Si3 0.784971 0.228394 0.499670
Si Si4 0.500000 0.554753 0.500000
Si Si5 0.476357 0.876092 0.728983
O O1 0.255257 0.201661 0.736192
O O2 0.258611 0.772049 0.811269
O O3 0.324525 0.051077 0.113032
O O4 0.425293 0.997093 0.048077
O O5 0.404580 0.403215 0.355433
O O6 0.407923 0.056620 0.524984
O O7 0.746369 0.476100 0.491498
O O8 0.901960 0.246005 0.704205
O O9 0.511509 0.704097 0.664285
#
# Coordination Sequence:
#
# PCOD9130329 Si02
#       5
#     4   4   4   2   4
#     4  12  24  46  79 106 150 204 238 312 396 436
#     4  12  23  44  73 121 150 179 244 318 394 459
#     4  12  30  54  74 106 156 210 265 305 350 456
#     4  12  20  42  76 114 154 174 230 328 384 444
#     4  12  25  49  74 113 152 187 249 318 384 455
#
# _framework density 24.549643
#
# number of rings (size 3 to 8) (size 9 to 14) (size 15 to 20)
#    0.000    0.000    6.667    4.000    0.000    2.667 
#    0.000    6.667    0.000    0.000    0.000    0.000 
#    0.000    0.000    0.000    0.000    0.000    0.000 
#
# Total GULP energy -50386.787524 kJ/mol
# GULP energy per Si atom -5598.531947 kJ/mol
# Density = 2.449377 g / cm^3
# Si number density = 24.549643 Si / 1000 Ang^3
#
#
#
# Elastic Constant Matrix: (Units=GPa)
#
#
# Indices 1 2 3 4 5 6 
#
# 1 82.0286 37.5781 28.4485 0.0000 18.9344 0.0000
# 2 37.5781 112.1093 30.1214 0.0000 13.1164 0.0000
# 3 28.4485 30.1214 133.9074 0.0000 32.4566 0.0000
# 4 0.0000 0.0000 0.0000 28.8212 0.0000 29.8555
# 5 18.9344 13.1164 32.4566 0.0000 46.9333 0.0000
# 6 0.0000 0.0000 0.0000 29.8555 0.0000 33.7664
#
#
#
# Elastic Compliance Matrix: (Units=1/GPa)
#
#
# Indices 1 2 3 4 5 6 
#
# 1 0.015623 -0.004395 -0.001322 0.000000 -0.004160 0.000000
# 2 -0.004395 0.010809 -0.001436 0.000000 -0.000255 0.000000
# 3 -0.001322 -0.001436 0.009425 0.000000 -0.005583 0.000000
# 4 0.000000 0.000000 0.000000 0.412623 0.000000 -0.364832
# 5 -0.004160 -0.000255 -0.005583 0.000000 0.026917 0.000000
# 6 0.000000 0.000000 0.000000 -0.364832 0.000000 0.352192
#
#
# Mechanical properties :
#
#
# Convention : Reuss Voigt Hill
#
# Bulk Modulus (GPa) = 46.40169 57.81567 52.10868
# Shear Modulus (GPa) = 5.88874 37.36399 21.62636
#
# Velocity S-wave (km/s) = 1.55046 3.90548 2.97126
# Velocity P-wave (km/s) = 4.70610 6.62863 5.74831
#
# Compressibility (1/GPa) = 0.02155094
#
# Stress axis : x y z
#
# Youngs Moduli (GPa) = 64.00824 92.51950 106.10113
#
# Poissons Ratio (x) = 0.40660 0.14028
# Poissons Ratio (y) = 0.28130 0.15235
# Poissons Ratio (z) = 0.08463 0.13285
#
# Static dielectric constant tensor:
#      x y z
#    x 2.078870 0.000000 -0.042220 
#    y 0.000000 1.952580 0.000000 
#    z -0.042220 0.000000 1.974470 
# 
# From -- ./inp_files/46871.got.cif
#   From: 2010.05.17/outbox.cif.g08.bks.cpg/sg5_24_cif.got.tgz:46871.got - 2010.06.03 18:56:24.
