data_PCOD9130218
_publ_section_title
;
Structure prediction by ZEFSAII (Michael W. Deem and Ramdas Pophale) SiO2 
 PCOD9130218
Probable space group: C 2
;
_chemical_formula_sum "Si O2"
_cell_formula_units_Z 28
_cell_length_a 11.171895
_cell_length_b 8.825630
_cell_length_c 10.453280
_cell_angle_alpha 90.000000
_cell_angle_beta 79.383043
_cell_angle_gamma 90.000000
_cell_volume 1013.038674
_symmetry_space_group_name_H-M "C 2"
_symmetry_group_IT_number 5
_symmetry_cell_setting 'monoclinic'
loop_
_space_group_symop_operation_xyz
x,y,z
-x,y,-z
1/2+x,1/2+y,z
1/2-x,1/2+y,-z
loop_
_atom_site_type_symbol
_atom_site_label
_atom_site_fract_x
_atom_site_fract_y
_atom_site_fract_z
Si Si1 0.550963 0.039830 0.751065
Si Si2 0.827658 0.156231 0.729107
Si Si3 0.500000 0.241950 0.000000
Si Si4 0.145865 0.460151 0.401328
Si Si5 0.675018 0.800015 0.853603
Si Si6 0.000000 0.980928 0.500000
Si Si7 0.277001 0.284280 0.573672
Si Si8 0.190643 0.000458 0.999514
O O1 0.690337 0.101870 0.714387
O O2 0.473311 0.038670 0.637304
O O3 0.560052 0.867213 0.802226
O O4 0.493383 0.143636 0.872990
O O5 0.819614 0.337729 0.714001
O O6 0.851750 0.094297 0.866415
O O7 0.934095 0.086061 0.618603
O O8 0.612139 0.356355 0.976151
O O9 0.160495 0.351571 0.522536
O O10 0.226934 0.604012 0.422719
O O11 0.779408 0.820715 0.724693
O O12 0.690959 0.916940 0.967148
O O13 0.684287 0.628004 0.893706
O O14 0.108178 0.863421 0.516543
#
# Coordination Sequence:
#
# PCOD9130218 Si02
#       8
#     4   4   2   4   4   2   4   4
#     4  11  28  54  86 131 177 242 300 372 459 534
#     4  11  28  54  89 128 179 242 302 378 450 546
#     4  12  28  48  86 134 174 232 296 376 452 542
#     4  12  31  54  86 121 181 237 296 375 450 540
#     4  11  26  51  86 126 172 229 297 367 453 534
#     4  12  26  58  82 128 182 232 308 366 454 536
#     4  12  29  52  86 126 172 243 298 373 446 546
#     4  11  25  49  83 129 170 228 294 371 451 534
#
# _framework density 27.639617000000001
#
# number of rings (size 3 to 8) (size 9 to 14) (size 15 to 20)
#    0.000    0.571    2.857    3.429   10.000    3.429 
#    0.000    0.000    0.000    0.000    0.000    0.000 
#    0.000    0.000    0.000    0.000    0.000    0.000 
#
# Total GULP energy -78353.353947 kJ/mol
# GULP energy per Si atom -5596.668139 kJ/mol
# Density = 2.757671 g / cm^3
# Si number density = 27.639617 Si / 1000 Ang^3
#
#
#
# Elastic Constant Matrix: (Units=GPa)
#
#
# Indices 1 2 3 4 5 6 
#
# 1 120.5851 56.4300 72.3853 0.0000 18.8718 0.0000
# 2 56.4300 220.6409 68.7568 0.0000 6.3918 0.0000
# 3 72.3853 68.7568 135.9480 0.0000 13.3729 0.0000
# 4 0.0000 0.0000 0.0000 48.5213 0.0000 5.3335
# 5 18.8718 6.3918 13.3729 0.0000 51.1934 0.0000
# 6 0.0000 0.0000 0.0000 5.3335 0.0000 55.9840
#
#
#
# Elastic Compliance Matrix: (Units=1/GPa)
#
#
# Indices 1 2 3 4 5 6 
#
# 1 0.012963 -0.001388 -0.005898 0.000000 -0.003064 0.000000
# 2 -0.001388 0.005529 -0.002093 0.000000 0.000368 0.000000
# 3 -0.005898 -0.002093 0.011614 0.000000 -0.000598 0.000000
# 4 0.000000 0.000000 0.000000 0.020828 0.000000 -0.001984
# 5 -0.003064 0.000368 -0.000598 0.000000 0.020774 0.000000
# 6 0.000000 0.000000 0.000000 -0.001984 0.000000 0.018051
#
#
# Mechanical properties :
#
#
# Convention : Reuss Voigt Hill
#
# Bulk Modulus (GPa) = 88.14072 96.92424 92.53248
# Shear Modulus (GPa) = 44.52329 49.77985 47.15157
#
# Velocity S-wave (km/s) = 4.01789 4.24846 4.13479
# Velocity P-wave (km/s) = 7.31322 7.69475 7.50641
#
# Compressibility (1/GPa) = 0.01134549
#
# Stress axis : x y z
#
# Youngs Moduli (GPa) = 77.14261 180.86426 86.10375
#
# Poissons Ratio (x) = 0.25113 0.50788
# Poissons Ratio (y) = 0.10711 0.18024
# Poissons Ratio (z) = 0.45502 0.37860
#
# Static dielectric constant tensor:
#      x y z
#    x 2.249180 0.000000 -0.043090 
#    y 0.000000 2.159810 0.000000 
#    z -0.043090 0.000000 2.252790 
# 
# From -- ./inp_files/41661.got.cif
#   From: 2010.05.17/outbox.cif.g08.bks.cpg/sg5_21_cif.got.tgz:41661.got - 2010.06.03 18:56:24.
