data_PCOD9130314
_publ_section_title
;
Structure prediction by ZEFSAII (Michael W. Deem and Ramdas Pophale) SiO2 
 PCOD9130314
Probable space group: C 2
;
_chemical_formula_sum "Si O2"
_cell_formula_units_Z 20
_cell_length_a 17.857601
_cell_length_b 5.056888
_cell_length_c 21.486623
_cell_angle_alpha 90.000000
_cell_angle_beta 154.399265
_cell_angle_gamma 90.000000
_cell_volume 838.409488
_symmetry_space_group_name_H-M "C 2"
_symmetry_group_IT_number 5
_symmetry_cell_setting 'monoclinic'
loop_
_space_group_symop_operation_xyz
x,y,z
-x,y,-z
1/2+x,1/2+y,z
1/2-x,1/2+y,-z
loop_
_atom_site_type_symbol
_atom_site_label
_atom_site_fract_x
_atom_site_fract_y
_atom_site_fract_z
Si Si1 0.134143 0.711960 0.415717
Si Si2 0.854284 0.053368 0.164999
Si Si3 0.038422 0.359007 0.629273
Si Si4 0.708696 0.275005 0.296682
Si Si5 0.467549 0.778287 0.124869
O O1 0.221113 0.433558 0.463461
O O2 0.352500 0.787682 0.459335
O O3 0.008793 0.650809 0.380197
O O4 0.009220 0.842442 0.272167
O O5 0.895194 0.202307 0.260041
O O6 0.870822 0.252199 0.119212
O O7 0.677804 0.888842 0.030859
O O8 0.179341 0.323557 0.681761
O O9 0.559423 0.498383 0.182150
O O10 0.619470 0.992206 0.235454
#
# Coordination Sequence:
#
# PCOD9130314 Si02
#       5
#     4   4   4   4   4
#     4  12  27  44  80 118 147 204 266 326 383 458
#     4  12  30  50  79 120 158 208 270 323 394 480
#     4  11  29  51  81 117 155 205 277 316 393 477
#     4  11  30  52  79 115 160 207 258 335 393 470
#     4  12  30  50  76 115 164 206 256 329 402 459
#
# _framework density 23.854690999999999
#
# number of rings (size 3 to 8) (size 9 to 14) (size 15 to 20)
#    0.000    0.400    2.000    2.400   19.600    2.400 
#    0.000    0.000    0.000    0.000    0.000    0.000 
#    0.000    0.000    0.000    0.000    0.000    0.000 
#
# Total GULP energy -55976.677285 kJ/mol
# GULP energy per Si atom -5597.667729 kJ/mol
# Density = 2.380040 g / cm^3
# Si number density = 23.854691 Si / 1000 Ang^3
#
#
#
# Elastic Constant Matrix: (Units=GPa)
#
#
# Indices 1 2 3 4 5 6 
#
# 1 118.0288 26.1828 35.6752 0.0011 -1.2283 0.0006
# 2 26.1828 94.7139 5.6163 0.0038 -1.7068 0.0051
# 3 35.6752 5.6163 125.3354 0.0012 -14.1381 0.0012
# 4 0.0011 0.0038 0.0012 48.5770 -0.0002 -4.2836
# 5 -1.2283 -1.7068 -14.1381 -0.0002 35.9983 0.0000
# 6 0.0006 0.0051 0.0012 -4.2836 0.0000 24.4487
#
#
#
# Elastic Compliance Matrix: (Units=1/GPa)
#
#
# Indices 1 2 3 4 5 6 
#
# 1 0.009881 -0.002582 -0.002797 0.000000 -0.000884 0.000000
# 2 -0.002582 0.011265 0.000293 -0.000001 0.000561 -0.000003
# 3 -0.002797 0.000293 0.009158 0.000000 0.003515 0.000000
# 4 0.000000 -0.000001 0.000000 0.020909 0.000000 0.003663
# 5 -0.000884 0.000561 0.003515 0.000000 0.029156 0.000000
# 6 0.000000 -0.000003 0.000000 0.003663 0.000000 0.041544
#
#
# Mechanical properties :
#
#
# Convention : Reuss Voigt Hill
#
# Bulk Modulus (GPa) = 49.66709 52.55850 51.11279
# Shear Modulus (GPa) = 36.02465 39.84505 37.93485
#
# Velocity S-wave (km/s) = 3.89031 4.09139 3.99212
# Velocity P-wave (km/s) = 6.40665 6.66333 6.53625
#
# Compressibility (1/GPa) = 0.02013406
#
# Stress axis : x y z
#
# Youngs Moduli (GPa) = 101.20114 88.77432 109.19440
#
# Poissons Ratio (x) = 0.22919 0.30537
# Poissons Ratio (y) = 0.26127 -0.03204
# Poissons Ratio (z) = 0.28302 -0.02605
#
# Static dielectric constant tensor:
#      x y z
#    x 1.955860 0.000000 0.009640 
#    y 0.000000 1.899050 0.000000 
#    z 0.009640 0.000000 1.899760 
# 
# From -- ./inp_files/40970.got.cif
#   From: 2010.05.17/outbox.cif.g08.bks.cpg/sg5_21_cif.got.tgz:40970.got - 2010.06.03 18:56:24.
