data_PCOD9130833
_publ_section_title
;
Structure prediction by ZEFSAII (Michael W. Deem and Ramdas Pophale) SiO2 
 PCOD9130833
Probable space group: P M
;
_chemical_formula_sum "Si O2"
_cell_formula_units_Z 14
_cell_length_a 5.481013
_cell_length_b 12.955592
_cell_length_c 11.867178
_cell_angle_alpha 90.000000
_cell_angle_beta 117.507500
_cell_angle_gamma 90.000000
_cell_volume 747.420279
_symmetry_space_group_name_H-M "P M"
_symmetry_group_IT_number 6
_symmetry_cell_setting 'monoclinic'
loop_
_space_group_symop_operation_xyz
x,y,z
x,-y,z
loop_
_atom_site_type_symbol
_atom_site_label
_atom_site_fract_x
_atom_site_fract_y
_atom_site_fract_z
Si Si1 0.347870 0.382186 0.432770
Si Si2 0.977560 0.310305 0.562460
Si Si3 0.870946 0.201124 0.955842
Si Si4 0.159973 0.000000 0.744869
Si Si5 0.800264 0.115771 0.385164
Si Si6 0.261672 0.233783 0.846568
Si Si7 0.688439 0.000000 0.773335
Si Si8 0.171254 0.184732 0.256155
O O1 0.303471 0.500000 0.388371
O O2 0.677536 0.362633 0.513703
O O3 0.232902 0.299717 0.317802
O O4 0.180070 0.362633 0.513703
O O5 0.913621 0.197427 0.498520
O O6 0.127343 0.291389 0.712243
O O7 0.584072 0.257784 0.919813
O O8 0.781910 0.098430 0.866806
O O9 0.085763 0.257783 0.919815
O O10 0.019748 0.179284 0.104647
O O11 0.238423 0.108381 0.823320
O O12 0.364530 0.000000 0.685015
O O13 0.835707 0.000000 0.685015
O O14 0.472612 0.134574 0.305970
O O15 0.969522 0.134575 0.305968
O O16 0.846126 0.000000 0.431024
#
# Coordination Sequence:
#
# PCOD9130833 Si02
#       8
#     2   2   2   1   2   2   1   2
#     4  10  21  40  62  81 104 137 187 242 282 329
#     4  10  21  36  58  86 107 142 189 221 283 336
#     4  10  19  32  49  76 111 150 180 220 256 317
#     4   8  16  28  42  66 100 146 180 190 236 294
#     4  10  21  34  52  78 114 150 180 231 273 316
#     4  10  19  33  52  77 113 147 177 220 259 321
#     4   8  16  26  40  64  96 144 186 196 230 292
#     4  10  21  36  54  83 107 145 192 221 280 330
#
# _framework density 18.731093000000001
#
# number of rings (size 3 to 8) (size 9 to 14) (size 15 to 20)
#    0.000    2.286    0.000    2.571    3.000    0.000 
#    2.571    0.000    0.000    5.143    0.000    0.000 
#    0.000    0.000    0.000    0.000    0.000    0.000 
#
# Total GULP energy -78012.210275 kJ/mol
# GULP energy per Si atom -5572.300734 kJ/mol
# Density = 1.868846 g / cm^3
# Si number density = 18.731093 Si / 1000 Ang^3
#
#
#
# Elastic Constant Matrix: (Units=GPa)
#
#
# Indices 1 2 3 4 5 6 
#
# 1 212.2783 26.6458 44.0773 0.0000 -0.0030 0.0000
# 2 26.6458 79.3030 11.0145 0.0000 -0.0003 0.0000
# 3 44.0773 11.0145 80.9989 0.0000 -0.0021 0.0000
# 4 0.0000 0.0000 0.0000 -4.3892 0.0000 -0.0002
# 5 -0.0030 -0.0003 -0.0021 0.0000 20.6791 0.0000
# 6 0.0000 0.0000 0.0000 -0.0002 0.0000 33.0617
#
#
#
# Elastic Compliance Matrix: (Units=1/GPa)
#
#
# Indices 1 2 3 4 5 6 
#
# 1 0.005470 -0.001452 -0.002779 0.000000 0.000000 0.000000
# 2 -0.001452 0.013238 -0.001010 0.000000 0.000000 0.000000
# 3 -0.002779 -0.001010 0.013996 0.000000 0.000001 0.000000
# 4 0.000000 0.000000 0.000000 -0.227833 0.000000 -0.000002
# 5 0.000000 0.000000 0.000001 0.000000 0.048358 0.000000
# 6 0.000000 0.000000 0.000000 -0.000002 0.000000 0.030246
#
#
# Mechanical properties :
#
#
# Convention : Reuss Voigt Hill
#
# Bulk Modulus (GPa) = 45.00198 59.56171 52.28184
# Shear Modulus (GPa) = -50.69187 29.25982 -10.71603
#
# Velocity S-wave (km/s) = -5.20785 3.95663 -2.39445
# Velocity P-wave (km/s) = 3.47633 7.26227 4.50864
#
# Compressibility (1/GPa) = 0.02222125
#
# Stress axis : x y z
#
# Youngs Moduli (GPa) = 182.81088 75.54013 71.45107
#
# Poissons Ratio (x) = 0.10968 0.19858
# Poissons Ratio (y) = 0.26543 0.07217
# Poissons Ratio (z) = 0.50808 0.07630
#
# Static dielectric constant tensor:
#      x y z
#    x 1.732320 0.000000 0.000000 
#    y 0.000000 1.681990 0.000000 
#    z 0.000000 0.000000 1.605040 
# 
# From -- ./inp_files/1656.got.cif
#   From: 2010.05.17/outbox.cif.g08.bks.cpg/sg6_1_cif.got.tgz:1656.got - 2010.06.03 19:42:10.
