data_PCOD9130652
_publ_section_title
;
Structure prediction by ZEFSAII (Michael W. Deem and Ramdas Pophale) SiO2 
 PCOD9130652
Probable space group: C 2
;
_chemical_formula_sum "Si O2"
_cell_formula_units_Z 24
_cell_length_a 6.923125
_cell_length_b 20.279288
_cell_length_c 6.897169
_cell_angle_alpha 90.000000
_cell_angle_beta 64.162743
_cell_angle_gamma 90.000000
_cell_volume 871.536172
_symmetry_space_group_name_H-M "C 2"
_symmetry_group_IT_number 5
_symmetry_cell_setting 'monoclinic'
loop_
_space_group_symop_operation_xyz
x,y,z
-x,y,-z
1/2+x,1/2+y,z
1/2-x,1/2+y,-z
loop_
_atom_site_type_symbol
_atom_site_label
_atom_site_fract_x
_atom_site_fract_y
_atom_site_fract_z
Si Si1 0.304900 0.613980 0.816684
Si Si2 0.199376 0.608014 0.300760
Si Si3 0.277316 0.474232 0.699659
Si Si4 0.793819 0.762124 0.690482
Si Si5 0.634367 0.900614 0.123549
Si Si6 0.807836 0.268360 0.813193
O O1 0.554629 0.595399 0.748559
O O2 0.243646 0.552433 0.713862
O O3 0.274672 0.691108 0.762757
O O4 0.188367 0.605669 0.073223
O O5 0.192082 0.685074 0.349411
O O6 0.000000 0.577097 0.500000
O O7 0.500000 0.457332 0.500000
O O8 0.065308 0.440544 0.700898
O O9 0.278204 0.449110 0.926427
O O10 0.566000 0.776948 0.693039
O O11 0.000000 0.794472 0.500000
O O12 0.788122 0.766495 0.925573
O O13 0.749013 0.845655 0.205662
O O14 0.500000 0.867100 0.000000
#
# Coordination Sequence:
#
# PCOD9130652 Si02
#       6
#     4   4   4   4   4   4
#     4   9  17  27  45  70  98 124 155 195 240 278
#     4   8  15  24  39  64  92 116 145 191 239 275
#     4   9  18  31  45  66  97 134 158 187 232 292
#     4   8  11  18  33  55  84 109 125 165 223 265
#     4   8  18  28  43  64  91 127 156 192 234 281
#     4   9  14  25  39  63  89 112 148 192 228 265
#
# _framework density 27.537583000000001
#
# number of rings (size 3 to 8) (size 9 to 14) (size 15 to 20)
#    1.000    2.333    1.667    2.000    0.000    5.333 
#    0.000    0.000    0.000    0.000    0.000   10.500 
#    0.000    0.000    0.000    0.000    0.000    0.000 
#
# Total GULP energy -66813.864632 kJ/mol
# GULP energy per Si atom -5567.822053 kJ/mol
# Density = 2.747491 g / cm^3
# Si number density = 27.537583 Si / 1000 Ang^3
#
#
#
# Elastic Constant Matrix: (Units=GPa)
#
#
# Indices 1 2 3 4 5 6 
#
# 1 68.0175 41.7938 58.0017 0.0000 -2.0691 0.0000
# 2 41.7938 185.0043 43.9095 0.0000 -4.4685 0.0000
# 3 58.0017 43.9095 200.8982 0.0000 -43.1171 0.0000
# 4 0.0000 0.0000 0.0000 19.9864 0.0000 -12.1448
# 5 -2.0691 -4.4685 -43.1171 0.0000 44.4722 0.0000
# 6 0.0000 0.0000 0.0000 -12.1448 0.0000 9.6490
#
#
#
# Elastic Compliance Matrix: (Units=1/GPa)
#
#
# Indices 1 2 3 4 5 6 
#
# 1 0.022813 -0.003611 -0.007131 0.000000 -0.006215 0.000000
# 2 -0.003611 0.006295 -0.000295 0.000000 0.000178 0.000000
# 3 -0.007131 -0.000295 0.008869 0.000000 0.008237 0.000000
# 4 0.000000 0.000000 0.000000 0.212759 0.000000 0.267793
# 5 -0.006215 0.000178 0.008237 0.000000 0.030201 0.000000
# 6 0.000000 0.000000 0.000000 0.267793 0.000000 0.440700
#
#
# Mechanical properties :
#
#
# Convention : Reuss Voigt Hill
#
# Bulk Modulus (GPa) = 62.88274 82.36999 72.62637
# Shear Modulus (GPa) = 6.67545 35.50252 21.08898
#
# Velocity S-wave (km/s) = 1.55865 3.59449 2.77036
# Velocity P-wave (km/s) = 5.11116 6.87051 6.05508
#
# Compressibility (1/GPa) = 0.01590262
#
# Stress axis : x y z
#
# Youngs Moduli (GPa) = 43.83486 158.84561 112.75485
#
# Poissons Ratio (x) = 0.57363 0.80405
# Poissons Ratio (y) = 0.15830 0.03327
# Poissons Ratio (z) = 0.31258 0.04687
#
# Static dielectric constant tensor:
#      x y z
#    x 2.454210 0.000000 -0.084250 
#    y 0.000000 2.136720 0.000000 
#    z -0.084250 0.000000 2.446730 
# 
# From -- ./inp_files/40193.got.cif
#   From: 2010.05.17/outbox.cif.g08.bks.cpg/sg5_21_cif.got.tgz:40193.got - 2010.06.03 18:56:24.
