data_PCOD9130337
_publ_section_title
;
Structure prediction by ZEFSAII (Michael W. Deem and Ramdas Pophale) SiO2 
 PCOD9130337
Probable space group: C 2
;
_chemical_formula_sum "Si O2"
_cell_formula_units_Z 28
_cell_length_a 21.459735
_cell_length_b 9.222637
_cell_length_c 11.707262
_cell_angle_alpha 90.000000
_cell_angle_beta 148.898472
_cell_angle_gamma 90.000000
_cell_volume 1196.884812
_symmetry_space_group_name_H-M "C 2"
_symmetry_group_IT_number 5
_symmetry_cell_setting 'monoclinic'
loop_
_space_group_symop_operation_xyz
x,y,z
-x,y,-z
1/2+x,1/2+y,z
1/2-x,1/2+y,-z
loop_
_atom_site_type_symbol
_atom_site_label
_atom_site_fract_x
_atom_site_fract_y
_atom_site_fract_z
Si Si1 0.240184 0.099740 0.441655
Si Si2 0.142621 0.887473 0.461016
Si Si3 0.151070 0.408252 0.585975
Si Si4 0.567033 0.794485 0.865799
Si Si5 0.874943 0.975409 0.068466
Si Si6 0.183507 0.873478 0.796803
Si Si7 0.500000 0.125919 0.500000
Si Si8 0.500000 0.768721 0.000000
O O1 0.323960 0.239016 0.551590
O O2 0.222955 0.016255 0.533492
O O3 0.284824 0.978230 0.423117
O O4 0.109448 0.166089 0.208659
O O5 0.163000 0.882557 0.629113
O O6 0.000835 0.913217 0.224052
O O7 0.058077 0.284957 0.399503
O O8 0.062645 0.527360 0.503287
O O9 0.260332 0.383958 0.845168
O O10 0.627827 0.638473 0.982453
O O11 0.537172 0.855910 0.944712
O O12 0.672294 0.875958 0.964458
O O13 0.869896 0.987775 0.197963
O O14 0.107982 0.729555 0.713734
#
# Coordination Sequence:
#
# PCOD9130337 Si02
#       8
#     4   4   4   4   4   4   2   2
#     4  12  23  44  77 105 145 191 253 303 383 447
#     4  12  24  46  77 106 145 200 246 313 380 457
#     4  12  25  45  76 109 145 200 248 307 376 461
#     4  12  26  45  76 108 141 199 254 305 377 461
#     4  12  24  48  73 107 153 193 248 318 378 451
#     4  12  24  47  75 101 151 196 241 310 387 438
#     4  12  20  48  72 106 140 194 240 298 378 444
#     4  12  20  48  76  96 152 192 242 316 386 434
#
# _framework density 23.394065999999999
#
# number of rings (size 3 to 8) (size 9 to 14) (size 15 to 20)
#    0.000    0.000    8.571    1.714    0.000    0.000 
#    7.714    0.000    9.429    0.000    0.000    0.000 
#    0.000    0.000    0.000    0.000    0.000    0.000 
#
# Total GULP energy -78245.422973 kJ/mol
# GULP energy per Si atom -5588.958784 kJ/mol
# Density = 2.334082 g / cm^3
# Si number density = 23.394066 Si / 1000 Ang^3
#
#
#
# Elastic Constant Matrix: (Units=GPa)
#
#
# Indices 1 2 3 4 5 6 
#
# 1 162.7781 28.5001 27.0913 0.0000 14.9412 0.0000
# 2 28.5001 19.5578 4.3703 0.0000 -3.4755 0.0000
# 3 27.0913 4.3703 103.5331 0.0000 21.6086 0.0000
# 4 0.0000 0.0000 0.0000 32.9438 0.0000 6.7597
# 5 14.9412 -3.4755 21.6086 0.0000 39.0572 0.0000
# 6 0.0000 0.0000 0.0000 6.7597 0.0000 41.3699
#
#
#
# Elastic Compliance Matrix: (Units=1/GPa)
#
#
# Indices 1 2 3 4 5 6 
#
# 1 0.009098 -0.013798 -0.000922 0.000000 -0.004198 0.000000
# 2 -0.013798 0.074072 -0.002254 0.000000 0.013116 0.000000
# 3 -0.000922 -0.002254 0.011264 0.000000 -0.006080 0.000000
# 4 0.000000 0.000000 0.000000 0.031408 0.000000 -0.005132
# 5 -0.004198 0.013116 -0.006080 0.000000 0.031740 0.000000
# 6 0.000000 0.000000 0.000000 -0.005132 0.000000 0.025011
#
#
# Mechanical properties :
#
#
# Convention : Reuss Voigt Hill
#
# Bulk Modulus (GPa) = 16.53264 45.08804 30.81034
# Shear Modulus (GPa) = 21.12366 37.73466 29.42916
#
# Velocity S-wave (km/s) = 3.00817 4.02058 3.55064
# Velocity P-wave (km/s) = 4.37582 6.39285 5.47797
#
# Compressibility (1/GPa) = 0.06048642
#
# Stress axis : x y z
#
# Youngs Moduli (GPa) = 109.91542 13.50046 88.77787
#
# Poissons Ratio (x) = 0.18628 0.08186
# Poissons Ratio (y) = 1.51658 0.20009
# Poissons Ratio (z) = 0.10135 0.03043
#
# Static dielectric constant tensor:
#      x y z
#    x 1.894590 0.000000 -0.022610 
#    y 0.000000 1.877260 0.000000 
#    z -0.022610 0.000000 1.899750 
# 
# From -- ./inp_files/46449.got.cif
#   From: 2010.05.17/outbox.cif.g08.bks.cpg/sg5_24_cif.got.tgz:46449.got - 2010.06.03 18:56:24.
