data_PCOD9130070
_publ_section_title
;
Structure prediction by ZEFSAII (Michael W. Deem and Ramdas Pophale) SiO2 
 PCOD9130070
Probable space group: C 2
;
_chemical_formula_sum "Si O2"
_cell_formula_units_Z 22
_cell_length_a 10.980535
_cell_length_b 14.049427
_cell_length_c 9.214744
_cell_angle_alpha 90.000000
_cell_angle_beta 138.549395
_cell_angle_gamma 90.000000
_cell_volume 941.036351
_symmetry_space_group_name_H-M "C 2"
_symmetry_group_IT_number 5
_symmetry_cell_setting 'monoclinic'
loop_
_space_group_symop_operation_xyz
x,y,z
-x,y,-z
1/2+x,1/2+y,z
1/2-x,1/2+y,-z
loop_
_atom_site_type_symbol
_atom_site_label
_atom_site_fract_x
_atom_site_fract_y
_atom_site_fract_z
Si Si1 0.279567 0.836530 0.334217
Si Si2 0.705022 0.962417 0.409482
Si Si3 0.500000 0.825618 0.000000
Si Si4 0.000000 0.976958 0.000000
Si Si5 0.668445 0.642925 0.009316
Si Si6 0.500000 0.066131 0.500000
Si Si7 0.210546 0.622811 0.210217
O O1 0.500000 0.837256 0.500000
O O2 0.221770 0.727831 0.285207
O O3 0.194844 0.883075 0.405000
O O4 0.172803 0.906716 0.128809
O O5 0.586948 0.010025 0.437641
O O6 0.793992 0.045717 0.394206
O O7 0.601882 0.895732 0.201479
O O8 0.393862 0.749249 0.006866
O O9 0.982688 0.058178 0.108450
O O10 0.834055 0.620765 0.270818
O O11 0.717604 0.634825 0.886705
O O12 0.000000 0.593333 0.000000
#
# Coordination Sequence:
#
# PCOD9130070 Si02
#       7
#     4   4   2   2   4   2   4
#     4  12  26  46  78 107 149 197 249 307 376 445
#     4  12  24  45  74 109 147 197 246 307 377 444
#     4  11  26  45  72 110 148 199 252 313 378 446
#     4  11  24  47  74 116 142 195 250 311 374 442
#     4  11  25  44  75 107 154 195 253 312 372 447
#     4  12  22  44  74 104 150 200 242 312 368 440
#     4  12  26  46  74 108 153 199 250 311 377 443
#
# _framework density 23.37848
#
# number of rings (size 3 to 8) (size 9 to 14) (size 15 to 20)
#    0.000    0.364    6.364    1.091    2.545    2.909 
#    0.000    0.000    2.000    0.000    0.000    0.000 
#    0.000    0.000    0.000    0.000    0.000    0.000 
#
# Total GULP energy -61281.457054 kJ/mol
# GULP energy per Si atom -5571.041550 kJ/mol
# Density = 2.332527 g / cm^3
# Si number density = 23.378480 Si / 1000 Ang^3
#
#
#
# Elastic Constant Matrix: (Units=GPa)
#
#
# Indices 1 2 3 4 5 6 
#
# 1 96.7991 54.0148 32.2130 0.0000 -33.7587 0.0000
# 2 54.0148 206.8477 54.4172 0.0000 -24.1886 0.0000
# 3 32.2130 54.4172 83.2701 0.0000 -19.4407 0.0000
# 4 0.0000 0.0000 0.0000 61.2275 0.0000 2.5907
# 5 -33.7587 -24.1886 -19.4407 0.0000 54.7284 0.0000
# 6 0.0000 0.0000 0.0000 2.5907 0.0000 18.4387
#
#
#
# Elastic Compliance Matrix: (Units=1/GPa)
#
#
# Indices 1 2 3 4 5 6 
#
# 1 0.015080 -0.002411 -0.002547 0.000000 0.007332 0.000000
# 2 -0.002411 0.006314 -0.003151 0.000000 0.000185 0.000000
# 3 -0.002547 -0.003151 0.015660 0.000000 0.002599 0.000000
# 4 0.000000 0.000000 0.000000 0.016430 0.000000 -0.002308
# 5 0.007332 0.000185 0.002599 0.000000 0.023800 0.000000
# 6 0.000000 0.000000 0.000000 -0.002308 0.000000 0.054558
#
#
# Mechanical properties :
#
#
# Convention : Reuss Voigt Hill
#
# Bulk Modulus (GPa) = 47.98749 74.24519 61.11634
# Shear Modulus (GPa) = 32.25681 43.29704 37.77692
#
# Velocity S-wave (km/s) = 3.71855 4.30816 4.02417
# Velocity P-wave (km/s) = 6.24562 7.52156 6.91309
#
# Compressibility (1/GPa) = 0.02083876
#
# Stress axis : x y z
#
# Youngs Moduli (GPa) = 66.31124 158.36614 63.85583
#
# Poissons Ratio (x) = 0.38176 0.16262
# Poissons Ratio (y) = 0.15985 0.20120
# Poissons Ratio (z) = 0.16888 0.49899
#
# Static dielectric constant tensor:
#      x y z
#    x 2.005130 0.000000 0.055220 
#    y 0.000000 1.900810 0.000000 
#    z 0.055220 0.000000 2.058990 
# 
# From -- ./inp_files/20239.got.cif
#   From: 2010.05.17/outbox.cif.g08.bks.cpg/sg5_11_cif.got.tgz:20239.got - 2010.06.03 18:56:24.
