data_PCOD9130182
_publ_section_title
;
Structure prediction by ZEFSAII (Michael W. Deem and Ramdas Pophale) SiO2 
 PCOD9130182
Probable space group: C 2
;
_chemical_formula_sum "Si O2"
_cell_formula_units_Z 20
_cell_length_a 23.482587
_cell_length_b 6.912149
_cell_length_c 7.570964
_cell_angle_alpha 90.000000
_cell_angle_beta 130.661361
_cell_angle_gamma 90.000000
_cell_volume 932.197905
_symmetry_space_group_name_H-M "C 2"
_symmetry_group_IT_number 5
_symmetry_cell_setting 'monoclinic'
loop_
_space_group_symop_operation_xyz
x,y,z
-x,y,-z
1/2+x,1/2+y,z
1/2-x,1/2+y,-z
loop_
_atom_site_type_symbol
_atom_site_label
_atom_site_fract_x
_atom_site_fract_y
_atom_site_fract_z
Si Si1 0.152374 0.256280 0.805688
Si Si2 0.861861 0.726626 0.727908
Si Si3 0.418015 0.614770 0.687291
Si Si4 0.073279 0.355057 0.974523
Si Si5 0.754490 0.990635 0.752399
O O1 0.119799 0.131685 0.579651
O O2 0.094027 0.369525 0.810291
O O3 0.210505 0.389694 0.822889
O O4 0.190460 0.133463 0.035479
O O5 0.806623 0.607862 0.485959
O O6 0.911097 0.892915 0.732487
O O7 0.804349 0.837334 0.743629
O O8 0.916599 0.572246 0.932434
O O9 0.496516 0.729246 0.819678
O O10 0.381719 0.734515 0.779009
#
# Coordination Sequence:
#
# PCOD9130182 Si02
#       5
#     4   4   4   4   4
#     4  12  23  46  70 112 143 188 252 298 368 434
#     4  12  24  49  76 112 145 198 240 302 380 426
#     4  11  25  47  74 103 147 192 245 300 357 437
#     4  11  25  47  74 103 147 192 245 300 357 437
#     4  12  24  42  78 108 150 188 244 310 364 440
#
# _framework density 21.454671000000001
#
# number of rings (size 3 to 8) (size 9 to 14) (size 15 to 20)
#    0.000    0.400    4.000    5.400    0.000    3.200 
#    0.000    0.000   17.600    0.000    0.000    0.000 
#    0.000    0.000    0.000    0.000    0.000    0.000 
#
# Total GULP energy -55728.113694 kJ/mol
# GULP energy per Si atom -5572.811369 kJ/mol
# Density = 2.140584 g / cm^3
# Si number density = 21.454671 Si / 1000 Ang^3
#
#
#
# Elastic Constant Matrix: (Units=GPa)
#
#
# Indices 1 2 3 4 5 6 
#
# 1 173.8044 40.7980 -0.1838 0.0000 -24.2501 0.0000
# 2 40.7980 110.7476 18.8656 0.0000 -1.5914 0.0000
# 3 -0.1838 18.8656 97.0094 0.0000 -10.9812 0.0000
# 4 0.0000 0.0000 0.0000 34.0425 0.0000 -15.3978
# 5 -24.2501 -1.5914 -10.9812 0.0000 37.5397 0.0000
# 6 0.0000 0.0000 0.0000 -15.3978 0.0000 36.0631
#
#
#
# Elastic Compliance Matrix: (Units=1/GPa)
#
#
# Indices 1 2 3 4 5 6 
#
# 1 0.007056 -0.002715 0.001080 0.000000 0.004759 0.000000
# 2 -0.002715 0.010384 -0.002248 0.000000 -0.001971 0.000000
# 3 0.001080 -0.002248 0.011186 0.000000 0.003875 0.000000
# 4 0.000000 0.000000 0.000000 0.036406 0.000000 0.015544
# 5 0.004759 -0.001971 0.003875 0.000000 0.030763 0.000000
# 6 0.000000 0.000000 0.000000 0.015544 0.000000 0.034366
#
#
# Mechanical properties :
#
#
# Convention : Reuss Voigt Hill
#
# Bulk Modulus (GPa) = 47.93615 55.61345 51.77480
# Shear Modulus (GPa) = 34.51144 43.00117 38.75631
#
# Velocity S-wave (km/s) = 4.01506 4.48178 4.25482
# Velocity P-wave (km/s) = 6.62463 7.26357 6.95144
#
# Compressibility (1/GPa) = 0.02086108
#
# Stress axis : x y z
#
# Youngs Moduli (GPa) = 141.72279 96.29949 89.39718
#
# Poissons Ratio (x) = 0.26145 -0.09655
# Poissons Ratio (y) = 0.38477 0.20094
# Poissons Ratio (z) = -0.15307 0.21645
#
# Static dielectric constant tensor:
#      x y z
#    x 2.002470 0.000000 0.101720 
#    y 0.000000 1.807670 0.000000 
#    z 0.101720 0.000000 1.866400 
# 
# From -- ./inp_files/31454.got.cif
#   From: 2010.05.17/outbox.cif.g08.bks.cpg/sg5_16_cif.got.tgz:31454.got - 2010.06.03 18:56:24.
