data_PCOD9130066
_publ_section_title
;
Structure prediction by ZEFSAII (Michael W. Deem and Ramdas Pophale) SiO2 
 PCOD9130066
Probable space group: C 2
;
_chemical_formula_sum "Si O2"
_cell_formula_units_Z 28
_cell_length_a 8.473529
_cell_length_b 11.330488
_cell_length_c 13.316757
_cell_angle_alpha 90.000000
_cell_angle_beta 62.696266
_cell_angle_gamma 90.000000
_cell_volume 1136.086847
_symmetry_space_group_name_H-M "C 2"
_symmetry_group_IT_number 5
_symmetry_cell_setting 'monoclinic'
loop_
_space_group_symop_operation_xyz
x,y,z
-x,y,-z
1/2+x,1/2+y,z
1/2-x,1/2+y,-z
loop_
_atom_site_type_symbol
_atom_site_label
_atom_site_fract_x
_atom_site_fract_y
_atom_site_fract_z
Si Si1 0.683122 0.013950 0.385237
Si Si2 0.177325 0.476245 0.892638
Si Si3 0.880395 0.188172 0.937563
Si Si4 0.549308 0.344844 0.093690
Si Si5 0.772699 0.760338 0.326760
Si Si6 0.583983 0.014132 0.694634
Si Si7 0.908227 0.249842 0.324535
O O1 0.500000 0.013757 0.500000
O O2 0.785454 0.135432 0.371506
O O3 0.779218 0.889052 0.377373
O O4 0.617299 0.008897 0.287866
O O5 0.270809 0.575216 0.932515
O O6 0.354200 0.397550 0.834456
O O7 0.109478 0.518134 0.805884
O O8 0.000000 0.430702 0.000000
O O9 0.004466 0.237266 0.811960
O O10 0.717800 0.271819 0.009194
O O11 0.000000 0.167277 0.000000
O O12 0.382944 0.278853 0.190771
O O13 0.500000 0.404567 0.000000
O O14 0.840155 0.641661 0.361565
O O15 0.568849 0.739620 0.356319
O O16 0.663355 0.884447 0.643717
#
# Coordination Sequence:
#
# PCOD9130066 Si02
#       7
#     4   4   4   4   4   4   4
#     4  11  29  52  78 106 143 193 260 326 382 437
#     4  12  25  39  63 105 154 205 250 292 362 454
#     4  12  24  40  66 102 152 202 249 294 360 449
#     4  12  23  41  66 106 153 203 245 292 364 448
#     4  11  25  47  76 108 153 192 246 310 378 456
#     4  11  25  45  73 107 147 189 245 309 370 451
#     4  11  24  47  73 108 148 195 253 302 378 451
#
# _framework density 24.646004000000001
#
# number of rings (size 3 to 8) (size 9 to 14) (size 15 to 20)
#    0.000    0.571    2.857    4.714    8.000    2.286 
#    0.000    0.714    0.000    0.000    0.000    0.000 
#    0.000    0.000    0.000    0.000    0.000    0.000 
#
# Total GULP energy -78109.664826 kJ/mol
# GULP energy per Si atom -5579.261773 kJ/mol
# Density = 2.458991 g / cm^3
# Si number density = 24.646004 Si / 1000 Ang^3
#
#
#
# Elastic Constant Matrix: (Units=GPa)
#
#
# Indices 1 2 3 4 5 6 
#
# 1 115.4386 50.4582 21.3949 0.0000 7.1982 0.0000
# 2 50.4582 204.3431 30.2629 0.0000 -32.0899 0.0000
# 3 21.3949 30.2629 111.0505 0.0000 -12.2364 0.0000
# 4 0.0000 0.0000 0.0000 12.4547 0.0000 -14.6774
# 5 7.1982 -32.0899 -12.2364 0.0000 37.4597 0.0000
# 6 0.0000 0.0000 0.0000 -14.6774 0.0000 26.7179
#
#
#
# Elastic Compliance Matrix: (Units=1/GPa)
#
#
# Indices 1 2 3 4 5 6 
#
# 1 0.010749 -0.003242 -0.001785 0.000000 -0.005426 0.000000
# 2 -0.003242 0.006751 -0.000528 0.000000 0.006234 0.000000
# 3 -0.001785 -0.000528 0.009835 0.000000 0.003103 0.000000
# 4 0.000000 0.000000 0.000000 0.227700 0.000000 0.125086
# 5 -0.005426 0.006234 0.003103 0.000000 0.034092 0.000000
# 6 0.000000 0.000000 0.000000 0.125086 0.000000 0.106143
#
#
# Mechanical properties :
#
#
# Convention : Reuss Voigt Hill
#
# Bulk Modulus (GPa) = 61.63693 70.56268 66.09981
# Shear Modulus (GPa) = 12.14214 37.24089 24.69152
#
# Velocity S-wave (km/s) = 2.22201 3.89142 3.16863
# Velocity P-wave (km/s) = 5.62550 6.99167 6.34546
#
# Compressibility (1/GPa) = 0.01622404
#
# Stress axis : x y z
#
# Youngs Moduli (GPa) = 93.03339 148.11566 101.68020
#
# Poissons Ratio (x) = 0.48017 0.18153
# Poissons Ratio (y) = 0.30160 0.05373
# Poissons Ratio (z) = 0.16609 0.07826
#
# Static dielectric constant tensor:
#      x y z
#    x 2.039370 0.000000 0.111360 
#    y 0.000000 1.869070 0.000000 
#    z 0.111360 0.000000 1.971640 
# 
# From -- ./inp_files/50411.got.cif
#   From: 2010.05.17/outbox.cif.g08.bks.cpg/sg5_26_cif.got.tgz:50411.got - 2010.06.03 18:56:24.
