data_PCOD9130263
_publ_section_title
;
Structure prediction by ZEFSAII (Michael W. Deem and Ramdas Pophale) SiO2 
 PCOD9130263
Probable space group: C 2
;
_chemical_formula_sum "Si O2"
_cell_formula_units_Z 28
_cell_length_a 16.786360
_cell_length_b 8.214790
_cell_length_c 18.280009
_cell_angle_alpha 90.000000
_cell_angle_beta 23.900418
_cell_angle_gamma 90.000000
_cell_volume 1021.276593
_symmetry_space_group_name_H-M "C 2"
_symmetry_group_IT_number 5
_symmetry_cell_setting 'monoclinic'
loop_
_space_group_symop_operation_xyz
x,y,z
-x,y,-z
1/2+x,1/2+y,z
1/2-x,1/2+y,-z
loop_
_atom_site_type_symbol
_atom_site_label
_atom_site_fract_x
_atom_site_fract_y
_atom_site_fract_z
Si Si1 0.196421 0.022450 0.291177
Si Si2 0.173145 0.696606 0.066451
Si Si3 0.571467 0.030584 0.509892
Si Si4 0.198128 0.192243 0.878491
Si Si5 0.978193 0.143772 0.695399
Si Si6 0.836391 0.488127 0.422121
Si Si7 0.918093 0.801045 0.152126
O O1 0.365263 0.108234 0.195898
O O2 0.000000 0.997854 0.500000
O O3 0.142305 0.160148 0.277160
O O4 0.251543 0.861723 0.202662
O O5 0.332354 0.608476 0.882822
O O6 0.290225 0.733123 0.044305
O O7 0.995586 0.583461 0.242307
O O8 0.073825 0.820819 0.089194
O O9 0.500000 0.131631 0.500000
O O10 0.360542 0.049117 0.730180
O O11 0.295121 0.081351 0.534171
O O12 0.593563 0.811242 0.612238
O O13 0.000000 0.147720 0.000000
O O14 0.128644 0.996077 0.557468
O O15 0.214410 0.395327 0.349170
O O16 0.000000 0.829538 0.000000
#
# Coordination Sequence:
#
# PCOD9130263 Si02
#       7
#     4   4   4   4   4   4   4
#     4  12  26  50  83 116 165 222 283 346 424 512
#     4  11  28  51  82 122 167 223 286 346 429 508
#     4  11  26  48  74 115 166 216 277 342 428 496
#     4  11  29  53  82 123 171 224 283 355 431 503
#     4  12  28  47  81 119 167 217 281 351 422 506
#     4  11  27  48  76 116 163 218 272 356 417 500
#     4  12  25  50  86 122 167 223 285 354 422 512
#
# _framework density 27.416668000000001
#
# number of rings (size 3 to 8) (size 9 to 14) (size 15 to 20)
#    0.000    0.571    1.429    4.714   10.000    1.714 
#    0.000    0.000    0.000    0.000    0.000    0.000 
#    0.000    0.000    0.000    0.000    0.000    0.000 
#
# Total GULP energy -78102.824195 kJ/mol
# GULP energy per Si atom -5578.773157 kJ/mol
# Density = 2.735427 g / cm^3
# Si number density = 27.416668 Si / 1000 Ang^3
#
#
#
# Elastic Constant Matrix: (Units=GPa)
#
#
# Indices 1 2 3 4 5 6 
#
# 1 212.2110 43.1417 70.3494 -0.0005 16.9317 0.0000
# 2 43.1417 116.1204 49.1276 -0.0008 -0.2140 0.0004
# 3 70.3494 49.1276 176.1314 -0.0019 11.4526 0.0011
# 4 -0.0005 -0.0008 -0.0019 37.5524 0.0014 4.4859
# 5 16.9317 -0.2140 11.4526 0.0014 56.9798 -0.0006
# 6 0.0000 0.0004 0.0011 4.4859 -0.0006 32.2214
#
#
#
# Elastic Compliance Matrix: (Units=1/GPa)
#
#
# Indices 1 2 3 4 5 6 
#
# 1 0.005694 -0.001352 -0.001810 0.000000 -0.001333 0.000000
# 2 -0.001352 0.010105 -0.002338 0.000000 0.000910 0.000000
# 3 -0.001810 -0.002338 0.007111 0.000000 -0.000900 0.000000
# 4 0.000000 0.000000 0.000000 0.027080 -0.000001 -0.003770
# 5 -0.001333 0.000910 -0.000900 -0.000001 0.018131 0.000000
# 6 0.000000 0.000000 0.000000 -0.003770 0.000000 0.031560
#
#
# Mechanical properties :
#
#
# Convention : Reuss Voigt Hill
#
# Bulk Modulus (GPa) = 83.96457 92.18892 88.07675
# Shear Modulus (GPa) = 43.61112 48.14035 45.87574
#
# Velocity S-wave (km/s) = 3.99266 4.19487 4.09501
# Velocity P-wave (km/s) = 7.20742 7.56047 7.38606
#
# Compressibility (1/GPa) = 0.01190978
#
# Stress axis : x y z
#
# Youngs Moduli (GPa) = 175.63479 98.96411 140.62281
#
# Poissons Ratio (x) = 0.13379 0.25458
# Poissons Ratio (y) = 0.23743 0.32873
# Poissons Ratio (z) = 0.31796 0.23134
#
# Static dielectric constant tensor:
#      x y z
#    x 2.170980 0.000000 -0.003240 
#    y 0.000000 2.167170 0.000000 
#    z -0.003240 0.000000 2.143050 
# 
# From -- ./inp_files/54731.got.cif
#   From: 2010.05.17/outbox.cif.g08.bks.cpg/sg5_28_cif.got.tgz:54731.got - 2010.06.03 18:56:24.
