data_PCOD9130660
_publ_section_title
;
Structure prediction by ZEFSAII (Michael W. Deem and Ramdas Pophale) SiO2 
 PCOD9130660
Probable space group: C 2
;
_chemical_formula_sum "Si O2"
_cell_formula_units_Z 12
_cell_length_a 12.000000
_cell_length_b 12.000000
_cell_length_c 27.000000
_cell_angle_alpha 90.000000
_cell_angle_beta 160.000000
_cell_angle_gamma 90.000000
_cell_volume 1329.774317
_symmetry_space_group_name_H-M "C 2"
_symmetry_group_IT_number 5
_symmetry_cell_setting 'monoclinic'
loop_
_space_group_symop_operation_xyz
x,y,z
-x,y,-z
1/2+x,1/2+y,z
1/2-x,1/2+y,-z
loop_
_atom_site_type_symbol
_atom_site_label
_atom_site_fract_x
_atom_site_fract_y
_atom_site_fract_z
Si Si1 0.655867 0.725950 0.827028
Si Si2 0.894850 0.971773 0.165943
Si Si3 0.630184 0.877898 0.213081
Si Si4 0.523299 0.316803 0.887962
Si Si5 0.113469 0.782241 0.332041
Si Si6 0.122572 0.614285 0.851281
O O1 0.544533 0.598055 0.790062
O O2 0.414870 0.807423 0.755501
O O3 0.742548 0.770057 0.807916
O O4 0.000000 0.732035 0.000000
O O5 0.029995 0.925909 0.169431
O O6 0.039543 0.886644 0.265699
O O7 0.500000 0.958427 0.000000
O O8 0.930634 0.823365 0.306641
O O9 0.583212 0.008340 0.211825
O O10 0.326088 0.851008 0.049396
O O11 0.611598 0.214651 0.887514
O O12 0.500000 0.768530 0.500000
O O13 0.989793 0.673843 0.247859
O O14 0.500000 0.578117 0.000000
#
# Coordination Sequence:
#
# PCOD9130660 Si02
#       6
#     4   4   4   4   4   4
#     4   9  20  31  53  95 119 145 192 255 309 348
#     4  10  18  36  61  84 115 155 201 248 300 347
#     4  11  21  36  60  89 125 153 203 249 305 365
#     4  10  18  32  57  90 120 145 194 257 297 355
#     4  11  23  42  61  85 125 166 203 247 306 368
#     4  11  21  38  67  92 117 160 206 256 310 351
#
# _framework density 9.0240880000000008
#
# number of rings (size 3 to 8) (size 9 to 14) (size 15 to 20)
#    0.000    1.667    3.333    3.500    4.667    1.333 
#    3.000    0.000    0.000    0.000    0.000    0.000 
#    0.000    0.000    0.000    0.000    0.000    0.000 
#
# Total GULP energy -66804.217367 kJ/mol
# GULP energy per Si atom -5567.018114 kJ/mol
# Density = 0.900355 g / cm^3
# Si number density = 9.024088 Si / 1000 Ang^3
#
#
#
# Elastic Constant Matrix: (Units=GPa)
#
#
# Indices 1 2 3 4 5 6 
#
# 1 154.4529 48.0144 19.0322 -0.0060 17.9001 0.0106
# 2 48.0144 128.1922 24.8963 -0.0081 7.8923 0.0094
# 3 19.0322 24.8963 59.6413 -0.0070 9.5316 0.0338
# 4 -0.0060 -0.0081 -0.0070 7.3214 -0.0048 6.2007
# 5 17.9001 7.8923 9.5316 -0.0048 18.3013 0.0007
# 6 0.0106 0.0094 0.0338 6.2007 0.0007 38.5810
#
#
#
# Elastic Compliance Matrix: (Units=1/GPa)
#
#
# Indices 1 2 3 4 5 6 
#
# 1 0.008080 -0.002530 -0.000473 0.000000 -0.006566 -0.000001
# 2 -0.002530 0.009348 -0.003104 0.000005 0.000061 0.000000
# 3 -0.000473 -0.003104 0.019553 0.000027 -0.008382 -0.000020
# 4 0.000000 0.000005 0.000027 0.158108 0.000026 -0.025411
# 5 -0.006566 0.000061 -0.008382 0.000026 0.065402 0.000004
# 6 -0.000001 0.000000 -0.000020 -0.025411 0.000004 0.030004
#
#
# Mechanical properties :
#
#
# Convention : Reuss Voigt Hill
#
# Bulk Modulus (GPa) = 40.37783 58.46357 49.42070
# Shear Modulus (GPa) = 16.07897 29.53030 22.80464
#
# Velocity S-wave (km/s) = 2.98802 4.04938 3.55849
# Velocity P-wave (km/s) = 5.85877 7.37066 6.65777
#
# Compressibility (1/GPa) = 0.02476607
#
# Stress axis : x y z
#
# Youngs Moduli (GPa) = 123.75824 106.97822 51.14231
#
# Poissons Ratio (x) = 0.27070 0.02419
# Poissons Ratio (y) = 0.31316 0.15876
# Poissons Ratio (z) = 0.05853 0.33209
#
# Static dielectric constant tensor:
#      x y z
#    x 1.668420 0.000000 0.008380 
#    y 0.000000 1.644250 0.000000 
#    z 0.008380 0.000000 1.607340 
# 
# From -- ./inp_files/19337.got.cif
#   From: 2010.05.17/outbox.ucp.g08.bks.cvg/sg5_10_cif.got.tgz:19337.got - 2010.06.11 12:53:14.
