data_PCOD9130335
_publ_section_title
;
Structure prediction by ZEFSAII (Michael W. Deem and Ramdas Pophale) SiO2 
 PCOD9130335
Probable space group: C 2
;
_chemical_formula_sum "Si O2"
_cell_formula_units_Z 20
_cell_length_a 16.717582
_cell_length_b 7.004319
_cell_length_c 8.029820
_cell_angle_alpha 90.000000
_cell_angle_beta 102.988345
_cell_angle_gamma 90.000000
_cell_volume 916.198356
_symmetry_space_group_name_H-M "C 2"
_symmetry_group_IT_number 5
_symmetry_cell_setting 'monoclinic'
loop_
_space_group_symop_operation_xyz
x,y,z
-x,y,-z
1/2+x,1/2+y,z
1/2-x,1/2+y,-z
loop_
_atom_site_type_symbol
_atom_site_label
_atom_site_fract_x
_atom_site_fract_y
_atom_site_fract_z
Si Si1 0.029790 0.482930 0.216285
Si Si2 0.663042 0.477607 0.591713
Si Si3 0.500000 0.719595 0.500000
Si Si4 0.399656 0.317889 0.106912
Si Si5 0.500000 0.649773 0.000000
Si Si6 0.814708 0.738729 0.721407
O O1 0.988958 0.362582 0.342525
O O2 0.109360 0.603860 0.298697
O O3 0.960086 0.635508 0.129956
O O4 0.059214 0.307761 0.110548
O O5 0.579086 0.588478 0.514039
O O6 0.643572 0.332170 0.734308
O O7 0.731614 0.620607 0.691642
O O8 0.692800 0.389660 0.431264
O O9 0.455344 0.507786 0.106380
O O10 0.341372 0.312211 0.917034
#
# Coordination Sequence:
#
# PCOD9130335 Si02
#       6
#     4   4   2   4   2   4
#     4  12  23  44  77 103 141 191 240 297 360 423
#     4  12  28  46  73 106 150 195 239 301 363 421
#     4  12  24  44  74 102 142 198 244 288 364 434
#     4  12  25  47  76 110 142 190 247 296 355 441
#     4  12  20  44  76 108 140 178 246 290 356 424
#     4  12  26  48  68 109 150 186 243 304 352 429
#
# _framework density 21.829333999999999
#
# number of rings (size 3 to 8) (size 9 to 14) (size 15 to 20)
#    0.000    0.000    6.000    4.800    0.000    4.800 
#    0.000    0.000    0.000    0.000    0.000    0.000 
#    0.000    0.000    0.000    0.000    0.000    0.000 
#
# Total GULP energy -55853.030246 kJ/mol
# GULP energy per Si atom -5585.303025 kJ/mol
# Density = 2.177965 g / cm^3
# Si number density = 21.829334 Si / 1000 Ang^3
#
#
#
# Elastic Constant Matrix: (Units=GPa)
#
#
# Indices 1 2 3 4 5 6 
#
# 1 70.8064 14.7823 30.1891 0.0000 15.7388 0.0000
# 2 14.7823 102.9843 50.4529 0.0000 6.2418 0.0000
# 3 30.1891 50.4529 108.5480 0.0000 0.3280 0.0000
# 4 0.0000 0.0000 0.0000 41.9306 0.0000 -8.7808
# 5 15.7388 6.2418 0.3280 0.0000 31.2412 0.0000
# 6 0.0000 0.0000 0.0000 -8.7808 0.0000 33.9271
#
#
#
# Elastic Compliance Matrix: (Units=1/GPa)
#
#
# Indices 1 2 3 4 5 6 
#
# 1 0.018347 0.000539 -0.005325 0.000000 -0.009295 0.000000
# 2 0.000539 0.012780 -0.006081 0.000000 -0.002761 0.000000
# 3 -0.005325 -0.006081 0.013509 0.000000 0.003756 0.000000
# 4 0.000000 0.000000 0.000000 0.025216 0.000000 0.006526
# 5 -0.009295 -0.002761 0.003756 0.000000 0.037204 0.000000
# 6 0.000000 0.000000 0.000000 0.006526 0.000000 0.031164
#
#
# Mechanical properties :
#
#
# Convention : Reuss Voigt Hill
#
# Bulk Modulus (GPa) = 43.66846 52.57638 48.12242
# Shear Modulus (GPa) = 29.83527 33.88071 31.85799
#
# Velocity S-wave (km/s) = 3.70097 3.94391 3.82437
# Velocity P-wave (km/s) = 6.18957 6.69901 6.44932
#
# Compressibility (1/GPa) = 0.02289982
#
# Stress axis : x y z
#
# Youngs Moduli (GPa) = 54.50528 78.25003 74.02645
#
# Poissons Ratio (x) = -0.04214 0.39418
# Poissons Ratio (y) = -0.02935 0.45018
# Poissons Ratio (z) = 0.29023 0.47587
#
# Static dielectric constant tensor:
#      x y z
#    x 1.728490 0.000000 -0.010310 
#    y 0.000000 1.755550 0.000000 
#    z -0.010310 0.000000 1.962630 
# 
# From -- ./inp_files/25972.got.cif
#   From: 2010.05.17/outbox.cif.g08.bks.cpg/sg5_13_cif.got.tgz:25972.got - 2010.06.03 18:56:24.
