data_PCOD9130589
_publ_section_title
;
Structure prediction by ZEFSAII (Michael W. Deem and Ramdas Pophale) SiO2 
 PCOD9130589
Probable space group: C 2
;
_chemical_formula_sum "Si O2"
_cell_formula_units_Z 20
_cell_length_a 4.870865
_cell_length_b 22.048899
_cell_length_c 7.323113
_cell_angle_alpha 90.000000
_cell_angle_beta 111.921660
_cell_angle_gamma 90.000000
_cell_volume 729.615478
_symmetry_space_group_name_H-M "C 2"
_symmetry_group_IT_number 5
_symmetry_cell_setting 'monoclinic'
loop_
_space_group_symop_operation_xyz
x,y,z
-x,y,-z
1/2+x,1/2+y,z
1/2-x,1/2+y,-z
loop_
_atom_site_type_symbol
_atom_site_label
_atom_site_fract_x
_atom_site_fract_y
_atom_site_fract_z
Si Si1 0.794564 0.798560 0.699622
Si Si2 0.628875 0.880051 0.212767
Si Si3 0.000000 0.471915 0.500000
Si Si4 0.254223 0.691640 0.807553
Si Si5 0.963948 0.562139 0.192816
Si Si6 0.500000 0.635130 0.500000
O O1 0.500000 0.795430 0.500000
O O2 0.632621 0.830097 0.827717
O O3 0.357672 0.926739 0.614040
O O4 0.059355 0.845205 0.717364
O O5 0.032287 0.734858 0.250139
O O6 0.500000 0.911371 0.000000
O O7 0.834642 0.517083 0.315355
O O8 0.203561 0.625142 0.874664
O O9 0.357742 0.675801 0.627326
O O10 0.500000 0.719381 0.000000
O O11 0.262779 0.589664 0.353235
O O12 0.000000 0.536578 0.000000
#
# Coordination Sequence:
#
# PCOD9130589 Si02
#       6
#     4   4   2   4   4   2
#     4  12  30  57  91 130 182 234 294 378 456 538
#     4  12  29  57  90 133 173 239 307 371 446 531
#     4  12  28  57  88 128 177 244 302 374 440 522
#     4  12  28  54  88 137 185 231 296 371 457 545
#     4  12  27  51  87 132 177 239 297 367 449 538
#     4  12  26  51  86 126 185 234 292 356 442 538
#
# _framework density 27.411698999999999
#
# number of rings (size 3 to 8) (size 9 to 14) (size 15 to 20)
#    0.000    0.000    5.000    2.400    4.200    5.600 
#    3.600    2.000    0.000    0.000    0.000    0.000 
#    0.000    0.000    0.000    0.000    0.000    0.000 
#
# Total GULP energy -55943.215341 kJ/mol
# GULP energy per Si atom -5594.321534 kJ/mol
# Density = 2.734931 g / cm^3
# Si number density = 27.411699 Si / 1000 Ang^3
#
#
#
# Elastic Constant Matrix: (Units=GPa)
#
#
# Indices 1 2 3 4 5 6 
#
# 1 190.6591 83.6628 84.3547 0.0000 19.0602 0.0000
# 2 83.6628 209.1265 78.7875 0.0000 -10.2517 0.0000
# 3 84.3547 78.7875 218.6791 0.0000 -6.0477 0.0000
# 4 0.0000 0.0000 0.0000 23.3478 0.0000 -27.7502
# 5 19.0602 -10.2517 -6.0477 0.0000 68.4636 0.0000
# 6 0.0000 0.0000 0.0000 -27.7502 0.0000 -14.8711
#
#
#
# Elastic Compliance Matrix: (Units=1/GPa)
#
#
# Indices 1 2 3 4 5 6 
#
# 1 0.007457 -0.002314 -0.002115 0.000000 -0.002609 0.000000
# 2 -0.002314 0.006280 -0.001329 0.000000 0.001467 0.000000
# 3 -0.002115 -0.001329 0.005893 0.000000 0.000910 0.000000
# 4 0.000000 0.000000 0.000000 0.013310 0.000000 -0.024837
# 5 -0.002609 0.001467 0.000910 0.000000 0.015633 0.000000
# 6 0.000000 0.000000 0.000000 -0.024837 0.000000 -0.020897
#
#
# Mechanical properties :
#
#
# Convention : Reuss Voigt Hill
#
# Bulk Modulus (GPa) = 123.25848 123.56388 123.41118
# Shear Modulus (GPa) = 119.33692 40.16537 79.75114
#
# Velocity S-wave (km/s) = 6.60527 3.83203 5.39972
# Velocity P-wave (km/s) = 10.16051 8.04700 9.16488
#
# Compressibility (1/GPa) = 0.00811303
#
# Stress axis : x y z
#
# Youngs Moduli (GPa) = 134.10011 159.22329 169.69687
#
# Poissons Ratio (x) = 0.36851 0.35889
# Poissons Ratio (y) = 0.31037 0.22560
# Poissons Ratio (z) = 0.28360 0.21167
#
# Static dielectric constant tensor:
#      x y z
#    x 2.144970 0.000000 -0.201800 
#    y 0.000000 2.166870 0.000000 
#    z -0.201800 0.000000 2.039940 
# 
# From -- ./inp_files/12582.got.cif
#   From: 2010.05.17/outbox.cif.g08.bks.cpg/sg5_7_cif.got.tgz:12582.got - 2010.06.03 18:56:24.
