data_PCOD9130056
_publ_section_title
;
Structure prediction by ZEFSAII (Michael W. Deem and Ramdas Pophale) SiO2 
 PCOD9130056
Probable space group: C 2
;
_chemical_formula_sum "Si O2"
_cell_formula_units_Z 22
_cell_length_a 15.268293
_cell_length_b 7.874486
_cell_length_c 25.036964
_cell_angle_alpha 90.000000
_cell_angle_beta 161.691996
_cell_angle_gamma 90.000000
_cell_volume 945.577181
_symmetry_space_group_name_H-M "C 2"
_symmetry_group_IT_number 5
_symmetry_cell_setting 'monoclinic'
loop_
_space_group_symop_operation_xyz
x,y,z
-x,y,-z
1/2+x,1/2+y,z
1/2-x,1/2+y,-z
loop_
_atom_site_type_symbol
_atom_site_label
_atom_site_fract_x
_atom_site_fract_y
_atom_site_fract_z
Si Si1 0.196902 0.157260 0.015531
Si Si2 0.859451 0.549135 0.253566
Si Si3 0.270297 0.027278 0.625186
Si Si4 0.500000 0.251812 0.000000
Si Si5 0.175977 0.040579 0.888243
Si Si6 0.354287 0.134661 0.471017
O O1 0.940027 0.132970 0.907032
O O2 0.094201 0.131876 0.895875
O O3 0.460274 0.032295 0.179159
O O4 0.296987 0.346588 0.081649
O O5 0.088505 0.619494 0.344252
O O6 0.003097 0.558532 0.394353
O O7 0.755277 0.373308 0.166207
O O8 0.000000 0.099700 0.500000
O O9 0.168842 0.841190 0.545730
O O10 0.440626 0.135311 0.016851
O O11 0.953754 0.063386 0.713124
O O12 0.500000 0.081872 0.500000
#
# Coordination Sequence:
#
# PCOD9130056 Si02
#       6
#     4   4   4   2   4   4
#     4  12  26  50  81 107 153 203 256 309 380 457
#     4  12  24  48  81 107 154 200 255 319 372 454
#     4  11  26  49  75 110 154 196 255 310 381 450
#     4  12  26  50  76 112 150 204 258 314 376 456
#     4  12  27  47  77 112 149 201 253 315 382 448
#     4  11  24  46  77 108 150 197 250 314 383 444
#
# _framework density 23.266210999999998
#
# number of rings (size 3 to 8) (size 9 to 14) (size 15 to 20)
#    0.000    0.364    5.455    2.182    5.091    3.636 
#    3.273    0.000    0.000    0.000    0.000    0.000 
#    0.000    0.000    0.000    0.000    0.000    0.000 
#
# Total GULP energy -61412.763045 kJ/mol
# GULP energy per Si atom -5582.978459 kJ/mol
# Density = 2.321326 g / cm^3
# Si number density = 23.266211 Si / 1000 Ang^3
#
#
#
# Elastic Constant Matrix: (Units=GPa)
#
#
# Indices 1 2 3 4 5 6 
#
# 1 158.7428 20.0593 45.5852 0.0233 10.2201 0.0073
# 2 20.0593 90.5754 12.0572 0.1111 -9.2398 -0.0162
# 3 45.5852 12.0572 124.7628 0.3264 -10.1564 -0.0740
# 4 0.0233 0.1111 0.3264 5.3037 -0.1015 -3.2509
# 5 10.2201 -9.2398 -10.1564 -0.1015 57.5695 0.0165
# 6 0.0073 -0.0162 -0.0740 -3.2509 0.0165 28.6602
#
#
#
# Elastic Compliance Matrix: (Units=1/GPa)
#
#
# Indices 1 2 3 4 5 6 
#
# 1 0.007401 -0.001484 -0.002726 0.000131 -0.002033 0.000006
# 2 -0.001484 0.011634 -0.000414 -0.000182 0.002057 -0.000016
# 3 -0.002726 -0.000414 0.009219 -0.000530 0.002043 -0.000037
# 4 0.000131 -0.000182 -0.000530 0.202677 0.000205 0.022988
# 5 -0.002033 0.002057 0.002043 0.000205 0.018422 0.000020
# 6 0.000006 -0.000016 -0.000037 0.022988 0.000020 0.037499
#
#
# Mechanical properties :
#
#
# Convention : Reuss Voigt Hill
#
# Bulk Modulus (GPa) = 52.61676 58.83161 55.72419
# Shear Modulus (GPa) = 16.53242 38.06530 27.29886
#
# Velocity S-wave (km/s) = 2.66856 4.04923 3.42910
# Velocity P-wave (km/s) = 5.67090 6.87044 6.29929
#
# Compressibility (1/GPa) = 0.01900535
#
# Stress axis : x y z
#
# Youngs Moduli (GPa) = 135.12102 85.95254 108.47011
#
# Poissons Ratio (x) = 0.12752 0.29574
# Poissons Ratio (y) = 0.20046 0.04494
# Poissons Ratio (z) = 0.36841 0.03561
#
# Static dielectric constant tensor:
#      x y z
#    x 1.938430 0.000030 0.070680 
#    y 0.000030 1.877790 -0.000010 
#    z 0.070680 -0.000010 1.938980 
# 
# From -- ./inp_files/68737.got.cif
#   From: 2010.05.17/outbox.cif.g08.bks.cpg/sg5_35_cif.got.tgz:68737.got - 2010.06.03 18:56:24.
