data_PCOD9130076
_publ_section_title
;
Structure prediction by ZEFSAII (Michael W. Deem and Ramdas Pophale) SiO2 
 PCOD9130076
Probable space group: C 2
;
_chemical_formula_sum "Si O2"
_cell_formula_units_Z 24
_cell_length_a 15.917792
_cell_length_b 5.338427
_cell_length_c 11.138968
_cell_angle_alpha 90.000000
_cell_angle_beta 111.836782
_cell_angle_gamma 90.000000
_cell_volume 878.627419
_symmetry_space_group_name_H-M "C 2"
_symmetry_group_IT_number 5
_symmetry_cell_setting 'monoclinic'
loop_
_space_group_symop_operation_xyz
x,y,z
-x,y,-z
1/2+x,1/2+y,z
1/2-x,1/2+y,-z
loop_
_atom_site_type_symbol
_atom_site_label
_atom_site_fract_x
_atom_site_fract_y
_atom_site_fract_z
Si Si1 0.281624 0.655590 0.583729
Si Si2 0.500000 0.017660 0.500000
Si Si3 0.822698 0.378432 0.275577
Si Si4 0.607515 0.599025 0.894074
Si Si5 0.960788 0.885044 0.691389
Si Si6 0.500000 0.854017 0.000000
Si Si7 0.355043 0.226104 0.869490
O O1 0.244336 0.419078 0.486815
O O2 0.236075 0.598789 0.690608
O O3 0.390103 0.613082 0.634050
O O4 0.418044 0.866110 0.394314
O O5 0.455819 0.197737 0.576606
O O6 0.846321 0.332327 0.147718
O O7 0.743170 0.169912 0.234769
O O8 0.569278 0.418943 0.769223
O O9 0.647581 0.446737 0.029391
O O10 0.508965 0.684844 0.889456
O O11 0.918840 0.761196 0.788178
O O12 0.592267 0.001666 0.041888
#
# Coordination Sequence:
#
# PCOD9130076 Si02
#       7
#     4   2   4   4   4   2   4
#     4  11  26  51  73 110 157 213 265 324 397 489
#     4  12  26  50  74 118 156 218 252 328 400 478
#     4  11  29  45  78 112 156 203 266 331 394 485
#     4  12  26  46  78 115 147 203 262 331 400 479
#     4  11  24  47  77 107 159 198 264 320 400 484
#     4  12  22  48  78 106 156 192 260 320 422 468
#     4  11  25  52  72 116 143 206 256 330 400 474
#
# _framework density 27.315335000000001
#
# number of rings (size 3 to 8) (size 9 to 14) (size 15 to 20)
#    0.000    0.667    5.000    1.000    7.000    2.667 
#    0.000    0.000    0.000    0.000    0.000    0.000 
#    0.000    0.000    0.000    0.000    0.000    0.000 
#
# Total GULP energy -66941.246519 kJ/mol
# GULP energy per Si atom -5578.437210 kJ/mol
# Density = 2.725316 g / cm^3
# Si number density = 27.315335 Si / 1000 Ang^3
#
#
#
# Elastic Constant Matrix: (Units=GPa)
#
#
# Indices 1 2 3 4 5 6 
#
# 1 161.2686 34.0623 60.8436 0.0000 8.8332 0.0000
# 2 34.0623 74.3037 55.9383 0.0000 -5.4398 0.0000
# 3 60.8436 55.9383 130.5606 0.0000 -3.7451 0.0000
# 4 0.0000 0.0000 0.0000 81.2733 0.0000 2.6690
# 5 8.8332 -5.4398 -3.7451 0.0000 80.8060 0.0000
# 6 0.0000 0.0000 0.0000 2.6690 0.0000 8.9816
#
#
#
# Elastic Compliance Matrix: (Units=1/GPa)
#
#
# Indices 1 2 3 4 5 6 
#
# 1 0.007687 -0.001302 -0.003055 0.000000 -0.001070 0.000000
# 2 -0.001302 0.020159 -0.007998 0.000000 0.001129 0.000000
# 3 -0.003055 -0.007998 0.012520 0.000000 0.000376 0.000000
# 4 0.000000 0.000000 0.000000 0.012425 0.000000 -0.003692
# 5 -0.001070 0.001129 0.000376 0.000000 0.012586 0.000000
# 6 0.000000 0.000000 0.000000 -0.003692 0.000000 0.112436
#
#
# Mechanical properties :
#
#
# Convention : Reuss Voigt Hill
#
# Bulk Modulus (GPa) = 63.87245 74.20235 69.03740
# Shear Modulus (GPa) = 24.06833 48.56476 36.31655
#
# Velocity S-wave (km/s) = 2.97160 4.22113 3.65023
# Velocity P-wave (km/s) = 5.93363 7.14012 6.56465
#
# Compressibility (1/GPa) = 0.01565620
#
# Stress axis : x y z
#
# Youngs Moduli (GPa) = 130.08817 49.60599 79.86983
#
# Poissons Ratio (x) = 0.06460 0.24401
# Poissons Ratio (y) = 0.16941 0.63878
# Poissons Ratio (z) = 0.39743 0.39674
#
# Static dielectric constant tensor:
#      x y z
#    x 2.049240 0.000000 -0.084580 
#    y 0.000000 2.186910 0.000000 
#    z -0.084580 0.000000 2.191660 
# 
# From -- ./inp_files/43805.got.cif
#   From: 2010.05.17/outbox.cif.g08.bks.cpg/sg5_22_cif.got.tgz:43805.got - 2010.06.03 18:56:24.
