data_PCOD9130444
_publ_section_title
;
Structure prediction by ZEFSAII (Michael W. Deem and Ramdas Pophale) SiO2 
 PCOD9130444
Probable space group: C 2
;
_chemical_formula_sum "Si O2"
_cell_formula_units_Z 28
_cell_length_a 13.884279
_cell_length_b 6.699950
_cell_length_c 16.033499
_cell_angle_alpha 90.000000
_cell_angle_beta 125.117638
_cell_angle_gamma 90.000000
_cell_volume 1220.006081
_symmetry_space_group_name_H-M "C 2"
_symmetry_group_IT_number 5
_symmetry_cell_setting 'monoclinic'
loop_
_space_group_symop_operation_xyz
x,y,z
-x,y,-z
1/2+x,1/2+y,z
1/2-x,1/2+y,-z
loop_
_atom_site_type_symbol
_atom_site_label
_atom_site_fract_x
_atom_site_fract_y
_atom_site_fract_z
Si Si1 0.000000 0.725920 0.500000
Si Si2 0.086759 0.945609 0.903582
Si Si3 0.657973 0.947826 0.167625
Si Si4 0.010202 0.330684 0.775337
Si Si5 0.649544 0.603719 0.618662
Si Si6 0.500000 0.198959 0.000000
Si Si7 0.274558 0.113821 0.128569
Si Si8 0.920196 0.349882 0.560715
O O1 0.053949 0.572744 0.459072
O O2 0.898364 0.879931 0.421778
O O3 0.153008 0.782076 0.883371
O O4 0.039295 0.106604 0.815526
O O5 0.992299 0.837557 0.915247
O O6 0.175934 0.037784 0.015733
O O7 0.746461 0.081974 0.264576
O O8 0.614998 0.058740 0.062387
O O9 0.542040 0.921470 0.165919
O O10 0.713418 0.732720 0.173824
O O11 0.128528 0.444136 0.805126
O O12 0.909604 0.347284 0.654542
O O13 0.540546 0.723963 0.604853
O O14 0.671159 0.729051 0.543693
#
# Coordination Sequence:
#
# PCOD9130444 Si02
#       8
#     2   4   4   4   4   2   4   4
#     4   8  16  40  68  96 122 172 220 268 342 414
#     4  12  24  45  66  99 138 180 227 285 346 407
#     4  12  25  45  68 101 140 183 231 282 351 412
#     4  12  25  44  66 106 134 179 234 288 344 419
#     4   9  20  41  66  96 129 174 219 280 339 411
#     4  12  26  46  68 104 144 182 234 290 338 434
#     4  12  24  43  72  96 137 187 227 284 349 416
#     4   9  20  40  69  94 132 167 225 280 336 413
#
# _framework density 22.950704999999999
#
# number of rings (size 3 to 8) (size 9 to 14) (size 15 to 20)
#    0.000    1.429    2.857    4.286    2.000    1.143 
#    7.714    0.000    0.000    0.000    0.000    0.000 
#    0.000    0.000    0.000    0.000    0.000    0.000 
#
# Total GULP energy -78250.591082 kJ/mol
# GULP energy per Si atom -5589.327934 kJ/mol
# Density = 2.289847 g / cm^3
# Si number density = 22.950705 Si / 1000 Ang^3
#
#
#
# Elastic Constant Matrix: (Units=GPa)
#
#
# Indices 1 2 3 4 5 6 
#
# 1 43.0291 28.4734 10.3711 0.0000 -4.0268 0.0000
# 2 28.4734 125.5333 27.1069 0.0000 -9.0840 0.0000
# 3 10.3711 27.1069 108.1371 0.0000 -10.5964 0.0000
# 4 0.0000 0.0000 0.0000 30.0928 0.0000 -5.9559
# 5 -4.0268 -9.0840 -10.5964 0.0000 26.1670 0.0000
# 6 0.0000 0.0000 0.0000 -5.9559 0.0000 31.4025
#
#
#
# Elastic Compliance Matrix: (Units=1/GPa)
#
#
# Indices 1 2 3 4 5 6 
#
# 1 0.027554 -0.005907 -0.000986 0.000000 0.001790 0.000000
# 2 -0.005907 0.009807 -0.001715 0.000000 0.001801 0.000000
# 3 -0.000986 -0.001715 0.010100 0.000000 0.003343 0.000000
# 4 0.000000 0.000000 0.000000 0.034527 0.000000 0.006548
# 5 0.001790 0.001801 0.003343 0.000000 0.040470 0.000000
# 6 0.000000 0.000000 0.000000 0.006548 0.000000 0.033087
#
#
# Mechanical properties :
#
#
# Convention : Reuss Voigt Hill
#
# Bulk Modulus (GPa) = 33.06592 45.40026 39.23309
# Shear Modulus (GPa) = 27.34587 31.58234 29.46411
#
# Velocity S-wave (km/s) = 3.45556 3.71360 3.58690
# Velocity P-wave (km/s) = 5.50998 6.18161 5.85543
#
# Compressibility (1/GPa) = 0.03024262
#
# Stress axis : x y z
#
# Youngs Moduli (GPa) = 36.29188 101.97218 99.01355
#
# Poissons Ratio (x) = 0.60238 0.09767
# Poissons Ratio (y) = 0.21439 0.16983
# Poissons Ratio (z) = 0.03580 0.17491
#
# Static dielectric constant tensor:
#      x y z
#    x 1.893790 0.000000 -0.036590 
#    y 0.000000 1.867440 0.000000 
#    z -0.036590 0.000000 1.891470 
# 
# From -- ./inp_files/61156.got.cif
#   From: 2010.05.17/outbox.cif.g08.bks.cpg/sg5_31_cif.got.tgz:61156.got - 2010.06.03 18:56:24.
