data_PCOD9130497
_publ_section_title
;
Structure prediction by ZEFSAII (Michael W. Deem and Ramdas Pophale) SiO2 
 PCOD9130497
Probable space group: C 2
;
_chemical_formula_sum "Si O2"
_cell_formula_units_Z 20
_cell_length_a 15.130491
_cell_length_b 6.429208
_cell_length_c 11.571705
_cell_angle_alpha 90.000000
_cell_angle_beta 40.111868
_cell_angle_gamma 90.000000
_cell_volume 725.243573
_symmetry_space_group_name_H-M "C 2"
_symmetry_group_IT_number 5
_symmetry_cell_setting 'monoclinic'
loop_
_space_group_symop_operation_xyz
x,y,z
-x,y,-z
1/2+x,1/2+y,z
1/2-x,1/2+y,-z
loop_
_atom_site_type_symbol
_atom_site_label
_atom_site_fract_x
_atom_site_fract_y
_atom_site_fract_z
Si Si1 0.866866 0.680360 0.012307
Si Si2 0.544258 0.694252 0.585814
Si Si3 0.133132 0.831832 0.246040
Si Si4 0.955743 0.317940 0.174329
Si Si5 0.750001 0.506096 0.698085
O O1 0.750000 0.506095 0.159049
O O2 0.844642 0.870817 0.120568
O O3 0.842724 0.756096 0.907277
O O4 0.014444 0.563945 0.861482
O O5 0.500000 0.755883 0.500000
O O6 0.514445 0.448247 0.609631
O O7 0.469233 0.756096 0.780767
O O8 0.679017 0.834984 0.454117
O O9 0.155356 0.641374 0.309853
O O10 0.820984 0.177210 0.312149
O O11 0.000000 0.256306 0.000000
#
# Coordination Sequence:
#
# PCOD9130497 Si02
#       5
#     4   4   4   4   4
#     4  12  24  50  86 123 159 222 281 341 413 495
#     4  12  28  53  82 122 165 225 273 344 414 500
#     4  12  24  50  86 123 159 222 281 341 413 495
#     4  12  28  53  82 122 165 225 273 344 414 500
#     4  12  28  52  80 118 174 212 274 350 414 490
#
# _framework density 27.57694
#
# number of rings (size 3 to 8) (size 9 to 14) (size 15 to 20)
#    0.000    0.000    6.000    3.600    0.000    8.000 
#    0.000    0.000    0.000    0.000    0.000    0.000 
#    0.000    0.000    0.000    0.000    0.000    0.000 
#
# Total GULP energy -55829.401749 kJ/mol
# GULP energy per Si atom -5582.940175 kJ/mol
# Density = 2.751417 g / cm^3
# Si number density = 27.576940 Si / 1000 Ang^3
#
#
#
# Elastic Constant Matrix: (Units=GPa)
#
#
# Indices 1 2 3 4 5 6 
#
# 1 107.0932 91.0431 78.3355 -0.0002 16.7965 -0.0001
# 2 91.0431 211.9821 87.1653 -0.0011 -13.9143 0.0008
# 3 78.3355 87.1653 120.2878 -0.0003 30.4881 0.0002
# 4 -0.0002 -0.0011 -0.0003 66.5061 0.0002 -9.4828
# 5 16.7965 -13.9143 30.4881 0.0002 65.8087 0.0000
# 6 -0.0001 0.0008 0.0002 -9.4828 0.0000 69.1511
#
#
#
# Elastic Compliance Matrix: (Units=1/GPa)
#
#
# Indices 1 2 3 4 5 6 
#
# 1 0.020996 -0.005375 -0.009214 0.000000 -0.002227 0.000000
# 2 -0.005375 0.009281 -0.004612 0.000000 0.005471 0.000000
# 3 -0.009214 -0.004612 0.019610 0.000000 -0.007708 0.000000
# 4 0.000000 0.000000 0.000000 0.015336 0.000000 0.002103
# 5 -0.002227 0.005471 -0.007708 0.000000 0.020492 0.000000
# 6 0.000000 0.000000 0.000000 0.002103 0.000000 0.014749
#
#
# Mechanical properties :
#
#
# Convention : Reuss Voigt Hill
#
# Bulk Modulus (GPa) = 87.06937 105.82786 96.44862
# Shear Modulus (GPa) = 35.03985 52.48114 43.76049
#
# Velocity S-wave (km/s) = 3.56844 4.36716 3.98785
# Velocity P-wave (km/s) = 6.97282 7.99302 7.50028
#
# Compressibility (1/GPa) = 0.01148510
#
# Stress axis : x y z
#
# Youngs Moduli (GPa) = 47.62790 107.74379 50.99513
#
# Poissons Ratio (x) = 0.57910 0.46988
# Poissons Ratio (y) = 0.25599 0.23519
# Poissons Ratio (z) = 0.43885 0.49691
#
# Static dielectric constant tensor:
#      x y z
#    x 2.336620 0.000000 -0.129650 
#    y 0.000000 2.074440 0.000000 
#    z -0.129650 0.000000 2.300430 
# 
# From -- ./inp_files/43700.got.cif
#   From: 2010.05.17/outbox.cif.g08.bks.cpg/sg5_22_cif.got.tgz:43700.got - 2010.06.03 18:56:24.
