data_PCOD9130518
_publ_section_title
;
Structure prediction by ZEFSAII (Michael W. Deem and Ramdas Pophale) SiO2 
 PCOD9130518
Probable space group: C 2
;
_chemical_formula_sum "Si O2"
_cell_formula_units_Z 18
_cell_length_a 8.593413
_cell_length_b 4.932067
_cell_length_c 18.263043
_cell_angle_alpha 90.000000
_cell_angle_beta 116.628247
_cell_angle_gamma 90.000000
_cell_volume 691.947188
_symmetry_space_group_name_H-M "C 2"
_symmetry_group_IT_number 5
_symmetry_cell_setting 'monoclinic'
loop_
_space_group_symop_operation_xyz
x,y,z
-x,y,-z
1/2+x,1/2+y,z
1/2-x,1/2+y,-z
loop_
_atom_site_type_symbol
_atom_site_label
_atom_site_fract_x
_atom_site_fract_y
_atom_site_fract_z
Si Si1 0.203262 0.037800 0.032759
Si Si2 0.000000 0.146797 0.500000
Si Si3 0.100543 0.297827 0.786591
Si Si4 0.307089 0.144216 0.438836
Si Si5 0.627886 0.293638 0.276438
O O1 0.310703 0.936726 0.125179
O O2 0.233619 0.351628 0.021256
O O3 0.000000 0.988095 0.000000
O O4 0.834205 0.180896 0.528252
O O5 0.881834 0.927928 0.425960
O O6 0.242170 0.196658 0.758851
O O7 0.987815 0.537367 0.724940
O O8 0.985831 0.038224 0.782033
O O9 0.500000 0.001930 0.500000
O O10 0.228727 0.947403 0.362251
#
# Coordination Sequence:
#
# PCOD9130518 Si02
#       5
#     4   2   4   4   4
#     4  12  25  45  72  99 135 176 223 273 330 406
#     4   6  14  28  58  80 122 150 232 242 326 356
#     4  12  26  44  69 102 135 177 221 274 344 392
#     4   8  16  35  62  89 126 173 222 264 325 382
#     4  12  25  45  68  99 142 175 223 281 331 396
#
# _framework density 26.013549000000001
#
# number of rings (size 3 to 8) (size 9 to 14) (size 15 to 20)
#    1.333    0.000    0.000    7.333    0.000    0.000 
#    0.000    2.222    0.000    0.000    0.000    0.000 
#    0.000    0.000    0.000    0.000    0.000    0.000 
#
# Total GULP energy -50406.081559 kJ/mol
# GULP energy per Si atom -5600.675729 kJ/mol
# Density = 2.595434 g / cm^3
# Si number density = 26.013549 Si / 1000 Ang^3
#
#
#
# Elastic Constant Matrix: (Units=GPa)
#
#
# Indices 1 2 3 4 5 6 
#
# 1 149.9572 26.2108 27.7200 0.0000 11.5381 0.0000
# 2 26.2108 137.6189 -7.7618 0.0000 15.2493 0.0000
# 3 27.7200 -7.7618 86.2875 0.0000 15.5544 0.0000
# 4 0.0000 0.0000 0.0000 25.8080 0.0000 -25.5390
# 5 11.5381 15.2493 15.5544 0.0000 38.0603 0.0000
# 6 0.0000 0.0000 0.0000 -25.5390 0.0000 -4.1188
#
#
#
# Elastic Compliance Matrix: (Units=1/GPa)
#
#
# Indices 1 2 3 4 5 6 
#
# 1 0.007421 -0.001473 -0.002394 0.000000 -0.000681 0.000000
# 2 -0.001473 0.008041 0.001832 0.000000 -0.003524 0.000000
# 3 -0.002394 0.001832 0.013520 0.000000 -0.005534 0.000000
# 4 0.000000 0.000000 0.000000 0.005430 0.000000 -0.033669
# 5 -0.000681 -0.003524 -0.005534 0.000000 0.030154 0.000000
# 6 0.000000 0.000000 0.000000 -0.033669 0.000000 -0.034023
#
#
# Mechanical properties :
#
#
# Convention : Reuss Voigt Hill
#
# Bulk Modulus (GPa) = 40.14092 51.80016 45.97054
# Shear Modulus (GPa) = 116.50518 33.79620 75.15069
#
# Velocity S-wave (km/s) = 6.69952 3.60832 5.38069
# Velocity P-wave (km/s) = 8.67808 6.10868 7.50417
#
# Compressibility (1/GPa) = 0.02491224
#
# Stress axis : x y z
#
# Youngs Moduli (GPa) = 134.75436 124.36692 73.96217
#
# Poissons Ratio (x) = 0.18318 0.17704
# Poissons Ratio (y) = 0.19848 -0.13547
# Poissons Ratio (z) = 0.32256 -0.22780
#
# Static dielectric constant tensor:
#      x y z
#    x 2.080260 0.000000 0.115680 
#    y 0.000000 2.020200 0.000000 
#    z 0.115680 0.000000 2.099200 
# 
# From -- ./inp_files/59073.got.cif
#   From: 2010.05.17/outbox.cif.g08.bks.cpg/sg5_30_cif.got.tgz:59073.got - 2010.06.03 18:56:24.
