data_PCOD9130426
_publ_section_title
;
Structure prediction by ZEFSAII (Michael W. Deem and Ramdas Pophale) SiO2 
 PCOD9130426
Probable space group: C 2
;
_chemical_formula_sum "Si O2"
_cell_formula_units_Z 28
_cell_length_a 10.052886
_cell_length_b 14.186654
_cell_length_c 12.077647
_cell_angle_alpha 90.000000
_cell_angle_beta 52.536258
_cell_angle_gamma 90.000000
_cell_volume 1367.195021
_symmetry_space_group_name_H-M "C 2"
_symmetry_group_IT_number 5
_symmetry_cell_setting 'monoclinic'
loop_
_space_group_symop_operation_xyz
x,y,z
-x,y,-z
1/2+x,1/2+y,z
1/2-x,1/2+y,-z
loop_
_atom_site_type_symbol
_atom_site_label
_atom_site_fract_x
_atom_site_fract_y
_atom_site_fract_z
Si Si1 0.191776 0.335660 0.415490
Si Si2 0.915794 0.128563 0.823512
Si Si3 0.871714 0.284730 0.166739
Si Si4 0.308216 0.421471 0.584507
Si Si5 0.871707 0.972399 0.166737
Si Si6 0.236115 0.628565 0.677352
Si Si7 0.659341 0.128566 0.156611
O O1 0.250008 0.378557 0.499994
O O2 0.300679 0.379582 0.260369
O O3 0.207892 0.223666 0.410089
O O4 0.000000 0.363200 0.500000
O O5 0.826187 0.128553 0.751265
O O6 0.029561 0.220037 0.793644
O O7 0.772458 0.128565 0.989648
O O8 0.029577 0.037098 0.793645
O O9 0.800678 0.377544 0.260377
O O10 0.721101 0.219901 0.194852
O O11 0.000000 0.302856 0.000000
O O12 0.500000 0.393956 0.500000
O O13 0.292067 0.533463 0.589915
O O14 0.721089 0.037224 0.194849
O O15 0.000000 0.954276 0.000000
O O16 0.033988 0.628574 0.777931
#
# Coordination Sequence:
#
# PCOD9130426 Si02
#       7
#     4   4   4   4   4   4   4
#     4  12  26  43  62  90 124 163 204 251 306 362
#     4   9  19  38  65  95 124 153 200 258 302 347
#     4   9  20  42  67  89 120 165 207 243 295 367
#     4  12  26  43  62  90 124 163 204 251 306 362
#     4   9  20  42  67  89 120 165 207 243 295 367
#     4  12  24  39  58  90 126 159 198 256 308 355
#     4   9  19  37  64  95 123 158 202 248 300 360
#
# _framework density 20.479886
#
# number of rings (size 3 to 8) (size 9 to 14) (size 15 to 20)
#    0.000    1.714    0.000    6.000    0.000    4.571 
#    0.000   12.143    0.000    0.000    0.000    0.000 
#    0.000    0.000    0.000    0.000    0.000    0.000 
#
# Total GULP energy -78295.724894 kJ/mol
# GULP energy per Si atom -5592.551778 kJ/mol
# Density = 2.043327 g / cm^3
# Si number density = 20.479886 Si / 1000 Ang^3
#
#
#
# Elastic Constant Matrix: (Units=GPa)
#
#
# Indices 1 2 3 4 5 6 
#
# 1 182.2299 48.0077 48.2388 0.0000 1.3863 0.0000
# 2 48.0077 118.2267 57.3649 0.0000 21.4715 0.0000
# 3 48.2388 57.3649 70.1275 0.0000 1.6725 0.0000
# 4 0.0000 0.0000 0.0000 46.2050 0.0000 -10.1815
# 5 1.3863 21.4715 1.6725 0.0000 36.8118 0.0000
# 6 0.0000 0.0000 0.0000 -10.1815 0.0000 20.7532
#
#
#
# Elastic Compliance Matrix: (Units=1/GPa)
#
#
# Indices 1 2 3 4 5 6 
#
# 1 0.006763 -0.000944 -0.003891 0.000000 0.000473 0.000000
# 2 -0.000944 0.016712 -0.012804 0.000000 -0.009131 0.000000
# 3 -0.003891 -0.012804 0.027258 0.000000 0.006376 0.000000
# 4 0.000000 0.000000 0.000000 0.024266 0.000000 0.011905
# 5 0.000473 -0.009131 0.006376 0.000000 0.032183 0.000000
# 6 0.000000 0.000000 0.000000 0.011905 0.000000 0.054026
#
#
# Mechanical properties :
#
#
# Convention : Reuss Voigt Hill
#
# Bulk Modulus (GPa) = 64.70236 75.31188 70.00712
# Shear Modulus (GPa) = 24.79699 35.21886 30.00792
#
# Velocity S-wave (km/s) = 3.48343 4.15140 3.83200
# Velocity P-wave (km/s) = 6.91670 7.73513 7.33734
#
# Compressibility (1/GPa) = 0.01545539
#
# Stress axis : x y z
#
# Youngs Moduli (GPa) = 147.87108 59.83562 36.68687
#
# Poissons Ratio (x) = 0.05649 0.14274
# Poissons Ratio (y) = 0.13959 0.46973
# Poissons Ratio (z) = 0.57535 0.76612
#
# Static dielectric constant tensor:
#      x y z
#    x 1.703810 0.000000 -0.012410 
#    y 0.000000 1.721160 0.000000 
#    z -0.012410 0.000000 1.707980 
# 
# From -- ./inp_files/36288.got.cif
#   From: 2010.05.17/outbox.cif.g08.bks.cpg/sg5_19_cif.got.tgz:36288.got - 2010.06.03 18:56:24.
