data_PCOD9130244
_publ_section_title
;
Structure prediction by ZEFSAII (Michael W. Deem and Ramdas Pophale) SiO2 
 PCOD9130244
Probable space group: C 2
;
_chemical_formula_sum "Si O2"
_cell_formula_units_Z 20
_cell_length_a 15.730715
_cell_length_b 10.563859
_cell_length_c 5.168474
_cell_angle_alpha 90.000000
_cell_angle_beta 110.699169
_cell_angle_gamma 90.000000
_cell_volume 803.440246
_symmetry_space_group_name_H-M "C 2"
_symmetry_group_IT_number 5
_symmetry_cell_setting 'monoclinic'
loop_
_space_group_symop_operation_xyz
x,y,z
-x,y,-z
1/2+x,1/2+y,z
1/2-x,1/2+y,-z
loop_
_atom_site_type_symbol
_atom_site_label
_atom_site_fract_x
_atom_site_fract_y
_atom_site_fract_z
Si Si1 0.306764 0.311290 0.890708
Si Si2 0.500000 0.595191 0.500000
Si Si3 0.000000 0.919928 0.000000
Si Si4 0.767532 0.572369 0.201308
Si Si5 0.441439 0.990568 0.702327
Si Si6 0.146673 0.235454 0.385160
O O1 0.408789 0.338351 0.918599
O O2 0.259587 0.438487 0.960403
O O3 0.299232 0.185238 0.051187
O O4 0.242903 0.289740 0.576179
O O5 0.501514 0.507234 0.749756
O O6 0.589052 0.681591 0.563278
O O7 0.847335 0.551973 0.499311
O O8 0.674423 0.621325 0.231072
O O9 0.500000 0.980308 0.500000
O O10 0.411465 0.852558 0.777277
O O11 0.500000 0.049675 0.000000
#
# Coordination Sequence:
#
# PCOD9130244 Si02
#       6
#     4   2   2   4   4   4
#     4  11  27  49  80 119 159 217 264 339 404 485
#     4  12  26  50  78 118 156 220 266 326 398 482
#     4  12  28  48  82 116 164 206 270 332 402 476
#     4  11  27  50  81 117 164 214 268 341 403 488
#     4  11  28  48  77 118 158 211 267 331 402 477
#     4  11  26  46  80 113 164 212 274 330 399 489
#
# _framework density 24.892952999999999
#
# number of rings (size 3 to 8) (size 9 to 14) (size 15 to 20)
#    0.000    0.800    3.000    1.200   12.600    3.200 
#    0.000    0.000    0.000    0.000    0.000    0.000 
#    0.000    0.000    0.000    0.000    0.000    0.000 
#
# Total GULP energy -55997.910453 kJ/mol
# GULP energy per Si atom -5599.791045 kJ/mol
# Density = 2.483630 g / cm^3
# Si number density = 24.892953 Si / 1000 Ang^3
#
#
#
# Elastic Constant Matrix: (Units=GPa)
#
#
# Indices 1 2 3 4 5 6 
#
# 1 165.4345 43.2713 42.4193 0.0000 24.0382 0.0000
# 2 43.2713 135.9151 34.6563 0.0000 15.2004 0.0000
# 3 42.4193 34.6563 115.4243 0.0000 25.9604 0.0000
# 4 0.0000 0.0000 0.0000 27.8113 0.0000 -2.6862
# 5 24.0382 15.2004 25.9604 0.0000 43.3066 0.0000
# 6 0.0000 0.0000 0.0000 -2.6862 0.0000 40.3539
#
#
#
# Elastic Compliance Matrix: (Units=1/GPa)
#
#
# Indices 1 2 3 4 5 6 
#
# 1 0.007243 -0.001616 -0.001618 0.000000 -0.002483 0.000000
# 2 -0.001616 0.008422 -0.001701 0.000000 -0.001040 0.000000
# 3 -0.001618 -0.001701 0.010903 0.000000 -0.005040 0.000000
# 4 0.000000 0.000000 0.000000 0.036189 0.000000 0.002409
# 5 -0.002483 -0.001040 -0.005040 0.000000 0.027856 0.000000
# 6 0.000000 0.000000 0.000000 0.002409 0.000000 0.024941
#
#
# Mechanical properties :
#
#
# Convention : Reuss Voigt Hill
#
# Bulk Modulus (GPa) = 59.88832 73.05196 66.47014
# Shear Modulus (GPa) = 38.17087 42.05619 40.11353
#
# Velocity S-wave (km/s) = 3.92011 4.11479 4.01863
# Velocity P-wave (km/s) = 6.67835 7.21010 6.94931
#
# Compressibility (1/GPa) = 0.01669775
#
# Stress axis : x y z
#
# Youngs Moduli (GPa) = 138.06367 118.73779 91.71927
#
# Poissons Ratio (x) = 0.19183 0.14843
# Poissons Ratio (y) = 0.22306 0.15603
# Poissons Ratio (z) = 0.22342 0.20199
#
# Static dielectric constant tensor:
#      x y z
#    x 1.922750 0.000000 -0.016580 
#    y 0.000000 2.037620 0.000000 
#    z -0.016580 0.000000 1.934100 
# 
# From -- ./inp_files/8178.got.cif
#   From: 2010.05.17/outbox.cif.g08.bks.cpg/sg5_5_cif.got.tgz:8178.got - 2010.06.03 18:56:24.
