data_PCOD9130609
_publ_section_title
;
Structure prediction by ZEFSAII (Michael W. Deem and Ramdas Pophale) SiO2 
 PCOD9130609
Probable space group: C 2
;
_chemical_formula_sum "Si O2"
_cell_formula_units_Z 18
_cell_length_a 11.300798
_cell_length_b 11.902144
_cell_length_c 4.954875
_cell_angle_alpha 90.000000
_cell_angle_beta 97.411221
_cell_angle_gamma 90.000000
_cell_volume 660.881575
_symmetry_space_group_name_H-M "C 2"
_symmetry_group_IT_number 5
_symmetry_cell_setting 'monoclinic'
loop_
_space_group_symop_operation_xyz
x,y,z
-x,y,-z
1/2+x,1/2+y,z
1/2-x,1/2+y,-z
loop_
_atom_site_type_symbol
_atom_site_label
_atom_site_fract_x
_atom_site_fract_y
_atom_site_fract_z
Si Si1 0.383052 0.433270 0.854017
Si Si2 0.189966 0.570982 0.445068
Si Si3 0.879155 0.217752 0.367710
Si Si4 0.000000 0.745741 0.500000
Si Si5 0.165334 0.364598 0.131483
O O1 0.288844 0.505387 0.652694
O O2 0.441554 0.329891 0.703411
O O3 0.500000 0.497343 0.000000
O O4 0.300234 0.386882 0.069637
O O5 0.271919 0.638298 0.255107
O O6 0.106455 0.655648 0.584726
O O7 0.118729 0.479414 0.250418
O O8 0.835242 0.278438 0.624475
O O9 0.000000 0.159729 0.500000
O O10 0.898737 0.310698 0.145693
#
# Coordination Sequence:
#
# PCOD9130609 Si02
#       5
#     4   4   4   2   4
#     4  12  27  51  86 123 179 220 291 362 420 525
#     4  12  28  51  89 126 162 242 276 352 444 506
#     4  12  29  51  82 123 172 218 285 359 425 514
#     4  12  28  58  84 126 182 224 292 362 432 526
#     4  12  27  53  79 125 170 213 293 350 426 517
#
# _framework density 27.236350999999999
#
# number of rings (size 3 to 8) (size 9 to 14) (size 15 to 20)
#    0.000    0.000    4.444    3.333    9.333    3.556 
#    0.000    0.000    0.000    0.000    0.000    0.000 
#    0.000    0.000    0.000    0.000    0.000    0.000 
#
# Total GULP energy -50426.963969 kJ/mol
# GULP energy per Si atom -5602.995997 kJ/mol
# Density = 2.717436 g / cm^3
# Si number density = 27.236351 Si / 1000 Ang^3
#
#
#
# Elastic Constant Matrix: (Units=GPa)
#
#
# Indices 1 2 3 4 5 6 
#
# 1 125.8509 53.9217 39.9396 0.0000 6.5708 0.0000
# 2 53.9217 124.9119 47.2826 0.0000 2.3534 0.0000
# 3 39.9396 47.2826 146.5635 0.0000 -8.7103 0.0000
# 4 0.0000 0.0000 0.0000 40.5714 0.0000 -4.8365
# 5 6.5708 2.3534 -8.7103 0.0000 60.1588 0.0000
# 6 0.0000 0.0000 0.0000 -4.8365 0.0000 60.3873
#
#
#
# Elastic Compliance Matrix: (Units=1/GPa)
#
#
# Indices 1 2 3 4 5 6 
#
# 1 0.010123 -0.003732 -0.001626 0.000000 -0.001195 0.000000
# 2 -0.003732 0.010532 -0.002402 0.000000 -0.000352 0.000000
# 3 -0.001626 -0.002402 0.008127 0.000000 0.001448 0.000000
# 4 0.000000 0.000000 0.000000 0.024885 0.000000 0.001993
# 5 -0.001195 -0.000352 0.001448 0.000000 0.016977 0.000000
# 6 0.000000 0.000000 0.000000 0.001993 0.000000 0.016719
#
#
# Mechanical properties :
#
#
# Convention : Reuss Voigt Hill
#
# Bulk Modulus (GPa) = 75.39470 75.51266 75.45368
# Shear Modulus (GPa) = 46.59637 49.30233 47.94935
#
# Velocity S-wave (km/s) = 4.14069 4.25922 4.20037
# Velocity P-wave (km/s) = 7.11352 7.20924 7.16154
#
# Compressibility (1/GPa) = 0.01326353
#
# Stress axis : x y z
#
# Youngs Moduli (GPa) = 98.78220 94.94433 123.04843
#
# Poissons Ratio (x) = 0.35434 0.20004
# Poissons Ratio (y) = 0.36867 0.29553
# Poissons Ratio (z) = 0.16059 0.22803
#
# Static dielectric constant tensor:
#      x y z
#    x 2.153140 0.000000 0.036930 
#    y 0.000000 2.184500 0.000000 
#    z 0.036930 0.000000 2.082510 
# 
# From -- ./inp_files/4350.got.cif
#   From: 2010.05.17/outbox.cif.g08.bks.cpg/sg5_3_cif.got.tgz:4350.got - 2010.06.03 18:56:24.
