data_PCOD9130920
_publ_section_title
;
Structure prediction by ZEFSAII (Michael W. Deem and Ramdas Pophale) SiO2 
 PCOD9130920
Probable space group: P M
;
_chemical_formula_sum "Si O2"
_cell_formula_units_Z 14
_cell_length_a 7.933010
_cell_length_b 14.209637
_cell_length_c 5.131144
_cell_angle_alpha 90.000000
_cell_angle_beta 102.593276
_cell_angle_gamma 90.000000
_cell_volume 564.494032
_symmetry_space_group_name_H-M "P M"
_symmetry_group_IT_number 6
_symmetry_cell_setting 'monoclinic'
loop_
_space_group_symop_operation_xyz
x,y,z
x,-y,z
loop_
_atom_site_type_symbol
_atom_site_label
_atom_site_fract_x
_atom_site_fract_y
_atom_site_fract_z
Si Si1 0.103940 0.500000 0.058761
Si Si2 0.715693 0.716776 0.216513
Si Si3 0.937018 0.102688 0.350889
Si Si4 0.322130 0.500000 0.632973
Si Si5 0.335370 0.104531 0.699600
Si Si6 0.392927 0.705260 0.442411
Si Si7 0.895873 0.331638 0.755092
Si Si8 0.142518 0.807096 0.022592
O O1 0.161793 0.500000 0.376085
O O2 0.986842 0.415064 0.931300
O O3 0.269400 0.500000 0.918210
O O4 0.795692 0.816253 0.344690
O O5 0.520531 0.703515 0.238758
O O6 0.759533 0.704545 0.927913
O O7 0.815530 0.646636 0.449191
O O8 0.132588 0.101754 0.538228
O O9 0.994960 0.123564 0.073397
O O10 0.862595 0.000000 0.370080
O O11 0.402950 0.603709 0.589631
O O12 0.425087 0.197594 0.614044
O O13 0.408161 0.000000 0.682435
O O14 0.304011 0.130365 0.991282
O O15 0.205566 0.730982 0.256955
O O16 0.051816 0.257203 0.777084
#
# Coordination Sequence:
#
# PCOD9130920 Si02
#       8
#     1   2   2   1   2   2   2   2
#     4  12  24  42  74  98 124 171 241 282 326 394
#     4  11  25  42  64  95 138 171 210 277 339 401
#     4   9  19  36  60  91 124 167 220 273 328 388
#     4  12  26  42  70 104 132 183 223 286 336 398
#     4  10  20  38  68  97 128 175 233 284 331 398
#     4  11  26  41  65  97 143 176 224 277 345 410
#     4  11  23  42  66  94 124 172 221 273 327 393
#     4  10  19  38  65  91 125 174 223 279 319 398
#
# _framework density 24.80097
#
# number of rings (size 3 to 8) (size 9 to 14) (size 15 to 20)
#    0.000    1.429    2.857    2.143    4.000    2.286 
#    0.000    0.000    0.000    0.000    0.000    0.000 
#    0.000    0.000    0.000    0.000    0.000    0.000 
#
# Total GULP energy -78011.668407 kJ/mol
# GULP energy per Si atom -5572.262029 kJ/mol
# Density = 2.474452 g / cm^3
# Si number density = 24.800970 Si / 1000 Ang^3
#
#
#
# Elastic Constant Matrix: (Units=GPa)
#
#
# Indices 1 2 3 4 5 6 
#
# 1 56.0636 36.9600 7.8448 0.0000 -19.5011 0.0000
# 2 36.9600 153.9909 -1.3443 0.0000 -5.6596 0.0000
# 3 7.8448 -1.3443 53.0220 0.0000 -7.1988 0.0000
# 4 0.0000 0.0000 0.0000 12.6212 0.0000 -0.7054
# 5 -19.5011 -5.6596 -7.1988 0.0000 33.9348 0.0000
# 6 0.0000 0.0000 0.0000 -0.7054 0.0000 24.4168
#
#
#
# Elastic Compliance Matrix: (Units=1/GPa)
#
#
# Indices 1 2 3 4 5 6 
#
# 1 0.026969 -0.005977 -0.002237 0.000000 0.014027 0.000000
# 2 -0.005977 0.007864 0.000819 0.000000 -0.001950 0.000000
# 3 -0.002237 0.000819 0.019621 0.000000 0.003013 0.000000
# 4 0.000000 0.000000 0.000000 0.079360 0.000000 0.002293
# 5 0.014027 -0.001950 0.003013 0.000000 0.037843 0.000000
# 6 0.000000 0.000000 0.000000 0.002293 0.000000 0.041022
#
#
# Mechanical properties :
#
#
# Convention : Reuss Voigt Hill
#
# Bulk Modulus (GPa) = 25.21199 38.88861 32.05030
# Shear Modulus (GPa) = 20.77351 28.83561 24.80456
#
# Velocity S-wave (km/s) = 2.89729 3.41351 3.16594
# Velocity P-wave (km/s) = 4.62387 5.59020 5.12984
#
# Compressibility (1/GPa) = 0.03966366
#
# Stress axis : x y z
#
# Youngs Moduli (GPa) = 37.07906 127.16230 50.96586
#
# Poissons Ratio (x) = 0.76005 0.11403
# Poissons Ratio (y) = 0.22162 -0.04174
# Poissons Ratio (z) = 0.08296 -0.10415
#
# Static dielectric constant tensor:
#      x y z
#    x 1.979850 0.000000 -0.014970 
#    y 0.000000 2.096090 0.000000 
#    z -0.014970 0.000000 2.132630 
# 
# From -- ./inp_files/1082.got.cif
#   From: 2010.05.17/outbox.cif.g08.bks.cpg/sg6_1_cif.got.tgz:1082.got - 2010.06.03 19:42:10.
