data_PCOD9130358
_publ_section_title
;
Structure prediction by ZEFSAII (Michael W. Deem and Ramdas Pophale) SiO2 
 PCOD9130358
Probable space group: C 2
;
_chemical_formula_sum "Si O2"
_cell_formula_units_Z 22
_cell_length_a 14.482851
_cell_length_b 5.839881
_cell_length_c 10.870152
_cell_angle_alpha 90.000000
_cell_angle_beta 99.605717
_cell_angle_gamma 90.000000
_cell_volume 906.486864
_symmetry_space_group_name_H-M "C 2"
_symmetry_group_IT_number 5
_symmetry_cell_setting 'monoclinic'
loop_
_space_group_symop_operation_xyz
x,y,z
-x,y,-z
1/2+x,1/2+y,z
1/2-x,1/2+y,-z
loop_
_atom_site_type_symbol
_atom_site_label
_atom_site_fract_x
_atom_site_fract_y
_atom_site_fract_z
Si Si1 0.405647 0.031820 0.740041
Si Si2 0.241454 0.231967 0.563602
Si Si3 0.100181 0.406949 0.708660
Si Si4 0.500000 0.211858 0.000000
Si Si5 0.643629 0.558758 0.921266
Si Si6 0.731261 0.729220 0.190730
O O1 0.331033 0.216564 0.676041
O O2 0.437751 0.076381 0.887836
O O3 0.497113 0.010486 0.675688
O O4 0.349923 0.792053 0.733083
O O5 0.252449 0.478918 0.498188
O O6 0.141375 0.245865 0.611466
O O7 0.101439 0.272979 0.839548
O O8 0.180905 0.596701 0.735967
O O9 0.565409 0.369412 0.929168
O O10 0.725127 0.462872 0.852928
O O11 0.688189 0.607162 0.063043
#
# Coordination Sequence:
#
# PCOD9130358 Si02
#       6
#     4   4   4   2   4   4
#     4  12  26  50  79 114 157 206 258 328 402 482
#     4  12  30  57  83 112 156 213 280 344 396 462
#     4  12  26  48  76 110 149 206 267 327 404 466
#     4  12  24  42  74 122 160 198 254 316 402 490
#     4  12  22  39  70 110 164 204 247 313 389 488
#     4  12  22  44  68 113 163 204 248 314 395 485
#
# _framework density 24.269518999999999
#
# number of rings (size 3 to 8) (size 9 to 14) (size 15 to 20)
#    0.000    0.000    5.455    5.455    0.000    2.182 
#    0.000    5.455    0.000    0.000    0.000    0.000 
#    0.000    0.000    0.000    0.000    0.000    0.000 
#
# Total GULP energy -61562.485624 kJ/mol
# GULP energy per Si atom -5596.589602 kJ/mol
# Density = 2.421428 g / cm^3
# Si number density = 24.269519 Si / 1000 Ang^3
#
#
#
# Elastic Constant Matrix: (Units=GPa)
#
#
# Indices 1 2 3 4 5 6 
#
# 1 155.7963 42.6834 27.3059 0.0000 -15.0648 0.0000
# 2 42.6834 97.1402 39.2841 0.0000 2.4213 0.0000
# 3 27.3059 39.2841 81.2353 0.0000 -6.4474 0.0000
# 4 0.0000 0.0000 0.0000 50.2473 0.0000 -3.2101
# 5 -15.0648 2.4213 -6.4474 0.0000 28.2448 0.0000
# 6 0.0000 0.0000 0.0000 -3.2101 0.0000 54.9624
#
#
#
# Elastic Compliance Matrix: (Units=1/GPa)
#
#
# Indices 1 2 3 4 5 6 
#
# 1 0.007857 -0.003269 -0.000718 0.000000 0.004307 0.000000
# 2 -0.003269 0.014341 -0.006184 0.000000 -0.004385 0.000000
# 3 -0.000718 -0.006184 0.015841 0.000000 0.003763 0.000000
# 4 0.000000 0.000000 0.000000 0.019976 0.000000 0.001167
# 5 0.004307 -0.004385 0.003763 0.000000 0.038937 0.000000
# 6 0.000000 0.000000 0.000000 0.001167 0.000000 0.018262
#
#
# Mechanical properties :
#
#
# Convention : Reuss Voigt Hill
#
# Bulk Modulus (GPa) = 56.51248 61.41316 58.96282
# Shear Modulus (GPa) = 35.34693 41.68410 38.51552
#
# Velocity S-wave (km/s) = 3.82046 4.14883 3.98803
# Velocity P-wave (km/s) = 6.54196 6.95054 6.74934
#
# Compressibility (1/GPa) = 0.01769521
#
# Stress axis : x y z
#
# Youngs Moduli (GPa) = 127.28177 69.72969 63.12894
#
# Poissons Ratio (x) = 0.22795 0.04534
# Poissons Ratio (y) = 0.41610 0.39041
# Poissons Ratio (z) = 0.09141 0.43123
#
# Static dielectric constant tensor:
#      x y z
#    x 1.919050 0.000000 0.007030 
#    y 0.000000 1.989310 0.000000 
#    z 0.007030 0.000000 2.051240 
# 
# From -- ./inp_files/41081.got.cif
#   From: 2010.05.17/outbox.cif.g08.bks.cpg/sg5_21_cif.got.tgz:41081.got - 2010.06.03 18:56:24.
