data_PCOD9130644
_publ_section_title
;
Structure prediction by ZEFSAII (Michael W. Deem and Ramdas Pophale) SiO2 
 PCOD9130644
Probable space group: C 2
;
_chemical_formula_sum "Si O2"
_cell_formula_units_Z 20
_cell_length_a 15.388335
_cell_length_b 8.617633
_cell_length_c 15.463403
_cell_angle_alpha 90.000000
_cell_angle_beta 22.515513
_cell_angle_gamma 90.000000
_cell_volume 785.250339
_symmetry_space_group_name_H-M "C 2"
_symmetry_group_IT_number 5
_symmetry_cell_setting 'monoclinic'
loop_
_space_group_symop_operation_xyz
x,y,z
-x,y,-z
1/2+x,1/2+y,z
1/2-x,1/2+y,-z
loop_
_atom_site_type_symbol
_atom_site_label
_atom_site_fract_x
_atom_site_fract_y
_atom_site_fract_z
Si Si1 0.859354 0.033520 0.238296
Si Si2 0.003511 0.034407 0.396901
Si Si3 0.932464 0.536407 0.321536
Si Si4 0.192136 0.782312 0.985841
Si Si5 0.800156 0.243020 0.135022
O O1 0.757065 0.100690 0.242627
O O2 0.686063 0.032723 0.476000
O O3 0.999541 0.873813 0.107545
O O4 0.058352 0.161146 0.070875
O O5 0.000000 0.085114 0.500000
O O6 0.102020 0.860695 0.305183
O O7 0.167454 0.152355 0.195139
O O8 0.761980 0.021767 0.571890
O O9 0.047947 0.698663 0.192393
O O10 0.126671 0.406343 0.145257
O O11 0.000000 0.339742 0.000000
#
# Coordination Sequence:
#
# PCOD9130644 Si02
#       5
#     4   4   4   4   4
#     4   9  24  51  80 115 152 200 255 318 385 456
#     4  12  30  49  80 116 159 207 258 318 393 459
#     4  12  29  52  78 116 154 210 260 326 384 458
#     4  12  29  48  79 117 156 201 269 319 382 468
#     4   8  24  52  80 118 156 200 255 314 382 474
#
# _framework density 25.469584000000001
#
# number of rings (size 3 to 8) (size 9 to 14) (size 15 to 20)
#    1.200    0.000    0.000    2.400    2.800   24.000 
#    0.000    0.000    0.000    2.400    0.000    0.000 
#    0.000    0.000    0.000    0.000    0.000    0.000 
#
# Total GULP energy -55964.118704 kJ/mol
# GULP energy per Si atom -5596.411870 kJ/mol
# Density = 2.541161 g / cm^3
# Si number density = 25.469584 Si / 1000 Ang^3
#
#
#
# Elastic Constant Matrix: (Units=GPa)
#
#
# Indices 1 2 3 4 5 6 
#
# 1 114.2228 59.1275 75.8824 -0.0009 -9.0957 0.0001
# 2 59.1275 135.9185 72.1066 -0.0034 -3.0387 0.0012
# 3 75.8824 72.1066 157.2085 -0.0027 -2.6073 0.0013
# 4 -0.0009 -0.0034 -0.0027 61.3521 0.0009 -6.8299
# 5 -9.0957 -3.0387 -2.6073 0.0009 45.2432 0.0002
# 6 0.0001 0.0012 0.0013 -6.8299 0.0002 51.6295
#
#
#
# Elastic Compliance Matrix: (Units=1/GPa)
#
#
# Indices 1 2 3 4 5 6 
#
# 1 0.014158 -0.003307 -0.005279 0.000000 0.002320 0.000000
# 2 -0.003307 0.010503 -0.003224 0.000000 -0.000145 0.000000
# 3 -0.005279 -0.003224 0.010376 0.000000 -0.000680 0.000000
# 4 0.000000 0.000000 0.000000 0.016543 0.000000 0.002188
# 5 0.002320 -0.000145 -0.000680 0.000000 0.022520 0.000000
# 6 0.000000 0.000000 0.000000 0.002188 0.000000 0.019658
#
#
# Mechanical properties :
#
#
# Convention : Reuss Voigt Hill
#
# Bulk Modulus (GPa) = 87.57355 91.28699 89.43027
# Shear Modulus (GPa) = 41.25979 44.99385 43.12682
#
# Velocity S-wave (km/s) = 4.02924 4.20762 4.11940
# Velocity P-wave (km/s) = 7.49030 7.71523 7.60360
#
# Compressibility (1/GPa) = 0.01141897
#
# Stress axis : x y z
#
# Youngs Moduli (GPa) = 70.63030 95.21292 96.37400
#
# Poissons Ratio (x) = 0.31485 0.50874
# Poissons Ratio (y) = 0.23356 0.31067
# Poissons Ratio (z) = 0.37284 0.30692
#
# Static dielectric constant tensor:
#      x y z
#    x 2.120400 0.000000 -0.025240 
#    y 0.000000 1.964930 0.000000 
#    z -0.025240 0.000000 2.017430 
# 
# From -- ./inp_files/62208.got.cif
#   From: 2010.05.17/outbox.cif.g08.bks.cpg/sg5_32_cif.got.tgz:62208.got - 2010.06.03 18:56:24.
