data_PCOD9130558
_publ_section_title
;
Structure prediction by ZEFSAII (Michael W. Deem and Ramdas Pophale) SiO2 
 PCOD9130558
Probable space group: C 2
;
_chemical_formula_sum "Si O2"
_cell_formula_units_Z 28
_cell_length_a 29.128922
_cell_length_b 7.752920
_cell_length_c 6.426445
_cell_angle_alpha 90.000000
_cell_angle_beta 123.944183
_cell_angle_gamma 90.000000
_cell_volume 1203.981459
_symmetry_space_group_name_H-M "C 2"
_symmetry_group_IT_number 5
_symmetry_cell_setting 'monoclinic'
loop_
_space_group_symop_operation_xyz
x,y,z
-x,y,-z
1/2+x,1/2+y,z
1/2-x,1/2+y,-z
loop_
_atom_site_type_symbol
_atom_site_label
_atom_site_fract_x
_atom_site_fract_y
_atom_site_fract_z
Si Si1 0.250547 0.710850 0.221101
Si Si2 0.869920 0.325780 0.409735
Si Si3 0.681004 0.422790 0.381220
Si Si4 0.853923 0.710783 0.318640
Si Si5 0.057098 0.427419 0.024961
Si Si6 0.945627 0.760057 0.242561
Si Si7 0.088512 0.108152 0.865126
O O1 0.304766 0.811148 0.285956
O O2 0.275602 0.534808 0.375351
O O3 0.216184 0.805610 0.314047
O O4 0.207983 0.697970 0.924299
O O5 0.879203 0.520056 0.355466
O O6 0.900740 0.340467 0.706446
O O7 0.888542 0.173475 0.302980
O O8 0.648266 0.302500 0.463653
O O9 0.640973 0.548028 0.143907
O O10 0.894697 0.808509 0.265769
O O11 0.071452 0.614103 0.964315
O O12 0.056744 0.283754 0.847853
O O13 0.000000 0.450318 0.000000
O O14 0.000000 0.697193 0.500000
O O15 0.955508 0.955211 0.193234
#
# Coordination Sequence:
#
# PCOD9130558 Si02
#       7
#     4   4   4   4   4   4   4
#     4  12  27  42  74 110 155 202 259 312 384 463
#     4  12  27  47  78 110 155 203 254 322 389 463
#     4  12  27  46  74 115 156 207 263 314 392 462
#     4  12  26  47  75 107 158 199 256 325 384 459
#     4  12  29  51  78 113 152 200 261 326 397 465
#     4  12  28  51  78 110 152 201 263 326 393 469
#     4  12  28  50  78 114 153 203 263 319 397 465
#
# _framework density 23.256174000000001
#
# number of rings (size 3 to 8) (size 9 to 14) (size 15 to 20)
#    0.000    0.000    4.286    4.286   10.000    0.571 
#    0.000    0.000    0.000    0.000    0.000    0.000 
#    0.000    0.000    0.000    0.000    0.000    0.000 
#
# Total GULP energy -78177.988409 kJ/mol
# GULP energy per Si atom -5584.142029 kJ/mol
# Density = 2.320324 g / cm^3
# Si number density = 23.256174 Si / 1000 Ang^3
#
#
#
# Elastic Constant Matrix: (Units=GPa)
#
#
# Indices 1 2 3 4 5 6 
#
# 1 86.7246 32.5449 24.0020 0.0000 -22.5387 0.0000
# 2 32.5449 154.2236 47.7222 0.0000 -17.9470 0.0000
# 3 24.0020 47.7222 100.6011 0.0000 -2.8140 0.0000
# 4 0.0000 0.0000 0.0000 45.8911 0.0000 -4.5635
# 5 -22.5387 -17.9470 -2.8140 0.0000 24.5062 0.0000
# 6 0.0000 0.0000 0.0000 -4.5635 0.0000 36.3059
#
#
#
# Elastic Compliance Matrix: (Units=1/GPa)
#
#
# Indices 1 2 3 4 5 6 
#
# 1 0.016368 -0.000856 -0.003106 0.000000 0.014071 0.000000
# 2 -0.000856 0.008358 -0.003623 0.000000 0.004918 0.000000
# 3 -0.003106 -0.003623 0.012285 0.000000 -0.004099 0.000000
# 4 0.000000 0.000000 0.000000 0.022067 0.000000 0.002774
# 5 0.014071 0.004918 -0.004099 0.000000 0.056878 0.000000
# 6 0.000000 0.000000 0.000000 0.002774 0.000000 0.027892
#
#
# Mechanical properties :
#
#
# Convention : Reuss Voigt Hill
#
# Bulk Modulus (GPa) = 45.78217 61.12081 53.45149
# Shear Modulus (GPa) = 30.06646 37.15934 33.61290
#
# Velocity S-wave (km/s) = 3.59951 4.00162 3.80588
# Velocity P-wave (km/s) = 6.08309 6.90574 6.50743
#
# Compressibility (1/GPa) = 0.02184257
#
# Stress axis : x y z
#
# Youngs Moduli (GPa) = 61.09403 119.64472 81.39823
#
# Poissons Ratio (x) = 0.10237 0.25280
# Poissons Ratio (y) = 0.05227 0.29491
# Poissons Ratio (z) = 0.18974 0.43349
#
# Static dielectric constant tensor:
#      x y z
#    x 1.743400 0.000000 0.076550 
#    y 0.000000 2.025030 0.000000 
#    z 0.076550 0.000000 1.873100 
# 
# From -- ./inp_files/11272.got.cif
#   From: 2010.05.17/outbox.cif.g08.bks.cpg/sg5_6_cif.got.tgz:11272.got - 2010.06.03 18:56:24.
