data_PCOD9130718
_publ_section_title
;
Structure prediction by ZEFSAII (Michael W. Deem and Ramdas Pophale) SiO2 
 PCOD9130718
Probable space group: C 2
;
_chemical_formula_sum "Si O2"
_cell_formula_units_Z 16
_cell_length_a 9.000000
_cell_length_b 24.000000
_cell_length_c 15.000000
_cell_angle_alpha 90.000000
_cell_angle_beta 30.000000
_cell_angle_gamma 90.000000
_cell_volume 1620.000000
_symmetry_space_group_name_H-M "C 2"
_symmetry_group_IT_number 5
_symmetry_cell_setting 'monoclinic'
loop_
_space_group_symop_operation_xyz
x,y,z
-x,y,-z
1/2+x,1/2+y,z
1/2-x,1/2+y,-z
loop_
_atom_site_type_symbol
_atom_site_label
_atom_site_fract_x
_atom_site_fract_y
_atom_site_fract_z
Si Si1 0.150056 0.237650 0.659262
Si Si2 0.269969 0.713440 0.034458
Si Si3 0.605064 0.528411 0.544579
Si Si4 0.149092 0.939873 0.676893
Si Si5 0.352216 0.652685 0.673248
Si Si6 0.749054 0.837771 0.943298
Si Si7 0.365408 0.868020 0.318901
Si Si8 0.216181 0.479072 0.210073
O O1 0.500000 0.230000 0.500000
O O2 0.111688 0.304083 0.654709
O O3 0.012532 0.196276 0.656804
O O4 0.975569 0.221739 0.840535
O O5 0.117217 0.775500 0.117921
O O6 0.000353 0.669156 0.156192
O O7 0.500000 0.703294 0.000000
O O8 0.500000 0.513036 0.500000
O O9 0.553889 0.478442 0.642867
O O10 0.445322 0.587880 0.650332
O O11 0.965334 0.527222 0.346405
O O12 0.500000 0.926012 0.500000
O O13 0.125985 0.976913 0.776525
O O14 0.967616 0.884004 0.789657
O O15 0.500000 0.659830 0.500000
O O16 0.500000 0.828710 0.000000
O O17 0.567042 0.860615 0.124175
O O18 0.532082 0.920653 0.281612
O O19 0.000000 0.877404 0.500000
O O20 0.500000 0.486049 0.000000
#
# Coordination Sequence:
#
# PCOD9130718 Si02
#       8
#     4   4   4   4   4   4   4   4
#     4  10  22  41  68 104 138 183 231 284 349 411
#     4  10  22  43  68 102 143 176 229 290 351 415
#     4  10  25  47  66  90 133 182 238 284 338 405
#     4  10  23  40  64  99 134 175 225 277 340 410
#     4  11  24  45  71  95 133 186 238 295 342 410
#     4  10  22  37  61 103 141 175 219 274 343 421
#     4  10  22  38  65  98 142 186 217 275 346 417
#     4  11  22  40  66  98 136 176 223 283 343 408
#
# _framework density 9.8765429999999999
#
# number of rings (size 3 to 8) (size 9 to 14) (size 15 to 20)
#    0.000    1.750    1.250    1.500    7.000    3.000 
#    0.000   11.250    0.000    0.000    0.000    0.000 
#    0.000    0.000    0.000    0.000    0.000    0.000 
#
# Total GULP energy -89104.164178 kJ/mol
# GULP energy per Si atom -5569.010261 kJ/mol
# Density = 0.985406 g / cm^3
# Si number density = 9.876543 Si / 1000 Ang^3
#
#
#
# Elastic Constant Matrix: (Units=GPa)
#
#
# Indices 1 2 3 4 5 6 
#
# 1 83.4589 48.6953 11.1635 -0.0001 5.7465 0.0001
# 2 48.6953 134.9944 56.4636 0.0000 -11.6080 0.0000
# 3 11.1635 56.4636 108.7627 0.0000 -6.2481 -0.0002
# 4 -0.0001 0.0000 0.0000 45.4363 0.0001 -4.1214
# 5 5.7465 -11.6080 -6.2481 0.0001 33.9818 -0.0001
# 6 0.0001 0.0000 -0.0002 -4.1214 -0.0001 35.4540
#
#
#
# Elastic Compliance Matrix: (Units=1/GPa)
#
#
# Indices 1 2 3 4 5 6 
#
# 1 0.016130 -0.006927 0.001665 0.000000 -0.004788 0.000000
# 2 -0.006927 0.012627 -0.005588 0.000000 0.004457 0.000000
# 3 0.001665 -0.005588 0.011925 0.000000 0.000002 0.000000
# 4 0.000000 0.000000 0.000000 0.022243 0.000000 0.002586
# 5 -0.004788 0.004457 0.000002 0.000000 0.031760 0.000000
# 6 0.000000 0.000000 0.000000 0.002586 0.000000 0.028506
#
#
# Mechanical properties :
#
#
# Convention : Reuss Voigt Hill
#
# Bulk Modulus (GPa) = 52.67975 62.20677 57.44326
# Shear Modulus (GPa) = 33.06472 37.03398 35.04935
#
# Velocity S-wave (km/s) = 4.09577 4.33465 4.21690
# Velocity P-wave (km/s) = 7.00672 7.52414 7.27004
#
# Compressibility (1/GPa) = 0.01898263
#
# Stress axis : x y z
#
# Youngs Moduli (GPa) = 61.99467 79.19530 83.86022
#
# Poissons Ratio (x) = 0.54857 -0.13966
# Poissons Ratio (y) = 0.42943 0.46863
# Poissons Ratio (z) = -0.10324 0.44256
#
# Static dielectric constant tensor:
#      x y z
#    x 1.725190 0.000000 0.012730 
#    y 0.000000 1.741700 0.000000 
#    z 0.012730 0.000000 1.646670 
# 
# From -- ./inp_files/51670.got.cif
#   From: 2010.05.17/outbox.ucp.g08.bks.cvg/sg5_26_cif.got.tgz:51670.got - 2010.06.11 12:53:14.
