data_PCOD9130272
_publ_section_title
;
Structure prediction by ZEFSAII (Michael W. Deem and Ramdas Pophale) SiO2 
 PCOD9130272
Probable space group: C 2
;
_chemical_formula_sum "Si O2"
_cell_formula_units_Z 24
_cell_length_a 13.927913
_cell_length_b 4.978718
_cell_length_c 14.773587
_cell_angle_alpha 90.000000
_cell_angle_beta 122.548051
_cell_angle_gamma 90.000000
_cell_volume 863.547976
_symmetry_space_group_name_H-M "C 2"
_symmetry_group_IT_number 5
_symmetry_cell_setting 'monoclinic'
loop_
_space_group_symop_operation_xyz
x,y,z
-x,y,-z
1/2+x,1/2+y,z
1/2-x,1/2+y,-z
loop_
_atom_site_type_symbol
_atom_site_label
_atom_site_fract_x
_atom_site_fract_y
_atom_site_fract_z
Si Si1 0.918663 0.633250 0.614327
Si Si2 0.813848 0.500574 0.062915
Si Si3 0.500000 0.494736 0.000000
Si Si4 0.554119 0.889072 0.192264
Si Si5 0.784651 0.367654 0.393299
Si Si6 0.275249 0.248161 0.819758
Si Si7 0.000000 0.958871 0.500000
O O1 0.938866 0.385665 0.694019
O O2 0.829892 0.569399 0.489870
O O3 0.844950 0.815266 0.643102
O O4 0.010465 0.783918 0.598200
O O5 0.817591 0.296920 0.151048
O O6 0.945610 0.587494 0.123837
O O7 0.740158 0.777639 0.034612
O O8 0.615399 0.328417 0.065577
O O9 0.513646 0.664716 0.099979
O O10 0.673234 0.999470 0.210672
O O11 0.768766 0.441359 0.281620
O O12 0.885841 0.142221 0.447786
#
# Coordination Sequence:
#
# PCOD9130272 Si02
#       7
#     4   4   2   4   4   4   2
#     4  11  26  49  74 111 151 198 255 318 388 461
#     4  12  26  49  75 112 155 202 267 328 398 482
#     4  12  22  48  76 102 150 200 246 322 386 468
#     4  11  27  46  73 109 151 202 257 320 394 465
#     4  11  26  49  74 111 151 198 255 318 388 461
#     4  11  27  46  73 109 151 202 257 320 394 465
#     4  12  26  46  80 104 156 200 256 316 396 462
#
# _framework density 27.792316
#
# number of rings (size 3 to 8) (size 9 to 14) (size 15 to 20)
#    0.000    0.667    3.333    3.000    7.000    1.333 
#    0.000    0.000    0.000    0.000    0.000    0.000 
#    0.000    0.000    0.000    0.000    0.000    0.000 
#
# Total GULP energy -66809.452859 kJ/mol
# GULP energy per Si atom -5567.454405 kJ/mol
# Density = 2.772906 g / cm^3
# Si number density = 27.792316 Si / 1000 Ang^3
#
#
#
# Elastic Constant Matrix: (Units=GPa)
#
#
# Indices 1 2 3 4 5 6 
#
# 1 97.6571 15.8334 0.9801 0.0000 1.1035 0.0001
# 2 15.8334 82.0136 10.7554 -0.0002 5.3481 0.0010
# 3 0.9801 10.7554 122.6403 0.0000 -16.8152 -0.0002
# 4 0.0000 -0.0002 0.0000 18.9827 0.0000 17.8344
# 5 1.1035 5.3481 -16.8152 0.0000 68.7763 0.0000
# 6 0.0001 0.0010 -0.0002 17.8344 0.0000 -15.2018
#
#
#
# Elastic Compliance Matrix: (Units=1/GPa)
#
#
# Indices 1 2 3 4 5 6 
#
# 1 0.010572 -0.002055 0.000098 0.000000 0.000014 0.000000
# 2 -0.002055 0.012842 -0.001285 0.000000 -0.001280 0.000000
# 3 0.000098 -0.001285 0.008567 0.000000 0.002193 0.000000
# 4 0.000000 0.000000 0.000000 0.025059 0.000000 0.029399
# 5 0.000014 -0.001280 0.002193 0.000000 0.015175 0.000000
# 6 0.000000 0.000000 0.000000 0.029399 0.000000 -0.031292
#
#
# Mechanical properties :
#
#
# Convention : Reuss Voigt Hill
#
# Bulk Modulus (GPa) = 39.22259 39.71654 39.46956
# Shear Modulus (GPa) = 89.43555 32.82758 61.13156
#
# Velocity S-wave (km/s) = 5.67889 3.44055 4.69506
# Velocity P-wave (km/s) = 7.55931 5.48677 6.60484
#
# Compressibility (1/GPa) = 0.02549551
#
# Stress axis : x y z
#
# Youngs Moduli (GPa) = 94.59031 77.87079 116.73353
#
# Poissons Ratio (x) = 0.16000 -0.01140
# Poissons Ratio (y) = 0.19436 0.15003
# Poissons Ratio (z) = -0.00924 0.10009
#
# Static dielectric constant tensor:
#      x y z
#    x 2.591170 0.000000 -0.040710 
#    y 0.000000 2.360010 0.000000 
#    z -0.040710 0.000000 2.126250 
# 
# From -- ./inp_files/53784.got.cif
#   From: 2010.05.17/outbox.cif.g08.bks.cpg/sg5_27_cif.got.tgz:53784.got - 2010.06.03 18:56:24.
