data_PCOD9130588
_publ_section_title
;
Structure prediction by ZEFSAII (Michael W. Deem and Ramdas Pophale) SiO2 
 PCOD9130588
Probable space group: C 2
;
_chemical_formula_sum "Si O2"
_cell_formula_units_Z 20
_cell_length_a 14.272867
_cell_length_b 7.244380
_cell_length_c 13.558503
_cell_angle_alpha 90.000000
_cell_angle_beta 146.826306
_cell_angle_gamma 90.000000
_cell_volume 767.102844
_symmetry_space_group_name_H-M "C 2"
_symmetry_group_IT_number 5
_symmetry_cell_setting 'monoclinic'
loop_
_space_group_symop_operation_xyz
x,y,z
-x,y,-z
1/2+x,1/2+y,z
1/2-x,1/2+y,-z
loop_
_atom_site_type_symbol
_atom_site_label
_atom_site_fract_x
_atom_site_fract_y
_atom_site_fract_z
Si Si1 0.634363 0.871760 0.689324
Si Si2 0.578128 0.453519 0.337711
Si Si3 0.460656 0.024232 0.735479
Si Si4 0.353188 0.675175 0.793989
Si Si5 0.273666 0.010720 0.857608
O O1 0.500000 0.769320 0.500000
O O2 0.555121 0.948811 0.720378
O O3 0.695247 0.041691 0.677427
O O4 0.783798 0.725415 0.839806
O O5 0.762930 0.460978 0.553061
O O6 0.584765 0.610506 0.258953
O O7 0.414354 0.488862 0.261402
O O8 0.550867 0.246793 0.273412
O O9 0.583631 0.965451 0.934145
O O10 0.295914 0.874159 0.785684
O O11 0.500000 0.618845 0.000000
#
# Coordination Sequence:
#
# PCOD9130588 Si02
#       5
#     4   4   4   4   4
#     4  12  27  52  79 120 169 213 282 352 417 506
#     4  12  28  49  85 120 168 220 279 348 426 503
#     4  12  26  51  84 121 167 223 280 346 429 503
#     4  12  28  52  81 121 164 216 281 345 419 502
#     4  12  29  53  83 119 166 220 280 351 417 504
#
# _framework density 26.072125
#
# number of rings (size 3 to 8) (size 9 to 14) (size 15 to 20)
#    0.000    0.000    4.000    4.800    5.600    4.800 
#    0.000    0.000    0.000    0.000    0.000    0.000 
#    0.000    0.000    0.000    0.000    0.000    0.000 
#
# Total GULP energy -56079.777104 kJ/mol
# GULP energy per Si atom -5607.977710 kJ/mol
# Density = 2.601278 g / cm^3
# Si number density = 26.072125 Si / 1000 Ang^3
#
#
#
# Elastic Constant Matrix: (Units=GPa)
#
#
# Indices 1 2 3 4 5 6 
#
# 1 175.6988 66.8500 31.1949 0.0000 -0.6806 0.0000
# 2 66.8500 167.9851 45.6582 0.0000 -11.8412 0.0000
# 3 31.1949 45.6582 99.8085 0.0000 -22.6629 0.0000
# 4 0.0000 0.0000 0.0000 41.5665 0.0000 10.9553
# 5 -0.6806 -11.8412 -22.6629 0.0000 50.8374 0.0000
# 6 0.0000 0.0000 0.0000 10.9553 0.0000 34.0613
#
#
#
# Elastic Compliance Matrix: (Units=1/GPa)
#
#
# Indices 1 2 3 4 5 6 
#
# 1 0.006844 -0.002457 -0.001251 0.000000 -0.001038 0.000000
# 2 -0.002457 0.007682 -0.002612 0.000000 0.000592 0.000000
# 3 -0.001251 -0.002612 0.012754 0.000000 0.005061 0.000000
# 4 0.000000 0.000000 0.000000 0.026286 0.000000 -0.008455
# 5 -0.001038 0.000592 0.005061 0.000000 0.022051 0.000000
# 6 0.000000 0.000000 0.000000 -0.008455 0.000000 0.032078
#
#
# Mechanical properties :
#
#
# Convention : Reuss Voigt Hill
#
# Bulk Modulus (GPa) = 68.30137 81.21095 74.75616
# Shear Modulus (GPa) = 39.93101 45.27899 42.60500
#
# Velocity S-wave (km/s) = 3.91776 4.17187 4.04681
# Velocity P-wave (km/s) = 6.83514 7.37714 7.11130
#
# Compressibility (1/GPa) = 0.01464099
#
# Stress axis : x y z
#
# Youngs Moduli (GPa) = 146.10334 130.16892 78.40588
#
# Poissons Ratio (x) = 0.31982 0.09809
# Poissons Ratio (y) = 0.35897 0.20480
# Poissons Ratio (z) = 0.18278 0.34000
#
# Static dielectric constant tensor:
#      x y z
#    x 2.057630 0.000000 0.020150 
#    y 0.000000 2.085200 0.000000 
#    z 0.020150 0.000000 2.018360 
# 
# From -- ./inp_files/38479.got.cif
#   From: 2010.05.17/outbox.cif.g08.bks.cpg/sg5_20_cif.got.tgz:38479.got - 2010.06.03 18:56:24.
