data_PCOD9130684
_publ_section_title
;
Structure prediction by ZEFSAII (Michael W. Deem and Ramdas Pophale) SiO2 
 PCOD9130684
Probable space group: C 2
;
_chemical_formula_sum "Si O2"
_cell_formula_units_Z 10
_cell_length_a 30.000000
_cell_length_b 9.000000
_cell_length_c 24.000000
_cell_angle_alpha 90.000000
_cell_angle_beta 10.000000
_cell_angle_gamma 90.000000
_cell_volume 1125.240191
_symmetry_space_group_name_H-M "C 2"
_symmetry_group_IT_number 5
_symmetry_cell_setting 'monoclinic'
loop_
_space_group_symop_operation_xyz
x,y,z
-x,y,-z
1/2+x,1/2+y,z
1/2-x,1/2+y,-z
loop_
_atom_site_type_symbol
_atom_site_label
_atom_site_fract_x
_atom_site_fract_y
_atom_site_fract_z
Si Si1 0.199304 0.648450 0.126533
Si Si2 0.745443 0.494294 0.737297
Si Si3 0.871664 0.484858 0.903486
Si Si4 0.977985 0.971828 0.183557
Si Si5 0.370325 0.720038 0.717603
O O1 0.155351 0.559012 0.123692
O O2 0.934767 0.625870 0.486097
O O3 0.424962 0.572950 0.885044
O O4 0.268166 0.817616 0.030033
O O5 0.926776 0.346669 0.511468
O O6 0.500000 0.477533 0.000000
O O7 0.632088 0.519636 0.938202
O O8 0.173207 0.479759 0.549712
O O9 0.697873 0.584898 0.158417
O O10 0.100112 0.808110 0.042738
O O11 0.500000 0.670015 0.500000
#
# Coordination Sequence:
#
# PCOD9130684 Si02
#       5
#     4   4   4   4   4
#     4  11  23  37  62  91 119 156 198 243 294 348
#     4  10  19  40  63  83 120 161 195 233 298 356
#     4  12  23  39  62  89 124 150 200 249 290 346
#     4  10  21  40  65  84 117 161 197 236 298 354
#     4   9  21  39  61  88 116 159 197 239 294 354
#
# _framework density 8.8869910000000001
#
# number of rings (size 3 to 8) (size 9 to 14) (size 15 to 20)
#    0.000    1.600    2.000    5.400    0.000    1.600 
#    0.000    1.000    0.000    0.000    0.000    0.000 
#    0.000    0.000    0.000    0.000    0.000    0.000 
#
# Total GULP energy -55805.143216 kJ/mol
# GULP energy per Si atom -5580.514322 kJ/mol
# Density = 0.886676 g / cm^3
# Si number density = 8.886991 Si / 1000 Ang^3
#
#
#
# Elastic Constant Matrix: (Units=GPa)
#
#
# Indices 1 2 3 4 5 6 
#
# 1 80.8392 40.1473 27.3978 0.0786 -22.1747 -0.0472
# 2 40.1473 88.6812 46.0870 0.2037 -0.3362 -0.1731
# 3 27.3978 46.0870 117.1876 0.1204 -24.0171 -0.1265
# 4 0.0786 0.2037 0.1204 18.8220 -0.0825 8.7784
# 5 -22.1747 -0.3362 -24.0171 -0.0825 32.4007 0.0585
# 6 -0.0472 -0.1731 -0.1265 8.7784 0.0585 31.4956
#
#
#
# Elastic Compliance Matrix: (Units=1/GPa)
#
#
# Indices 1 2 3 4 5 6 
#
# 1 0.021525 -0.011111 0.002751 0.000125 0.016655 -0.000083
# 2 -0.011111 0.020543 -0.008249 -0.000257 -0.013507 0.000160
# 3 0.002751 -0.008249 0.013563 0.000054 0.011851 -0.000024
# 4 0.000125 -0.000257 0.000054 0.061072 0.000309 -0.017024
# 5 0.016655 -0.013507 0.011851 0.000309 0.050908 -0.000182
# 6 -0.000083 0.000160 -0.000024 -0.017024 -0.000182 0.036496
#
#
# Mechanical properties :
#
#
# Convention : Reuss Voigt Hill
#
# Bulk Modulus (GPa) = 44.61996 57.10803 50.86399
# Shear Modulus (GPa) = 20.42503 28.08205 24.25354
#
# Velocity S-wave (km/s) = 3.39359 3.97917 3.69799
# Velocity P-wave (km/s) = 6.36505 7.30148 6.84929
#
# Compressibility (1/GPa) = 0.02241150
#
# Stress axis : x y z
#
# Youngs Moduli (GPa) = 46.45809 48.67741 73.72931
#
# Poissons Ratio (x) = 0.54088 -0.20281
# Poissons Ratio (y) = 0.51622 0.60821
# Poissons Ratio (z) = -0.12779 0.40155
#
# Static dielectric constant tensor:
#      x y z
#    x 1.651040 0.000020 0.003060 
#    y 0.000020 1.589350 0.000000 
#    z 0.003060 0.000000 1.578110 
# 
# From -- ./inp_files/22619.got.cif
#   From: 2010.05.17/outbox.ucp.g08.bks.cvg/sg5_12_cif.got.tgz:22619.got - 2010.06.11 12:53:14.
