data_PCOD9130082
_publ_section_title
;
Structure prediction by ZEFSAII (Michael W. Deem and Ramdas Pophale) SiO2 
 PCOD9130082
Probable space group: C 2
;
_chemical_formula_sum "Si O2"
_cell_formula_units_Z 28
_cell_length_a 14.318176
_cell_length_b 12.958563
_cell_length_c 8.415087
_cell_angle_alpha 90.000000
_cell_angle_beta 124.562149
_cell_angle_gamma 90.000000
_cell_volume 1285.797938
_symmetry_space_group_name_H-M "C 2"
_symmetry_group_IT_number 5
_symmetry_cell_setting 'monoclinic'
loop_
_space_group_symop_operation_xyz
x,y,z
-x,y,-z
1/2+x,1/2+y,z
1/2-x,1/2+y,-z
loop_
_atom_site_type_symbol
_atom_site_label
_atom_site_fract_x
_atom_site_fract_y
_atom_site_fract_z
Si Si1 0.578025 0.146830 0.222855
Si Si2 0.763167 0.964586 0.409911
Si Si3 0.883221 0.337090 0.972685
Si Si4 0.000000 0.041012 0.500000
Si Si5 0.313076 0.994989 0.138883
Si Si6 0.328696 0.667802 0.153079
Si Si7 0.713425 0.336783 0.248864
Si Si8 0.000000 0.606198 0.500000
O O1 0.612046 0.261788 0.200664
O O2 0.522944 0.155752 0.346678
O O3 0.686240 0.068978 0.341251
O O4 0.500000 0.106746 0.000000
O O5 0.706966 0.888887 0.228478
O O6 0.757059 0.903171 0.568784
O O7 0.892341 0.984620 0.476826
O O8 0.898187 0.419168 0.129032
O O9 0.837961 0.232215 0.001912
O O10 0.000000 0.319449 0.000000
O O11 0.056701 0.111430 0.689626
O O12 0.211573 0.922260 0.106594
O O13 0.385916 0.042794 0.350984
O O14 0.265322 0.081332 0.974352
O O15 0.299917 0.750445 0.262721
#
# Coordination Sequence:
#
# PCOD9130082 Si02
#       8
#     4   4   4   2   4   4   4   2
#     4  12  26  50  77 113 154 198 255 324 377 452
#     4  12  25  48  72 110 150 193 248 313 381 459
#     4  11  25  42  76 106 142 189 253 314 379 444
#     4  12  26  48  74 100 156 202 236 306 386 450
#     4  11  24  48  71 108 149 198 250 312 378 465
#     4  11  26  47  73 104 152 195 252 313 377 454
#     4  11  26  45  76 104 149 193 250 309 385 447
#     4  12  24  42  84 110 148 206 256 312 392 444
#
# _framework density 21.77636
#
# number of rings (size 3 to 8) (size 9 to 14) (size 15 to 20)
#    0.000    0.571    4.286    3.000    4.000    4.000 
#    0.000    0.000    0.000    0.000    0.000    0.000 
#    0.000    0.000    0.000    0.000    0.000    0.000 
#
# Total GULP energy -78125.519707 kJ/mol
# GULP energy per Si atom -5580.394265 kJ/mol
# Density = 2.172680 g / cm^3
# Si number density = 21.776360 Si / 1000 Ang^3
#
#
#
# Elastic Constant Matrix: (Units=GPa)
#
#
# Indices 1 2 3 4 5 6 
#
# 1 140.9662 53.3914 32.4851 0.0000 -21.6411 0.0000
# 2 53.3914 93.5894 14.2876 0.0000 -6.5435 0.0000
# 3 32.4851 14.2876 48.5682 0.0000 -10.6938 0.0000
# 4 0.0000 0.0000 0.0000 17.4643 0.0000 -5.5181
# 5 -21.6411 -6.5435 -10.6938 0.0000 38.7986 0.0000
# 6 0.0000 0.0000 0.0000 -5.5181 0.0000 -9.5766
#
#
#
# Elastic Compliance Matrix: (Units=1/GPa)
#
#
# Indices 1 2 3 4 5 6 
#
# 1 0.010728 -0.005117 -0.004836 0.000000 0.003788 0.000000
# 2 -0.005117 0.013668 -0.000766 0.000000 -0.000760 0.000000
# 3 -0.004836 -0.000766 0.024941 0.000000 0.004048 0.000000
# 4 0.000000 0.000000 0.000000 0.048441 0.000000 -0.027912
# 5 0.003788 -0.000760 0.004048 0.000000 0.028874 0.000000
# 6 0.000000 0.000000 0.000000 -0.027912 0.000000 -0.088338
#
#
# Mechanical properties :
#
#
# Convention : Reuss Voigt Hill
#
# Bulk Modulus (GPa) = 35.84341 53.71689 44.78015
# Shear Modulus (GPa) = 72.41112 21.53458 46.97285
#
# Velocity S-wave (km/s) = 5.77273 3.14809 4.64945
# Velocity P-wave (km/s) = 7.80564 6.15914 7.03075
#
# Compressibility (1/GPa) = 0.02789913
#
# Stress axis : x y z
#
# Youngs Moduli (GPa) = 93.21436 73.16420 40.09509
#
# Poissons Ratio (x) = 0.37438 0.19391
# Poissons Ratio (y) = 0.47698 0.03070
# Poissons Ratio (z) = 0.45080 0.05601
#
# Static dielectric constant tensor:
#      x y z
#    x 1.847980 0.000000 -0.030190 
#    y 0.000000 1.800450 0.000000 
#    z -0.030190 0.000000 1.795930 
# 
# From -- ./inp_files/23730.got.cif
#   From: 2010.05.17/outbox.cif.g08.bks.cpg/sg5_12_cif.got.tgz:23730.got - 2010.06.03 18:56:24.
