data_PCOD9130534
_publ_section_title
;
Structure prediction by ZEFSAII (Michael W. Deem and Ramdas Pophale) SiO2 
 PCOD9130534
Probable space group: C 2
;
_chemical_formula_sum "Si O2"
_cell_formula_units_Z 22
_cell_length_a 4.842576
_cell_length_b 13.880980
_cell_length_c 14.571989
_cell_angle_alpha 90.000000
_cell_angle_beta 111.324940
_cell_angle_gamma 90.000000
_cell_volume 912.459639
_symmetry_space_group_name_H-M "C 2"
_symmetry_group_IT_number 5
_symmetry_cell_setting 'monoclinic'
loop_
_space_group_symop_operation_xyz
x,y,z
-x,y,-z
1/2+x,1/2+y,z
1/2-x,1/2+y,-z
loop_
_atom_site_type_symbol
_atom_site_label
_atom_site_fract_x
_atom_site_fract_y
_atom_site_fract_z
Si Si1 0.434403 0.806050 0.099590
Si Si2 0.212598 0.353141 0.311213
Si Si3 0.220669 0.243815 0.610164
Si Si4 0.000000 0.964097 0.000000
Si Si5 0.556546 0.060430 0.729683
Si Si6 0.295429 0.591532 0.139067
O O1 0.701653 0.831595 0.200477
O O2 0.311562 0.702366 0.112026
O O3 0.500000 0.804564 0.000000
O O4 0.201130 0.891606 0.083581
O O5 0.539348 0.326574 0.384130
O O6 0.093237 0.459881 0.315810
O O7 0.978422 0.280952 0.329749
O O8 0.406019 0.149175 0.658920
O O9 0.000000 0.225634 0.500000
O O10 0.178896 0.027841 0.948959
O O11 0.911199 0.064776 0.765681
O O12 0.482158 0.075959 0.828589
#
# Coordination Sequence:
#
# PCOD9130534 Si02
#       6
#     4   4   4   2   4   4
#     4  12  26  43  73 105 147 198 239 288 351 427
#     4  12  26  48  76 106 147 191 237 296 368 426
#     4  12  27  48  76 109 141 184 246 306 363 432
#     4  12  28  44  68 108 148 192 250 290 342 430
#     4  12  25  48  73 100 142 190 234 298 367 420
#     4  12  26  44  71 104 142 193 244 289 349 425
#
# _framework density 24.110655999999999
#
# number of rings (size 3 to 8) (size 9 to 14) (size 15 to 20)
#    0.000    0.000    6.364    2.727    5.091    1.455 
#    0.000    0.000    0.000    0.000    0.000    0.000 
#    0.000    0.000    0.000    0.000    0.000    0.000 
#
# Total GULP energy -61728.498438 kJ/mol
# GULP energy per Si atom -5611.681676 kJ/mol
# Density = 2.405578 g / cm^3
# Si number density = 24.110656 Si / 1000 Ang^3
#
#
#
# Elastic Constant Matrix: (Units=GPa)
#
#
# Indices 1 2 3 4 5 6 
#
# 1 70.7462 4.2153 8.2740 0.0000 9.5619 0.0000
# 2 4.2153 147.2702 29.3169 0.0000 5.0990 0.0000
# 3 8.2740 29.3169 98.8010 0.0000 17.4186 0.0000
# 4 0.0000 0.0000 0.0000 23.9662 0.0000 10.2008
# 5 9.5619 5.0990 17.4186 0.0000 37.4012 0.0000
# 6 0.0000 0.0000 0.0000 10.2008 0.0000 23.5871
#
#
#
# Elastic Compliance Matrix: (Units=1/GPa)
#
#
# Indices 1 2 3 4 5 6 
#
# 1 0.014680 -0.000188 -0.000563 0.000000 -0.003466 0.000000
# 2 -0.000188 0.007219 -0.002137 0.000000 0.000059 0.000000
# 3 -0.000563 -0.002137 0.011685 0.000000 -0.005007 0.000000
# 4 0.000000 0.000000 0.000000 0.051139 0.000000 -0.022116
# 5 -0.003466 0.000059 -0.005007 0.000000 0.029947 0.000000
# 6 0.000000 0.000000 0.000000 -0.022116 0.000000 0.051961
#
#
# Mechanical properties :
#
#
# Convention : Reuss Voigt Hill
#
# Bulk Modulus (GPa) = 35.95882 44.49218 40.22550
# Shear Modulus (GPa) = 27.52154 35.32497 31.42325
#
# Velocity S-wave (km/s) = 3.38223 3.83184 3.61403
# Velocity P-wave (km/s) = 5.49537 6.17015 5.84251
#
# Compressibility (1/GPa) = 0.02780959
#
# Stress axis : x y z
#
# Youngs Moduli (GPa) = 68.11786 138.52460 85.57828
#
# Poissons Ratio (x) = 0.02607 0.04814
# Poissons Ratio (y) = 0.01282 0.18286
# Poissons Ratio (z) = 0.03832 0.29599
#
# Static dielectric constant tensor:
#      x y z
#    x 1.897780 0.000000 0.023170 
#    y 0.000000 1.896510 0.000000 
#    z 0.023170 0.000000 1.944010 
# 
# From -- ./inp_files/48708.got.cif
#   From: 2010.05.17/outbox.cif.g08.bks.cpg/sg5_25_cif.got.tgz:48708.got - 2010.06.03 18:56:24.
