data_PCOD9130406
_publ_section_title
;
Structure prediction by ZEFSAII (Michael W. Deem and Ramdas Pophale) SiO2 
 PCOD9130406
Probable space group: C 2
;
_chemical_formula_sum "Si O2"
_cell_formula_units_Z 28
_cell_length_a 9.334492
_cell_length_b 10.197440
_cell_length_c 15.116069
_cell_angle_alpha 90.000000
_cell_angle_beta 127.742552
_cell_angle_gamma 90.000000
_cell_volume 1137.811792
_symmetry_space_group_name_H-M "C 2"
_symmetry_group_IT_number 5
_symmetry_cell_setting 'monoclinic'
loop_
_space_group_symop_operation_xyz
x,y,z
-x,y,-z
1/2+x,1/2+y,z
1/2-x,1/2+y,-z
loop_
_atom_site_type_symbol
_atom_site_label
_atom_site_fract_x
_atom_site_fract_y
_atom_site_fract_z
Si Si1 0.918346 0.949990 0.699489
Si Si2 0.401145 0.044447 0.057804
Si Si3 0.111613 0.211163 0.949735
Si Si4 0.681917 0.734332 0.531406
Si Si5 0.258586 0.503179 0.306401
Si Si6 0.830933 0.213421 0.681811
Si Si7 0.392185 0.378157 0.051175
O O1 0.841367 0.835024 0.610432
O O2 0.986046 0.887067 0.815250
O O3 0.769773 0.061525 0.667858
O O4 0.090343 0.015306 0.713763
O O5 0.559778 0.036249 0.192592
O O6 0.345401 0.210435 0.042447
O O7 0.340061 0.878060 0.036580
O O8 0.500000 0.045423 0.000000
O O9 0.996837 0.212308 0.814411
O O10 0.163920 0.045753 0.970544
O O11 0.000000 0.214219 0.000000
O O12 0.500000 0.797421 0.500000
O O13 0.707528 0.599634 0.597521
O O14 0.649353 0.719165 0.415942
O O15 0.268416 0.348870 0.333529
O O16 0.500000 0.374384 0.000000
#
# Coordination Sequence:
#
# PCOD9130406 Si02
#       7
#     4   4   4   4   4   4   4
#     4  12  27  53  77 113 157 207 267 331 395 479
#     4  12  23  44  75 111 155 203 249 326 404 469
#     4  12  25  46  73 116 159 203 264 321 403 479
#     4  12  29  52  76 110 156 209 266 329 395 470
#     4  12  26  53  80 111 159 207 263 326 406 473
#     4  12  26  47  80 108 151 204 263 321 378 475
#     4  12  25  43  74 112 156 201 256 328 402 476
#
# _framework density 24.608640999999999
#
# number of rings (size 3 to 8) (size 9 to 14) (size 15 to 20)
#    0.000    0.000    5.714    3.857    2.000    0.000 
#    5.143    0.000    0.000    0.000    0.000    0.000 
#    0.000    0.000    0.000    0.000    0.000    0.000 
#
# Total GULP energy -78167.448327 kJ/mol
# GULP energy per Si atom -5583.389166 kJ/mol
# Density = 2.455263 g / cm^3
# Si number density = 24.608641 Si / 1000 Ang^3
#
#
#
# Elastic Constant Matrix: (Units=GPa)
#
#
# Indices 1 2 3 4 5 6 
#
# 1 91.5971 41.4389 84.7833 0.0000 4.2349 0.0000
# 2 41.4389 215.1465 57.8352 0.0000 9.0396 0.0000
# 3 84.7833 57.8352 202.1546 0.0000 -25.4230 0.0000
# 4 0.0000 0.0000 0.0000 127.3912 0.0000 10.5610
# 5 4.2349 9.0396 -25.4230 0.0000 25.7512 0.0000
# 6 0.0000 0.0000 0.0000 10.5610 0.0000 68.7116
#
#
#
# Elastic Compliance Matrix: (Units=1/GPa)
#
#
# Indices 1 2 3 4 5 6 
#
# 1 0.021749 -0.000746 -0.010647 0.000000 -0.013826 0.000000
# 2 -0.000746 0.005379 -0.001653 0.000000 -0.003398 0.000000
# 3 -0.010647 -0.001653 0.011621 0.000000 0.013804 0.000000
# 4 0.000000 0.000000 0.000000 0.007951 0.000000 -0.001222
# 5 -0.013826 -0.003398 0.013804 0.000000 0.055928 0.000000
# 6 0.000000 0.000000 0.000000 -0.001222 0.000000 0.014741
#
#
# Mechanical properties :
#
#
# Convention : Reuss Voigt Hill
#
# Bulk Modulus (GPa) = 79.01050 97.44588 88.22819
# Shear Modulus (GPa) = 33.85695 66.02682 49.94189
#
# Velocity S-wave (km/s) = 3.71322 5.18546 4.50982
# Velocity P-wave (km/s) = 7.11059 8.69116 7.94030
#
# Compressibility (1/GPa) = 0.01265655
#
# Stress axis : x y z
#
# Youngs Moduli (GPa) = 45.97940 185.91239 86.05154
#
# Poissons Ratio (x) = 0.13870 0.91617
# Poissons Ratio (y) = 0.03430 0.14227
# Poissons Ratio (z) = 0.48953 0.30736
#
# Static dielectric constant tensor:
#      x y z
#    x 1.960970 0.000000 -0.108400 
#    y 0.000000 2.148360 0.000000 
#    z -0.108400 0.000000 2.014650 
# 
# From -- ./inp_files/52507.got.cif
#   From: 2010.05.17/outbox.cif.g08.bks.cpg/sg5_27_cif.got.tgz:52507.got - 2010.06.03 18:56:24.
