data_PCOD9130501
_publ_section_title
;
Structure prediction by ZEFSAII (Michael W. Deem and Ramdas Pophale) SiO2 
 PCOD9130501
Probable space group: C 2
;
_chemical_formula_sum "Si O2"
_cell_formula_units_Z 28
_cell_length_a 11.186764
_cell_length_b 8.490725
_cell_length_c 10.260892
_cell_angle_alpha 90.000000
_cell_angle_beta 96.397913
_cell_angle_gamma 90.000000
_cell_volume 968.547924
_symmetry_space_group_name_H-M "C 2"
_symmetry_group_IT_number 5
_symmetry_cell_setting 'monoclinic'
loop_
_space_group_symop_operation_xyz
x,y,z
-x,y,-z
1/2+x,1/2+y,z
1/2-x,1/2+y,-z
loop_
_atom_site_type_symbol
_atom_site_label
_atom_site_fract_x
_atom_site_fract_y
_atom_site_fract_z
Si Si1 0.334294 0.108810 0.086765
Si Si2 0.232603 0.309201 0.304544
Si Si3 0.732603 0.595789 0.804544
Si Si4 0.498249 0.859452 0.232287
Si Si5 0.500000 0.377280 0.000000
Si Si6 0.834296 0.796179 0.586768
Si Si7 0.000000 0.527706 0.500000
Si Si8 0.498247 0.545542 0.732286
O O1 0.292203 0.174565 0.221108
O O2 0.396495 0.258560 0.029162
O O3 0.426176 0.967659 0.121103
O O4 0.240980 0.069029 0.961439
O O5 0.147628 0.446094 0.218390
O O6 0.396499 0.146426 0.529171
O O7 0.352371 0.458901 0.281612
O O8 0.593585 0.694839 0.789527
O O9 0.792204 0.730429 0.721112
O O10 0.259017 0.835953 0.538560
O O11 0.593586 0.710153 0.289525
O O12 0.533191 0.476385 0.129544
O O13 0.033195 0.428600 0.629543
O O14 0.073825 0.937334 0.378898
#
# Coordination Sequence:
#
# PCOD9130501 Si02
#       8
#     4   4   4   4   2   4   2   4
#     4  12  27  55  83 118 169 219 282 349 416 511
#     4  12  28  50  85 119 158 222 278 335 431 490
#     4  12  28  50  85 119 158 222 278 335 431 490
#     4  12  30  48  79 124 167 216 280 350 418 509
#     4  12  24  52  78 116 162 220 276 342 424 488
#     4  12  27  55  83 118 169 219 282 349 416 511
#     4  12  24  52  78 116 162 220 276 342 424 488
#     4  12  30  48  79 124 167 216 280 350 418 509
#
# _framework density 28.909257
#
# number of rings (size 3 to 8) (size 9 to 14) (size 15 to 20)
#    0.000    0.000    5.714    2.571    8.000    2.286 
#    0.000    0.000    0.000    0.000    0.000    0.000 
#    0.000    0.000    0.000    0.000    0.000    0.000 
#
# Total GULP energy -78315.845697 kJ/mol
# GULP energy per Si atom -5593.988978 kJ/mol
# Density = 2.884346 g / cm^3
# Si number density = 28.909257 Si / 1000 Ang^3
#
#
#
# Elastic Constant Matrix: (Units=GPa)
#
#
# Indices 1 2 3 4 5 6 
#
# 1 194.5788 80.1084 77.6690 0.0000 25.3958 0.0000
# 2 80.1084 232.7523 74.3343 0.0000 11.8377 0.0000
# 3 77.6690 74.3343 195.0415 0.0000 23.4308 0.0000
# 4 0.0000 0.0000 0.0000 41.4129 0.0000 21.9553
# 5 25.3958 11.8377 23.4308 0.0000 72.6402 0.0000
# 6 0.0000 0.0000 0.0000 21.9553 0.0000 57.5365
#
#
#
# Elastic Compliance Matrix: (Units=1/GPa)
#
#
# Indices 1 2 3 4 5 6 
#
# 1 0.006766 -0.001651 -0.001887 0.000000 -0.001488 0.000000
# 2 -0.001651 0.005297 -0.001381 0.000000 0.000159 0.000000
# 3 -0.001887 -0.001381 0.006552 0.000000 -0.001229 0.000000
# 4 0.000000 0.000000 0.000000 0.030271 0.000000 -0.011551
# 5 -0.001488 0.000159 -0.001229 0.000000 0.014657 0.000000
# 6 0.000000 0.000000 0.000000 -0.011551 0.000000 0.021788
#
#
# Mechanical properties :
#
#
# Convention : Reuss Voigt Hill
#
# Bulk Modulus (GPa) = 113.89601 120.73287 117.31444
# Shear Modulus (GPa) = 50.97132 60.33529 55.65331
#
# Velocity S-wave (km/s) = 4.20354 4.57339 4.39236
# Velocity P-wave (km/s) = 7.93996 8.35112 8.14813
#
# Compressibility (1/GPa) = 0.00877994
#
# Stress axis : x y z
#
# Youngs Moduli (GPa) = 147.79566 188.77231 152.61921
#
# Poissons Ratio (x) = 0.31158 0.28793
# Poissons Ratio (y) = 0.24394 0.21073
# Poissons Ratio (z) = 0.27883 0.26065
#
# Static dielectric constant tensor:
#      x y z
#    x 3.139520 0.000000 -0.136820 
#    y 0.000000 2.635920 0.000000 
#    z -0.136820 0.000000 2.015390 
# 
# From -- ./inp_files/26718.got.cif
#   From: 2010.05.17/outbox.cif.g08.bks.cpg/sg5_14_cif.got.tgz:26718.got - 2010.06.03 18:56:24.
