data_PCOD9130984
_publ_section_title
;
Structure prediction by ZEFSAII (Michael W. Deem and Ramdas Pophale) SiO2 
 PCOD9130984
Probable space group: P M
;
_chemical_formula_sum "Si O2"
_cell_formula_units_Z 16
_cell_length_a 18.356915
_cell_length_b 8.562107
_cell_length_c 7.759674
_cell_angle_alpha 90.000000
_cell_angle_beta 140.357370
_cell_angle_gamma 90.000000
_cell_volume 778.112746
_symmetry_space_group_name_H-M "P M"
_symmetry_group_IT_number 6
_symmetry_cell_setting 'monoclinic'
loop_
_space_group_symop_operation_xyz
x,y,z
x,-y,z
loop_
_atom_site_type_symbol
_atom_site_label
_atom_site_fract_x
_atom_site_fract_y
_atom_site_fract_z
Si Si1 0.597450 0.186965 0.368270
Si Si2 0.237999 0.311799 0.226943
Si Si3 0.759115 0.314946 0.369775
Si Si4 0.188988 0.688031 0.765519
Si Si5 0.993799 0.187048 0.903063
Si Si6 0.704071 0.811406 0.913847
Si Si7 0.362801 0.689246 0.787166
Si Si8 0.952017 0.812208 0.223393
O O1 0.696340 0.254377 0.426339
O O2 0.617818 0.234929 0.604024
O O3 0.605731 0.000000 0.377488
O O4 0.478477 0.243052 0.073802
O O5 0.241471 0.500000 0.234976
O O6 0.329992 0.257518 0.535049
O O7 0.251017 0.259069 0.053671
O O8 0.112375 0.260209 0.058772
O O9 0.768558 0.500000 0.391634
O O10 0.885222 0.240556 0.594331
O O11 0.688929 0.262447 0.073367
O O12 0.184664 0.500000 0.757629
O O13 0.259249 0.736593 0.725096
O O14 0.060538 0.749962 0.524493
O O15 0.002430 0.000000 0.912053
O O16 0.968139 0.236211 0.053653
O O17 0.701866 0.000000 0.926595
O O18 0.830098 0.763189 0.075859
O O19 0.370781 0.500000 0.803340
O O20 0.953843 0.000000 0.230639
#
# Coordination Sequence:
#
# PCOD9130984 Si02
#       8
#     2   2   2   2   2   2   2   2
#     4  11  24  44  66  89 120 160 207 257 306 361
#     4  10  21  38  60  89 122 159 200 244 299 359
#     4  12  25  40  63  94 125 160 202 250 306 369
#     4  10  21  37  59  86 119 156 196 242 295 355
#     4  11  21  37  61  90 124 161 201 247 301 361
#     4  10  22  42  64  89 123 161 200 251 307 362
#     4  10  22  40  59  85 121 159 202 254 302 351
#     4  10  20  36  60  88 120 156 196 243 300 358
#
# _framework density 20.562573
#
# number of rings (size 3 to 8) (size 9 to 14) (size 15 to 20)
#    0.000    1.500    2.500    2.625    0.000    6.500 
#    0.000    1.250    0.000    0.000    0.000    0.000 
#    0.000    0.000    0.000    0.000    0.000    0.000 
#
# Total GULP energy -89445.820707 kJ/mol
# GULP energy per Si atom -5590.363794 kJ/mol
# Density = 2.051577 g / cm^3
# Si number density = 20.562573 Si / 1000 Ang^3
#
#
#
# Elastic Constant Matrix: (Units=GPa)
#
#
# Indices 1 2 3 4 5 6 
#
# 1 17.7303 -1.1738 4.0829 0.0000 -25.4858 0.0000
# 2 -1.1738 -0.7195 5.3459 0.0000 -10.9860 0.0000
# 3 4.0829 5.3459 127.0278 0.0000 -25.8680 0.0000
# 4 0.0000 0.0000 0.0000 29.0849 0.0000 2.7806
# 5 -25.4858 -10.9860 -25.8680 0.0000 42.7054 0.0000
# 6 0.0000 0.0000 0.0000 2.7806 0.0000 26.2882
#
#
#
# Elastic Compliance Matrix: (Units=1/GPa)
#
#
# Indices 1 2 3 4 5 6 
#
# 1 0.053399 -0.117914 0.004059 0.000000 0.003993 0.000000
# 2 -0.117914 -0.020440 -0.012263 0.000000 -0.083055 0.000000
# 3 0.004059 -0.012263 0.009250 0.000000 0.004871 0.000000
# 4 0.000000 0.000000 0.000000 0.034733 0.000000 -0.003674
# 5 0.003993 -0.083055 0.004871 0.000000 0.007383 0.000000
# 6 0.000000 0.000000 0.000000 -0.003674 0.000000 0.038428
#
#
# Mechanical properties :
#
#
# Convention : Reuss Voigt Hill
#
# Bulk Modulus (GPa) = -4.76130 17.83872 6.53871
# Shear Modulus (GPa) = 16.39452 28.66796 22.53124
#
# Velocity S-wave (km/s) = 2.82671 3.73792 3.31379
# Velocity P-wave (km/s) = 2.88673 5.22720 4.22237
#
# Compressibility (1/GPa) = -0.21002673
#
# Stress axis : x y z
#
# Youngs Moduli (GPa) = 18.72707 -48.92412 108.11092
#
# Poissons Ratio (x) = -5.76881 -0.43883
# Poissons Ratio (y) = 2.20817 1.32579
# Poissons Ratio (z) = -0.07601 -0.59997
#
# Static dielectric constant tensor:
#      x y z
#    x 1.733990 0.000000 -0.033010 
#    y 0.000000 1.692760 0.000000 
#    z -0.033010 0.000000 1.736240 
# 
# From -- ./inp_files/4292.got.cif
#   From: 2010.05.17/outbox.cif.g08.bks.cpg/sg6_3_cif.got.tgz:4292.got - 2010.06.03 19:42:10.
