data_PCOD9130536
_publ_section_title
;
Structure prediction by ZEFSAII (Michael W. Deem and Ramdas Pophale) SiO2 
 PCOD9130536
Probable space group: C 2
;
_chemical_formula_sum "Si O2"
_cell_formula_units_Z 20
_cell_length_a 23.561936
_cell_length_b 5.194884
_cell_length_c 13.712116
_cell_angle_alpha 90.000000
_cell_angle_beta 28.844971
_cell_angle_gamma 90.000000
_cell_volume 809.721764
_symmetry_space_group_name_H-M "C 2"
_symmetry_group_IT_number 5
_symmetry_cell_setting 'monoclinic'
loop_
_space_group_symop_operation_xyz
x,y,z
-x,y,-z
1/2+x,1/2+y,z
1/2-x,1/2+y,-z
loop_
_atom_site_type_symbol
_atom_site_label
_atom_site_fract_x
_atom_site_fract_y
_atom_site_fract_z
Si Si1 0.134503 0.066720 0.330948
Si Si2 0.282225 0.549545 0.095755
Si Si3 0.540849 0.608800 0.682113
Si Si4 0.365852 0.464180 0.191620
Si Si5 0.632750 0.103786 0.650706
O O1 0.210570 0.298418 0.171760
O O2 0.000000 0.057826 0.500000
O O3 0.122969 0.122451 0.464114
O O4 0.199293 0.797198 0.217735
O O5 0.324803 0.499194 0.143219
O O6 0.404535 0.597321 0.856845
O O7 0.570466 0.347513 0.694049
O O8 0.565742 0.855480 0.711732
O O9 0.367290 0.173430 0.234727
O O10 0.265713 0.593729 0.409649
O O11 0.500000 0.558271 0.000000
#
# Coordination Sequence:
#
# PCOD9130536 Si02
#       5
#     4   4   4   4   4
#     4  12  27  51  79 106 143 190 247 312 367 418
#     4  12  27  47  76 109 147 191 242 299 362 438
#     4  12  25  49  72 105 147 190 241 301 356 432
#     4  12  26  46  71 109 148 197 236 288 359 436
#     4  12  26  46  69 104 150 195 237 288 353 435
#
# _framework density 24.699842
#
# number of rings (size 3 to 8) (size 9 to 14) (size 15 to 20)
#    0.000    0.000    6.000    3.000    0.000    3.200 
#    0.000    0.000    0.000    0.000    0.000    0.000 
#    0.000    0.000    0.000    0.000    0.000    0.000 
#
# Total GULP energy -56078.975458 kJ/mol
# GULP energy per Si atom -5607.897546 kJ/mol
# Density = 2.464362 g / cm^3
# Si number density = 24.699842 Si / 1000 Ang^3
#
#
#
# Elastic Constant Matrix: (Units=GPa)
#
#
# Indices 1 2 3 4 5 6 
#
# 1 61.1372 38.8724 19.8225 -0.0037 -17.8255 -0.0013
# 2 38.8724 202.0720 64.8691 -0.0138 -33.6593 0.0020
# 3 19.8225 64.8691 179.1770 -0.0126 -36.9276 0.0003
# 4 -0.0037 -0.0138 -0.0126 37.5350 -0.0003 -8.1178
# 5 -17.8255 -33.6593 -36.9276 -0.0003 57.0484 0.0037
# 6 -0.0013 0.0020 0.0003 -8.1178 0.0037 9.0196
#
#
#
# Elastic Compliance Matrix: (Units=1/GPa)
#
#
# Indices 1 2 3 4 5 6 
#
# 1 0.019555 -0.002993 -0.000213 0.000001 0.004207 0.000003
# 2 -0.002993 0.006331 -0.001597 0.000001 0.001767 -0.000001
# 3 -0.000213 -0.001597 0.006895 0.000002 0.003454 0.000000
# 4 0.000001 0.000001 0.000002 0.033081 0.000001 0.029773
# 5 0.004207 0.001767 0.003454 0.000001 0.022122 -0.000008
# 6 0.000003 -0.000001 0.000000 0.029773 -0.000008 0.137667
#
#
# Mechanical properties :
#
#
# Convention : Reuss Voigt Hill
#
# Bulk Modulus (GPa) = 43.14841 76.61267 59.88054
# Shear Modulus (GPa) = 20.57773 41.97541 31.27657
#
# Velocity S-wave (km/s) = 2.88950 4.12687 3.56232
# Velocity P-wave (km/s) = 5.35157 7.33437 6.41998
#
# Compressibility (1/GPa) = 0.02317582
#
# Stress axis : x y z
#
# Youngs Moduli (GPa) = 51.13768 157.94310 145.03894
#
# Poissons Ratio (x) = 0.47268 0.03088
# Poissons Ratio (y) = 0.15304 0.23163
# Poissons Ratio (z) = 0.01089 0.25224
#
# Static dielectric constant tensor:
#      x y z
#    x 2.021190 0.000000 0.028240 
#    y 0.000000 1.935900 0.000000 
#    z 0.028240 0.000000 1.948360 
# 
# From -- ./inp_files/47753.got.cif
#   From: 2010.05.17/outbox.cif.g08.bks.cpg/sg5_24_cif.got.tgz:47753.got - 2010.06.03 18:56:24.
