data_PCOD9130382
_publ_section_title
;
Structure prediction by ZEFSAII (Michael W. Deem and Ramdas Pophale) SiO2 
 PCOD9130382
Probable space group: C 2
;
_chemical_formula_sum "Si O2"
_cell_formula_units_Z 28
_cell_length_a 13.860183
_cell_length_b 7.943269
_cell_length_c 14.043167
_cell_angle_alpha 90.000000
_cell_angle_beta 133.352047
_cell_angle_gamma 90.000000
_cell_volume 1124.234697
_symmetry_space_group_name_H-M "C 2"
_symmetry_group_IT_number 5
_symmetry_cell_setting 'monoclinic'
loop_
_space_group_symop_operation_xyz
x,y,z
-x,y,-z
1/2+x,1/2+y,z
1/2-x,1/2+y,-z
loop_
_atom_site_type_symbol
_atom_site_label
_atom_site_fract_x
_atom_site_fract_y
_atom_site_fract_z
Si Si1 0.588187 0.051650 0.388269
Si Si2 0.246032 0.991690 0.948649
Si Si3 0.218701 0.656774 0.290567
Si Si4 0.000000 0.524214 0.000000
Si Si5 0.713731 0.536100 0.303414
Si Si6 0.995538 0.186636 0.281766
Si Si7 0.301815 0.156764 0.178692
Si Si8 0.000000 0.070829 0.500000
O O1 0.658055 0.160729 0.354835
O O2 0.677600 0.064440 0.541580
O O3 0.443465 0.112477 0.317856
O O4 0.559526 0.871813 0.317875
O O5 0.392514 0.954883 0.003857
O O6 0.158666 0.146612 0.846526
O O7 0.173643 0.825086 0.864420
O O8 0.255694 0.025434 0.067059
O O9 0.342549 0.524500 0.375397
O O10 0.253640 0.850516 0.292972
O O11 0.103516 0.614627 0.139394
O O12 0.576533 0.563176 0.266749
O O13 0.708208 0.656152 0.207132
O O14 0.019759 0.152263 0.409768
#
# Coordination Sequence:
#
# PCOD9130382 Si02
#       8
#     4   4   4   2   4   4   4   2
#     4  12  24  50  76 115 157 205 260 327 395 473
#     4  12  29  51  75 114 151 209 266 330 398 479
#     4  12  26  48  80 112 158 211 257 324 395 470
#     4  12  28  50  78 106 154 206 260 322 400 464
#     4  12  27  47  79 115 156 207 265 323 399 474
#     4  12  27  45  78 113 156 205 264 318 391 472
#     4  12  29  49  78 109 156 205 266 332 398 472
#     4  12  22  46  74 112 152 206 260 316 384 460
#
# _framework density 24.905830999999999
#
# number of rings (size 3 to 8) (size 9 to 14) (size 15 to 20)
#    0.000    0.000    5.714    3.000    4.000    0.571 
#    5.143    0.000    0.000    0.000    0.000    0.000 
#    0.000    0.000    0.000    0.000    0.000    0.000 
#
# Total GULP energy -78118.985658 kJ/mol
# GULP energy per Si atom -5579.927547 kJ/mol
# Density = 2.484914 g / cm^3
# Si number density = 24.905831 Si / 1000 Ang^3
#
#
#
# Elastic Constant Matrix: (Units=GPa)
#
#
# Indices 1 2 3 4 5 6 
#
# 1 113.0729 13.7755 19.7996 0.0000 0.3842 0.0000
# 2 13.7755 63.1414 9.7551 0.0000 -5.9396 0.0000
# 3 19.7996 9.7551 122.4230 0.0000 4.4485 0.0000
# 4 0.0000 0.0000 0.0000 14.9587 0.0000 -0.1709
# 5 0.3842 -5.9396 4.4485 0.0000 46.6314 0.0000
# 6 0.0000 0.0000 0.0000 -0.1709 0.0000 24.5669
#
#
#
# Elastic Compliance Matrix: (Units=1/GPa)
#
#
# Indices 1 2 3 4 5 6 
#
# 1 0.009305 -0.001838 -0.001352 0.000000 -0.000182 0.000000
# 2 -0.001838 0.016620 -0.001108 0.000000 0.002238 0.000000
# 3 -0.001352 -0.001108 0.008510 0.000000 -0.000942 0.000000
# 4 0.000000 0.000000 0.000000 0.066856 0.000000 0.000465
# 5 -0.000182 0.002238 -0.000942 0.000000 0.021821 0.000000
# 6 0.000000 0.000000 0.000000 0.000465 0.000000 0.040708
#
#
# Mechanical properties :
#
#
# Convention : Reuss Voigt Hill
#
# Bulk Modulus (GPa) = 38.70282 42.81085 40.75683
# Shear Modulus (GPa) = 27.61972 34.25190 30.93581
#
# Velocity S-wave (km/s) = 3.33373 3.71247 3.52818
# Velocity P-wave (km/s) = 5.51287 5.96682 5.74433
#
# Compressibility (1/GPa) = 0.02583791
#
# Stress axis : x y z
#
# Youngs Moduli (GPa) = 107.46738 60.16748 117.51467
#
# Poissons Ratio (x) = 0.11061 0.15886
# Poissons Ratio (y) = 0.19756 0.13025
# Poissons Ratio (z) = 0.14528 0.06669
#
# Static dielectric constant tensor:
#      x y z
#    x 2.018930 0.000000 0.048600 
#    y 0.000000 2.016280 0.000000 
#    z 0.048600 0.000000 1.928190 
# 
# From -- ./inp_files/54349.got.cif
#   From: 2010.05.17/outbox.cif.g08.bks.cpg/sg5_28_cif.got.tgz:54349.got - 2010.06.03 18:56:24.
