data_PCOD9130599
_publ_section_title
;
Structure prediction by ZEFSAII (Michael W. Deem and Ramdas Pophale) SiO2 
 PCOD9130599
Probable space group: C 2
;
_chemical_formula_sum "Si O2"
_cell_formula_units_Z 14
_cell_length_a 5.080792
_cell_length_b 23.343892
_cell_length_c 5.118244
_cell_angle_alpha 90.000000
_cell_angle_beta 85.835818
_cell_angle_gamma 90.000000
_cell_volume 605.449107
_symmetry_space_group_name_H-M "C 2"
_symmetry_group_IT_number 5
_symmetry_cell_setting 'monoclinic'
loop_
_space_group_symop_operation_xyz
x,y,z
-x,y,-z
1/2+x,1/2+y,z
1/2-x,1/2+y,-z
loop_
_atom_site_type_symbol
_atom_site_label
_atom_site_fract_x
_atom_site_fract_y
_atom_site_fract_z
Si Si1 0.500000 0.530081 0.000000
Si Si2 0.000000 0.608908 0.000000
Si Si3 0.500000 0.876556 0.500000
Si Si4 0.500000 0.187725 0.500000
Si Si5 0.776682 0.272520 0.827744
Si Si6 0.500000 0.452742 0.500000
O O1 0.253663 0.569361 0.937144
O O2 0.569211 0.491112 0.745934
O O3 0.940928 0.647976 0.752231
O O4 0.376578 0.833862 0.722614
O O5 0.256835 0.914555 0.417553
O O6 0.721277 0.231022 0.589299
O O7 0.500000 0.278050 0.000000
O O8 0.000000 0.247849 0.000000
#
# Coordination Sequence:
#
# PCOD9130599 Si02
#       6
#     2   2   2   2   4   2
#     4  12  28  52  73 114 141 200 268 324 370 456
#     4  12  28  48  81 104 155 198 258 320 388 438
#     4  12  28  45  79 112 155 203 248 310 390 456
#     4  12  27  51  76 118 152 207 245 316 386 462
#     4  12  27  48  76 118 164 201 253 309 373 488
#     4  12  27  50  79 106 153 198 257 322 386 438
#
# _framework density 23.123328000000001
#
# number of rings (size 3 to 8) (size 9 to 14) (size 15 to 20)
#    0.000    0.000    1.429    7.714    8.000    2.286 
#    0.000    0.000    0.000    0.000    0.000    0.000 
#    0.000    0.000    0.000    0.000    0.000    0.000 
#
# Total GULP energy -39252.037957 kJ/mol
# GULP energy per Si atom -5607.433994 kJ/mol
# Density = 2.307070 g / cm^3
# Si number density = 23.123328 Si / 1000 Ang^3
#
#
#
# Elastic Constant Matrix: (Units=GPa)
#
#
# Indices 1 2 3 4 5 6 
#
# 1 182.2980 59.6191 40.8645 0.0000 7.6060 0.0000
# 2 59.6191 128.2850 57.7733 0.0000 3.0938 0.0000
# 3 40.8645 57.7733 158.5821 0.0000 9.0798 0.0000
# 4 0.0000 0.0000 0.0000 10.7925 0.0000 -23.4579
# 5 7.6060 3.0938 9.0798 0.0000 47.2551 0.0000
# 6 0.0000 0.0000 0.0000 -23.4579 0.0000 21.6782
#
#
#
# Elastic Compliance Matrix: (Units=1/GPa)
#
#
# Indices 1 2 3 4 5 6 
#
# 1 0.006558 -0.002737 -0.000650 0.000000 -0.000751 0.000000
# 2 -0.002737 0.010467 -0.003129 0.000000 0.000356 0.000000
# 3 -0.000650 -0.003129 0.007680 0.000000 -0.001166 0.000000
# 4 0.000000 0.000000 0.000000 -0.068535 0.000000 -0.074161
# 5 -0.000751 0.000356 -0.001166 0.000000 0.021483 0.000000
# 6 0.000000 0.000000 0.000000 -0.074161 0.000000 -0.034120
#
#
# Mechanical properties :
#
#
# Convention : Reuss Voigt Hill
#
# Bulk Modulus (GPa) = 85.65585 87.29763 86.47674
# Shear Modulus (GPa) = -126.43694 36.67239 -44.88227
#
# Velocity S-wave (km/s) = -7.40257 3.98672 -4.41045
# Velocity P-wave (km/s) = 5.99505 7.68290 3.39752
#
# Compressibility (1/GPa) = 0.01167463
#
# Stress axis : x y z
#
# Youngs Moduli (GPa) = 152.49525 95.53452 130.21091
#
# Poissons Ratio (x) = 0.26146 0.08460
# Poissons Ratio (y) = 0.41736 0.40737
# Poissons Ratio (z) = 0.09908 0.29889
#
# Static dielectric constant tensor:
#      x y z
#    x 1.839550 0.000000 -0.020450 
#    y 0.000000 1.851330 0.000000 
#    z -0.020450 0.000000 1.837810 
# 
# From -- ./inp_files/432.got.cif
#   From: 2010.05.17/outbox.cif.g08.bks.cpg/sg5_1_cif.got.tgz:432.got - 2010.06.03 18:56:24.
