data_PCOD9130806
_publ_section_title
;
Structure prediction by ZEFSAII (Michael W. Deem and Ramdas Pophale) SiO2 
 PCOD9130806
Probable space group: P M
;
_chemical_formula_sum "Si O2"
_cell_formula_units_Z 14
_cell_length_a 7.650961
_cell_length_b 13.399078
_cell_length_c 7.138330
_cell_angle_alpha 90.000000
_cell_angle_beta 61.796218
_cell_angle_gamma 90.000000
_cell_volume 644.907791
_symmetry_space_group_name_H-M "P M"
_symmetry_group_IT_number 6
_symmetry_cell_setting 'monoclinic'
loop_
_space_group_symop_operation_xyz
x,y,z
x,-y,z
loop_
_atom_site_type_symbol
_atom_site_label
_atom_site_fract_x
_atom_site_fract_y
_atom_site_fract_z
Si Si1 0.630240 0.616168 0.450360
Si Si2 0.274427 0.195347 0.948716
Si Si3 0.045443 0.115102 0.378091
Si Si4 0.690475 0.759921 0.743556
Si Si5 0.291814 0.747038 0.501167
Si Si6 0.093098 0.394185 0.122988
Si Si7 0.962687 0.610992 0.764245
O O1 0.567057 0.500000 0.469235
O O2 0.603989 0.667553 0.664932
O O3 0.502712 0.691163 0.385900
O O4 0.866399 0.618583 0.302711
O O5 0.502649 0.170970 0.879219
O O6 0.260672 0.210881 0.730990
O O7 0.108991 0.126230 0.128152
O O8 0.228661 0.299478 0.078925
O O9 0.230161 0.162848 0.399073
O O10 0.853326 0.178658 0.541177
O O11 0.015112 0.000000 0.439770
O O12 0.800374 0.698862 0.850830
O O13 0.132605 0.657809 0.548142
O O14 0.172363 0.500000 0.151861
O O15 0.063303 0.399345 0.913942
O O16 0.893925 0.500000 0.741334
#
# Coordination Sequence:
#
# PCOD9130806 Si02
#       7
#     2   2   2   2   2   2   2
#     4  10  18  33  58  88 122 157 187 230 286 350
#     4  10  21  40  62  85 118 154 191 242 298 346
#     4  11  24  43  62  84 115 151 201 257 298 338
#     4  10  21  36  60  87 116 151 197 243 288 356
#     4   9  21  37  59  86 119 156 196 239 287 355
#     4   9  18  32  54  85 122 159 193 226 281 354
#     4   9  17  31  51  81 118 156 189 231 284 345
#
# _framework density 21.708528000000001
#
# number of rings (size 3 to 8) (size 9 to 14) (size 15 to 20)
#    0.000    2.286    1.429    0.857    2.000    5.143 
#    0.000    2.857    0.000    0.000    0.000    0.000 
#    0.000    0.000    0.000    0.000    0.000    0.000 
#
# Total GULP energy -77991.192423 kJ/mol
# GULP energy per Si atom -5570.799459 kJ/mol
# Density = 2.165912 g / cm^3
# Si number density = 21.708528 Si / 1000 Ang^3
#
#
#
# Elastic Constant Matrix: (Units=GPa)
#
#
# Indices 1 2 3 4 5 6 
#
# 1 52.3875 22.1119 10.4626 0.0000 -11.9243 0.0000
# 2 22.1119 105.3518 23.9816 0.0000 -1.4819 0.0000
# 3 10.4626 23.9816 79.4521 0.0000 -8.9809 0.0000
# 4 0.0000 0.0000 0.0000 -3.1135 0.0000 2.6265
# 5 -11.9243 -1.4819 -8.9809 0.0000 26.1119 0.0000
# 6 0.0000 0.0000 0.0000 2.6265 0.0000 20.2046
#
#
#
# Elastic Compliance Matrix: (Units=1/GPa)
#
#
# Indices 1 2 3 4 5 6 
#
# 1 0.023506 -0.004670 -0.000523 0.000000 0.010289 0.000000
# 2 -0.004670 0.011126 -0.003031 0.000000 -0.002544 0.000000
# 3 -0.000523 -0.003031 0.014070 0.000000 0.004429 0.000000
# 4 0.000000 0.000000 0.000000 -0.289437 0.000000 0.037626
# 5 0.010289 -0.002544 0.004429 0.000000 0.044374 0.000000
# 6 0.000000 0.000000 0.000000 0.037626 0.000000 0.044602
#
#
# Mechanical properties :
#
#
# Convention : Reuss Voigt Hill
#
# Bulk Modulus (GPa) = 31.00219 38.92262 34.96240
# Shear Modulus (GPa) = -40.14189 20.68293 -9.72948
#
# Velocity S-wave (km/s) = -4.30482 3.09002 -2.11934
# Velocity P-wave (km/s) = 3.22436 5.54072 3.18615
#
# Compressibility (1/GPa) = 0.03225578
#
# Stress axis : x y z
#
# Youngs Moduli (GPa) = 42.54224 89.87711 71.07077
#
# Poissons Ratio (x) = 0.41971 0.03715
# Poissons Ratio (y) = 0.19867 0.21541
# Poissons Ratio (z) = 0.02224 0.27241
#
# Static dielectric constant tensor:
#      x y z
#    x 1.844320 0.000000 0.008270 
#    y 0.000000 1.819350 0.000000 
#    z 0.008270 0.000000 1.909830 
# 
# From -- ./inp_files/2820.got.cif
#   From: 2010.05.17/outbox.cif.g08.bks.cpg/sg6_2_cif.got.tgz:2820.got - 2010.06.03 19:42:10.
