data_PCOD9130458
_publ_section_title
;
Structure prediction by ZEFSAII (Michael W. Deem and Ramdas Pophale) SiO2 
 PCOD9130458
Probable space group: C 2
;
_chemical_formula_sum "Si O2"
_cell_formula_units_Z 16
_cell_length_a 4.927598
_cell_length_b 20.391041
_cell_length_c 8.390526
_cell_angle_alpha 90.000000
_cell_angle_beta 122.183969
_cell_angle_gamma 90.000000
_cell_volume 713.526104
_symmetry_space_group_name_H-M "C 2"
_symmetry_group_IT_number 5
_symmetry_cell_setting 'monoclinic'
loop_
_space_group_symop_operation_xyz
x,y,z
-x,y,-z
1/2+x,1/2+y,z
1/2-x,1/2+y,-z
loop_
_atom_site_type_symbol
_atom_site_label
_atom_site_fract_x
_atom_site_fract_y
_atom_site_fract_z
Si Si1 0.303596 0.422260 0.208219
Si Si2 0.000000 0.723330 0.000000
Si Si3 0.381843 0.561345 0.629766
Si Si4 0.885514 0.332694 0.291274
Si Si5 0.000000 0.136278 0.000000
O O1 0.445080 0.490894 0.308265
O O2 0.582475 0.381248 0.210868
O O3 0.165534 0.375260 0.301134
O O4 0.000000 0.434935 0.000000
O O5 0.726423 0.770448 0.843768
O O6 0.819677 0.679439 0.074157
O O7 0.500000 0.593716 0.500000
O O8 0.464433 0.596386 0.823382
O O9 0.000000 0.553106 0.500000
O O10 0.000000 0.311347 0.500000
#
# Coordination Sequence:
#
# PCOD9130458 Si02
#       5
#     4   2   4   4   2
#     4  12  24  44  75 108 147 183 228 300 379 436
#     4  12  26  49  72 105 146 196 252 294 352 428
#     4  12  28  48  75 111 150 191 243 303 370 440
#     4  12  25  45  73 108 142 186 235 299 365 431
#     4  12  30  49  76 103 148 202 252 298 354 426
#
# _framework density 22.423846999999999
#
# number of rings (size 3 to 8) (size 9 to 14) (size 15 to 20)
#    0.000    0.000    2.500    7.500    8.750    3.000 
#    0.000    0.000    0.000    0.000    0.000    0.000 
#    0.000    0.000    0.000    0.000    0.000    0.000 
#
# Total GULP energy -44820.561665 kJ/mol
# GULP energy per Si atom -5602.570208 kJ/mol
# Density = 2.237281 g / cm^3
# Si number density = 22.423847 Si / 1000 Ang^3
#
#
#
# Elastic Constant Matrix: (Units=GPa)
#
#
# Indices 1 2 3 4 5 6 
#
# 1 147.7794 52.0404 39.7788 0.0000 -13.3859 0.0000
# 2 52.0404 109.6014 54.0531 0.0000 -18.2266 0.0000
# 3 39.7788 54.0531 160.1102 0.0000 -13.4741 0.0000
# 4 0.0000 0.0000 0.0000 6.8338 0.0000 -1.0773
# 5 -13.3859 -18.2266 -13.4741 0.0000 49.3152 0.0000
# 6 0.0000 0.0000 0.0000 -1.0773 0.0000 40.5271
#
#
#
# Elastic Compliance Matrix: (Units=1/GPa)
#
#
# Indices 1 2 3 4 5 6 
#
# 1 0.008252 -0.003374 -0.000847 0.000000 0.000761 0.000000
# 2 -0.003374 0.012812 -0.003240 0.000000 0.002934 0.000000
# 3 -0.000847 -0.003240 0.007605 0.000000 0.000650 0.000000
# 4 0.000000 0.000000 0.000000 0.146948 0.000000 0.003906
# 5 0.000761 0.002934 0.000650 0.000000 0.021747 0.000000
# 6 0.000000 0.000000 0.000000 0.003906 0.000000 0.024779
#
#
# Mechanical properties :
#
#
# Convention : Reuss Voigt Hill
#
# Bulk Modulus (GPa) = 72.74574 78.80396 75.77485
# Shear Modulus (GPa) = 20.69142 37.44311 29.06726
#
# Velocity S-wave (km/s) = 3.04096 4.09074 3.60427
# Velocity P-wave (km/s) = 6.69639 7.58495 7.15447
#
# Compressibility (1/GPa) = 0.01374651
#
# Stress axis : x y z
#
# Youngs Moduli (GPa) = 121.18439 78.05318 131.49670
#
# Poissons Ratio (x) = 0.26333 0.11139
# Poissons Ratio (y) = 0.40884 0.42607
# Poissons Ratio (z) = 0.10266 0.25290
#
# Static dielectric constant tensor:
#      x y z
#    x 1.788920 0.000000 -0.035820 
#    y 0.000000 1.817280 0.000000 
#    z -0.035820 0.000000 1.853420 
# 
# From -- ./inp_files/12167.got.cif
#   From: 2010.05.17/outbox.cif.g08.bks.cpg/sg5_7_cif.got.tgz:12167.got - 2010.06.03 18:56:24.
