data_PCOD9130464
_publ_section_title
;
Structure prediction by ZEFSAII (Michael W. Deem and Ramdas Pophale) SiO2 
 PCOD9130464
Probable space group: C 2
;
_chemical_formula_sum "Si O2"
_cell_formula_units_Z 18
_cell_length_a 11.390614
_cell_length_b 8.524000
_cell_length_c 7.401484
_cell_angle_alpha 90.000000
_cell_angle_beta 89.246449
_cell_angle_gamma 90.000000
_cell_volume 718.574529
_symmetry_space_group_name_H-M "C 2"
_symmetry_group_IT_number 5
_symmetry_cell_setting 'monoclinic'
loop_
_space_group_symop_operation_xyz
x,y,z
-x,y,-z
1/2+x,1/2+y,z
1/2-x,1/2+y,-z
loop_
_atom_site_type_symbol
_atom_site_label
_atom_site_fract_x
_atom_site_fract_y
_atom_site_fract_z
Si Si1 0.064080 0.489600 0.284260
Si Si2 0.755800 0.701353 0.912435
Si Si3 0.000000 0.236554 0.000000
Si Si4 0.251505 0.936328 0.425915
Si Si5 0.643502 0.237910 0.708650
O O1 0.171186 0.554856 0.161377
O O2 0.008445 0.350600 0.172429
O O3 0.125947 0.428470 0.464382
O O4 0.976777 0.638782 0.297907
O O5 0.624406 0.653453 0.973679
O O6 0.824560 0.766813 0.085104
O O7 0.752776 0.826454 0.749030
O O8 0.152766 0.881926 0.570393
O O9 0.255453 0.116729 0.364803
#
# Coordination Sequence:
#
# PCOD9130464 Si02
#       5
#     4   4   2   4   4
#     4  12  24  49  75 110 154 207 245 316 385 457
#     4  12  25  44  75 114 144 202 257 309 381 453
#     4  12  24  44  80 102 156 204 244 312 388 448
#     4  12  26  44  81 113 147 203 262 300 388 459
#     4  12  26  47  79 112 155 205 254 313 389 456
#
# _framework density 25.049589999999998
#
# number of rings (size 3 to 8) (size 9 to 14) (size 15 to 20)
#    0.000    0.000    8.889    0.667    0.000    0.000 
#    0.000    6.667    9.778    0.000    0.000    0.000 
#    0.000    0.000    0.000    0.000    0.000    0.000 
#
# Total GULP energy -50398.380740 kJ/mol
# GULP energy per Si atom -5599.820082 kJ/mol
# Density = 2.499258 g / cm^3
# Si number density = 25.049590 Si / 1000 Ang^3
#
#
#
# Elastic Constant Matrix: (Units=GPa)
#
#
# Indices 1 2 3 4 5 6 
#
# 1 138.6387 20.9473 40.8127 0.0000 -2.9779 0.0000
# 2 20.9473 48.4620 20.2474 0.0000 5.7862 0.0000
# 3 40.8127 20.2474 180.8261 0.0000 36.4130 0.0000
# 4 0.0000 0.0000 0.0000 45.9108 0.0000 -12.0458
# 5 -2.9779 5.7862 36.4130 0.0000 49.8329 0.0000
# 6 0.0000 0.0000 0.0000 -12.0458 0.0000 52.2055
#
#
#
# Elastic Compliance Matrix: (Units=1/GPa)
#
#
# Indices 1 2 3 4 5 6 
#
# 1 0.008310 -0.003032 -0.002001 0.000000 0.002311 0.000000
# 2 -0.003032 0.022786 -0.001522 0.000000 -0.001715 0.000000
# 3 -0.002001 -0.001522 0.007200 0.000000 -0.005204 0.000000
# 4 0.000000 0.000000 0.000000 0.023185 0.000000 0.005350
# 5 0.002311 -0.001715 -0.005204 0.000000 0.024207 0.000000
# 6 0.000000 0.000000 0.000000 0.005350 0.000000 0.020389
#
#
# Mechanical properties :
#
#
# Convention : Reuss Voigt Hill
#
# Bulk Modulus (GPa) = 39.70447 59.10461 49.40454
# Shear Modulus (GPa) = 39.19040 48.65113 43.92076
#
# Velocity S-wave (km/s) = 3.95968 4.41181 4.19185
# Velocity P-wave (km/s) = 6.06549 7.04261 6.57224
#
# Compressibility (1/GPa) = 0.02518608
#
# Stress axis : x y z
#
# Youngs Moduli (GPa) = 120.33865 43.88728 138.88369
#
# Poissons Ratio (x) = 0.13305 0.27797
# Poissons Ratio (y) = 0.36482 0.21135
# Poissons Ratio (z) = 0.24085 0.06679
#
# Static dielectric constant tensor:
#      x y z
#    x 2.015720 0.000000 -0.056500 
#    y 0.000000 1.964360 0.000000 
#    z -0.056500 0.000000 2.066360 
# 
# From -- ./inp_files/18036.got.cif
#   From: 2010.05.17/outbox.cif.g08.bks.cpg/sg5_10_cif.got.tgz:18036.got - 2010.06.03 18:56:24.
