data_PCOD9130133
_publ_section_title
;
Structure prediction by ZEFSAII (Michael W. Deem and Ramdas Pophale) SiO2 
 PCOD9130133
Probable space group: C 2
;
_chemical_formula_sum "Si O2"
_cell_formula_units_Z 20
_cell_length_a 21.702622
_cell_length_b 5.270769
_cell_length_c 11.416527
_cell_angle_alpha 90.000000
_cell_angle_beta 35.708752
_cell_angle_gamma 90.000000
_cell_volume 762.226486
_symmetry_space_group_name_H-M "C 2"
_symmetry_group_IT_number 5
_symmetry_cell_setting 'monoclinic'
loop_
_space_group_symop_operation_xyz
x,y,z
-x,y,-z
1/2+x,1/2+y,z
1/2-x,1/2+y,-z
loop_
_atom_site_type_symbol
_atom_site_label
_atom_site_fract_x
_atom_site_fract_y
_atom_site_fract_z
Si Si1 0.520217 0.340100 0.833543
Si Si2 0.652897 0.843552 0.610258
Si Si3 0.738041 0.485540 0.315853
Si Si4 0.995824 0.806395 0.381107
Si Si5 0.813149 0.482555 0.945222
O O1 0.588357 0.591765 0.733842
O O2 0.452405 0.403808 0.821476
O O3 0.575916 0.076864 0.712869
O O4 0.500000 0.289653 0.000000
O O5 0.716399 0.775575 0.393360
O O6 0.716937 0.877144 0.631739
O O7 0.629266 0.347470 0.449272
O O8 0.811720 0.467577 0.089616
O O9 0.000000 0.942042 0.500000
O O10 0.069461 0.555027 0.282926
O O11 0.762310 0.222582 0.973967
#
# Coordination Sequence:
#
# PCOD9130133 Si02
#       5
#     4   4   4   4   4
#     4  11  25  47  75 111 152 200 259 318 382 472
#     4  11  25  44  77 110 149 202 248 322 390 452
#     4  11  25  49  80 116 155 202 263 320 394 471
#     4  11  25  49  74 115 151 204 256 318 390 461
#     4  12  29  50  77 111 160 209 259 321 389 470
#
# _framework density 26.23892
#
# number of rings (size 3 to 8) (size 9 to 14) (size 15 to 20)
#    0.000    0.800    2.000    4.200    2.800    8.000 
#    0.000    0.000    0.000    2.400    0.000    0.000 
#    0.000    0.000    0.000    0.000    0.000    0.000 
#
# Total GULP energy -55745.722263 kJ/mol
# GULP energy per Si atom -5574.572226 kJ/mol
# Density = 2.617920 g / cm^3
# Si number density = 26.238920 Si / 1000 Ang^3
#
#
#
# Elastic Constant Matrix: (Units=GPa)
#
#
# Indices 1 2 3 4 5 6 
#
# 1 169.2874 30.3571 42.0595 -0.0045 25.8604 0.0014
# 2 30.3571 135.7357 20.4720 -0.0220 -8.4338 0.0095
# 3 42.0595 20.4720 110.8107 -0.0094 29.7678 0.0048
# 4 -0.0045 -0.0220 -0.0094 36.6959 0.0041 -5.9955
# 5 25.8604 -8.4338 29.7678 0.0041 65.1734 0.0004
# 6 0.0014 0.0095 0.0048 -5.9955 0.0004 21.8674
#
#
#
# Elastic Compliance Matrix: (Units=1/GPa)
#
#
# Indices 1 2 3 4 5 6 
#
# 1 0.006930 -0.001409 -0.001804 0.000000 -0.002108 0.000001
# 2 -0.001409 0.008065 -0.001580 0.000004 0.002324 -0.000002
# 3 -0.001804 -0.001580 0.011243 0.000002 -0.004624 -0.000001
# 4 0.000000 0.000004 0.000002 0.028529 -0.000002 0.007822
# 5 -0.002108 0.002324 -0.004624 -0.000002 0.018593 -0.000001
# 6 0.000001 -0.000002 -0.000001 0.007822 -0.000001 0.047875
#
#
# Mechanical properties :
#
#
# Convention : Reuss Voigt Hill
#
# Bulk Modulus (GPa) = 60.04695 66.84570 63.44632
# Shear Modulus (GPa) = 36.66495 46.27702 41.47099
#
# Velocity S-wave (km/s) = 3.74217 4.20417 3.97988
# Velocity P-wave (km/s) = 6.45028 7.00699 6.73439
#
# Compressibility (1/GPa) = 0.01665363
#
# Stress axis : x y z
#
# Youngs Moduli (GPa) = 144.30151 123.99271 88.94422
#
# Poissons Ratio (x) = 0.17468 0.16043
# Poissons Ratio (y) = 0.20330 0.14050
# Poissons Ratio (z) = 0.26028 0.19586
#
# Static dielectric constant tensor:
#      x y z
#    x 2.401600 0.000000 0.101650 
#    y 0.000000 2.122270 0.000000 
#    z 0.101650 0.000000 2.373690 
# 
# From -- ./inp_files/46746.got.cif
#   From: 2010.05.17/outbox.cif.g08.bks.cpg/sg5_24_cif.got.tgz:46746.got - 2010.06.03 18:56:24.
