data_PCOD9130730
_publ_section_title
;
Structure prediction by ZEFSAII (Michael W. Deem and Ramdas Pophale) SiO2 
 PCOD9130730
Probable space group: C 2
;
_chemical_formula_sum "Si O2"
_cell_formula_units_Z 16
_cell_length_a 15.000000
_cell_length_b 9.000000
_cell_length_c 12.000000
_cell_angle_alpha 90.000000
_cell_angle_beta 90.000000
_cell_angle_gamma 90.000000
_cell_volume 1620.000000
_symmetry_space_group_name_H-M "C 2"
_symmetry_group_IT_number 5
_symmetry_cell_setting 'monoclinic'
loop_
_space_group_symop_operation_xyz
x,y,z
-x,y,-z
1/2+x,1/2+y,z
1/2-x,1/2+y,-z
loop_
_atom_site_type_symbol
_atom_site_label
_atom_site_fract_x
_atom_site_fract_y
_atom_site_fract_z
Si Si1 0.807236 0.006890 0.129771
Si Si2 0.397920 0.424248 0.471725
Si Si3 0.090199 0.903781 0.061766
Si Si4 0.066024 0.476083 0.823448
Si Si5 0.561359 0.671653 0.704386
Si Si6 0.366460 0.541344 0.706028
Si Si7 0.317196 0.223007 0.279563
Si Si8 0.115940 0.557841 0.062888
O O1 0.884286 0.092418 0.195660
O O2 0.707230 0.064198 0.131103
O O3 0.805957 0.846434 0.185345
O O4 0.832990 0.992207 0.001540
O O5 0.500000 0.378159 0.500000
O O6 0.403447 0.582322 0.404563
O O7 0.355730 0.450664 0.591850
O O8 0.345943 0.308642 0.392806
O O9 0.094456 0.729135 0.038189
O O10 0.105112 0.936371 0.191045
O O11 0.000000 0.956143 0.000000
O O12 0.077911 0.342001 0.736509
O O13 0.101957 0.619802 0.760014
O O14 0.963878 0.490655 0.863481
O O15 0.117748 0.471095 0.943720
O O16 0.454852 0.645000 0.699481
O O17 0.274772 0.631206 0.718581
#
# Coordination Sequence:
#
# PCOD9130730 Si02
#       8
#     4   4   4   4   4   4   4   4
#     4  11  23  40  62  95 133 172 217 260 332 392
#     4   9  23  46  68  91 129 175 226 277 328 395
#     4  12  22  41  66  99 134 177 217 269 331 403
#     4  11  23  40  62  96 135 173 214 276 328 381
#     4  10  23  42  66  93 131 172 217 271 327 388
#     4  11  24  43  70  95 133 175 224 272 336 389
#     4  11  23  44  67  95 131 174 223 273 326 399
#     4  11  24  37  61  97 143 164 221 271 323 401
#
# _framework density 9.8765429999999999
#
# number of rings (size 3 to 8) (size 9 to 14) (size 15 to 20)
#    0.000    1.250    3.750    1.500    7.000    3.000 
#    2.250    3.125    0.000    0.000    0.000    0.000 
#    0.000    0.000    0.000    0.000    0.000    0.000 
#
# Total GULP energy -89209.205241 kJ/mol
# GULP energy per Si atom -5575.575328 kJ/mol
# Density = 0.985406 g / cm^3
# Si number density = 9.876543 Si / 1000 Ang^3
#
#
#
# Elastic Constant Matrix: (Units=GPa)
#
#
# Indices 1 2 3 4 5 6 
#
# 1 76.4683 32.4800 27.4671 0.0000 14.4221 0.0000
# 2 32.4800 38.2473 32.2994 0.0000 5.8121 0.0000
# 3 27.4671 32.2994 121.7294 0.0000 14.1948 0.0000
# 4 0.0000 0.0000 0.0000 18.6207 0.0000 10.3951
# 5 14.4221 5.8121 14.1948 0.0000 19.7348 0.0000
# 6 0.0000 0.0000 0.0000 10.3951 0.0000 23.4640
#
#
#
# Elastic Compliance Matrix: (Units=1/GPa)
#
#
# Indices 1 2 3 4 5 6 
#
# 1 0.022793 -0.018518 0.001175 0.000000 -0.012049 0.000000
# 2 -0.018518 0.049005 -0.009518 0.000000 0.005946 0.000000
# 3 0.001175 -0.009518 0.011187 0.000000 -0.006102 0.000000
# 4 0.000000 0.000000 0.000000 0.071350 0.000000 -0.031610
# 5 -0.012049 0.005946 -0.006102 0.000000 0.062115 0.000000
# 6 0.000000 0.000000 0.000000 -0.031610 0.000000 0.056622
#
#
# Mechanical properties :
#
#
# Convention : Reuss Voigt Hill
#
# Bulk Modulus (GPa) = 34.17106 46.77089 40.47097
# Shear Modulus (GPa) = 14.85672 21.97714 18.41693
#
# Velocity S-wave (km/s) = 2.74546 3.33917 3.05676
# Velocity P-wave (km/s) = 5.23323 6.21256 5.74381
#
# Compressibility (1/GPa) = 0.02926453
#
# Stress axis : x y z
#
# Youngs Moduli (GPa) = 43.87322 20.40595 89.39133
#
# Poissons Ratio (x) = 0.37787 -0.10507
# Poissons Ratio (y) = 0.81243 0.85082
# Poissons Ratio (z) = -0.05157 0.19422
#
# Static dielectric constant tensor:
#      x y z
#    x 1.716450 0.000000 -0.036950 
#    y 0.000000 1.720170 0.000000 
#    z -0.036950 0.000000 1.690420 
# 
# From -- ./inp_files/41955.got.cif
#   From: 2010.05.17/outbox.ucp.g08.bks.cvg/sg5_21_cif.got.tgz:41955.got - 2010.06.11 12:53:14.
