data_PCOD9130031
_publ_section_title
;
Structure prediction by ZEFSAII (Michael W. Deem and Ramdas Pophale) SiO2 
 PCOD9130031
Probable space group: C 2
;
_chemical_formula_sum "Si O2"
_cell_formula_units_Z 20
_cell_length_a 5.188285
_cell_length_b 28.272133
_cell_length_c 5.634102
_cell_angle_alpha 90.000000
_cell_angle_beta 83.837601
_cell_angle_gamma 90.000000
_cell_volume 821.656529
_symmetry_space_group_name_H-M "C 2"
_symmetry_group_IT_number 5
_symmetry_cell_setting 'monoclinic'
loop_
_space_group_symop_operation_xyz
x,y,z
-x,y,-z
1/2+x,1/2+y,z
1/2-x,1/2+y,-z
loop_
_atom_site_type_symbol
_atom_site_label
_atom_site_fract_x
_atom_site_fract_y
_atom_site_fract_z
Si Si1 0.631600 0.150580 0.744905
Si Si2 0.000000 0.214020 0.500000
Si Si3 0.500000 0.280431 0.500000
Si Si4 0.724331 0.954247 0.653300
Si Si5 0.736438 0.356302 0.128902
Si Si6 0.647586 0.551913 0.227469
O O1 0.500000 0.160542 0.500000
O O2 0.911181 0.176495 0.709306
O O3 0.650980 0.094067 0.755999
O O4 0.500000 0.167992 0.000000
O O5 0.752941 0.248418 0.511130
O O6 0.582456 0.315973 0.283823
O O7 0.500000 0.970375 0.500000
O O8 0.652106 0.902173 0.748499
O O9 0.000000 0.947469 0.500000
O O10 0.757055 0.998354 0.825065
O O11 0.500000 0.377809 0.000000
O O12 0.000000 0.333899 0.000000
O O13 0.500000 0.550470 0.500000
O O14 0.500000 0.565437 0.000000
#
# Coordination Sequence:
#
# PCOD9130031 Si02
#       6
#     4   2   2   4   4   4
#     4  12  27  50  81 116 160 208 262 325 396 468
#     4  12  28  52  77 112 149 206 262 336 396 468
#     4  12  28  52  75 110 153 192 264 326 398 460
#     4  11  24  45  75 110 158 203 253 314 381 464
#     4  12  26  46  78 112 151 203 255 319 391 465
#     4  11  24  45  77 116 162 208 259 315 386 467
#
# _framework density 24.341075
#
# number of rings (size 3 to 8) (size 9 to 14) (size 15 to 20)
#    0.000    0.400    3.000    4.800    1.400    6.400 
#    3.600    0.000    0.000    0.000    0.000    0.000 
#    0.000    0.000    0.000    0.000    0.000    0.000 
#
# Total GULP energy -55824.287227 kJ/mol
# GULP energy per Si atom -5582.428723 kJ/mol
# Density = 2.428567 g / cm^3
# Si number density = 24.341075 Si / 1000 Ang^3
#
#
#
# Elastic Constant Matrix: (Units=GPa)
#
#
# Indices 1 2 3 4 5 6 
#
# 1 135.9753 15.3491 52.0720 0.0000 -22.4733 0.0000
# 2 15.3491 126.3489 12.3694 0.0000 -9.5031 0.0000
# 3 52.0720 12.3694 123.6507 0.0000 -13.9439 0.0000
# 4 0.0000 0.0000 0.0000 59.8011 0.0000 18.5463
# 5 -22.4733 -9.5031 -13.9439 0.0000 59.8805 0.0000
# 6 0.0000 0.0000 0.0000 18.5463 0.0000 36.3757
#
#
#
# Elastic Compliance Matrix: (Units=1/GPa)
#
#
# Indices 1 2 3 4 5 6 
#
# 1 0.009189 -0.000580 -0.003526 0.000000 0.002536 0.000000
# 2 -0.000580 0.008102 -0.000458 0.000000 0.000961 0.000000
# 3 -0.003526 -0.000458 0.009716 0.000000 0.000867 0.000000
# 4 0.000000 0.000000 0.000000 0.019863 0.000000 -0.010127
# 5 0.002536 0.000961 0.000867 0.000000 0.018006 0.000000
# 6 0.000000 0.000000 0.000000 -0.010127 0.000000 0.032654
#
#
# Mechanical properties :
#
#
# Convention : Reuss Voigt Hill
#
# Bulk Modulus (GPa) = 55.93086 60.61732 58.27409
# Shear Modulus (GPa) = 44.39826 51.62377 48.01101
#
# Velocity S-wave (km/s) = 4.27547 4.61026 4.44602
# Velocity P-wave (km/s) = 6.88482 7.30046 7.09568
#
# Compressibility (1/GPa) = 0.01787922
#
# Stress axis : x y z
#
# Youngs Moduli (GPa) = 108.82536 123.42294 102.92782
#
# Poissons Ratio (x) = 0.07164 0.36289
# Poissons Ratio (y) = 0.06317 0.04711
# Poissons Ratio (z) = 0.38369 0.05648
#
# Static dielectric constant tensor:
#      x y z
#    x 1.777850 0.000000 -0.037480 
#    y 0.000000 1.904230 0.000000 
#    z -0.037480 0.000000 2.133420 
# 
# From -- ./inp_files/1158.got.cif
#   From: 2010.05.17/outbox.cif.g08.bks.cpg/sg5_1_cif.got.tgz:1158.got - 2010.06.03 18:56:24.
