data_PCOD9130503
_publ_section_title
;
Structure prediction by ZEFSAII (Michael W. Deem and Ramdas Pophale) SiO2 
 PCOD9130503
Probable space group: C 2
;
_chemical_formula_sum "Si O2"
_cell_formula_units_Z 18
_cell_length_a 11.945050
_cell_length_b 9.293062
_cell_length_c 6.839416
_cell_angle_alpha 90.000000
_cell_angle_beta 122.297043
_cell_angle_gamma 90.000000
_cell_volume 641.757946
_symmetry_space_group_name_H-M "C 2"
_symmetry_group_IT_number 5
_symmetry_cell_setting 'monoclinic'
loop_
_space_group_symop_operation_xyz
x,y,z
-x,y,-z
1/2+x,1/2+y,z
1/2-x,1/2+y,-z
loop_
_atom_site_type_symbol
_atom_site_label
_atom_site_fract_x
_atom_site_fract_y
_atom_site_fract_z
Si Si1 0.854974 0.483720 0.686760
Si Si2 0.000000 0.302070 0.500000
Si Si3 0.635387 0.529292 0.229392
Si Si4 0.802135 0.253376 0.982080
Si Si5 0.989122 0.758944 0.255334
O O1 0.716931 0.565043 0.505392
O O2 0.730965 0.603794 0.159731
O O3 0.894801 0.389812 0.533845
O O4 0.966780 0.604818 0.779885
O O5 0.090306 0.229465 0.749478
O O6 0.842608 0.375660 0.859220
O O7 0.586140 0.374251 0.251083
O O8 0.500000 0.590759 0.000000
O O9 0.661065 0.299445 0.936136
O O10 0.000000 0.765694 0.500000
#
# Coordination Sequence:
#
# PCOD9130503 Si02
#       5
#     4   2   4   4   4
#     4  12  24  52  86 119 163 220 282 338 414 495
#     4  12  26  50  84 120 166 224 278 336 414 498
#     4  12  25  48  79 122 167 211 272 337 414 489
#     4  12  28  55  83 121 169 219 277 342 412 495
#     4  12  25  52  84 119 166 212 275 344 415 488
#
# _framework density 28.047958000000001
#
# number of rings (size 3 to 8) (size 9 to 14) (size 15 to 20)
#    0.000    0.000    5.556    3.333    0.000    1.778 
#    8.000   13.333    0.000    1.333    0.000    0.000 
#    0.000    0.000    0.000    0.000    0.000    0.000 
#
# Total GULP energy -50315.408726 kJ/mol
# GULP energy per Si atom -5590.600970 kJ/mol
# Density = 2.798412 g / cm^3
# Si number density = 28.047958 Si / 1000 Ang^3
#
#
#
# Elastic Constant Matrix: (Units=GPa)
#
#
# Indices 1 2 3 4 5 6 
#
# 1 175.1732 90.1547 66.8618 0.0000 -34.1249 0.0000
# 2 90.1547 161.0394 54.6470 0.0000 -30.0161 0.0000
# 3 66.8618 54.6470 229.3037 0.0000 -27.9594 0.0000
# 4 0.0000 0.0000 0.0000 39.0691 0.0000 -16.8612
# 5 -34.1249 -30.0161 -27.9594 0.0000 56.6140 0.0000
# 6 0.0000 0.0000 0.0000 -16.8612 0.0000 22.6384
#
#
#
# Elastic Compliance Matrix: (Units=1/GPa)
#
#
# Indices 1 2 3 4 5 6 
#
# 1 0.008745 -0.003988 -0.001292 0.000000 0.002519 0.000000
# 2 -0.003988 0.009077 -0.000752 0.000000 0.002038 0.000000
# 3 -0.001292 -0.000752 0.005079 0.000000 0.001331 0.000000
# 4 0.000000 0.000000 0.000000 0.037720 0.000000 0.028094
# 5 0.002519 0.002038 0.001331 0.000000 0.020919 0.000000
# 6 0.000000 0.000000 0.000000 0.028094 0.000000 0.065098
#
#
# Mechanical properties :
#
#
# Convention : Reuss Voigt Hill
#
# Bulk Modulus (GPa) = 92.27621 109.87146 101.07384
# Shear Modulus (GPa) = 30.80433 47.25449 39.02941
#
# Velocity S-wave (km/s) = 3.31762 4.10905 3.73436
# Velocity P-wave (km/s) = 6.90263 7.85940 7.39650
#
# Compressibility (1/GPa) = 0.01083703
#
# Stress axis : x y z
#
# Youngs Moduli (GPa) = 114.35290 110.16836 196.87455
#
# Poissons Ratio (x) = 0.43931 0.25445
# Poissons Ratio (y) = 0.45599 0.14806
# Poissons Ratio (z) = 0.14780 0.08285
#
# Static dielectric constant tensor:
#      x y z
#    x 2.257860 0.000000 0.095540 
#    y 0.000000 2.151960 0.000000 
#    z 0.095540 0.000000 2.309340 
# 
# From -- ./inp_files/19176.got.cif
#   From: 2010.05.17/outbox.cif.g08.bks.cpg/sg5_10_cif.got.tgz:19176.got - 2010.06.03 18:56:24.
