data_PCOD9130334
_publ_section_title
;
Structure prediction by ZEFSAII (Michael W. Deem and Ramdas Pophale) SiO2 
 PCOD9130334
Probable space group: C 2
;
_chemical_formula_sum "Si O2"
_cell_formula_units_Z 28
_cell_length_a 13.753430
_cell_length_b 5.688432
_cell_length_c 18.147457
_cell_angle_alpha 90.000000
_cell_angle_beta 61.135903
_cell_angle_gamma 90.000000
_cell_volume 1243.391918
_symmetry_space_group_name_H-M "C 2"
_symmetry_group_IT_number 5
_symmetry_cell_setting 'monoclinic'
loop_
_space_group_symop_operation_xyz
x,y,z
-x,y,-z
1/2+x,1/2+y,z
1/2-x,1/2+y,-z
loop_
_atom_site_type_symbol
_atom_site_label
_atom_site_fract_x
_atom_site_fract_y
_atom_site_fract_z
Si Si1 0.841515 0.031590 0.064532
Si Si2 0.113259 0.393964 0.205007
Si Si3 0.000000 0.488615 0.500000
Si Si4 0.500000 0.150482 0.000000
Si Si5 0.009586 0.271178 0.102965
Si Si6 0.111005 0.896460 0.290891
Si Si7 0.290774 0.329568 0.592933
Si Si8 0.597118 0.629276 0.571027
O O1 0.891455 0.216099 0.106245
O O2 0.714328 0.971861 0.114385
O O3 0.900500 0.086051 0.964208
O O4 0.902453 0.799484 0.069877
O O5 0.012486 0.321406 0.187530
O O6 0.105325 0.637381 0.254705
O O7 0.133980 0.141966 0.237995
O O8 0.110700 0.640123 0.452596
O O9 0.018359 0.325969 0.564351
O O10 0.450097 0.002700 0.952870
O O11 0.199188 0.895365 0.325530
O O12 0.987191 0.932890 0.369619
O O13 0.325725 0.537432 0.524006
O O14 0.175662 0.226161 0.606125
#
# Coordination Sequence:
#
# PCOD9130334 Si02
#       8
#     4   4   2   2   4   4   4   4
#     4   9  22  43  71 104 133 187 248 305 348 418
#     4  12  29  45  73 102 153 200 225 298 375 429
#     4  12  20  44  76 108 130 170 248 304 340 424
#     4   8  18  40  72  98 134 164 258 316 326 420
#     4   9  22  43  71 104 133 187 248 305 348 418
#     4  12  29  49  66 112 156 188 239 295 362 457
#     4  12  25  45  78 102 138 192 242 304 358 421
#     4  12  25  45  78 102 138 192 242 304 358 421
#
# _framework density 22.519044000000001
#
# number of rings (size 3 to 8) (size 9 to 14) (size 15 to 20)
#    0.000    1.429    4.286    0.857   10.000    1.143 
#    0.000    2.857    0.000    0.000    0.000    0.000 
#    0.000    0.000    0.000    0.000    0.000    0.000 
#
# Total GULP energy -78006.236699 kJ/mol
# GULP energy per Si atom -5571.874050 kJ/mol
# Density = 2.246779 g / cm^3
# Si number density = 22.519044 Si / 1000 Ang^3
#
#
#
# Elastic Constant Matrix: (Units=GPa)
#
#
# Indices 1 2 3 4 5 6 
#
# 1 131.7093 32.1425 32.0360 0.0000 37.7610 0.0001
# 2 32.1425 113.8435 33.3447 0.0000 27.1550 0.0002
# 3 32.0360 33.3447 50.1267 0.0000 23.0142 0.0000
# 4 0.0000 0.0000 0.0000 22.1770 0.0000 -0.9812
# 5 37.7610 27.1550 23.0142 0.0000 42.0189 0.0000
# 6 0.0001 0.0002 0.0000 -0.9812 0.0000 22.5765
#
#
#
# Elastic Compliance Matrix: (Units=1/GPa)
#
#
# Indices 1 2 3 4 5 6 
#
# 1 0.010606 -0.000261 -0.003081 0.000000 -0.007675 0.000000
# 2 -0.000261 0.011474 -0.005570 0.000000 -0.004130 0.000000
# 3 -0.003081 -0.005570 0.030325 0.000000 -0.010242 0.000000
# 4 0.000000 0.000000 0.000000 0.045179 0.000000 0.001964
# 5 -0.007675 -0.004130 -0.010242 0.000000 0.038975 0.000000
# 6 0.000000 0.000000 0.000000 0.001964 0.000000 0.044379
#
#
# Mechanical properties :
#
#
# Convention : Reuss Voigt Hill
#
# Bulk Modulus (GPa) = 28.91650 54.52511 41.72081
# Shear Modulus (GPa) = 23.77683 30.56490 27.17086
#
# Velocity S-wave (km/s) = 3.25292 3.68814 3.47734
# Velocity P-wave (km/s) = 5.19398 6.51168 5.88979
#
# Compressibility (1/GPa) = 0.03458233
#
# Stress axis : x y z
#
# Youngs Moduli (GPa) = 94.28614 87.15192 32.97570
#
# Poissons Ratio (x) = 0.02279 0.10158
# Poissons Ratio (y) = 0.02465 0.18366
# Poissons Ratio (z) = 0.29046 0.48540
#
# Static dielectric constant tensor:
#      x y z
#    x 1.827380 0.000000 0.010820 
#    y 0.000000 1.905360 0.000000 
#    z 0.010820 0.000000 1.925760 
# 
# From -- ./inp_files/61063.got.cif
#   From: 2010.05.17/outbox.cif.g08.bks.cpg/sg5_31_cif.got.tgz:61063.got - 2010.06.03 18:56:24.
