data_PCOD9130908
_publ_section_title
;
Structure prediction by ZEFSAII (Michael W. Deem and Ramdas Pophale) SiO2 
 PCOD9130908
Probable space group: P M
;
_chemical_formula_sum "Si O2"
_cell_formula_units_Z 16
_cell_length_a 12.880872
_cell_length_b 9.046003
_cell_length_c 12.738067
_cell_angle_alpha 90.000000
_cell_angle_beta 144.992079
_cell_angle_gamma 90.000000
_cell_volume 851.495890
_symmetry_space_group_name_H-M "P M"
_symmetry_group_IT_number 6
_symmetry_cell_setting 'monoclinic'
loop_
_space_group_symop_operation_xyz
x,y,z
x,-y,z
loop_
_atom_site_type_symbol
_atom_site_label
_atom_site_fract_x
_atom_site_fract_y
_atom_site_fract_z
Si Si1 0.461970 0.322912 0.724160
Si Si2 0.061492 0.677269 0.320207
Si Si3 0.789176 0.675749 0.601125
Si Si4 0.174290 0.827199 0.205760
Si Si5 0.590734 0.172854 0.625211
Si Si6 0.561074 0.823952 0.227427
Si Si7 0.147265 0.823415 0.940794
Si Si8 0.686218 0.322097 0.116290
O O1 0.476428 0.500000 0.719159
O O2 0.251279 0.280784 0.533284
O O3 0.575838 0.240545 0.728629
O O4 0.541970 0.290564 0.904532
O O5 0.057251 0.500000 0.309754
O O6 0.068807 0.740656 0.208645
O O7 0.883733 0.723158 0.236471
O O8 0.779594 0.500000 0.591483
O O9 0.721759 0.738803 0.656994
O O10 0.662293 0.745141 0.407090
O O11 0.992360 0.733967 0.753899
O O12 0.387972 0.814042 0.409094
O O13 0.126969 0.000000 0.174019
O O14 0.145019 0.779401 0.062031
O O15 0.640057 0.000000 0.668434
O O16 0.634432 0.760378 0.179312
O O17 0.589683 0.000000 0.258750
O O18 0.346803 0.796461 0.061544
O O19 0.111770 0.000000 0.905814
O O20 0.687928 0.500000 0.135175
#
# Coordination Sequence:
#
# PCOD9130908 Si02
#       8
#     2   2   2   2   2   2   2   2
#     4   9  19  36  56  83 119 158 197 245 301 355
#     4   9  19  35  55  83 120 157 193 241 297 352
#     4  12  25  39  61  92 123 160 204 249 307 369
#     4   9  18  35  59  86 120 157 196 245 300 355
#     4  10  19  36  60  88 124 160 198 248 303 358
#     4  11  24  45  66  87 121 162 208 256 304 359
#     4  10  22  41  62  88 122 160 203 253 306 359
#     4  10  22  39  59  85 119 158 203 249 296 357
#
# _framework density 18.790459999999999
#
# number of rings (size 3 to 8) (size 9 to 14) (size 15 to 20)
#    0.000    2.000    1.250    1.875    1.750    4.000 
#    0.000    1.250    0.000    0.000    0.000    0.000 
#    0.000    0.000    0.000    0.000    0.000    0.000 
#
# Total GULP energy -89391.382532 kJ/mol
# GULP energy per Si atom -5586.961408 kJ/mol
# Density = 1.874769 g / cm^3
# Si number density = 18.790460 Si / 1000 Ang^3
#
#
#
# Elastic Constant Matrix: (Units=GPa)
#
#
# Indices 1 2 3 4 5 6 
#
# 1 132.7735 52.5801 32.9942 0.0000 12.5443 0.0000
# 2 52.5801 57.2905 28.0828 0.0000 13.1089 0.0000
# 3 32.9942 28.0828 33.1971 0.0000 18.0915 0.0000
# 4 0.0000 0.0000 0.0000 18.9620 0.0000 -7.3506
# 5 12.5443 13.1089 18.0915 0.0000 18.8425 0.0000
# 6 0.0000 0.0000 0.0000 -7.3506 0.0000 29.3746
#
#
#
# Elastic Compliance Matrix: (Units=1/GPa)
#
#
# Indices 1 2 3 4 5 6 
#
# 1 0.012472 -0.008822 -0.007871 0.000000 0.005392 0.000000
# 2 -0.008822 0.036545 -0.024105 0.000000 0.003592 0.000000
# 3 -0.007871 -0.024105 0.097205 0.000000 -0.071321 0.000000
# 4 0.000000 0.000000 0.000000 0.058402 0.000000 0.014614
# 5 0.005392 0.003592 -0.071321 0.000000 0.115460 0.000000
# 6 0.000000 0.000000 0.000000 0.014614 0.000000 0.037700
#
#
# Mechanical properties :
#
#
# Convention : Reuss Voigt Hill
#
# Bulk Modulus (GPa) = 15.47359 50.06393 32.76876
# Shear Modulus (GPa) = 10.84781 20.74277 15.79529
#
# Velocity S-wave (km/s) = 2.40532 3.32610 2.90246
# Velocity P-wave (km/s) = 3.99585 6.43830 5.35810
#
# Compressibility (1/GPa) = 0.06462623
#
# Stress axis : x y z
#
# Youngs Moduli (GPa) = 80.18123 27.36350 10.28751
#
# Poissons Ratio (x) = 0.24139 0.08098
# Poissons Ratio (y) = 0.70733 0.24798
# Poissons Ratio (z) = 0.63114 0.65959
#
# Static dielectric constant tensor:
#      x y z
#    x 1.622300 0.000000 0.021230 
#    y 0.000000 1.627110 0.000000 
#    z 0.021230 0.000000 1.662750 
# 
# From -- ./inp_files/5080.got.cif
#   From: 2010.05.17/outbox.cif.g08.bks.cpg/sg6_3_cif.got.tgz:5080.got - 2010.06.03 19:42:10.
