data_PCOD9130193
_publ_section_title
;
Structure prediction by ZEFSAII (Michael W. Deem and Ramdas Pophale) SiO2 
 PCOD9130193
Probable space group: C 2
;
_chemical_formula_sum "Si O2"
_cell_formula_units_Z 16
_cell_length_a 28.178298
_cell_length_b 6.144121
_cell_length_c 9.482762
_cell_angle_alpha 90.000000
_cell_angle_beta 24.408699
_cell_angle_gamma 90.000000
_cell_volume 678.444848
_symmetry_space_group_name_H-M "C 2"
_symmetry_group_IT_number 5
_symmetry_cell_setting 'monoclinic'
loop_
_space_group_symop_operation_xyz
x,y,z
-x,y,-z
1/2+x,1/2+y,z
1/2-x,1/2+y,-z
loop_
_atom_site_type_symbol
_atom_site_label
_atom_site_fract_x
_atom_site_fract_y
_atom_site_fract_z
Si Si1 0.070471 0.516670 0.938660
Si Si2 0.997699 0.943021 0.174544
Si Si3 0.187193 0.171153 0.819616
Si Si4 0.301683 0.643170 0.881949
O O1 0.131190 0.377928 0.894348
O O2 0.178460 0.638459 0.572626
O O3 0.980464 0.686823 0.248888
O O4 0.000000 0.410160 0.000000
O O5 0.906570 0.101412 0.491208
O O6 0.000000 0.961897 0.000000
O O7 0.118133 0.984524 0.925329
O O8 0.164450 0.164930 0.046289
O O9 0.245222 0.392253 0.025690
#
# Coordination Sequence:
#
# PCOD9130193 Si02
#       4
#     4   4   4   4
#     4  11  25  47  83 118 156 212 273 328 400 485
#     4  11  26  49  80 116 159 214 269 332 402 483
#     4  12  26  48  81 114 163 212 269 328 408 472
#     4  12  31  52  79 121 165 212 270 336 398 476
#
# _framework density 23.583345000000001
#
# number of rings (size 3 to 8) (size 9 to 14) (size 15 to 20)
#    0.000    0.500    2.500    4.500   14.000    0.000 
#    0.000    0.000    0.000    0.000    0.000    0.000 
#    0.000    0.000    0.000    0.000    0.000    0.000 
#
# Total GULP energy -44568.554454 kJ/mol
# GULP energy per Si atom -5571.069307 kJ/mol
# Density = 2.352967 g / cm^3
# Si number density = 23.583345 Si / 1000 Ang^3
#
#
#
# Elastic Constant Matrix: (Units=GPa)
#
#
# Indices 1 2 3 4 5 6 
#
# 1 240.4229 74.4867 66.0941 0.0000 19.8517 0.0000
# 2 74.4867 155.1290 44.3161 0.0000 -3.9302 0.0000
# 3 66.0941 44.3161 96.1343 0.0000 10.9135 0.0000
# 4 0.0000 0.0000 0.0000 52.8485 0.0000 -7.7983
# 5 19.8517 -3.9302 10.9135 0.0000 45.2086 0.0000
# 6 0.0000 0.0000 0.0000 -7.7983 0.0000 41.9422
#
#
#
# Elastic Compliance Matrix: (Units=1/GPa)
#
#
# Indices 1 2 3 4 5 6 
#
# 1 0.005707 -0.001999 -0.002774 0.000000 -0.002010 0.000000
# 2 -0.001999 0.008226 -0.002672 0.000000 0.002238 0.000000
# 3 -0.002774 -0.002672 0.013808 0.000000 -0.002347 0.000000
# 4 0.000000 0.000000 0.000000 0.019456 0.000000 0.003617
# 5 -0.002010 0.002238 -0.002347 0.000000 0.023764 0.000000
# 6 0.000000 0.000000 0.000000 0.003617 0.000000 0.024515
#
#
# Mechanical properties :
#
#
# Convention : Reuss Voigt Hill
#
# Bulk Modulus (GPa) = 77.81464 95.72000 86.76732
# Shear Modulus (GPa) = 43.61159 48.45249 46.03204
#
# Velocity S-wave (km/s) = 4.30496 4.53760 4.42281
# Velocity P-wave (km/s) = 7.60115 8.25404 7.93431
#
# Compressibility (1/GPa) = 0.01285105
#
# Stress axis : x y z
#
# Youngs Moduli (GPa) = 175.21645 121.56646 72.42401
#
# Poissons Ratio (x) = 0.24299 0.20092
# Poissons Ratio (y) = 0.35022 0.19351
# Poissons Ratio (z) = 0.48609 0.32481
#
# Static dielectric constant tensor:
#      x y z
#    x 1.778940 0.000000 -0.037730 
#    y 0.000000 2.101370 0.000000 
#    z -0.037730 0.000000 1.917700 
# 
# From -- ./inp_files/31333.got.cif
#   From: 2010.05.17/outbox.cif.g08.bks.cpg/sg5_16_cif.got.tgz:31333.got - 2010.06.03 18:56:24.
