data_PCOD9130810
_publ_section_title
;
Structure prediction by ZEFSAII (Michael W. Deem and Ramdas Pophale) SiO2 
 PCOD9130810
Probable space group: P M
;
_chemical_formula_sum "Si O2"
_cell_formula_units_Z 12
_cell_length_a 10.526461
_cell_length_b 7.679520
_cell_length_c 15.290183
_cell_angle_alpha 90.000000
_cell_angle_beta 151.779049
_cell_angle_gamma 90.000000
_cell_volume 584.485386
_symmetry_space_group_name_H-M "P M"
_symmetry_group_IT_number 6
_symmetry_cell_setting 'monoclinic'
loop_
_space_group_symop_operation_xyz
x,y,z
x,-y,z
loop_
_atom_site_type_symbol
_atom_site_label
_atom_site_fract_x
_atom_site_fract_y
_atom_site_fract_z
Si Si1 0.199650 0.298577 0.856640
Si Si2 0.549865 0.200649 0.907456
Si Si3 0.547150 0.789402 0.230675
Si Si4 0.581704 0.790648 0.449322
Si Si5 0.128934 0.786613 0.511348
Si Si6 0.134070 0.786096 0.313856
O O1 0.230514 0.500000 0.853815
O O2 0.380763 0.201463 0.894733
O O3 0.888755 0.250285 0.659100
O O4 0.316894 0.265395 0.023892
O O5 0.360988 0.276893 0.717385
O O6 0.596755 0.000000 0.910263
O O7 0.843660 0.275808 0.103540
O O8 0.518236 0.727247 0.312708
O O9 0.836353 0.731712 0.368607
O O10 0.549550 0.000000 0.233320
O O11 0.371759 0.727657 0.394382
O O12 0.558569 0.000000 0.433109
O O13 0.169858 0.733128 0.436206
O O14 0.127733 0.000000 0.513387
O O15 0.130846 0.000000 0.312523
#
# Coordination Sequence:
#
# PCOD9130810 Si02
#       6
#     2   2   2   2   2   2
#     4  12  24  36  55  84 116 154 191 229 277 334
#     4  10  18  34  59  85 111 143 186 234 278 330
#     4  10  19  35  60  86 111 145 189 235 279 328
#     4  10  21  38  60  87 114 145 186 235 284 331
#     4   9  16  29  56  88 111 136 176 230 283 327
#     4   9  18  32  56  88 115 137 176 235 289 328
#
# _framework density 20.530881999999998
#
# number of rings (size 3 to 8) (size 9 to 14) (size 15 to 20)
#    0.000    2.000    3.333    1.500    0.000    2.000 
#    0.000    5.833    0.000    2.000    0.000    0.000 
#    0.000    0.000    0.000    0.000    0.000    0.000 
#
# Total GULP energy -67027.256997 kJ/mol
# GULP energy per Si atom -5585.604750 kJ/mol
# Density = 2.048415 g / cm^3
# Si number density = 20.530882 Si / 1000 Ang^3
#
#
#
# Elastic Constant Matrix: (Units=GPa)
#
#
# Indices 1 2 3 4 5 6 
#
# 1 129.7931 3.8500 70.3568 0.0000 -13.9951 0.0000
# 2 3.8500 35.8700 -7.2059 0.0000 -0.2353 0.0000
# 3 70.3568 -7.2059 151.8809 0.0000 -18.0448 0.0000
# 4 0.0000 0.0000 0.0000 180.6059 0.0000 116.9579
# 5 -13.9951 -0.2353 -18.0448 0.0000 40.6859 0.0000
# 6 0.0000 0.0000 0.0000 116.9579 0.0000 51.5917
#
#
#
# Elastic Compliance Matrix: (Units=1/GPa)
#
#
# Indices 1 2 3 4 5 6 
#
# 1 0.010528 -0.002085 -0.004800 0.000000 0.001481 0.000000
# 2 -0.002085 0.028584 0.002382 0.000000 0.000505 0.000000
# 3 -0.004800 0.002382 0.009211 0.000000 0.002448 0.000000
# 4 0.000000 0.000000 0.000000 -0.011829 0.000000 0.026817
# 5 0.001481 0.000505 0.002448 0.000000 0.026176 0.000000
# 6 0.000000 0.000000 0.000000 0.026817 0.000000 -0.041410
#
#
# Mechanical properties :
#
#
# Convention : Reuss Voigt Hill
#
# Bulk Modulus (GPa) = 25.43370 50.17177 37.80274
# Shear Modulus (GPa) = 115.28214 71.27957 93.28085
#
# Velocity S-wave (km/s) = 7.50150 5.89861 6.74782
# Velocity P-wave (km/s) = 9.35120 8.41913 8.89738
#
# Compressibility (1/GPa) = 0.03931791
#
# Stress axis : x y z
#
# Youngs Moduli (GPa) = 94.98544 34.98465 108.56035
#
# Poissons Ratio (x) = 0.07293 0.52108
# Poissons Ratio (y) = 0.19800 -0.25856
# Poissons Ratio (z) = 0.45592 -0.08332
#
# Static dielectric constant tensor:
#      x y z
#    x 1.704830 0.000000 -0.008600 
#    y 0.000000 1.733000 0.000000 
#    z -0.008600 0.000000 1.702940 
# 
# From -- ./inp_files/2611.got.cif
#   From: 2010.05.17/outbox.cif.g08.bks.cpg/sg6_2_cif.got.tgz:2611.got - 2010.06.03 19:42:10.
