data_PCOD9130266
_publ_section_title
;
Structure prediction by ZEFSAII (Michael W. Deem and Ramdas Pophale) SiO2 
 PCOD9130266
Probable space group: C 2
;
_chemical_formula_sum "Si O2"
_cell_formula_units_Z 24
_cell_length_a 7.465756
_cell_length_b 11.739395
_cell_length_c 10.558373
_cell_angle_alpha 90.000000
_cell_angle_beta 99.044655
_cell_angle_gamma 90.000000
_cell_volume 913.866358
_symmetry_space_group_name_H-M "C 2"
_symmetry_group_IT_number 5
_symmetry_cell_setting 'monoclinic'
loop_
_space_group_symop_operation_xyz
x,y,z
-x,y,-z
1/2+x,1/2+y,z
1/2-x,1/2+y,-z
loop_
_atom_site_type_symbol
_atom_site_label
_atom_site_fract_x
_atom_site_fract_y
_atom_site_fract_z
Si Si1 0.793382 0.130530 0.522513
Si Si2 0.000000 0.653825 0.000000
Si Si3 0.000000 0.083421 0.000000
Si Si4 0.709145 0.876477 0.558006
Si Si5 0.145703 0.224044 0.206192
Si Si6 0.750482 0.320601 0.160164
Si Si7 0.761776 0.449865 0.897028
O O1 0.706206 0.249242 0.459123
O O2 0.778534 0.154379 0.670544
O O3 0.000000 0.132606 0.500000
O O4 0.744083 0.998132 0.493702
O O5 0.932066 0.752193 0.890074
O O6 0.897085 0.554461 0.903455
O O7 0.167035 0.158524 0.073345
O O8 0.934692 0.005885 0.107170
O O9 0.500000 0.858462 0.500000
O O10 0.747282 0.890867 0.710886
O O11 0.218061 0.351817 0.202995
O O12 0.927914 0.238671 0.193785
O O13 0.792721 0.392273 0.038379
#
# Coordination Sequence:
#
# PCOD9130266 Si02
#       7
#     4   2   2   4   4   4   4
#     4  11  26  48  76 107 145 200 254 315 378 437
#     4  12  24  40  72 104 146 198 240 292 372 454
#     4  12  24  42  68 102 152 190 236 308 368 450
#     4  11  26  49  76 104 150 197 254 317 373 442
#     4  12  22  44  72 104 149 193 245 307 375 442
#     4  12  23  44  69 110 144 192 248 302 372 448
#     4  12  24  42  68 104 149 196 239 301 377 443
#
# _framework density 26.262046999999999
#
# number of rings (size 3 to 8) (size 9 to 14) (size 15 to 20)
#    0.000    0.333    8.333    1.500    0.000    4.667 
#    0.000    3.333    0.000    0.000    0.000    0.000 
#    0.000    0.000    0.000    0.000    0.000    0.000 
#
# Total GULP energy -66847.297610 kJ/mol
# GULP energy per Si atom -5570.608134 kJ/mol
# Density = 2.620227 g / cm^3
# Si number density = 26.262047 Si / 1000 Ang^3
#
#
#
# Elastic Constant Matrix: (Units=GPa)
#
#
# Indices 1 2 3 4 5 6 
#
# 1 47.9189 35.2508 -10.7470 0.0000 7.1433 0.0000
# 2 35.2508 230.0379 37.0243 0.0000 -6.2846 0.0000
# 3 -10.7470 37.0243 79.7206 0.0000 8.3144 0.0000
# 4 0.0000 0.0000 0.0000 51.4858 0.0000 8.7741
# 5 7.1433 -6.2846 8.3144 0.0000 21.4340 0.0000
# 6 0.0000 0.0000 0.0000 8.7741 0.0000 42.8147
#
#
#
# Elastic Compliance Matrix: (Units=1/GPa)
#
#
# Indices 1 2 3 4 5 6 
#
# 1 0.029675 -0.006328 0.008508 0.000000 -0.015045 0.000000
# 2 -0.006328 0.006161 -0.004296 0.000000 0.005582 0.000000
# 3 0.008508 -0.004296 0.016793 0.000000 -0.010609 0.000000
# 4 0.000000 0.000000 0.000000 0.020126 0.000000 -0.004124
# 5 -0.015045 0.005582 -0.010609 0.000000 0.057421 0.000000
# 6 0.000000 0.000000 0.000000 -0.004124 0.000000 0.024202
#
#
# Mechanical properties :
#
#
# Convention : Reuss Voigt Hill
#
# Bulk Modulus (GPa) = 20.66277 53.41485 37.03881
# Shear Modulus (GPa) = 28.61390 42.89019 35.75205
#
# Velocity S-wave (km/s) = 3.30442 4.04562 3.69366
# Velocity P-wave (km/s) = 4.73750 6.49662 5.68551
#
# Compressibility (1/GPa) = 0.04839622
#
# Stress axis : x y z
#
# Youngs Moduli (GPa) = 33.69893 162.31764 59.54991
#
# Poissons Ratio (x) = 1.02710 -0.50667
# Poissons Ratio (y) = 0.21324 0.25585
# Poissons Ratio (z) = -0.28672 0.69738
#
# Static dielectric constant tensor:
#      x y z
#    x 2.559130 0.000000 -0.276280 
#    y 0.000000 2.180050 0.000000 
#    z -0.276280 0.000000 2.141080 
# 
# From -- ./inp_files/35448.got.cif
#   From: 2010.05.17/outbox.cif.g08.bks.cpg/sg5_18_cif.got.tgz:35448.got - 2010.06.03 18:56:24.
