data_PCOD9130998
_publ_section_title
;
Structure prediction by ZEFSAII (Michael W. Deem and Ramdas Pophale) SiO2 
 PCOD9130998
Probable space group: P M
;
_chemical_formula_sum "Si O2"
_cell_formula_units_Z 16
_cell_length_a 12.798015
_cell_length_b 8.754685
_cell_length_c 13.095297
_cell_angle_alpha 90.000000
_cell_angle_beta 34.623179
_cell_angle_gamma 90.000000
_cell_volume 833.646461
_symmetry_space_group_name_H-M "P M"
_symmetry_group_IT_number 6
_symmetry_cell_setting 'monoclinic'
loop_
_space_group_symop_operation_xyz
x,y,z
x,-y,z
loop_
_atom_site_type_symbol
_atom_site_label
_atom_site_fract_x
_atom_site_fract_y
_atom_site_fract_z
Si Si1 0.385220 0.682519 0.470790
Si Si2 0.281831 0.816157 0.977757
Si Si3 0.004625 0.816508 0.699466
Si Si4 0.890987 0.318687 0.352169
Si Si5 0.635402 0.815760 0.099600
Si Si6 0.965465 0.822809 0.502976
Si Si7 0.397865 0.177776 0.100799
Si Si8 0.483747 0.684484 0.618823
O O1 0.387020 0.500000 0.467269
O O2 0.196692 0.742445 0.573665
O O3 0.550525 0.744495 0.268636
O O4 0.406327 0.732711 0.571170
O O5 0.392207 0.758804 0.990342
O O6 0.071217 0.762582 0.161662
O O7 0.284860 0.000000 0.977199
O O8 0.372016 0.755065 0.802472
O O9 0.933828 0.769798 0.643846
O O10 0.029580 0.000000 0.673550
O O11 0.847967 0.782042 0.907773
O O12 0.915541 0.500000 0.322547
O O13 0.698964 0.273650 0.454962
O O14 0.879749 0.273313 0.480630
O O15 0.522648 0.757449 0.090672
O O16 0.612553 0.000000 0.122898
O O17 0.186288 0.818650 0.308340
O O18 0.906447 0.000000 0.540363
O O19 0.454320 0.000000 0.045891
O O20 0.472344 0.500000 0.635224
#
# Coordination Sequence:
#
# PCOD9130998 Si02
#       8
#     2   2   2   2   2   2   2   2
#     4  11  24  42  60  81 118 160 201 244 288 345
#     4  10  21  37  61  91 118 150 195 243 293 347
#     4  10  21  37  61  89 117 152 193 243 298 347
#     4  10  21  38  59  85 120 157 194 237 291 350
#     4  10  20  37  61  87 116 153 193 238 297 351
#     4   9  17  33  57  85 121 155 189 236 292 349
#     4   8  15  31  55  83 117 150 180 226 287 346
#     4  10  24  43  60  81 115 163 203 239 290 345
#
# _framework density 19.192786999999999
#
# number of rings (size 3 to 8) (size 9 to 14) (size 15 to 20)
#    0.000    2.250    1.250    1.875    1.750    4.000 
#    0.000    4.375    0.000    0.000    0.000    0.000 
#    0.000    0.000    0.000    0.000    0.000    0.000 
#
# Total GULP energy -89312.754276 kJ/mol
# GULP energy per Si atom -5582.047142 kJ/mol
# Density = 1.914910 g / cm^3
# Si number density = 19.192787 Si / 1000 Ang^3
#
#
#
# Elastic Constant Matrix: (Units=GPa)
#
#
# Indices 1 2 3 4 5 6 
#
# 1 46.6764 11.8534 20.5736 0.0000 20.8610 0.0000
# 2 11.8534 18.9982 22.1261 0.0000 3.7278 0.0000
# 3 20.5736 22.1261 94.2865 0.0000 29.6768 0.0000
# 4 0.0000 0.0000 0.0000 40.9933 0.0000 3.8099
# 5 20.8610 3.7278 29.6768 0.0000 28.6419 0.0000
# 6 0.0000 0.0000 0.0000 3.8099 0.0000 23.4188
#
#
#
# Elastic Compliance Matrix: (Units=1/GPa)
#
#
# Indices 1 2 3 4 5 6 
#
# 1 0.040404 -0.028750 0.008926 0.000000 -0.034934 0.000000
# 2 -0.028750 0.095853 -0.028024 0.000000 0.037500 0.000000
# 3 0.008926 -0.028024 0.023940 0.000000 -0.027659 0.000000
# 4 0.000000 0.000000 0.000000 0.024769 0.000000 -0.004029
# 5 -0.034934 0.037500 -0.027659 0.000000 0.084136 0.000000
# 6 0.000000 0.000000 0.000000 -0.004029 0.000000 0.043356
#
#
# Mechanical properties :
#
#
# Convention : Reuss Voigt Hill
#
# Bulk Modulus (GPa) = 15.50319 29.89637 22.69978
# Shear Modulus (GPa) = 11.63727 25.63801 18.63764
#
# Velocity S-wave (km/s) = 2.46506 3.65885 3.11959
# Velocity P-wave (km/s) = 4.02457 5.78448 4.98284
#
# Compressibility (1/GPa) = 0.06450285
#
# Stress axis : x y z
#
# Youngs Moduli (GPa) = 24.75008 10.43259 41.77047
#
# Poissons Ratio (x) = 0.29993 -0.37285
# Poissons Ratio (y) = 0.71156 1.17057
# Poissons Ratio (z) = -0.22092 0.29236
#
# Static dielectric constant tensor:
#      x y z
#    x 1.669640 0.000000 0.002300 
#    y 0.000000 1.651430 0.000000 
#    z 0.002300 0.000000 1.662610 
# 
# From -- ./inp_files/5023.got.cif
#   From: 2010.05.17/outbox.cif.g08.bks.cpg/sg6_3_cif.got.tgz:5023.got - 2010.06.03 19:42:10.
