data_PCOD9130180
_publ_section_title
;
Structure prediction by ZEFSAII (Michael W. Deem and Ramdas Pophale) SiO2 
 PCOD9130180
Probable space group: C 2
;
_chemical_formula_sum "Si O2"
_cell_formula_units_Z 26
_cell_length_a 17.698288
_cell_length_b 12.520546
_cell_length_c 4.987202
_cell_angle_alpha 90.000000
_cell_angle_beta 97.593012
_cell_angle_gamma 90.000000
_cell_volume 1095.435098
_symmetry_space_group_name_H-M "C 2"
_symmetry_group_IT_number 5
_symmetry_cell_setting 'monoclinic'
loop_
_space_group_symop_operation_xyz
x,y,z
-x,y,-z
1/2+x,1/2+y,z
1/2-x,1/2+y,-z
loop_
_atom_site_type_symbol
_atom_site_label
_atom_site_fract_x
_atom_site_fract_y
_atom_site_fract_z
Si Si1 0.213947 0.866450 0.793646
Si Si2 0.628832 0.890679 0.699316
Si Si3 0.743260 0.066884 0.992699
Si Si4 0.500000 0.155741 0.000000
Si Si5 0.000000 0.284864 0.000000
Si Si6 0.500000 0.013149 0.500000
Si Si7 0.845791 0.225942 0.713832
Si Si8 0.651598 0.254894 0.245006
O O1 0.300509 0.820972 0.851744
O O2 0.175078 0.793326 0.550107
O O3 0.172507 0.849056 0.053439
O O4 0.215578 0.992845 0.764875
O O5 0.556924 0.855370 0.847732
O O6 0.661060 0.780137 0.584391
O O7 0.688287 0.982721 0.811979
O O8 0.576417 0.950118 0.445846
O O9 0.799771 0.125160 0.809462
O O10 0.696345 0.154169 0.138791
O O11 0.527691 0.083537 0.765293
O O12 0.435548 0.226136 0.832240
O O13 0.936029 0.216978 0.810359
#
# Coordination Sequence:
#
# PCOD9130180 Si02
#       8
#     4   4   4   2   2   2   4   4
#     4  11  25  47  71 108 155 204 260 322 389 485
#     4  12  24  45  76 117 165 202 264 335 409 480
#     4  11  26  49  74 115 158 211 267 326 405 486
#     4  12  25  44  71 114 154 198 261 332 395 474
#     4  12  23  48  71 116 162 196 265 348 387 470
#     4  12  24  38  72 112 154 198 244 328 416 456
#     4  11  26  44  75 111 157 207 260 331 403 478
#     4  11  26  45  74 110 152 203 262 325 399 466
#
# _framework density 23.734864000000002
#
# number of rings (size 3 to 8) (size 9 to 14) (size 15 to 20)
#    0.000    0.615    4.615    2.308    6.462    2.462 
#    0.000    0.769    0.000    5.538    0.000    0.000 
#    0.000    0.000    0.000    0.000    0.000    0.000 
#
# Total GULP energy -72560.527487 kJ/mol
# GULP energy per Si atom -5581.579037 kJ/mol
# Density = 2.368084 g / cm^3
# Si number density = 23.734864 Si / 1000 Ang^3
#
#
#
# Elastic Constant Matrix: (Units=GPa)
#
#
# Indices 1 2 3 4 5 6 
#
# 1 148.1735 67.1164 31.8257 0.0000 11.0820 0.0000
# 2 67.1164 121.2752 39.2363 0.0000 6.9820 0.0000
# 3 31.8257 39.2363 80.5769 0.0000 7.7668 0.0000
# 4 0.0000 0.0000 0.0000 33.1076 0.0000 -10.1090
# 5 11.0820 6.9820 7.7668 0.0000 38.9091 0.0000
# 6 0.0000 0.0000 0.0000 -10.1090 0.0000 25.0174
#
#
#
# Elastic Compliance Matrix: (Units=1/GPa)
#
#
# Indices 1 2 3 4 5 6 
#
# 1 0.009221 -0.004610 -0.001248 0.000000 -0.001550 0.000000
# 2 -0.004610 0.012118 -0.004075 0.000000 -0.000048 0.000000
# 3 -0.001248 -0.004075 0.015073 0.000000 -0.001922 0.000000
# 4 0.000000 0.000000 0.000000 0.034456 0.000000 0.013923
# 5 -0.001550 -0.000048 -0.001922 0.000000 0.026535 0.000000
# 6 0.000000 0.000000 0.000000 0.013923 0.000000 0.045598
#
#
# Mechanical properties :
#
#
# Convention : Reuss Voigt Hill
#
# Bulk Modulus (GPa) = 60.43849 69.59804 65.01827
# Shear Modulus (GPa) = 29.69426 33.52998 31.61212
#
# Velocity S-wave (km/s) = 3.54090 3.76265 3.65346
# Velocity P-wave (km/s) = 6.49897 6.94720 6.72682
#
# Compressibility (1/GPa) = 0.01654575
#
# Stress axis : x y z
#
# Youngs Moduli (GPa) = 108.44827 82.51935 66.34341
#
# Poissons Ratio (x) = 0.38043 0.08278
# Poissons Ratio (y) = 0.49997 0.27038
# Poissons Ratio (z) = 0.13532 0.33630
#
# Static dielectric constant tensor:
#      x y z
#    x 1.955260 0.000000 0.055240 
#    y 0.000000 1.966650 0.000000 
#    z 0.055240 0.000000 2.099670 
# 
# From -- ./inp_files/8313.got.cif
#   From: 2010.05.17/outbox.cif.g08.bks.cpg/sg5_5_cif.got.tgz:8313.got - 2010.06.03 18:56:24.
