data_PCOD9130659
_publ_section_title
;
Structure prediction by ZEFSAII (Michael W. Deem and Ramdas Pophale) SiO2 
 PCOD9130659
Probable space group: C 2
;
_chemical_formula_sum "Si O2"
_cell_formula_units_Z 15
_cell_length_a 9.000000
_cell_length_b 15.000000
_cell_length_c 12.000000
_cell_angle_alpha 90.000000
_cell_angle_beta 90.000000
_cell_angle_gamma 90.000000
_cell_volume 1620.000000
_symmetry_space_group_name_H-M "C 2"
_symmetry_group_IT_number 5
_symmetry_cell_setting 'monoclinic'
loop_
_space_group_symop_operation_xyz
x,y,z
-x,y,-z
1/2+x,1/2+y,z
1/2-x,1/2+y,-z
loop_
_atom_site_type_symbol
_atom_site_label
_atom_site_fract_x
_atom_site_fract_y
_atom_site_fract_z
Si Si1 0.500000 0.545141 0.500000
Si Si2 0.339753 0.981909 0.270689
Si Si3 0.528003 0.799537 0.635584
Si Si4 0.832343 0.713906 0.674669
Si Si5 0.289497 0.271280 0.263859
Si Si6 0.971883 0.906465 0.694080
Si Si7 0.033550 0.636651 0.869123
Si Si8 0.810795 0.630398 0.451278
O O1 0.527595 0.476314 0.601715
O O2 0.636414 0.608039 0.468873
O O3 0.418125 0.038297 0.172919
O O4 0.353254 0.046609 0.377109
O O5 0.414008 0.892437 0.314281
O O6 0.165786 0.957632 0.245970
O O7 0.500000 0.804314 0.500000
O O8 0.655155 0.727778 0.666742
O O9 0.380918 0.783269 0.707522
O O10 0.893418 0.814411 0.652017
O O11 0.872284 0.647683 0.573876
O O12 0.900223 0.675450 0.789594
O O13 0.383300 0.362284 0.248482
O O14 0.332250 0.203879 0.164927
O O15 0.336824 0.217734 0.376480
O O16 0.000000 0.639236 0.000000
#
# Coordination Sequence:
#
# PCOD9130659 Si02
#       8
#     2   4   4   4   4   4   4   4
#     4  10  18  26  48  78 126 148 184 224 292 356
#     4   9  22  35  55  86 121 153 199 244 304 367
#     4  11  21  35  56  96 134 153 185 244 312 382
#     4  10  20  36  58  83 120 156 205 239 302 363
#     4  10  20  36  60  83 122 157 200 238 304 363
#     4   9  19  34  50  79 112 161 187 237 288 360
#     4  10  23  44  63  80 113 164 218 257 294 345
#     4  10  18  30  49  84 115 156 183 241 292 361
#
# _framework density 9.2592590000000001
#
# number of rings (size 3 to 8) (size 9 to 14) (size 15 to 20)
#    0.000    2.133    1.333    1.600    5.600    3.733 
#    0.000    4.667    0.000    0.000    0.000    0.000 
#    0.000    0.000    0.000    0.000    0.000    0.000 
#
# Total GULP energy -83503.412600 kJ/mol
# GULP energy per Si atom -5566.894173 kJ/mol
# Density = 0.923818 g / cm^3
# Si number density = 9.259259 Si / 1000 Ang^3
#
#
#
# Elastic Constant Matrix: (Units=GPa)
#
#
# Indices 1 2 3 4 5 6 
#
# 1 117.6611 38.1713 44.0204 0.0000 -18.2403 0.0000
# 2 38.1713 78.8573 42.8671 0.0000 -4.6248 0.0000
# 3 44.0204 42.8671 130.8087 0.0000 -19.0625 0.0000
# 4 0.0000 0.0000 0.0000 13.8624 0.0000 -0.5546
# 5 -18.2403 -4.6248 -19.0625 0.0000 18.8201 0.0000
# 6 0.0000 0.0000 0.0000 -0.5546 0.0000 25.1342
#
#
#
# Elastic Compliance Matrix: (Units=1/GPa)
#
#
# Indices 1 2 3 4 5 6 
#
# 1 0.011833 -0.004565 -0.001148 0.000000 0.009184 0.000000
# 2 -0.004565 0.017230 -0.004854 0.000000 -0.005108 0.000000
# 3 -0.001148 -0.004854 0.010894 0.000000 0.008729 0.000000
# 4 0.000000 0.000000 0.000000 0.072202 0.000000 0.001593
# 5 0.009184 -0.005108 0.008729 0.000000 0.069622 0.000000
# 6 0.000000 0.000000 0.000000 0.001593 0.000000 0.039822
#
#
# Mechanical properties :
#
#
# Convention : Reuss Voigt Hill
#
# Bulk Modulus (GPa) = 53.12817 64.16052 58.64435
# Shear Modulus (GPa) = 20.07933 25.04788 22.56360
#
# Velocity S-wave (km/s) = 3.29642 3.68174 3.49440
# Velocity P-wave (km/s) = 6.57571 7.26605 6.92948
#
# Compressibility (1/GPa) = 0.01882241
#
# Stress axis : x y z
#
# Youngs Moduli (GPa) = 84.50759 58.03686 91.79477
#
# Poissons Ratio (x) = 0.26496 0.10535
# Poissons Ratio (y) = 0.38581 0.44562
# Poissons Ratio (z) = 0.09698 0.28174
#
# Static dielectric constant tensor:
#      x y z
#    x 1.795070 0.000000 -0.002620 
#    y 0.000000 1.666280 0.000000 
#    z -0.002620 0.000000 1.599700 
# 
# From -- ./inp_files/36172.got.cif
#   From: 2010.05.17/outbox.ucp.g08.bks.cvg/sg5_19_cif.got.tgz:36172.got - 2010.06.11 12:53:14.
