data_PCOD9130958
_publ_section_title
;
Structure prediction by ZEFSAII (Michael W. Deem and Ramdas Pophale) SiO2 
 PCOD9130958
Probable space group: P M
;
_chemical_formula_sum "Si O2"
_cell_formula_units_Z 16
_cell_length_a 17.114678
_cell_length_b 9.057065
_cell_length_c 7.226170
_cell_angle_alpha 90.000000
_cell_angle_beta 128.486735
_cell_angle_gamma 90.000000
_cell_volume 876.776137
_symmetry_space_group_name_H-M "P M"
_symmetry_group_IT_number 6
_symmetry_cell_setting 'monoclinic'
loop_
_space_group_symop_operation_xyz
x,y,z
x,-y,z
loop_
_atom_site_type_symbol
_atom_site_label
_atom_site_fract_x
_atom_site_fract_y
_atom_site_fract_z
Si Si1 0.774100 0.824159 0.989270
Si Si2 0.612812 0.824404 0.070124
Si Si3 0.411274 0.670450 0.837296
Si Si4 0.914563 0.824102 0.524369
Si Si5 0.189880 0.669860 0.442937
Si Si6 0.128441 0.174736 0.998911
Si Si7 0.759176 0.323726 0.568903
Si Si8 0.272988 0.825083 0.895694
O O1 0.766731 0.736530 0.788287
O O2 0.776181 0.000000 0.952776
O O3 0.680850 0.794622 0.989749
O O4 0.870950 0.786713 0.257861
O O5 0.501316 0.763520 0.888921
O O6 0.664545 0.744656 0.320781
O O7 0.613148 0.000000 0.100020
O O8 0.439846 0.500000 0.901310
O O9 0.308700 0.676544 0.567706
O O10 0.371391 0.739124 0.972807
O O11 0.852388 0.735576 0.585968
O O12 0.894145 0.000000 0.519823
O O13 0.030758 0.799057 0.731135
O O14 0.166911 0.500000 0.453484
O O15 0.126433 0.732373 0.182516
O O16 0.189886 0.772680 0.623504
O O17 0.131220 0.000000 0.046999
O O18 0.227074 0.210768 0.026097
O O19 0.755005 0.500000 0.560272
O O20 0.288491 0.000000 0.904176
#
# Coordination Sequence:
#
# PCOD9130958 Si02
#       8
#     2   2   2   2   2   2   2   2
#     4   9  19  37  58  81 109 141 179 224 273 323
#     4  10  20  37  61  83 107 142 184 227 269 318
#     4   9  19  36  55  80 114 148 177 221 278 322
#     4   9  20  38  58  80 109 144 184 229 271 316
#     4   9  20  35  52  77 111 146 178 221 273 321
#     4  10  20  35  58  83 106 143 189 229 270 317
#     4  11  22  36  56  84 114 143 176 220 275 333
#     4   9  18  34  54  78 108 143 185 227 265 314
#
# _framework density 18.248671999999999
#
# number of rings (size 3 to 8) (size 9 to 14) (size 15 to 20)
#    0.750    1.750    0.000    3.000    0.000    5.000 
#    2.250    2.500    0.000    0.000    0.000    0.000 
#    0.000    0.000    0.000    0.000    0.000    0.000 
#
# Total GULP energy -89123.067960 kJ/mol
# GULP energy per Si atom -5570.191748 kJ/mol
# Density = 1.820714 g / cm^3
# Si number density = 18.248672 Si / 1000 Ang^3
#
#
#
# Elastic Constant Matrix: (Units=GPa)
#
#
# Indices 1 2 3 4 5 6 
#
# 1 25.8112 23.4635 10.0148 0.0000 0.9646 0.0000
# 2 23.4635 62.5707 36.4852 0.0000 -9.7290 0.0000
# 3 10.0148 36.4852 66.6128 0.0000 -16.6094 0.0000
# 4 0.0000 0.0000 0.0000 -9.3221 0.0000 13.0336
# 5 0.9646 -9.7290 -16.6094 0.0000 21.1786 0.0000
# 6 0.0000 0.0000 0.0000 13.0336 0.0000 15.7995
#
#
#
# Elastic Compliance Matrix: (Units=1/GPa)
#
#
# Indices 1 2 3 4 5 6 
#
# 1 0.062895 -0.026755 0.001765 0.000000 -0.013771 0.000000
# 2 -0.026755 0.034876 -0.013402 0.000000 0.006729 0.000000
# 3 0.001765 -0.013402 0.025523 0.000000 0.013780 0.000000
# 4 0.000000 0.000000 0.000000 -0.049816 0.000000 0.041095
# 5 -0.013771 0.006729 0.013780 0.000000 0.061743 0.000000
# 6 0.000000 0.000000 0.000000 0.041095 0.000000 0.029392
#
#
# Mechanical properties :
#
#
# Convention : Reuss Voigt Hill
#
# Bulk Modulus (GPa) = 21.50120 32.76908 27.13514
# Shear Modulus (GPa) = 19.46277 11.19996 15.33137
#
# Velocity S-wave (km/s) = 3.26932 2.48007 2.90165
# Velocity P-wave (km/s) = 5.10482 5.11829 5.11156
#
# Compressibility (1/GPa) = 0.04650903
#
# Stress axis : x y z
#
# Youngs Moduli (GPa) = 15.89963 28.67306 39.18013
#
# Poissons Ratio (x) = 0.76716 -0.06915
# Poissons Ratio (y) = 0.42540 0.52509
# Poissons Ratio (z) = -0.02806 0.38427
#
# Static dielectric constant tensor:
#      x y z
#    x 1.633290 0.000000 0.020660 
#    y 0.000000 1.614500 0.000000 
#    z 0.020660 0.000000 1.622150 
# 
# From -- ./inp_files/1961.got.cif
#   From: 2010.05.17/outbox.cif.g08.bks.cpg/sg6_1_cif.got.tgz:1961.got - 2010.06.03 19:42:10.
