data_PCOD9130824
_publ_section_title
;
Structure prediction by ZEFSAII (Michael W. Deem and Ramdas Pophale) SiO2 
 PCOD9130824
Probable space group: P M
;
_chemical_formula_sum "Si O2"
_cell_formula_units_Z 14
_cell_length_a 7.338158
_cell_length_b 13.159292
_cell_length_c 11.117201
_cell_angle_alpha 90.000000
_cell_angle_beta 137.261604
_cell_angle_gamma 90.000000
_cell_volume 728.554727
_symmetry_space_group_name_H-M "P M"
_symmetry_group_IT_number 6
_symmetry_cell_setting 'monoclinic'
loop_
_space_group_symop_operation_xyz
x,y,z
x,-y,z
loop_
_atom_site_type_symbol
_atom_site_label
_atom_site_fract_x
_atom_site_fract_y
_atom_site_fract_z
Si Si1 0.537080 0.820635 0.730070
Si Si2 0.821802 0.735059 0.504120
Si Si3 0.268763 0.383726 0.599300
Si Si4 0.222570 0.884737 0.807207
Si Si5 0.285671 0.741570 0.383968
Si Si6 0.045908 0.112442 0.096311
Si Si7 0.591447 0.113948 0.211305
O O1 0.496962 0.700223 0.741042
O O2 0.366254 0.879194 0.747228
O O3 0.411140 0.825304 0.536973
O O4 0.836890 0.858560 0.891464
O O5 0.532127 0.708335 0.417674
O O6 0.784645 0.804123 0.365862
O O7 0.014114 0.643247 0.559048
O O8 0.982563 0.804560 0.677981
O O9 0.347890 0.500000 0.646948
O O10 0.200345 0.350516 0.428822
O O11 0.130354 0.000000 0.787208
O O12 0.447774 0.859326 0.016083
O O13 0.056086 0.798953 0.199479
O O14 0.341881 0.108782 0.183597
O O15 0.978476 0.000000 0.110786
O O16 0.708663 0.000000 0.260385
#
# Coordination Sequence:
#
# PCOD9130824 Si02
#       7
#     2   2   2   2   2   2   2
#     4   9  20  34  53  79 113 142 184 224 269 322
#     4  10  19  36  58  77 109 144 181 227 275 319
#     4   9  21  40  58  80 106 141 188 236 283 320
#     4  10  19  30  50  80 114 150 181 215 263 324
#     4   9  21  37  56  83 111 144 182 229 269 328
#     4  10  19  33  54  83 115 149 179 212 267 330
#     4   9  19  32  51  80 114 146 179 215 260 327
#
# _framework density 19.216125000000002
#
# number of rings (size 3 to 8) (size 9 to 14) (size 15 to 20)
#    0.857    1.714    0.000    1.714    2.000    2.286 
#    0.000    0.714    0.000    0.857    0.000    0.000 
#    0.000    0.000    0.000    0.000    0.000    0.000 
#
# Total GULP energy -77979.012115 kJ/mol
# GULP energy per Si atom -5569.929437 kJ/mol
# Density = 1.917239 g / cm^3
# Si number density = 19.216125 Si / 1000 Ang^3
#
#
#
# Elastic Constant Matrix: (Units=GPa)
#
#
# Indices 1 2 3 4 5 6 
#
# 1 45.0641 8.8449 -9.4846 0.0000 -6.7516 0.0000
# 2 8.8449 83.2121 5.0247 0.0000 6.3263 0.0000
# 3 -9.4846 5.0247 44.1783 0.0000 -7.5302 0.0000
# 4 0.0000 0.0000 0.0000 13.7795 0.0000 -0.5405
# 5 -6.7516 6.3263 -7.5302 0.0000 23.5777 0.0000
# 6 0.0000 0.0000 0.0000 -0.5405 0.0000 12.9819
#
#
#
# Elastic Compliance Matrix: (Units=1/GPa)
#
#
# Indices 1 2 3 4 5 6 
#
# 1 0.026382 -0.004145 0.008051 0.000000 0.011238 0.000000
# 2 -0.004145 0.013100 -0.003364 0.000000 -0.005776 0.000000
# 3 0.008051 -0.003364 0.026750 0.000000 0.011751 0.000000
# 4 0.000000 0.000000 0.000000 0.072690 0.000000 0.003026
# 5 0.011238 -0.005776 0.011751 0.000000 0.050934 0.000000
# 6 0.000000 0.000000 0.000000 0.003026 0.000000 0.077156
#
#
# Mechanical properties :
#
#
# Convention : Reuss Voigt Hill
#
# Bulk Modulus (GPa) = 14.85535 20.13605 17.49570
# Shear Modulus (GPa) = 17.33894 21.27246 19.30570
#
# Velocity S-wave (km/s) = 3.00711 3.33079 3.17308
# Velocity P-wave (km/s) = 4.45021 5.02928 4.74858
#
# Compressibility (1/GPa) = 0.06731582
#
# Stress axis : x y z
#
# Youngs Moduli (GPa) = 37.90416 76.33370 37.38361
#
# Poissons Ratio (x) = 0.31639 -0.30097
# Poissons Ratio (y) = 0.15711 0.12578
# Poissons Ratio (z) = -0.30517 0.25682
#
# Static dielectric constant tensor:
#      x y z
#    x 1.735670 0.000000 -0.006120 
#    y 0.000000 1.653710 0.000000 
#    z -0.006120 0.000000 1.670950 
# 
# From -- ./inp_files/3956.got.cif
#   From: 2010.05.17/outbox.cif.g08.bks.cpg/sg6_2_cif.got.tgz:3956.got - 2010.06.03 19:42:10.
