data_PCOD9130868
_publ_section_title
;
Structure prediction by ZEFSAII (Michael W. Deem and Ramdas Pophale) SiO2 
 PCOD9130868
Probable space group: P M
;
_chemical_formula_sum "Si O2"
_cell_formula_units_Z 16
_cell_length_a 12.604666
_cell_length_b 8.533687
_cell_length_c 10.311063
_cell_angle_alpha 90.000000
_cell_angle_beta 126.307222
_cell_angle_gamma 90.000000
_cell_volume 893.773907
_symmetry_space_group_name_H-M "P M"
_symmetry_group_IT_number 6
_symmetry_cell_setting 'monoclinic'
loop_
_space_group_symop_operation_xyz
x,y,z
x,-y,z
loop_
_atom_site_type_symbol
_atom_site_label
_atom_site_fract_x
_atom_site_fract_y
_atom_site_fract_z
Si Si1 0.366570 0.811752 0.203940
Si Si2 0.068322 0.190224 0.916985
Si Si3 0.139114 0.188279 0.686819
Si Si4 0.594045 0.811879 0.863961
Si Si5 0.098019 0.687284 0.376916
Si Si6 0.890488 0.189189 0.020207
Si Si7 0.392363 0.312085 0.503663
Si Si8 0.426190 0.686760 0.971839
O O1 0.417875 0.743831 0.375832
O O2 0.372549 0.000000 0.210073
O O3 0.212408 0.764344 0.075758
O O4 0.437891 0.748962 0.126959
O O5 0.063733 0.239033 0.763550
O O6 0.066202 0.000000 0.915387
O O7 0.955209 0.245793 0.931957
O O8 0.084430 0.259381 0.515418
O O9 0.289987 0.242349 0.816644
O O10 0.137045 0.000000 0.677545
O O11 0.494376 0.759573 0.679046
O O12 0.541692 0.741252 0.960585
O O13 0.592400 0.000000 0.872419
O O14 0.741656 0.758290 0.936925
O O15 0.092210 0.500000 0.364685
O O16 0.243717 0.737784 0.434578
O O17 0.987493 0.759024 0.204839
O O18 0.889012 0.000000 0.015172
O O19 0.398533 0.500000 0.516053
O O20 0.415668 0.500000 0.963968
#
# Coordination Sequence:
#
# PCOD9130868 Si02
#       8
#     2   2   2   2   2   2   2   2
#     4  10  19  34  59  86 113 145 189 239 284 340
#     4   8  16  32  55  83 110 139 179 231 284 328
#     4  10  19  33  57  85 112 146 191 238 284 336
#     4  11  23  38  59  84 113 155 200 238 282 343
#     4  11  22  35  55  86 117 150 191 235 286 340
#     4  10  21  39  60  83 113 151 193 237 285 340
#     4  11  22  36  56  85 118 151 191 239 287 338
#     4  11  21  35  55  82 118 151 186 237 294 345
#
# _framework density 17.901620000000001
#
# number of rings (size 3 to 8) (size 9 to 14) (size 15 to 20)
#    0.000    1.750    2.500    3.750    0.000    2.000 
#    0.000    1.875    0.000    6.000    0.000    0.000 
#    0.000    0.000    0.000    0.000    0.000    0.000 
#
# Total GULP energy -89344.335980 kJ/mol
# GULP energy per Si atom -5584.020999 kJ/mol
# Density = 1.786088 g / cm^3
# Si number density = 17.901620 Si / 1000 Ang^3
#
#
#
# Elastic Constant Matrix: (Units=GPa)
#
#
# Indices 1 2 3 4 5 6 
#
# 1 145.5570 14.7790 68.1092 0.0000 -15.1060 0.0000
# 2 14.7790 17.9664 2.6939 0.0000 2.7490 0.0000
# 3 68.1092 2.6939 93.5913 0.0000 -14.3300 0.0000
# 4 0.0000 0.0000 0.0000 4.0744 0.0000 3.1995
# 5 -15.1060 2.7490 -14.3300 0.0000 32.0363 0.0000
# 6 0.0000 0.0000 0.0000 3.1995 0.0000 13.1295
#
#
#
# Elastic Compliance Matrix: (Units=1/GPa)
#
#
# Indices 1 2 3 4 5 6 
#
# 1 0.011743 -0.008906 -0.007863 0.000000 0.002784 0.000000
# 2 -0.008906 0.063722 0.003400 0.000000 -0.008147 0.000000
# 3 -0.007863 0.003400 0.016851 0.000000 0.003538 0.000000
# 4 0.000000 0.000000 0.000000 0.303515 0.000000 -0.073964
# 5 0.002784 -0.008147 0.003538 0.000000 0.034809 0.000000
# 6 0.000000 0.000000 0.000000 -0.073964 0.000000 0.094188
#
#
# Mechanical properties :
#
#
# Convention : Reuss Voigt Hill
#
# Bulk Modulus (GPa) = 15.24924 47.58655 31.41789
# Shear Modulus (GPa) = 8.71953 21.28357 15.00155
#
# Velocity S-wave (km/s) = 2.20938 3.45181 2.89796
# Velocity P-wave (km/s) = 3.87883 6.52124 5.36526
#
# Compressibility (1/GPa) = 0.06557705
#
# Stress axis : x y z
#
# Youngs Moduli (GPa) = 85.16031 15.69308 59.34511
#
# Poissons Ratio (x) = 0.13977 0.46662
# Poissons Ratio (y) = 0.75847 -0.20177
# Poissons Ratio (z) = 0.66960 -0.05336
#
# Static dielectric constant tensor:
#      x y z
#    x 1.621460 0.000000 -0.019300 
#    y 0.000000 1.601630 0.000000 
#    z -0.019300 0.000000 1.584660 
# 
# From -- ./inp_files/3634.got.cif
#   From: 2010.05.17/outbox.cif.g08.bks.cpg/sg6_2_cif.got.tgz:3634.got - 2010.06.03 19:42:10.
