data_PCOD9130928
_publ_section_title
;
Structure prediction by ZEFSAII (Michael W. Deem and Ramdas Pophale) SiO2 
 PCOD9130928
Probable space group: P M
;
_chemical_formula_sum "Si O2"
_cell_formula_units_Z 16
_cell_length_a 8.016513
_cell_length_b 8.942414
_cell_length_c 10.815899
_cell_angle_alpha 90.000000
_cell_angle_beta 61.776549
_cell_angle_gamma 90.000000
_cell_volume 683.176642
_symmetry_space_group_name_H-M "P M"
_symmetry_group_IT_number 6
_symmetry_cell_setting 'monoclinic'
loop_
_space_group_symop_operation_xyz
x,y,z
x,-y,z
loop_
_atom_site_type_symbol
_atom_site_label
_atom_site_fract_x
_atom_site_fract_y
_atom_site_fract_z
Si Si1 0.421710 0.172636 0.157160
Si Si2 0.084023 0.821487 0.652610
Si Si3 0.549291 0.178060 0.743396
Si Si4 0.840739 0.329338 0.236054
Si Si5 0.080907 0.673681 0.406428
Si Si6 0.515102 0.821597 0.480811
Si Si7 0.753987 0.676916 0.901815
Si Si8 0.165585 0.167934 0.995602
O O1 0.288483 0.265862 0.295203
O O2 0.297274 0.170182 0.073369
O O3 0.441819 0.000000 0.189891
O O4 0.621623 0.246056 0.051321
O O5 0.005494 0.774698 0.545001
O O6 0.299871 0.766843 0.564692
O O7 0.959135 0.747389 0.803411
O O8 0.079269 0.000000 0.669277
O O9 0.600864 0.214249 0.585397
O O10 0.645411 0.280820 0.811817
O O11 0.587051 0.000000 0.755945
O O12 0.321693 0.197186 0.836680
O O13 0.791150 0.500000 0.230924
O O14 0.650381 0.238200 0.326987
O O15 0.957003 0.317160 0.324976
O O16 0.989251 0.274071 0.081813
O O17 0.086636 0.500000 0.442710
O O18 0.506191 0.000000 0.474394
O O19 0.762440 0.500000 0.916564
O O20 0.091200 0.000000 0.006314
#
# Coordination Sequence:
#
# PCOD9130928 Si02
#       8
#     2   2   2   2   2   2   2   2
#     4   9  17  32  55  82 109 140 176 217 263 315
#     4  11  23  38  54  75 105 145 187 225 265 316
#     4   9  18  35  58  82 105 134 175 223 268 316
#     4  10  20  33  53  80 108 137 171 212 263 318
#     4  10  20  35  56  84 112 139 174 220 270 320
#     4  10  22  38  55  75 103 140 182 223 264 311
#     4  11  21  34  55  83 111 141 176 220 270 319
#     4   8  15  29  52  79 105 132 167 212 261 309
#
# _framework density 23.420003000000001
#
# number of rings (size 3 to 8) (size 9 to 14) (size 15 to 20)
#    0.000    2.250    0.000    4.125    0.000    8.000 
#    0.000    1.250    0.000    6.000    0.000    0.000 
#    0.000    0.000    0.000    0.000    0.000    0.000 
#
# Total GULP energy -89515.533848 kJ/mol
# GULP energy per Si atom -5594.720866 kJ/mol
# Density = 2.336670 g / cm^3
# Si number density = 23.420003 Si / 1000 Ang^3
#
#
#
# Elastic Constant Matrix: (Units=GPa)
#
#
# Indices 1 2 3 4 5 6 
#
# 1 75.8931 18.3429 16.4830 0.0000 -15.4762 0.0000
# 2 18.3429 74.5461 27.8177 0.0000 -18.3957 0.0000
# 3 16.4830 27.8177 134.3055 0.0000 -13.5183 0.0000
# 4 0.0000 0.0000 0.0000 25.1140 0.0000 -15.5692
# 5 -15.4762 -18.3957 -13.5183 0.0000 47.4520 0.0000
# 6 0.0000 0.0000 0.0000 -15.5692 0.0000 -20.6168
#
#
#
# Elastic Compliance Matrix: (Units=1/GPa)
#
#
# Indices 1 2 3 4 5 6 
#
# 1 0.014690 -0.002372 -0.000949 0.000000 0.003601 0.000000
# 2 -0.002372 0.016129 -0.002572 0.000000 0.004747 0.000000
# 3 -0.000949 -0.002572 0.008198 0.000000 0.001029 0.000000
# 4 0.000000 0.000000 0.000000 0.027121 0.000000 -0.020481
# 5 0.003601 0.004747 0.001029 0.000000 0.024382 0.000000
# 6 0.000000 0.000000 0.000000 -0.020481 0.000000 -0.033037
#
#
# Mechanical properties :
#
#
# Convention : Reuss Voigt Hill
#
# Bulk Modulus (GPa) = 36.72133 45.55911 41.14022
# Shear Modulus (GPa) = 63.81906 25.19658 44.50782
#
# Velocity S-wave (km/s) = 5.22580 3.28358 4.36411
# Velocity P-wave (km/s) = 7.21980 5.81990 6.55731
#
# Compressibility (1/GPa) = 0.02723213
#
# Stress axis : x y z
#
# Youngs Moduli (GPa) = 68.07265 61.99954 121.97408
#
# Poissons Ratio (x) = 0.14705 0.11577
# Poissons Ratio (y) = 0.16146 0.31370
# Poissons Ratio (z) = 0.06461 0.15945
#
# Static dielectric constant tensor:
#      x y z
#    x 1.977640 0.000000 0.038110 
#    y 0.000000 1.788960 0.000000 
#    z 0.038110 0.000000 1.870080 
# 
# From -- ./inp_files/3819.got.cif
#   From: 2010.05.17/outbox.cif.g08.bks.cpg/sg6_2_cif.got.tgz:3819.got - 2010.06.03 19:42:10.
