data_PCOD9130416
_publ_section_title
;
Structure prediction by ZEFSAII (Michael W. Deem and Ramdas Pophale) SiO2 
 PCOD9130416
Probable space group: C 2
;
_chemical_formula_sum "Si O2"
_cell_formula_units_Z 18
_cell_length_a 11.713082
_cell_length_b 8.357721
_cell_length_c 7.596245
_cell_angle_alpha 90.000000
_cell_angle_beta 107.954360
_cell_angle_gamma 90.000000
_cell_volume 707.418795
_symmetry_space_group_name_H-M "C 2"
_symmetry_group_IT_number 5
_symmetry_cell_setting 'monoclinic'
loop_
_space_group_symop_operation_xyz
x,y,z
-x,y,-z
1/2+x,1/2+y,z
1/2-x,1/2+y,-z
loop_
_atom_site_type_symbol
_atom_site_label
_atom_site_fract_x
_atom_site_fract_y
_atom_site_fract_z
Si Si1 0.000000 0.686710 0.000000
Si Si2 0.491370 0.922761 0.290393
Si Si3 0.767629 0.211575 0.108799
Si Si4 0.357171 0.455944 0.437825
Si Si5 0.198966 0.172055 0.278760
O O1 0.298200 0.650927 0.927725
O O2 0.009505 0.574104 0.175553
O O3 0.500000 0.955524 0.500000
O O4 0.629367 0.268247 0.048133
O O5 0.587533 0.787257 0.280197
O O6 0.860820 0.351331 0.191278
O O7 0.796016 0.071206 0.262607
O O8 0.500000 0.473214 0.500000
O O9 0.315175 0.276406 0.384700
O O10 0.311800 0.517899 0.604637
#
# Coordination Sequence:
#
# PCOD9130416 Si02
#       5
#     2   4   4   4   4
#     4  12  28  44  74 108 148 198 250 302 378 442
#     4  12  23  47  76 102 147 199 244 304 376 443
#     4  12  24  45  73 108 146 191 249 304 369 442
#     4  12  27  49  75 112 151 197 253 307 377 447
#     4  12  26  47  78 111 151 197 249 310 378 444
#
# _framework density 25.444616
#
# number of rings (size 3 to 8) (size 9 to 14) (size 15 to 20)
#    0.000    0.000    8.889    0.000    3.111    3.556 
#    0.000    0.000    0.000    0.000    0.000    0.000 
#    0.000    0.000    0.000    0.000    0.000    0.000 
#
# Total GULP energy -50584.537147 kJ/mol
# GULP energy per Si atom -5620.504127 kJ/mol
# Density = 2.538670 g / cm^3
# Si number density = 25.444616 Si / 1000 Ang^3
#
#
#
# Elastic Constant Matrix: (Units=GPa)
#
#
# Indices 1 2 3 4 5 6 
#
# 1 180.8193 23.6787 62.9724 0.0000 5.0486 0.0000
# 2 23.6787 38.5271 34.3944 0.0000 -0.2496 0.0000
# 3 62.9724 34.3944 230.1282 0.0000 -20.5254 0.0000
# 4 0.0000 0.0000 0.0000 22.1257 0.0000 0.0668
# 5 5.0486 -0.2496 -20.5254 0.0000 39.5059 0.0000
# 6 0.0000 0.0000 0.0000 0.0668 0.0000 41.9661
#
#
#
# Elastic Compliance Matrix: (Units=1/GPa)
#
#
# Indices 1 2 3 4 5 6 
#
# 1 0.006447 -0.002618 -0.001518 0.000000 -0.001629 0.000000
# 2 -0.002618 0.031205 -0.004090 0.000000 -0.001593 0.000000
# 3 -0.001518 -0.004090 0.005649 0.000000 0.003103 0.000000
# 4 0.000000 0.000000 0.000000 0.045196 0.000000 -0.000072
# 5 -0.001629 -0.001593 0.003103 0.000000 0.027123 0.000000
# 6 0.000000 0.000000 0.000000 -0.000072 0.000000 0.023829
#
#
# Mechanical properties :
#
#
# Convention : Reuss Voigt Hill
#
# Bulk Modulus (GPa) = 37.24368 76.84061 57.04214
# Shear Modulus (GPa) = 30.33037 42.61484 36.47260
#
# Velocity S-wave (km/s) = 3.45630 4.09688 3.79015
# Velocity P-wave (km/s) = 5.53145 7.25562 6.45139
#
# Compressibility (1/GPa) = 0.02685019
#
# Stress axis : x y z
#
# Youngs Moduli (GPa) = 155.09987 32.04596 177.02592
#
# Poissons Ratio (x) = 0.08388 0.26879
# Poissons Ratio (y) = 0.40600 0.72397
# Poissons Ratio (z) = 0.23550 0.13106
#
# Static dielectric constant tensor:
#      x y z
#    x 2.021670 0.000000 -0.041460 
#    y 0.000000 1.998530 0.000000 
#    z -0.041460 0.000000 2.017800 
# 
# From -- ./inp_files/18065.got.cif
#   From: 2010.05.17/outbox.cif.g08.bks.cpg/sg5_10_cif.got.tgz:18065.got - 2010.06.03 18:56:24.
