data_PCOD9130733
_publ_section_title
;
Structure prediction by ZEFSAII (Michael W. Deem and Ramdas Pophale) SiO2 
 PCOD9130733
Probable space group: C 2
;
_chemical_formula_sum "Si O2"
_cell_formula_units_Z 16
_cell_length_a 12.000000
_cell_length_b 9.000000
_cell_length_c 30.000000
_cell_angle_alpha 90.000000
_cell_angle_beta 30.000000
_cell_angle_gamma 90.000000
_cell_volume 1620.000000
_symmetry_space_group_name_H-M "C 2"
_symmetry_group_IT_number 5
_symmetry_cell_setting 'monoclinic'
loop_
_space_group_symop_operation_xyz
x,y,z
-x,y,-z
1/2+x,1/2+y,z
1/2-x,1/2+y,-z
loop_
_atom_site_type_symbol
_atom_site_label
_atom_site_fract_x
_atom_site_fract_y
_atom_site_fract_z
Si Si1 0.336515 0.656220 0.417874
Si Si2 0.183348 0.279479 0.664745
Si Si3 0.247272 0.605551 0.611059
Si Si4 0.290299 0.238543 0.040248
Si Si5 0.519376 0.041788 0.108112
Si Si6 0.592903 0.311439 0.585193
Si Si7 0.391189 0.537184 0.816724
Si Si8 0.335673 0.230267 0.258388
O O1 0.226489 0.682117 0.407808
O O2 0.341964 0.480719 0.426456
O O3 0.234301 0.741334 0.495568
O O4 0.584466 0.724644 0.326490
O O5 0.151916 0.439689 0.651713
O O6 0.349280 0.313574 0.648044
O O7 0.003522 0.173080 0.750235
O O8 0.500000 0.595797 0.500000
O O9 0.118736 0.708240 0.619769
O O10 0.213144 0.671677 0.673277
O O11 0.176757 0.114425 0.112428
O O12 0.152100 0.389523 0.075892
O O13 0.500000 0.282883 0.000000
O O14 0.356868 0.154981 0.970317
O O15 0.308445 0.994536 0.149096
O O16 0.460762 0.129491 0.175802
O O17 0.541525 0.390481 0.776428
#
# Coordination Sequence:
#
# PCOD9130733 Si02
#       8
#     4   4   4   4   4   4   4   4
#     4  12  25  45  66  96 138 185 243 294 346 404
#     4  12  25  44  67 100 135 185 238 290 346 407
#     4  12  25  45  66  95 138 185 242 297 345 404
#     4  10  24  46  77 105 135 175 218 277 347 426
#     4  11  24  49  72 105 143 170 227 282 345 425
#     4  12  26  44  66  93 137 186 240 300 342 404
#     4  11  26  43  70 106 141 181 228 281 349 422
#     4  12  25  45  68 100 143 184 231 286 344 408
#
# _framework density 9.8765429999999999
#
# number of rings (size 3 to 8) (size 9 to 14) (size 15 to 20)
#    0.000    0.500    3.750    4.125    3.500    2.000 
#    0.000    0.000    0.000    0.000    0.000    0.000 
#    0.000    0.000    0.000    0.000    0.000    0.000 
#
# Total GULP energy -89142.040966 kJ/mol
# GULP energy per Si atom -5571.377560 kJ/mol
# Density = 0.985406 g / cm^3
# Si number density = 9.876543 Si / 1000 Ang^3
#
#
#
# Elastic Constant Matrix: (Units=GPa)
#
#
# Indices 1 2 3 4 5 6 
#
# 1 80.7044 34.2926 18.0414 0.0001 38.5203 -0.0012
# 2 34.2926 141.2968 39.4970 -0.0002 1.4344 -0.0013
# 3 18.0414 39.4970 90.9093 0.0010 32.2448 -0.0016
# 4 0.0001 -0.0002 0.0010 40.2690 -0.0004 5.4213
# 5 38.5203 1.4344 32.2448 -0.0004 40.8977 0.0001
# 6 -0.0012 -0.0013 -0.0016 5.4213 0.0001 47.4343
#
#
#
# Elastic Compliance Matrix: (Units=1/GPa)
#
#
# Indices 1 2 3 4 5 6 
#
# 1 0.035064 -0.011858 0.013548 -0.000001 -0.043292 0.000001
# 2 -0.011858 0.012430 -0.009514 0.000001 0.018234 0.000000
# 3 0.013548 -0.009514 0.023395 -0.000001 -0.030873 0.000001
# 4 -0.000001 0.000001 -0.000001 0.025221 0.000002 -0.002883
# 5 -0.043292 0.018234 -0.030873 0.000002 0.088928 -0.000002
# 6 0.000001 0.000000 0.000001 -0.002883 -0.000002 0.021411
#
#
# Mechanical properties :
#
#
# Convention : Reuss Voigt Hill
#
# Bulk Modulus (GPa) = 18.10243 55.17470 36.63857
# Shear Modulus (GPa) = 20.78915 40.45883 30.62399
#
# Velocity S-wave (km/s) = 3.24767 4.53065 3.94171
# Velocity P-wave (km/s) = 4.82155 7.44055 6.26934
#
# Compressibility (1/GPa) = 0.05524119
#
# Stress axis : x y z
#
# Youngs Moduli (GPa) = 28.51932 80.45273 42.74387
#
# Poissons Ratio (x) = 0.95399 -0.57911
# Poissons Ratio (y) = 0.33817 0.40669
# Poissons Ratio (z) = -0.38639 0.76547
#
# Static dielectric constant tensor:
#      x y z
#    x 1.721830 0.000000 -0.039040 
#    y 0.000000 1.689910 0.000000 
#    z -0.039040 0.000000 1.773990 
# 
# From -- ./inp_files/71740.got.cif
#   From: 2010.05.17/outbox.ucp.g08.bks.cvg/sg5_36_cif.got.tgz:71740.got - 2010.06.11 12:53:14.
