data_PCOD9130561
_publ_section_title
;
Structure prediction by ZEFSAII (Michael W. Deem and Ramdas Pophale) SiO2 
 PCOD9130561
Probable space group: C 2
;
_chemical_formula_sum "Si O2"
_cell_formula_units_Z 14
_cell_length_a 8.897760
_cell_length_b 4.616956
_cell_length_c 13.290522
_cell_angle_alpha 90.000000
_cell_angle_beta 71.446910
_cell_angle_gamma 90.000000
_cell_volume 517.607061
_symmetry_space_group_name_H-M "C 2"
_symmetry_group_IT_number 5
_symmetry_cell_setting 'monoclinic'
loop_
_space_group_symop_operation_xyz
x,y,z
-x,y,-z
1/2+x,1/2+y,z
1/2-x,1/2+y,-z
loop_
_atom_site_type_symbol
_atom_site_label
_atom_site_fract_x
_atom_site_fract_y
_atom_site_fract_z
Si Si1 0.000000 0.827690 0.500000
Si Si2 0.812490 0.343658 0.928157
Si Si3 0.848948 0.500644 0.211936
Si Si4 0.190182 0.000876 0.638572
O O1 0.851531 0.623732 0.558553
O O2 0.946036 0.022305 0.416678
O O3 0.767893 0.148925 0.841757
O O4 0.691950 0.602815 0.982391
O O5 0.023016 0.505457 0.126901
O O6 0.828227 0.174047 0.253208
O O7 0.825799 0.671893 0.321436
#
# Coordination Sequence:
#
# PCOD9130561 Si02
#       4
#     2   4   4   4
#     4  12  28  50  80 114 156 204 256 316 380 456
#     4  12  26  47  78 113 154 201 254 313 380 454
#     4  12  26  48  76 111 152 199 252 314 378 452
#     4  12  27  48  77 113 154 201 255 314 381 452
#
# _framework density 27.047545
#
# number of rings (size 3 to 8) (size 9 to 14) (size 15 to 20)
#    0.000    0.000    0.000    9.429    0.000   10.286 
#    0.000    0.000    0.000    0.000    0.000    0.000 
#    0.000    0.000    0.000    0.000    0.000    0.000 
#
# Total GULP energy -39274.481296 kJ/mol
# GULP energy per Si atom -5610.640185 kJ/mol
# Density = 2.698598 g / cm^3
# Si number density = 27.047545 Si / 1000 Ang^3
#
#
#
# Elastic Constant Matrix: (Units=GPa)
#
#
# Indices 1 2 3 4 5 6 
#
# 1 85.8358 18.3900 29.5562 -0.0002 -1.8078 0.0010
# 2 18.3900 110.1464 18.7933 0.0042 -0.0741 0.0055
# 3 29.5562 18.7933 122.8067 -0.0003 11.4824 0.0012
# 4 -0.0002 0.0042 -0.0003 58.0875 0.0005 -12.8815
# 5 -1.8078 -0.0741 11.4824 0.0005 56.1290 0.0006
# 6 0.0010 0.0055 0.0012 -12.8815 0.0006 49.8574
#
#
#
# Elastic Compliance Matrix: (Units=1/GPa)
#
#
# Indices 1 2 3 4 5 6 
#
# 1 0.013057 -0.001670 -0.002983 0.000000 0.001029 0.000000
# 2 -0.001670 0.009541 -0.001075 -0.000001 0.000179 -0.000001
# 3 -0.002983 -0.001075 0.009211 0.000000 -0.001982 0.000000
# 4 0.000000 -0.000001 0.000000 0.018262 0.000000 0.004718
# 5 0.001029 0.000179 -0.001982 0.000000 0.018255 0.000000
# 6 0.000000 -0.000001 0.000000 0.004718 0.000000 0.021276
#
#
# Mechanical properties :
#
#
# Convention : Reuss Voigt Hill
#
# Bulk Modulus (GPa) = 49.13428 50.25198 49.69313
# Shear Modulus (GPa) = 46.36425 49.61809 47.99117
#
# Velocity S-wave (km/s) = 4.14475 4.28773 4.21685
# Velocity P-wave (km/s) = 6.41176 6.56751 6.49010
#
# Compressibility (1/GPa) = 0.02035239
#
# Stress axis : x y z
#
# Youngs Moduli (GPa) = 76.58834 104.80855 108.57097
#
# Poissons Ratio (x) = 0.17506 0.32386
# Poissons Ratio (y) = 0.12793 0.11669
# Poissons Ratio (z) = 0.22846 0.11265
#
# Static dielectric constant tensor:
#      x y z
#    x 2.053060 0.000000 0.027090 
#    y 0.000000 2.019710 0.000000 
#    z 0.027090 0.000000 2.112700 
# 
# From -- ./inp_files/37690.got.cif
#   From: 2010.05.17/outbox.cif.g08.bks.cpg/sg5_19_cif.got.tgz:37690.got - 2010.06.03 18:56:24.
