data_PCOD9130301
_publ_section_title
;
Structure prediction by ZEFSAII (Michael W. Deem and Ramdas Pophale) SiO2 
 PCOD9130301
Probable space group: C 2
;
_chemical_formula_sum "Si O2"
_cell_formula_units_Z 22
_cell_length_a 5.118894
_cell_length_b 22.130519
_cell_length_c 8.161029
_cell_angle_alpha 90.000000
_cell_angle_beta 101.616702
_cell_angle_gamma 90.000000
_cell_volume 905.575061
_symmetry_space_group_name_H-M "C 2"
_symmetry_group_IT_number 5
_symmetry_cell_setting 'monoclinic'
loop_
_space_group_symop_operation_xyz
x,y,z
-x,y,-z
1/2+x,1/2+y,z
1/2-x,1/2+y,-z
loop_
_atom_site_type_symbol
_atom_site_label
_atom_site_fract_x
_atom_site_fract_y
_atom_site_fract_z
Si Si1 0.500000 0.733300 0.000000
Si Si2 0.026578 0.538521 0.197076
Si Si3 0.000000 0.341066 0.500000
Si Si4 0.257948 0.155499 0.276779
Si Si5 0.500000 0.568190 0.500000
Si Si6 0.618834 0.910461 0.825929
Si Si7 0.000000 0.820001 0.000000
Si Si8 0.500000 0.259205 0.500000
O O1 0.487223 0.686801 0.846881
O O2 0.755370 0.776997 0.019408
O O3 0.917675 0.606143 0.196053
O O4 0.850117 0.480103 0.226759
O O5 0.298793 0.535922 0.342468
O O6 0.000000 0.528538 0.000000
O O7 0.045563 0.380093 0.341445
O O8 0.744965 0.297936 0.467948
O O9 0.178575 0.114123 0.418672
O O10 0.424503 0.213292 0.347306
O O11 0.881596 0.868795 0.857331
O O12 0.500000 0.905826 0.000000
#
# Coordination Sequence:
#
# PCOD9130301 Si02
#       8
#     2   4   2   4   2   4   2   2
#     4  12  28  45  86 111 164 212 270 332 424 480
#     4  11  27  51  79 117 161 214 270 344 413 486
#     4  12  29  49  80 115 156 219 260 336 408 472
#     4  12  26  47  74 117 156 207 263 341 401 499
#     4  12  25  47  78 114 163 207 274 322 432 480
#     4  11  28  53  79 116 162 211 281 337 400 500
#     4  12  26  53  78 119 156 220 268 344 406 492
#     4  12  26  48  78 115 159 202 272 324 406 494
#
# _framework density 24.293952999999998
#
# number of rings (size 3 to 8) (size 9 to 14) (size 15 to 20)
#    0.000    0.364    2.727    3.818    8.909    4.364 
#    0.000    0.000    0.000    0.000    0.000    0.000 
#    0.000    0.000    0.000    0.000    0.000    0.000 
#
# Total GULP energy -61339.958156 kJ/mol
# GULP energy per Si atom -5576.359832 kJ/mol
# Density = 2.423866 g / cm^3
# Si number density = 24.293953 Si / 1000 Ang^3
#
#
#
# Elastic Constant Matrix: (Units=GPa)
#
#
# Indices 1 2 3 4 5 6 
#
# 1 103.6101 46.0870 33.6034 0.0000 4.8792 0.0000
# 2 46.0870 156.5221 69.9220 0.0000 13.0262 0.0000
# 3 33.6034 69.9220 131.2412 0.0000 17.6475 0.0000
# 4 0.0000 0.0000 0.0000 59.1643 0.0000 19.2826
# 5 4.8792 13.0262 17.6475 0.0000 24.6190 0.0000
# 6 0.0000 0.0000 0.0000 19.2826 0.0000 37.2823
#
#
#
# Elastic Compliance Matrix: (Units=1/GPa)
#
#
# Indices 1 2 3 4 5 6 
#
# 1 0.011321 -0.002683 -0.001503 0.000000 0.000254 0.000000
# 2 -0.002683 0.009062 -0.003948 0.000000 -0.001433 0.000000
# 3 -0.001503 -0.003948 0.010831 0.000000 -0.005377 0.000000
# 4 0.000000 0.000000 0.000000 0.020329 0.000000 -0.010514
# 5 0.000254 -0.001433 -0.005377 0.000000 0.045181 0.000000
# 6 0.000000 0.000000 0.000000 -0.010514 0.000000 0.032260
#
#
# Mechanical properties :
#
#
# Convention : Reuss Voigt Hill
#
# Bulk Modulus (GPa) = 66.91413 76.73314 71.82364
# Shear Modulus (GPa) = 33.28135 40.33053 36.80594
#
# Velocity S-wave (km/s) = 3.70529 4.07886 3.89655
# Velocity P-wave (km/s) = 6.77561 7.33735 7.06207
#
# Compressibility (1/GPa) = 0.01494453
#
# Stress axis : x y z
#
# Youngs Moduli (GPa) = 88.33507 110.35247 92.32693
#
# Poissons Ratio (x) = 0.29605 0.13880
# Poissons Ratio (y) = 0.23699 0.36454
# Poissons Ratio (z) = 0.13279 0.43571
#
# Static dielectric constant tensor:
#      x y z
#    x 1.837970 0.000000 0.176860 
#    y 0.000000 1.850180 0.000000 
#    z 0.176860 0.000000 1.961170 
# 
# From -- ./inp_files/12603.got.cif
#   From: 2010.05.17/outbox.cif.g08.bks.cpg/sg5_7_cif.got.tgz:12603.got - 2010.06.03 18:56:24.
