data_PCOD9130168
_publ_section_title
;
Structure prediction by ZEFSAII (Michael W. Deem and Ramdas Pophale) SiO2 
 PCOD9130168
Probable space group: C 2
;
_chemical_formula_sum "Si O2"
_cell_formula_units_Z 18
_cell_length_a 7.937155
_cell_length_b 18.045131
_cell_length_c 5.053590
_cell_angle_alpha 90.000000
_cell_angle_beta 79.999282
_cell_angle_gamma 90.000000
_cell_volume 712.812660
_symmetry_space_group_name_H-M "C 2"
_symmetry_group_IT_number 5
_symmetry_cell_setting 'monoclinic'
loop_
_space_group_symop_operation_xyz
x,y,z
-x,y,-z
1/2+x,1/2+y,z
1/2-x,1/2+y,-z
loop_
_atom_site_type_symbol
_atom_site_label
_atom_site_fract_x
_atom_site_fract_y
_atom_site_fract_z
Si Si1 0.826483 0.599140 0.805944
Si Si2 0.500000 0.509691 0.000000
Si Si3 0.500000 0.420220 0.500000
Si Si4 0.500000 0.967713 0.000000
Si Si5 0.824785 0.354597 0.707817
Si Si6 0.801274 0.182488 0.639993
O O1 0.789271 0.637917 0.098440
O O2 0.965551 0.532208 0.785352
O O3 0.650618 0.554507 0.823941
O O4 0.814155 0.661719 0.583496
O O5 0.429827 0.467416 0.763674
O O6 0.656733 0.377120 0.591535
O O7 0.643688 0.906776 0.047184
O O8 0.808618 0.266652 0.744460
O O9 0.000000 0.367940 0.500000
O O10 0.000000 0.166518 0.500000
#
# Coordination Sequence:
#
# PCOD9130168 Si02
#       6
#     4   2   2   2   4   4
#     4  12  25  44  72 106 140 193 240 313 359 449
#     4  12  22  43  71 100 132 184 250 290 370 435
#     4  12  26  46  74 104 144 192 244 310 374 442
#     4  12  28  45  77 112 158 184 266 318 378 431
#     4  11  28  47  75 110 150 202 249 316 373 463
#     4  11  25  46  74 102 149 195 250 295 385 445
#
# _framework density 25.252078999999998
#
# number of rings (size 3 to 8) (size 9 to 14) (size 15 to 20)
#    0.000    0.444    4.444    2.667    9.333    1.778 
#    0.000    0.000    0.000    0.000    0.000    0.000 
#    0.000    0.000    0.000    0.000    0.000    0.000 
#
# Total GULP energy -50133.860456 kJ/mol
# GULP energy per Si atom -5570.428940 kJ/mol
# Density = 2.519460 g / cm^3
# Si number density = 25.252079 Si / 1000 Ang^3
#
#
#
# Elastic Constant Matrix: (Units=GPa)
#
#
# Indices 1 2 3 4 5 6 
#
# 1 123.3222 61.7888 50.0222 0.0000 24.4047 0.0000
# 2 61.7888 174.9631 71.3777 0.0000 13.9113 0.0000
# 3 50.0222 71.3777 152.1263 0.0000 15.9960 0.0000
# 4 0.0000 0.0000 0.0000 28.3643 0.0000 3.5505
# 5 24.4047 13.9113 15.9960 0.0000 40.5359 0.0000
# 6 0.0000 0.0000 0.0000 3.5505 0.0000 47.5568
#
#
#
# Elastic Compliance Matrix: (Units=1/GPa)
#
#
# Indices 1 2 3 4 5 6 
#
# 1 0.011282 -0.002825 -0.001849 0.000000 -0.005093 0.000000
# 2 -0.002825 0.007829 -0.002755 0.000000 0.000101 0.000000
# 3 -0.001849 -0.002755 0.008615 0.000000 -0.001341 0.000000
# 4 0.000000 0.000000 0.000000 0.035588 0.000000 -0.002657
# 5 -0.005093 0.000101 -0.001341 0.000000 0.028230 0.000000
# 6 0.000000 0.000000 0.000000 -0.002657 0.000000 0.021226
#
#
# Mechanical properties :
#
#
# Convention : Reuss Voigt Hill
#
# Bulk Modulus (GPa) = 77.70929 90.75433 84.23181
# Shear Modulus (GPa) = 37.90228 41.10626 39.50427
#
# Velocity S-wave (km/s) = 3.87842 4.03902 3.95954
# Velocity P-wave (km/s) = 7.13417 7.60059 7.37107
#
# Compressibility (1/GPa) = 0.01286847
#
# Stress axis : x y z
#
# Youngs Moduli (GPa) = 88.63554 127.72811 116.07565
#
# Poissons Ratio (x) = 0.36086 0.21458
# Poissons Ratio (y) = 0.25041 0.31980
# Poissons Ratio (z) = 0.16386 0.35190
#
# Static dielectric constant tensor:
#      x y z
#    x 1.727080 0.000000 -0.137900 
#    y 0.000000 2.017630 0.000000 
#    z -0.137900 0.000000 1.974730 
# 
# From -- ./inp_files/2141.got.cif
#   From: 2010.05.17/outbox.cif.g08.bks.cpg/sg5_2_cif.got.tgz:2141.got - 2010.06.03 18:56:24.
