data_PCOD9130649
_publ_section_title
;
Structure prediction by ZEFSAII (Michael W. Deem and Ramdas Pophale) SiO2 
 PCOD9130649
Probable space group: C 2
;
_chemical_formula_sum "Si O2"
_cell_formula_units_Z 16
_cell_length_a 19.139697
_cell_length_b 4.825949
_cell_length_c 8.544734
_cell_angle_alpha 90.000000
_cell_angle_beta 44.751423
_cell_angle_gamma 90.000000
_cell_volume 555.659772
_symmetry_space_group_name_H-M "C 2"
_symmetry_group_IT_number 5
_symmetry_cell_setting 'monoclinic'
loop_
_space_group_symop_operation_xyz
x,y,z
-x,y,-z
1/2+x,1/2+y,z
1/2-x,1/2+y,-z
loop_
_atom_site_type_symbol
_atom_site_label
_atom_site_fract_x
_atom_site_fract_y
_atom_site_fract_z
Si Si1 0.566884 0.952470 0.540526
Si Si2 0.443351 0.587234 0.937021
Si Si3 0.825100 0.723785 0.352296
Si Si4 0.755488 0.136480 0.082475
O O1 0.500000 0.049131 0.500000
O O2 0.519091 0.666988 0.677667
O O3 0.677426 0.948546 0.298004
O O4 0.588850 0.140945 0.659178
O O5 0.500000 0.690408 0.000000
O O6 0.385244 0.319232 0.101402
O O7 0.346617 0.754022 0.034449
O O8 0.741843 0.483472 0.481745
O O9 0.799679 0.902620 0.897575
#
# Coordination Sequence:
#
# PCOD9130649 Si02
#       4
#     4   4   4   4
#     4  12  29  60  91 136 185 241 304 380 459 544
#     4  12  30  55  91 133 179 238 306 368 460 541
#     4  12  29  57  94 133 185 240 303 382 457 538
#     4  12  30  55  87 132 185 235 300 381 454 537
#
# _framework density 28.794601
#
# number of rings (size 3 to 8) (size 9 to 14) (size 15 to 20)
#    0.000    0.000    5.000    1.500    7.000    3.000 
#    0.000    0.000    0.000    0.000    0.000    0.000 
#    0.000    0.000    0.000    0.000    0.000    0.000 
#
# Total GULP energy -44695.323806 kJ/mol
# GULP energy per Si atom -5586.915476 kJ/mol
# Density = 2.872906 g / cm^3
# Si number density = 28.794601 Si / 1000 Ang^3
#
#
#
# Elastic Constant Matrix: (Units=GPa)
#
#
# Indices 1 2 3 4 5 6 
#
# 1 197.0035 41.7285 22.3424 0.0002 -20.6247 0.0003
# 2 41.7285 195.9580 81.1499 -0.0041 3.6249 0.0026
# 3 22.3424 81.1499 112.6968 0.0003 -30.8085 -0.0002
# 4 0.0002 -0.0041 0.0003 61.0221 -0.0005 -0.0120
# 5 -20.6247 3.6249 -30.8085 -0.0005 49.4217 0.0002
# 6 0.0003 0.0026 -0.0002 -0.0120 0.0002 10.9699
#
#
#
# Elastic Compliance Matrix: (Units=1/GPa)
#
#
# Indices 1 2 3 4 5 6 
#
# 1 0.005635 -0.001616 0.000870 0.000000 0.003012 0.000000
# 2 -0.001616 0.008709 -0.007606 0.000001 -0.006054 -0.000002
# 3 0.000870 -0.007606 0.017394 -0.000001 0.011764 0.000002
# 4 0.000000 0.000001 -0.000001 0.016388 0.000000 0.000018
# 5 0.003012 -0.006054 0.011764 0.000000 0.029269 0.000001
# 6 0.000000 -0.000002 0.000002 0.000018 0.000001 0.091159
#
#
# Mechanical properties :
#
#
# Convention : Reuss Voigt Hill
#
# Bulk Modulus (GPa) = 66.51629 88.45554 77.48591
# Shear Modulus (GPa) = 26.27883 48.31192 37.29537
#
# Velocity S-wave (km/s) = 3.02425 4.10055 3.60282
# Velocity P-wave (km/s) = 5.94519 7.29421 6.65398
#
# Compressibility (1/GPa) = 0.01503391
#
# Stress axis : x y z
#
# Youngs Moduli (GPa) = 177.46046 114.82408 57.49251
#
# Poissons Ratio (x) = 0.18555 -0.05002
# Poissons Ratio (y) = 0.28677 0.43728
# Poissons Ratio (z) = -0.15439 0.87334
#
# Static dielectric constant tensor:
#      x y z
#    x 2.262020 0.000000 0.180180 
#    y 0.000000 2.277320 0.000000 
#    z 0.180180 0.000000 2.404010 
# 
# From -- ./inp_files/28117.got.cif
#   From: 2010.05.17/outbox.cif.g08.bks.cpg/sg5_15_cif.got.tgz:28117.got - 2010.06.03 18:56:24.
