data_PCOD9130355
_publ_section_title
;
Structure prediction by ZEFSAII (Michael W. Deem and Ramdas Pophale) SiO2 
 PCOD9130355
Probable space group: C 2
;
_chemical_formula_sum "Si O2"
_cell_formula_units_Z 24
_cell_length_a 11.613942
_cell_length_b 7.924515
_cell_length_c 23.799787
_cell_angle_alpha 90.000000
_cell_angle_beta 152.903985
_cell_angle_gamma 90.000000
_cell_volume 997.694501
_symmetry_space_group_name_H-M "C 2"
_symmetry_group_IT_number 5
_symmetry_cell_setting 'monoclinic'
loop_
_space_group_symop_operation_xyz
x,y,z
-x,y,-z
1/2+x,1/2+y,z
1/2-x,1/2+y,-z
loop_
_atom_site_type_symbol
_atom_site_label
_atom_site_fract_x
_atom_site_fract_y
_atom_site_fract_z
Si Si1 0.469890 0.721940 0.664163
Si Si2 0.523131 0.660609 0.112532
Si Si3 0.279746 0.732130 0.691728
Si Si4 0.910059 0.500306 0.209334
Si Si5 0.912725 0.096194 0.400321
Si Si6 0.487694 0.049257 0.927004
O O1 0.292277 0.644034 0.636485
O O2 0.436941 0.679588 0.585200
O O3 0.749773 0.653056 0.800100
O O4 0.458800 0.917583 0.677722
O O5 0.704038 0.627407 0.245272
O O6 0.641763 0.557389 0.112648
O O7 0.548773 0.854177 0.105502
O O8 0.242676 0.608770 0.007114
O O9 0.551030 0.836774 0.812762
O O10 0.088357 0.890539 0.608702
O O11 0.107120 0.633118 0.268836
O O12 0.000000 0.142842 0.500000
O O13 0.500000 0.062056 0.000000
#
# Coordination Sequence:
#
# PCOD9130355 Si02
#       6
#     4   4   4   4   4   4
#     4   9  18  41  57  80 121 151 192 245 283 345
#     4  12  22  38  58  87 120 157 200 236 290 344
#     4   8  20  38  59  79 121 153 185 247 290 337
#     4   8  21  37  56  84 117 149 195 245 288 339
#     4   9  18  40  64  85 115 158 192 243 303 340
#     4  12  23  35  59  89 118 164 196 232 290 351
#
# _framework density 24.055458000000002
#
# number of rings (size 3 to 8) (size 9 to 14) (size 15 to 20)
#    2.000    0.000    3.333    1.000    0.000    4.000 
#    6.000    0.000    0.000    0.000    0.000    0.000 
#    0.000    0.000    0.000    0.000    0.000    0.000 
#
# Total GULP energy -66801.729148 kJ/mol
# GULP energy per Si atom -5566.810762 kJ/mol
# Density = 2.400071 g / cm^3
# Si number density = 24.055458 Si / 1000 Ang^3
#
#
#
# Elastic Constant Matrix: (Units=GPa)
#
#
# Indices 1 2 3 4 5 6 
#
# 1 138.9588 25.6751 51.0139 0.0002 -20.2100 0.0001
# 2 25.6751 21.2853 -5.6635 -0.0001 5.2708 0.0000
# 3 51.0139 -5.6635 57.5627 0.0012 -13.9948 0.0002
# 4 0.0002 -0.0001 0.0012 13.2568 0.0000 -1.7802
# 5 -20.2100 5.2708 -13.9948 0.0000 53.6982 -0.0001
# 6 0.0001 0.0000 0.0002 -1.7802 -0.0001 47.7716
#
#
#
# Elastic Compliance Matrix: (Units=1/GPa)
#
#
# Indices 1 2 3 4 5 6 
#
# 1 0.022432 -0.034371 -0.021768 0.000001 0.006143 0.000000
# 2 -0.034371 0.101621 0.037249 -0.000002 -0.013203 0.000000
# 3 -0.021768 0.037249 0.039981 -0.000003 -0.001429 0.000000
# 4 0.000001 -0.000002 -0.000003 0.075812 0.000000 0.002825
# 5 0.006143 -0.013203 -0.001429 0.000000 0.021858 0.000000
# 6 0.000000 0.000000 0.000000 0.002825 0.000000 0.021038
#
#
# Mechanical properties :
#
#
# Convention : Reuss Voigt Hill
#
# Bulk Modulus (GPa) = 7.92050 39.98420 23.95235
# Shear Modulus (GPa) = 13.78896 32.73074 23.25985
#
# Velocity S-wave (km/s) = 2.39679 3.69268 3.11292
# Velocity P-wave (km/s) = 3.31047 5.90245 4.78530
#
# Compressibility (1/GPa) = 0.12625460
#
# Stress axis : x y z
#
# Youngs Moduli (GPa) = 44.57916 9.84045 25.01158
#
# Poissons Ratio (x) = 0.33823 0.54446
# Poissons Ratio (y) = 1.53225 -0.93167
# Poissons Ratio (z) = 0.97041 -0.36655
#
# Static dielectric constant tensor:
#      x y z
#    x 1.977430 0.000000 -0.006300 
#    y 0.000000 1.907940 0.000000 
#    z -0.006300 0.000000 2.013270 
# 
# From -- ./inp_files/68296.got.cif
#   From: 2010.05.17/outbox.cif.g08.bks.cpg/sg5_35_cif.got.tgz:68296.got - 2010.06.03 18:56:24.
