data_PCOD9130088
_publ_section_title
;
Structure prediction by ZEFSAII (Michael W. Deem and Ramdas Pophale) SiO2 
 PCOD9130088
Probable space group: C 2
;
_chemical_formula_sum "Si O2"
_cell_formula_units_Z 28
_cell_length_a 22.382621
_cell_length_b 5.031134
_cell_length_c 10.610409
_cell_angle_alpha 90.000000
_cell_angle_beta 109.135897
_cell_angle_gamma 90.000000
_cell_volume 1128.815498
_symmetry_space_group_name_H-M "C 2"
_symmetry_group_IT_number 5
_symmetry_cell_setting 'monoclinic'
loop_
_space_group_symop_operation_xyz
x,y,z
-x,y,-z
1/2+x,1/2+y,z
1/2-x,1/2+y,-z
loop_
_atom_site_type_symbol
_atom_site_label
_atom_site_fract_x
_atom_site_fract_y
_atom_site_fract_z
Si Si1 0.007952 0.304230 0.367857
Si Si2 0.714685 0.170303 0.012173
Si Si3 0.316455 0.900590 0.758422
Si Si4 0.673445 0.474125 0.619520
Si Si5 0.442662 0.558706 0.858664
Si Si6 0.393050 0.206471 0.636933
Si Si7 0.131041 0.489360 0.732775
O O1 0.032241 0.157731 0.260536
O O2 0.055831 0.553242 0.411512
O O3 0.000000 0.170029 0.500000
O O4 0.938471 0.395104 0.289372
O O5 0.664631 0.033925 0.887406
O O6 0.773954 0.973299 0.021588
O O7 0.693128 0.122102 0.139102
O O8 0.242254 0.833479 0.683888
O O9 0.374672 0.704195 0.839263
O O10 0.336960 0.013318 0.638128
O O11 0.642124 0.444695 0.460063
O O12 0.667183 0.769155 0.671989
O O13 0.630149 0.278469 0.670820
O O14 0.423936 0.265400 0.796039
O O15 0.500000 0.573301 0.000000
#
# Coordination Sequence:
#
# PCOD9130088 Si02
#       7
#     4   4   4   4   4   4   4
#     4  11  24  48  74 107 146 200 261 317 378 455
#     4  12  24  46  71 110 151 195 250 307 381 456
#     4  11  27  47  74 108 156 198 256 316 391 469
#     4  12  27  47  76 115 152 197 254 321 392 450
#     4  11  27  49  75 109 154 209 257 318 389 467
#     4  11  28  46  76 109 151 207 251 324 387 467
#     4  12  25  46  78 111 150 195 251 323 377 455
#
# _framework density 24.804760999999999
#
# number of rings (size 3 to 8) (size 9 to 14) (size 15 to 20)
#    0.000    0.571    4.286    1.714   10.000    4.000 
#    0.000    0.000    0.000    0.000    0.000    0.000 
#    0.000    0.000    0.000    0.000    0.000    0.000 
#
# Total GULP energy -78139.077652 kJ/mol
# GULP energy per Si atom -5581.362689 kJ/mol
# Density = 2.474830 g / cm^3
# Si number density = 24.804761 Si / 1000 Ang^3
#
#
#
# Elastic Constant Matrix: (Units=GPa)
#
#
# Indices 1 2 3 4 5 6 
#
# 1 101.3725 -0.8526 22.9132 0.0000 -6.2904 0.0000
# 2 -0.8526 71.2957 4.8881 0.0000 -17.7244 0.0000
# 3 22.9132 4.8881 132.9262 0.0000 13.9582 0.0000
# 4 0.0000 0.0000 0.0000 47.1775 0.0000 1.5607
# 5 -6.2904 -17.7244 13.9582 0.0000 29.3262 0.0000
# 6 0.0000 0.0000 0.0000 1.5607 0.0000 18.2376
#
#
#
# Elastic Compliance Matrix: (Units=1/GPa)
#
#
# Indices 1 2 3 4 5 6 
#
# 1 0.010663 0.001331 -0.002328 0.000000 0.004200 0.000000
# 2 0.001331 0.017065 -0.002074 0.000000 0.011586 0.000000
# 3 -0.002328 -0.002074 0.008615 0.000000 -0.005853 0.000000
# 4 0.000000 0.000000 0.000000 0.021257 0.000000 -0.001819
# 5 0.004200 0.011586 -0.005853 0.000000 0.044788 0.000000
# 6 0.000000 0.000000 0.000000 -0.001819 0.000000 0.054988
#
#
# Mechanical properties :
#
#
# Convention : Reuss Voigt Hill
#
# Bulk Modulus (GPa) = 33.11091 39.94353 36.52722
# Shear Modulus (GPa) = 28.80472 37.52463 33.16467
#
# Velocity S-wave (km/s) = 3.41142 3.89369 3.66051
# Velocity P-wave (km/s) = 5.37537 6.02931 5.71171
#
# Compressibility (1/GPa) = 0.03020152
#
# Stress axis : x y z
#
# Youngs Moduli (GPa) = 93.78597 58.60114 116.07514
#
# Poissons Ratio (x) = -0.07801 0.27021
# Poissons Ratio (y) = -0.12484 0.24069
# Poissons Ratio (z) = 0.21832 0.12151
#
# Static dielectric constant tensor:
#      x y z
#    x 1.935710 0.000000 -0.071090 
#    y 0.000000 2.081660 0.000000 
#    z -0.071090 0.000000 1.497320 
# 
# From -- ./inp_files/45699.got.cif
#   From: 2010.05.17/outbox.cif.g08.bks.cpg/sg5_23_cif.got.tgz:45699.got - 2010.06.03 18:56:24.
