data_PCOD9130326
_publ_section_title
;
Structure prediction by ZEFSAII (Michael W. Deem and Ramdas Pophale) SiO2 
 PCOD9130326
Probable space group: C 2
;
_chemical_formula_sum "Si O2"
_cell_formula_units_Z 26
_cell_length_a 12.622153
_cell_length_b 8.862776
_cell_length_c 11.194184
_cell_angle_alpha 90.000000
_cell_angle_beta 102.496249
_cell_angle_gamma 90.000000
_cell_volume 1222.597405
_symmetry_space_group_name_H-M "C 2"
_symmetry_group_IT_number 5
_symmetry_cell_setting 'monoclinic'
loop_
_space_group_symop_operation_xyz
x,y,z
-x,y,-z
1/2+x,1/2+y,z
1/2-x,1/2+y,-z
loop_
_atom_site_type_symbol
_atom_site_label
_atom_site_fract_x
_atom_site_fract_y
_atom_site_fract_z
Si Si1 0.434041 0.686910 0.628904
Si Si2 0.099123 0.917302 0.600011
Si Si3 0.000000 0.844884 0.000000
Si Si4 0.454712 0.027072 0.623155
Si Si5 0.628920 0.202067 0.819556
Si Si6 0.734211 0.270481 0.426807
Si Si7 0.183833 0.993188 0.204990
O O1 0.469408 0.565568 0.370819
O O2 0.460561 0.856270 0.672466
O O3 0.352975 0.718670 0.497179
O O4 0.359904 0.611144 0.709586
O O5 0.146652 0.842523 0.732085
O O6 0.189823 0.884183 0.519682
O O7 0.000000 0.839879 0.500000
O O8 0.919674 0.752345 0.066659
O O9 0.081588 0.938097 0.103875
O O10 0.500000 0.015416 0.500000
O O11 0.534323 0.119295 0.725431
O O12 0.343960 0.124497 0.597079
O O13 0.727774 0.084853 0.849262
O O14 0.731199 0.357546 0.299452
#
# Coordination Sequence:
#
# PCOD9130326 Si02
#       7
#     4   4   2   4   4   4   4
#     4  12  24  37  69 115 147 185 243 305 380 451
#     4  12  20  39  70 104 150 191 228 302 386 443
#     4  12  26  56  78  92 156 212 256 310 366 430
#     4  12  22  40  67 110 152 186 240 312 377 458
#     4  12  24  49  74  99 142 202 259 301 372 442
#     4  12  22  43  73 108 155 192 237 307 395 448
#     4  12  26  49  77 108 143 203 254 308 381 456
#
# _framework density 21.266199
#
# number of rings (size 3 to 8) (size 9 to 14) (size 15 to 20)
#    0.000    0.000    9.231    2.308    0.000    0.000 
#    5.538    1.538    0.000    0.000    0.000    0.000 
#    0.000    0.000    0.000    0.000    0.000    0.000 
#
# Total GULP energy -72495.883843 kJ/mol
# GULP energy per Si atom -5576.606449 kJ/mol
# Density = 2.121780 g / cm^3
# Si number density = 21.266199 Si / 1000 Ang^3
#
#
#
# Elastic Constant Matrix: (Units=GPa)
#
#
# Indices 1 2 3 4 5 6 
#
# 1 84.5445 46.3854 20.4285 0.0000 -3.4539 0.0000
# 2 46.3854 123.8428 25.6200 0.0000 1.7957 0.0000
# 3 20.4285 25.6200 86.3019 0.0000 -2.3543 0.0000
# 4 0.0000 0.0000 0.0000 35.4824 0.0000 29.5693
# 5 -3.4539 1.7957 -2.3543 0.0000 29.8957 0.0000
# 6 0.0000 0.0000 0.0000 29.5693 0.0000 83.2964
#
#
#
# Elastic Compliance Matrix: (Units=1/GPa)
#
#
# Indices 1 2 3 4 5 6 
#
# 1 0.015326 -0.005358 -0.001984 0.000000 0.001936 0.000000
# 2 -0.005358 0.010492 -0.001884 0.000000 -0.001398 0.000000
# 3 -0.001984 -0.001884 0.012640 0.000000 0.000879 0.000000
# 4 0.000000 0.000000 0.000000 0.040023 0.000000 -0.014208
# 5 0.001936 -0.001398 0.000879 0.000000 0.033827 0.000000
# 6 0.000000 0.000000 0.000000 -0.014208 0.000000 0.017049
#
#
# Mechanical properties :
#
#
# Convention : Reuss Voigt Hill
#
# Bulk Modulus (GPa) = 49.98859 53.28413 51.63636
# Shear Modulus (GPa) = 32.36684 43.21859 37.79272
#
# Velocity S-wave (km/s) = 3.90550 4.51296 4.22017
# Velocity P-wave (km/s) = 6.62528 7.22952 6.93398
#
# Compressibility (1/GPa) = 0.02000457
#
# Stress axis : x y z
#
# Youngs Moduli (GPa) = 65.24686 95.31323 79.11149
#
# Poissons Ratio (x) = 0.51069 0.15700
# Poissons Ratio (y) = 0.34960 0.14908
# Poissons Ratio (z) = 0.12948 0.17961
#
# Static dielectric constant tensor:
#      x y z
#    x 1.776810 0.000000 0.043790 
#    y 0.000000 1.960330 0.000000 
#    z 0.043790 0.000000 1.673810 
# 
# From -- ./inp_files/41548.got.cif
#   From: 2010.05.17/outbox.cif.g08.bks.cpg/sg5_21_cif.got.tgz:41548.got - 2010.06.03 18:56:24.
