data_PCOD9130074
_publ_section_title
;
Structure prediction by ZEFSAII (Michael W. Deem and Ramdas Pophale) SiO2 
 PCOD9130074
Probable space group: C 2
;
_chemical_formula_sum "Si O2"
_cell_formula_units_Z 22
_cell_length_a 14.573557
_cell_length_b 5.006211
_cell_length_c 14.579403
_cell_angle_alpha 90.000000
_cell_angle_beta 50.106139
_cell_angle_gamma 90.000000
_cell_volume 816.097834
_symmetry_space_group_name_H-M "C 2"
_symmetry_group_IT_number 5
_symmetry_cell_setting 'monoclinic'
loop_
_space_group_symop_operation_xyz
x,y,z
-x,y,-z
1/2+x,1/2+y,z
1/2-x,1/2+y,-z
loop_
_atom_site_type_symbol
_atom_site_label
_atom_site_fract_x
_atom_site_fract_y
_atom_site_fract_z
Si Si1 0.686978 0.404180 0.444525
Si Si2 0.000000 0.281380 0.500000
Si Si3 0.556063 0.075117 0.647224
Si Si4 0.781011 0.851069 0.039980
Si Si5 0.808974 0.063463 0.217358
Si Si6 0.524270 0.068542 0.864826
O O1 0.620510 0.608600 0.421691
O O2 0.588981 0.367348 0.588318
O O3 0.810692 0.471560 0.413974
O O4 0.721520 0.164397 0.353636
O O5 0.994788 0.443396 0.410069
O O6 0.483690 0.027415 0.785234
O O7 0.907675 0.702157 0.983565
O O8 0.751633 0.992354 0.156023
O O9 0.710251 0.600619 0.038042
O O10 0.909388 0.301473 0.143417
O O11 0.877450 0.800057 0.205801
#
# Coordination Sequence:
#
# PCOD9130074 Si02
#       6
#     4   2   4   4   4   4
#     4  11  24  47  76 113 156 205 264 324 392 483
#     4  12  26  44  80 108 168 204 258 328 406 464
#     4  11  24  47  76 113 156 205 264 324 392 483
#     4  12  27  50  77 118 160 196 264 336 393 476
#     4  11  26  50  83 107 152 212 260 321 391 475
#     4  11  26  50  83 107 152 212 260 321 391 475
#
# _framework density 26.957550999999999
#
# number of rings (size 3 to 8) (size 9 to 14) (size 15 to 20)
#    0.000    0.727    1.818    4.364    5.091    4.364 
#    6.545    0.000    0.000    0.000    0.000    0.000 
#    0.000    0.000    0.000    0.000    0.000    0.000 
#
# Total GULP energy -61573.165866 kJ/mol
# GULP energy per Si atom -5597.560533 kJ/mol
# Density = 2.689619 g / cm^3
# Si number density = 26.957551 Si / 1000 Ang^3
#
#
#
# Elastic Constant Matrix: (Units=GPa)
#
#
# Indices 1 2 3 4 5 6 
#
# 1 138.7196 48.8253 19.5932 0.0020 38.1080 0.0010
# 2 48.8253 139.3098 22.0883 0.0023 22.3843 0.0090
# 3 19.5932 22.0883 122.8240 -0.0001 21.9445 0.0003
# 4 0.0020 0.0023 -0.0001 37.5323 -0.0011 3.5499
# 5 38.1080 22.3843 21.9445 -0.0011 50.8179 0.0014
# 6 0.0010 0.0090 0.0003 3.5499 0.0014 60.4705
#
#
#
# Elastic Compliance Matrix: (Units=1/GPa)
#
#
# Indices 1 2 3 4 5 6 
#
# 1 0.009784 -0.002421 -0.000005 -0.000001 -0.006268 0.000000
# 2 -0.002421 0.008406 -0.000854 0.000000 -0.001518 -0.000001
# 3 -0.000005 -0.000854 0.008916 0.000000 -0.003470 0.000000
# 4 -0.000001 0.000000 0.000000 0.026792 0.000001 -0.001573
# 5 -0.006268 -0.001518 -0.003470 0.000001 0.026546 0.000000
# 6 0.000000 -0.000001 0.000000 -0.001573 0.000000 0.016629
#
#
# Mechanical properties :
#
#
# Convention : Reuss Voigt Hill
#
# Bulk Modulus (GPa) = 48.67476 64.65190 56.66333
# Shear Modulus (GPa) = 45.25598 50.45393 47.85495
#
# Velocity S-wave (km/s) = 4.10174 4.33090 4.21788
# Velocity P-wave (km/s) = 6.36614 7.00313 6.69222
#
# Compressibility (1/GPa) = 0.02054453
#
# Stress axis : x y z
#
# Youngs Moduli (GPa) = 102.21274 118.96033 112.15572
#
# Poissons Ratio (x) = 0.28800 0.00061
# Poissons Ratio (y) = 0.24745 0.09581
# Poissons Ratio (z) = 0.00056 0.10162
#
# Static dielectric constant tensor:
#      x y z
#    x 2.100630 0.000000 -0.034620 
#    y 0.000000 2.153980 0.000000 
#    z -0.034620 0.000000 2.220110 
# 
# From -- ./inp_files/53674.got.cif
#   From: 2010.05.17/outbox.cif.g08.bks.cpg/sg5_27_cif.got.tgz:53674.got - 2010.06.03 18:56:24.
