data_PCOD9130178
_publ_section_title
;
Structure prediction by ZEFSAII (Michael W. Deem and Ramdas Pophale) SiO2 
 PCOD9130178
Probable space group: C 2
;
_chemical_formula_sum "Si O2"
_cell_formula_units_Z 16
_cell_length_a 11.208946
_cell_length_b 8.571772
_cell_length_c 7.267683
_cell_angle_alpha 90.000000
_cell_angle_beta 59.051594
_cell_angle_gamma 90.000000
_cell_volume 598.868819
_symmetry_space_group_name_H-M "C 2"
_symmetry_group_IT_number 5
_symmetry_cell_setting 'monoclinic'
loop_
_space_group_symop_operation_xyz
x,y,z
-x,y,-z
1/2+x,1/2+y,z
1/2-x,1/2+y,-z
loop_
_atom_site_type_symbol
_atom_site_label
_atom_site_fract_x
_atom_site_fract_y
_atom_site_fract_z
Si Si1 0.877002 0.445840 0.338090
Si Si2 0.123687 0.118959 0.532413
Si Si3 0.068385 0.871037 0.130715
Si Si4 0.663832 0.052028 0.203492
O O1 0.846397 0.262134 0.355231
O O2 0.765369 0.557594 0.326753
O O3 0.851390 0.499506 0.572120
O O4 0.040362 0.471044 0.182953
O O5 0.000000 0.180430 0.500000
O O6 0.053246 0.966525 0.674277
O O7 0.132529 0.733707 0.199903
O O8 0.000000 0.804592 0.000000
O O9 0.187403 0.993041 0.980390
#
# Coordination Sequence:
#
# PCOD9130178 Si02
#       4
#     4   4   4   4
#     4  11  25  47  72 106 145 190 242 290 353 434
#     4  12  26  46  77 104 145 190 239 293 360 426
#     4  12  27  47  72 109 147 188 237 299 361 424
#     4  11  25  47  71 104 149 183 238 295 354 422
#
# _framework density 26.717039
#
# number of rings (size 3 to 8) (size 9 to 14) (size 15 to 20)
#    0.000    0.500    5.000    3.000    7.000    0.000 
#    0.000    0.000    0.000    0.000    0.000    0.000 
#    0.000    0.000    0.000    0.000    0.000    0.000 
#
# Total GULP energy -44867.450903 kJ/mol
# GULP energy per Si atom -5608.431363 kJ/mol
# Density = 2.665623 g / cm^3
# Si number density = 26.717039 Si / 1000 Ang^3
#
#
#
# Elastic Constant Matrix: (Units=GPa)
#
#
# Indices 1 2 3 4 5 6 
#
# 1 150.6116 27.3247 24.6080 0.0000 -20.1207 0.0000
# 2 27.3247 161.5265 11.1469 0.0000 -7.6254 0.0000
# 3 24.6080 11.1469 65.8336 0.0000 -23.0883 0.0000
# 4 0.0000 0.0000 0.0000 40.7201 0.0000 -16.1617
# 5 -20.1207 -7.6254 -23.0883 0.0000 59.0231 0.0000
# 6 0.0000 0.0000 0.0000 -16.1617 0.0000 46.9590
#
#
#
# Elastic Compliance Matrix: (Units=1/GPa)
#
#
# Indices 1 2 3 4 5 6 
#
# 1 0.007369 -0.001032 -0.002023 0.000000 0.001587 0.000000
# 2 -0.001032 0.006419 -0.000619 0.000000 0.000236 0.000000
# 3 -0.002023 -0.000619 0.018290 0.000000 0.006385 0.000000
# 4 0.000000 0.000000 0.000000 0.028443 0.000000 0.009789
# 5 0.001587 0.000236 0.006385 0.000000 0.020012 0.000000
# 6 0.000000 0.000000 0.000000 0.009789 0.000000 0.024664
#
#
# Mechanical properties :
#
#
# Convention : Reuss Voigt Hill
#
# Bulk Modulus (GPa) = 40.43454 56.01453 48.22453
# Shear Modulus (GPa) = 41.39435 50.33324 45.86379
#
# Velocity S-wave (km/s) = 3.94046 4.34514 4.14774
# Velocity P-wave (km/s) = 5.98918 6.79596 6.40528
#
# Compressibility (1/GPa) = 0.02473133
#
# Stress axis : x y z
#
# Youngs Moduli (GPa) = 135.69490 155.77942 54.67452
#
# Poissons Ratio (x) = 0.16078 0.11061
# Poissons Ratio (y) = 0.14005 0.03382
# Poissons Ratio (z) = 0.27453 0.09635
#
# Static dielectric constant tensor:
#      x y z
#    x 2.179740 0.000000 0.079440 
#    y 0.000000 2.009000 0.000000 
#    z 0.079440 0.000000 2.028580 
# 
# From -- ./inp_files/17946.got.cif
#   From: 2010.05.17/outbox.cif.g08.bks.cpg/sg5_9_cif.got.tgz:17946.got - 2010.06.03 18:56:24.
