data_PCOD9130656
_publ_section_title
;
Structure prediction by ZEFSAII (Michael W. Deem and Ramdas Pophale) SiO2 
 PCOD9130656
Probable space group: C 2
;
_chemical_formula_sum "Si O2"
_cell_formula_units_Z 24
_cell_length_a 19.512408
_cell_length_b 6.127963
_cell_length_c 19.149343
_cell_angle_alpha 90.000000
_cell_angle_beta 21.931763
_cell_angle_gamma 90.000000
_cell_volume 855.212256
_symmetry_space_group_name_H-M "C 2"
_symmetry_group_IT_number 5
_symmetry_cell_setting 'monoclinic'
loop_
_space_group_symop_operation_xyz
x,y,z
-x,y,-z
1/2+x,1/2+y,z
1/2-x,1/2+y,-z
loop_
_atom_site_type_symbol
_atom_site_label
_atom_site_fract_x
_atom_site_fract_y
_atom_site_fract_z
Si Si1 0.179046 0.879370 0.420811
Si Si2 0.061871 0.279337 0.113012
Si Si3 0.788045 0.670230 0.778866
Si Si4 0.061874 0.235104 0.613010
Si Si5 0.211953 0.844194 0.721137
Si Si6 0.179055 0.635069 0.920802
O O1 0.378369 0.773406 0.238097
O O2 0.190918 0.103481 0.363936
O O3 0.002164 0.733385 0.574665
O O4 0.141516 0.990392 0.531311
O O5 0.999995 0.257225 0.250005
O O6 0.211627 0.130945 0.930689
O O7 0.141535 0.524040 0.031294
O O8 0.690933 0.910953 0.863924
O O9 0.878372 0.241047 0.738095
O O10 0.211641 0.383480 0.430675
O O11 0.249996 0.007215 0.750004
O O12 0.997838 0.781032 0.925335
#
# Coordination Sequence:
#
# PCOD9130656 Si02
#       6
#     4   4   4   4   4   4
#     4   8  18  34  52 100 153 205 255 336 383 476
#     4   9  17  33  56  92 154 211 248 325 399 465
#     4   9  17  33  56  92 156 220 258 317 404 478
#     4   9  17  33  56  92 154 211 248 325 399 465
#     4   9  17  33  56  92 156 220 258 317 404 478
#     4   8  18  34  52 100 153 205 255 336 383 476
#
# _framework density 28.063209000000001
#
# number of rings (size 3 to 8) (size 9 to 14) (size 15 to 20)
#    2.000    1.333    0.000    0.000    0.000    2.667 
#    0.000    0.000    0.000    0.000    0.000    2.333 
#    0.000   58.667    0.000    2.667    0.000    0.000 
#
# Total GULP energy -66875.029387 kJ/mol
# GULP energy per Si atom -5572.919116 kJ/mol
# Density = 2.799934 g / cm^3
# Si number density = 28.063209 Si / 1000 Ang^3
#
#
#
# Elastic Constant Matrix: (Units=GPa)
#
#
# Indices 1 2 3 4 5 6 
#
# 1 116.8628 42.7679 80.2592 -0.0019 23.8218 0.0012
# 2 42.7679 102.0465 60.3798 -0.0074 -0.6876 0.0063
# 3 80.2592 60.3798 232.9291 -0.0033 5.2853 0.0043
# 4 -0.0019 -0.0074 -0.0033 46.0405 0.0013 -17.5690
# 5 23.8218 -0.6876 5.2853 0.0013 84.1193 -0.0009
# 6 0.0012 0.0063 0.0043 -17.5690 -0.0009 36.0909
#
#
#
# Elastic Compliance Matrix: (Units=1/GPa)
#
#
# Indices 1 2 3 4 5 6 
#
# 1 0.012890 -0.003359 -0.003492 0.000000 -0.003458 0.000000
# 2 -0.003359 0.012457 -0.002099 0.000001 0.001185 -0.000001
# 3 -0.003492 -0.002099 0.006027 0.000000 0.000593 0.000000
# 4 0.000000 0.000001 0.000000 0.026675 0.000000 0.012985
# 5 -0.003458 0.001185 0.000593 0.000000 0.012840 0.000000
# 6 0.000000 -0.000001 0.000000 0.012985 0.000000 0.034029
#
#
# Mechanical properties :
#
#
# Convention : Reuss Voigt Hill
#
# Bulk Modulus (GPa) = 74.21714 90.96136 82.58925
# Shear Modulus (GPa) = 39.27472 51.14556 45.21014
#
# Velocity S-wave (km/s) = 3.74506 4.27372 4.01809
# Velocity P-wave (km/s) = 6.72343 7.53899 7.14286
#
# Compressibility (1/GPa) = 0.01347398
#
# Stress axis : x y z
#
# Youngs Moduli (GPa) = 77.58176 80.27655 165.92215
#
# Poissons Ratio (x) = 0.26966 0.57941
# Poissons Ratio (y) = 0.26061 0.34819
# Poissons Ratio (z) = 0.27092 0.16846
#
# Static dielectric constant tensor:
#      x y z
#    x 2.257450 0.000000 0.081230 
#    y 0.000000 2.864270 0.000000 
#    z 0.081230 0.000000 2.179080 
# 
# From -- ./inp_files/67298.got.cif
#   From: 2010.05.17/outbox.cif.g08.bks.cpg/sg5_34_cif.got.tgz:67298.got - 2010.06.03 18:56:24.
