data_PCOD9130737
_publ_section_title
;
Structure prediction by ZEFSAII (Michael W. Deem and Ramdas Pophale) SiO2 
 PCOD9130737
Probable space group: C 2
;
_chemical_formula_sum "Si O2"
_cell_formula_units_Z 14
_cell_length_a 21.000000
_cell_length_b 6.000000
_cell_length_c 12.000000
_cell_angle_alpha 90.000000
_cell_angle_beta 120.000000
_cell_angle_gamma 90.000000
_cell_volume 1309.430411
_symmetry_space_group_name_H-M "C 2"
_symmetry_group_IT_number 5
_symmetry_cell_setting 'monoclinic'
loop_
_space_group_symop_operation_xyz
x,y,z
-x,y,-z
1/2+x,1/2+y,z
1/2-x,1/2+y,-z
loop_
_atom_site_type_symbol
_atom_site_label
_atom_site_fract_x
_atom_site_fract_y
_atom_site_fract_z
Si Si1 0.211650 0.669020 0.931227
Si Si2 0.642983 0.185378 0.630418
Si Si3 0.439934 0.849584 0.597504
Si Si4 0.500000 0.467733 0.500000
Si Si5 0.500000 0.812016 0.000000
Si Si6 0.786339 0.846820 0.527745
Si Si7 0.038527 0.650266 0.834089
Si Si8 0.417288 0.527412 0.769189
O O1 0.196403 0.654361 0.783219
O O2 0.126572 0.682169 0.901033
O O3 0.248565 0.418934 0.002442
O O4 0.569145 0.320053 0.596116
O O5 0.678467 0.333386 0.564176
O O6 0.614064 0.963056 0.540010
O O7 0.478622 0.636803 0.578287
O O8 0.403828 0.737556 0.674164
O O9 0.499287 0.027419 0.694246
O O10 0.565531 0.649137 0.099406
O O11 0.475206 0.974762 0.077584
O O12 0.754254 0.590969 0.508142
O O13 0.847765 0.871967 0.679667
O O14 0.990078 0.874621 0.810783
#
# Coordination Sequence:
#
# PCOD9130737 Si02
#       8
#     4   4   4   2   2   4   4   4
#     4  12  32  52  74 110 161 206 249 310 386 472
#     4  12  26  49  73 115 142 205 247 323 386 451
#     4  11  21  40  79 109 139 184 261 324 369 432
#     4  12  22  38  82 110 138 188 258 332 378 434
#     4  10  26  42  82 110 146 200 262 308 374 450
#     4  12  28  49  77 114 158 196 250 322 389 459
#     4  11  24  50  75 110 148 199 263 314 369 454
#     4  11  23  47  74 108 149 197 255 312 370 450
#
# _framework density 10.691672000000001
#
# number of rings (size 3 to 8) (size 9 to 14) (size 15 to 20)
#    0.000    0.571    2.857    4.286   10.000    1.143 
#    5.143    0.000    0.000    0.000    0.000    0.000 
#    0.000    0.000    0.000    0.000    0.000    0.000 
#
# Total GULP energy -78053.344208 kJ/mol
# GULP energy per Si atom -5575.238872 kJ/mol
# Density = 1.066734 g / cm^3
# Si number density = 10.691672 Si / 1000 Ang^3
#
#
#
# Elastic Constant Matrix: (Units=GPa)
#
#
# Indices 1 2 3 4 5 6 
#
# 1 72.2913 45.5659 28.9032 0.0000 16.9820 0.0000
# 2 45.5659 159.0596 58.8245 0.0000 13.8592 0.0000
# 3 28.9032 58.8245 160.0767 0.0000 4.7252 0.0000
# 4 0.0000 0.0000 0.0000 67.8202 0.0000 -0.2839
# 5 16.9820 13.8592 4.7252 0.0000 33.6907 0.0000
# 6 0.0000 0.0000 0.0000 -0.2839 0.0000 48.4609
#
#
#
# Elastic Compliance Matrix: (Units=1/GPa)
#
#
# Indices 1 2 3 4 5 6 
#
# 1 0.018887 -0.004133 -0.001668 0.000000 -0.007586 0.000000
# 2 -0.004133 0.008420 -0.002317 0.000000 -0.001055 0.000000
# 3 -0.001668 -0.002317 0.007377 0.000000 0.000759 0.000000
# 4 0.000000 0.000000 0.000000 0.014745 0.000000 0.000086
# 5 -0.007586 -0.001055 0.000759 0.000000 0.033833 0.000000
# 6 0.000000 0.000000 0.000000 0.000086 0.000000 0.020636
#
#
# Mechanical properties :
#
#
# Convention : Reuss Voigt Hill
#
# Bulk Modulus (GPa) = 54.20254 73.11273 63.65764
# Shear Modulus (GPa) = 39.59423 47.20329 43.39876
#
# Velocity S-wave (km/s) = 4.30774 4.70348 4.50995
# Velocity P-wave (km/s) = 7.08133 7.98515 7.54678
#
# Compressibility (1/GPa) = 0.01844932
#
# Stress axis : x y z
#
# Youngs Moduli (GPa) = 52.94763 118.77058 135.55646
#
# Poissons Ratio (x) = 0.49085 0.22604
# Poissons Ratio (y) = 0.21882 0.31404
# Poissons Ratio (z) = 0.08829 0.27515
#
# Static dielectric constant tensor:
#      x y z
#    x 1.907420 0.000000 -0.034830 
#    y 0.000000 1.781830 0.000000 
#    z -0.034830 0.000000 1.803230 
# 
# From -- ./inp_files/45609.got.cif
#   From: 2010.05.17/outbox.ucp.g08.bks.cvg/sg5_23_cif.got.tgz:45609.got - 2010.06.11 12:53:14.
