data_PCOD9130575
_publ_section_title
;
Structure prediction by ZEFSAII (Michael W. Deem and Ramdas Pophale) SiO2 
 PCOD9130575
Probable space group: C 2
;
_chemical_formula_sum "Si O2"
_cell_formula_units_Z 18
_cell_length_a 5.042508
_cell_length_b 18.410778
_cell_length_c 7.931217
_cell_angle_alpha 90.000000
_cell_angle_beta 68.719300
_cell_angle_gamma 90.000000
_cell_volume 686.100261
_symmetry_space_group_name_H-M "C 2"
_symmetry_group_IT_number 5
_symmetry_cell_setting 'monoclinic'
loop_
_space_group_symop_operation_xyz
x,y,z
-x,y,-z
1/2+x,1/2+y,z
1/2-x,1/2+y,-z
loop_
_atom_site_type_symbol
_atom_site_label
_atom_site_fract_x
_atom_site_fract_y
_atom_site_fract_z
Si Si1 0.000000 0.183070 0.500000
Si Si2 0.781327 0.045577 0.362293
Si Si3 0.500000 0.176248 0.000000
Si Si4 0.327182 0.429320 0.864665
Si Si5 0.500000 0.601977 0.000000
Si Si6 0.520655 0.273018 0.695579
O O1 0.803941 0.122506 0.454625
O O2 0.838865 0.241975 0.655078
O O3 0.500000 0.007729 0.500000
O O4 0.757473 0.065086 0.170962
O O5 0.054036 0.991771 0.289039
O O6 0.376294 0.222802 0.870737
O O7 0.212357 0.131341 0.096947
O O8 0.420639 0.353376 0.759394
O O9 0.500000 0.433363 0.000000
O O10 0.000000 0.431348 0.000000
O O11 0.500000 0.261109 0.500000
#
# Coordination Sequence:
#
# PCOD9130575 Si02
#       6
#     2   4   2   4   2   4
#     4  12  26  50  84 126 160 226 284 366 420 518
#     4  12  29  51  84 127 169 226 292 355 435 513
#     4  12  26  49  80 119 168 228 270 362 410 523
#     4  12  32  55  85 122 174 232 285 354 437 512
#     4  12  26  49  82 117 174 216 288 346 430 497
#     4  12  29  49  82 123 170 223 293 344 439 507
#
# _framework density 26.235232
#
# number of rings (size 3 to 8) (size 9 to 14) (size 15 to 20)
#    0.000    0.000    4.444    3.333   12.444    0.000 
#    0.000    0.000    0.000    0.000    0.000    0.000 
#    0.000    0.000    0.000    0.000    0.000    0.000 
#
# Total GULP energy -50107.729748 kJ/mol
# GULP energy per Si atom -5567.525528 kJ/mol
# Density = 2.617552 g / cm^3
# Si number density = 26.235232 Si / 1000 Ang^3
#
#
#
# Elastic Constant Matrix: (Units=GPa)
#
#
# Indices 1 2 3 4 5 6 
#
# 1 154.7489 56.8037 61.9106 0.0000 -20.2843 0.0000
# 2 56.8037 172.0627 49.9414 0.0000 -33.7063 0.0000
# 3 61.9106 49.9414 149.0125 0.0000 -19.3104 0.0000
# 4 0.0000 0.0000 0.0000 45.5329 0.0000 -3.9150
# 5 -20.2843 -33.7063 -19.3104 0.0000 63.8105 0.0000
# 6 0.0000 0.0000 0.0000 -3.9150 0.0000 23.2873
#
#
#
# Elastic Compliance Matrix: (Units=1/GPa)
#
#
# Indices 1 2 3 4 5 6 
#
# 1 0.008331 -0.001780 -0.002751 0.000000 0.000875 0.000000
# 2 -0.001780 0.007362 -0.001350 0.000000 0.002914 0.000000
# 3 -0.002751 -0.001350 0.008431 0.000000 0.000964 0.000000
# 4 0.000000 0.000000 0.000000 0.022284 0.000000 0.003746
# 5 0.000875 0.002914 0.000964 0.000000 0.017781 0.000000
# 6 0.000000 0.000000 0.000000 0.003746 0.000000 0.043572
#
#
# Mechanical properties :
#
#
# Convention : Reuss Voigt Hill
#
# Bulk Modulus (GPa) = 80.89735 90.34839 85.62287
# Shear Modulus (GPa) = 40.43830 47.00403 43.72117
#
# Velocity S-wave (km/s) = 3.93029 4.23737 4.08671
# Velocity P-wave (km/s) = 7.17625 7.64545 7.41456
#
# Compressibility (1/GPa) = 0.01236134
#
# Stress axis : x y z
#
# Youngs Moduli (GPa) = 120.03372 135.82527 118.60600
#
# Poissons Ratio (x) = 0.24181 0.32631
# Poissons Ratio (y) = 0.21370 0.16013
# Poissons Ratio (z) = 0.33024 0.18338
#
# Static dielectric constant tensor:
#      x y z
#    x 2.205280 0.000000 -0.046440 
#    y 0.000000 2.193480 0.000000 
#    z -0.046440 0.000000 2.305700 
# 
# From -- ./inp_files/12227.got.cif
#   From: 2010.05.17/outbox.cif.g08.bks.cpg/sg5_7_cif.got.tgz:12227.got - 2010.06.03 18:56:24.
