data_PCOD9130638
_publ_section_title
;
Structure prediction by ZEFSAII (Michael W. Deem and Ramdas Pophale) SiO2 
 PCOD9130638
Probable space group: C 2
;
_chemical_formula_sum "Si O2"
_cell_formula_units_Z 20
_cell_length_a 24.825441
_cell_length_b 4.747770
_cell_length_c 11.463241
_cell_angle_alpha 90.000000
_cell_angle_beta 148.115780
_cell_angle_gamma 90.000000
_cell_volume 713.667897
_symmetry_space_group_name_H-M "C 2"
_symmetry_group_IT_number 5
_symmetry_cell_setting 'monoclinic'
loop_
_space_group_symop_operation_xyz
x,y,z
-x,y,-z
1/2+x,1/2+y,z
1/2-x,1/2+y,-z
loop_
_atom_site_type_symbol
_atom_site_label
_atom_site_fract_x
_atom_site_fract_y
_atom_site_fract_z
Si Si1 0.673277 0.845080 0.869415
Si Si2 0.542980 0.247207 0.468054
Si Si3 0.628003 0.437953 0.995575
Si Si4 0.106759 0.624420 0.166264
Si Si5 0.287840 0.262897 0.396009
O O1 0.628199 0.689752 0.900711
O O2 0.598027 0.988002 0.636581
O O3 0.747645 0.599802 0.954607
O O4 0.500000 0.418691 0.500000
O O5 0.442043 0.214601 0.203948
O O6 0.625698 0.374481 0.532205
O O7 0.579499 0.392661 0.034935
O O8 0.744517 0.480887 0.254425
O O9 0.187476 0.446767 0.238243
O O10 0.162175 0.700339 0.387924
O O11 0.000000 0.480726 0.000000
#
# Coordination Sequence:
#
# PCOD9130638 Si02
#       5
#     4   4   4   4   4
#     4  12  29  56  93 137 193 257 324 398 490 573
#     4  12  30  55  88 141 185 256 318 386 486 587
#     4  12  29  54  89 130 191 247 321 396 478 573
#     4  12  28  55  89 138 182 259 324 403 486 581
#     4  12  28  53  93 129 193 248 329 396 489 564
#
# _framework density 28.024236999999999
#
# number of rings (size 3 to 8) (size 9 to 14) (size 15 to 20)
#    0.000    0.000    6.000    1.200    5.600    4.800 
#    3.600    0.000    0.000    0.000    0.000    0.000 
#    0.000    0.000    0.000    0.000    0.000    0.000 
#
# Total GULP energy -55773.317270 kJ/mol
# GULP energy per Si atom -5577.331727 kJ/mol
# Density = 2.796045 g / cm^3
# Si number density = 28.024237 Si / 1000 Ang^3
#
#
#
# Elastic Constant Matrix: (Units=GPa)
#
#
# Indices 1 2 3 4 5 6 
#
# 1 263.1660 71.5721 107.0479 -0.0002 8.2596 0.0000
# 2 71.5721 135.8960 73.6211 -0.0003 -3.5085 0.0002
# 3 107.0479 73.6211 225.7263 0.0000 -44.0823 0.0000
# 4 -0.0002 -0.0003 0.0000 22.3355 0.0000 -3.5854
# 5 8.2596 -3.5085 -44.0823 0.0000 70.9774 0.0000
# 6 0.0000 0.0002 0.0000 -3.5854 0.0000 44.3684
#
#
#
# Elastic Compliance Matrix: (Units=1/GPa)
#
#
# Indices 1 2 3 4 5 6 
#
# 1 0.005272 -0.001513 -0.002436 0.000000 -0.002201 0.000000
# 2 -0.001513 0.009526 -0.002575 0.000000 -0.000952 0.000000
# 3 -0.002436 -0.002575 0.007347 0.000000 0.004719 0.000000
# 4 0.000000 0.000000 0.000000 0.045360 0.000000 0.003666
# 5 -0.002201 -0.000952 0.004719 0.000000 0.017229 0.000000
# 6 0.000000 0.000000 0.000000 0.003666 0.000000 0.022835
#
#
# Mechanical properties :
#
#
# Convention : Reuss Voigt Hill
#
# Bulk Modulus (GPa) = 109.95117 125.47450 117.71283
# Shear Modulus (GPa) = 40.43657 52.37275 46.40466
#
# Velocity S-wave (km/s) = 3.80269 4.32770 4.07366
# Velocity P-wave (km/s) = 7.65507 8.35719 8.01383
#
# Compressibility (1/GPa) = 0.00909495
#
# Stress axis : x y z
#
# Youngs Moduli (GPa) = 189.69686 104.97400 136.10787
#
# Poissons Ratio (x) = 0.15886 0.33160
# Poissons Ratio (y) = 0.28708 0.35052
# Poissons Ratio (z) = 0.46216 0.27034
#
# Static dielectric constant tensor:
#      x y z
#    x 2.191420 0.000000 0.048560 
#    y 0.000000 2.436680 0.000000 
#    z 0.048560 0.000000 2.142270 
# 
# From -- ./inp_files/47791.got.cif
#   From: 2010.05.17/outbox.cif.g08.bks.cpg/sg5_24_cif.got.tgz:47791.got - 2010.06.03 18:56:24.
