data_PCOD9130563
_publ_section_title
;
Structure prediction by ZEFSAII (Michael W. Deem and Ramdas Pophale) SiO2 
 PCOD9130563
Probable space group: C 2
;
_chemical_formula_sum "Si O2"
_cell_formula_units_Z 20
_cell_length_a 9.659059
_cell_length_b 7.301455
_cell_length_c 11.611478
_cell_angle_alpha 90.000000
_cell_angle_beta 89.707184
_cell_angle_gamma 90.000000
_cell_volume 818.890936
_symmetry_space_group_name_H-M "C 2"
_symmetry_group_IT_number 5
_symmetry_cell_setting 'monoclinic'
loop_
_space_group_symop_operation_xyz
x,y,z
-x,y,-z
1/2+x,1/2+y,z
1/2-x,1/2+y,-z
loop_
_atom_site_type_symbol
_atom_site_label
_atom_site_fract_x
_atom_site_fract_y
_atom_site_fract_z
Si Si1 0.852256 0.845970 0.948324
Si Si2 0.136443 0.432135 0.142619
Si Si3 0.363958 0.696808 0.438404
Si Si4 0.184039 0.810216 0.647129
Si Si5 0.849289 0.458608 0.225897
O O1 0.860998 0.644973 0.893376
O O2 0.789732 0.971850 0.847974
O O3 0.740219 0.843304 0.050822
O O4 0.000000 0.900250 0.000000
O O5 0.196378 0.388995 0.269010
O O6 0.974483 0.382587 0.147393
O O7 0.500000 0.772407 0.500000
O O8 0.245843 0.707507 0.535606
O O9 0.393670 0.490858 0.395184
O O10 0.326419 0.820104 0.330203
O O11 0.108474 0.655182 0.722102
#
# Coordination Sequence:
#
# PCOD9130563 Si02
#       5
#     4   4   4   4   4
#     4  12  27  49  78 115 155 208 259 322 387 462
#     4  12  26  50  77 116 155 204 260 324 382 463
#     4  12  26  47  78 115 155 206 257 316 384 458
#     4  12  26  47  79 116 153 206 259 316 384 461
#     4  12  27  50  81 114 157 204 263 318 384 460
#
# _framework density 24.423275
#
# number of rings (size 3 to 8) (size 9 to 14) (size 15 to 20)
#    0.000    0.000    6.000    4.200    0.000    8.800 
#    3.600    1.000    0.000    0.000    0.000    0.000 
#    0.000    0.000    0.000    0.000    0.000    0.000 
#
# Total GULP energy -56022.009880 kJ/mol
# GULP energy per Si atom -5602.200988 kJ/mol
# Density = 2.436769 g / cm^3
# Si number density = 24.423275 Si / 1000 Ang^3
#
#
#
# Elastic Constant Matrix: (Units=GPa)
#
#
# Indices 1 2 3 4 5 6 
#
# 1 114.8268 13.9832 73.0333 0.0000 2.7742 0.0000
# 2 13.9832 89.9801 53.0562 0.0000 -1.5347 0.0000
# 3 73.0333 53.0562 153.0477 0.0000 2.2830 0.0000
# 4 0.0000 0.0000 0.0000 46.7708 0.0000 -1.2914
# 5 2.7742 -1.5347 2.2830 0.0000 47.2890 0.0000
# 6 0.0000 0.0000 0.0000 -1.2914 0.0000 19.4065
#
#
#
# Elastic Compliance Matrix: (Units=1/GPa)
#
#
# Indices 1 2 3 4 5 6 
#
# 1 0.012797 0.002015 -0.006800 0.000000 -0.000357 0.000000
# 2 0.002015 0.014308 -0.005931 0.000000 0.000632 0.000000
# 3 -0.006800 -0.005931 0.011840 0.000000 -0.000365 0.000000
# 4 0.000000 0.000000 0.000000 0.021420 0.000000 0.001425
# 5 -0.000357 0.000632 -0.000365 0.000000 0.021206 0.000000
# 6 0.000000 0.000000 0.000000 0.001425 0.000000 0.051624
#
#
# Mechanical properties :
#
#
# Convention : Reuss Voigt Hill
#
# Bulk Modulus (GPa) = 57.09922 70.88887 63.99404
# Shear Modulus (GPa) = 31.15938 37.21205 34.18572
#
# Velocity S-wave (km/s) = 3.57572 3.90761 3.74534
# Velocity P-wave (km/s) = 6.36219 7.03188 6.70540
#
# Compressibility (1/GPa) = 0.01751337
#
# Stress axis : x y z
#
# Youngs Moduli (GPa) = 78.14440 69.88865 84.45834
#
# Poissons Ratio (x) = -0.14080 0.57428
# Poissons Ratio (y) = -0.15743 0.50092
# Poissons Ratio (z) = 0.53135 0.41451
#
# Static dielectric constant tensor:
#      x y z
#    x 1.908690 0.000000 0.007790 
#    y 0.000000 1.927660 0.000000 
#    z 0.007790 0.000000 1.922600 
# 
# From -- ./inp_files/34779.got.cif
#   From: 2010.05.17/outbox.cif.g08.bks.cpg/sg5_18_cif.got.tgz:34779.got - 2010.06.03 18:56:24.
