data_PCOD9130754
_publ_section_title
;
Structure prediction by ZEFSAII (Michael W. Deem and Ramdas Pophale) SiO2 
 PCOD9130754
Probable space group: P M
;
_chemical_formula_sum "Si O2"
_cell_formula_units_Z 16
_cell_length_a 12.076865
_cell_length_b 8.357570
_cell_length_c 7.340050
_cell_angle_alpha 90.000000
_cell_angle_beta 67.497055
_cell_angle_gamma 90.000000
_cell_volume 684.446255
_symmetry_space_group_name_H-M "P M"
_symmetry_group_IT_number 6
_symmetry_cell_setting 'monoclinic'
loop_
_space_group_symop_operation_xyz
x,y,z
x,-y,z
loop_
_atom_site_type_symbol
_atom_site_label
_atom_site_fract_x
_atom_site_fract_y
_atom_site_fract_z
Si Si1 0.141630 0.681491 0.528880
Si Si2 0.873962 0.178380 0.241084
Si Si3 0.370650 0.695536 0.841220
Si Si4 0.622494 0.309725 0.751910
Si Si5 0.394276 0.813240 0.410286
Si Si6 0.879673 0.684598 0.617825
Si Si7 0.113124 0.319085 0.979346
Si Si8 0.644328 0.315796 0.297266
O O1 0.141289 0.500000 0.454771
O O2 0.269001 0.758794 0.400392
O O3 0.140722 0.672056 0.748195
O O4 0.011312 0.758298 0.569539
O O5 0.871052 0.306786 0.404875
O O6 0.762346 0.214112 0.180580
O O7 0.860494 0.000000 0.325208
O O8 0.002835 0.201977 0.072679
O O9 0.376060 0.500000 0.816592
O O10 0.487940 0.748161 0.880062
O O11 0.379782 0.773663 0.635520
O O12 0.237316 0.731457 0.995543
O O13 0.625956 0.500000 0.787078
O O14 0.748302 0.245642 0.753190
O O15 0.626382 0.291852 0.527926
O O16 0.519104 0.727378 0.282505
O O17 0.410421 0.000000 0.375100
O O18 0.885711 0.500000 0.680664
O O19 0.081138 0.500000 0.057595
O O20 0.670957 0.500000 0.245748
#
# Coordination Sequence:
#
# PCOD9130754 Si02
#       8
#     2   2   2   2   2   2   2   2
#     4   9  18  32  50  71  95 127 166 200 232 279
#     4  11  21  31  46  71  99 126 158 197 243 289
#     4   8  14  26  44  65  90 121 158 196 233 276
#     4   7  11  22  43  68  88 109 143 191 236 268
#     4  10  17  25  42  69  97 121 150 194 244 284
#     4   9  17  31  51  72  95 125 160 198 239 283
#     4   9  17  30  47  67  93 128 165 198 234 281
#     4   9  16  29  47  65  89 121 158 198 235 276
#
# _framework density 23.376560999999999
#
# number of rings (size 3 to 8) (size 9 to 14) (size 15 to 20)
#    0.000    3.000    0.000    4.875    0.000    2.500 
#    0.000    0.000    0.000    1.500    0.000    5.250 
#    0.000    0.000    0.000    0.000    0.000    0.000 
#
# Total GULP energy -89129.504430 kJ/mol
# GULP energy per Si atom -5570.594027 kJ/mol
# Density = 2.332336 g / cm^3
# Si number density = 23.376561 Si / 1000 Ang^3
#
#
#
# Elastic Constant Matrix: (Units=GPa)
#
#
# Indices 1 2 3 4 5 6 
#
# 1 206.8552 30.8622 31.5631 0.0000 -54.0951 0.0000
# 2 30.8622 43.6770 4.0136 0.0000 -18.8652 0.0000
# 3 31.5631 4.0136 25.3168 0.0000 1.6207 0.0000
# 4 0.0000 0.0000 0.0000 -3.5586 0.0000 4.3803
# 5 -54.0951 -18.8652 1.6207 0.0000 52.3087 0.0000
# 6 0.0000 0.0000 0.0000 4.3803 0.0000 -6.9860
#
#
#
# Elastic Compliance Matrix: (Units=1/GPa)
#
#
# Indices 1 2 3 4 5 6 
#
# 1 0.009398 -0.001383 -0.012112 0.000000 0.009595 0.000000
# 2 -0.001383 0.027953 -0.003267 0.000000 0.008752 0.000000
# 3 -0.012112 -0.003267 0.056106 0.000000 -0.015442 0.000000
# 4 0.000000 0.000000 0.000000 -1.231411 0.000000 -0.772108
# 5 0.009595 0.008752 -0.015442 0.000000 0.032675 0.000000
# 6 0.000000 0.000000 0.000000 -0.772108 0.000000 -0.627264
#
#
# Mechanical properties :
#
#
# Convention : Reuss Voigt Hill
#
# Bulk Modulus (GPa) = 16.68537 45.41407 31.04972
# Shear Modulus (GPa) = -2.97789 22.31352 9.66781
#
# Velocity S-wave (km/s) = -1.12989 3.09289 2.03585
# Velocity P-wave (km/s) = 2.33473 5.67662 4.34022
#
# Compressibility (1/GPa) = 0.05993274
#
# Stress axis : x y z
#
# Youngs Moduli (GPa) = 106.40465 35.77403 17.82332
#
# Poissons Ratio (x) = 0.04948 0.21587
# Poissons Ratio (y) = 0.14718 0.05824
# Poissons Ratio (z) = 1.28876 0.11689
#
# Static dielectric constant tensor:
#      x y z
#    x 2.003840 0.000000 -0.032770 
#    y 0.000000 1.819920 0.000000 
#    z -0.032770 0.000000 1.974860 
# 
# From -- ./inp_files/3452.got.cif
#   From: 2010.05.17/outbox.cif.g08.bks.cpg/sg6_2_cif.got.tgz:3452.got - 2010.06.03 19:42:10.
