data_PCOD9130789
_publ_section_title
;
Structure prediction by ZEFSAII (Michael W. Deem and Ramdas Pophale) SiO2 
 PCOD9130789
Probable space group: P M
;
_chemical_formula_sum "Si O2"
_cell_formula_units_Z 16
_cell_length_a 12.755318
_cell_length_b 8.246354
_cell_length_c 8.570745
_cell_angle_alpha 90.000000
_cell_angle_beta 54.529321
_cell_angle_gamma 90.000000
_cell_volume 734.203271
_symmetry_space_group_name_H-M "P M"
_symmetry_group_IT_number 6
_symmetry_cell_setting 'monoclinic'
loop_
_space_group_symop_operation_xyz
x,y,z
x,-y,z
loop_
_atom_site_type_symbol
_atom_site_label
_atom_site_fract_x
_atom_site_fract_y
_atom_site_fract_z
Si Si1 0.327480 0.817425 0.390870
Si Si2 0.585312 0.318469 0.223312
Si Si3 0.270025 0.196543 0.788824
Si Si4 0.867220 0.685668 0.826338
Si Si5 0.403478 0.800467 0.996323
Si Si6 0.976622 0.812577 0.027807
Si Si7 0.695062 0.180658 0.746787
Si Si8 0.732018 0.679320 0.405766
O O1 0.482263 0.815243 0.272643
O O2 0.291055 0.741188 0.591591
O O3 0.273891 0.000000 0.434879
O O4 0.316061 0.750293 0.222559
O O5 0.536083 0.500000 0.228447
O O6 0.620709 0.313202 0.373772
O O7 0.722558 0.298239 0.022302
O O8 0.352810 0.251060 0.868340
O O9 0.288433 0.000000 0.763292
O O10 0.120375 0.228550 0.953400
O O11 0.908074 0.500000 0.799258
O O12 0.828554 0.738534 0.687857
O O13 0.959924 0.788467 0.855438
O O14 0.551947 0.744684 0.894578
O O15 0.404916 0.000000 0.995389
O O16 0.867463 0.704601 0.201995
O O17 0.950902 0.000000 0.086667
O O18 0.707902 0.183734 0.550778
O O19 0.693922 0.000000 0.814109
O O20 0.728862 0.500000 0.481936
#
# Coordination Sequence:
#
# PCOD9130789 Si02
#       8
#     2   2   2   2   2   2   2   2
#     4  10  18  32  56  81 110 149 185 230 286 335
#     4   9  18  32  51  76 108 144 180 221 277 340
#     4   9  19  35  54  81 114 148 189 236 285 330
#     4  10  20  35  55  78 113 151 179 227 288 338
#     4   9  18  32  53  85 118 144 180 232 287 341
#     4  10  20  37  57  79 107 146 198 242 273 328
#     4  11  20  33  56  89 116 141 184 234 282 343
#     4  10  21  36  54  79 112 151 185 226 294 349
#
# _framework density 21.792328999999999
#
# number of rings (size 3 to 8) (size 9 to 14) (size 15 to 20)
#    0.000    2.250    1.250    3.000    0.000    3.500 
#    2.250    1.250    0.000    4.500    0.000    0.000 
#    0.000    0.000    0.000    0.000    0.000    0.000 
#
# Total GULP energy -89068.188062 kJ/mol
# GULP energy per Si atom -5566.761754 kJ/mol
# Density = 2.174273 g / cm^3
# Si number density = 21.792329 Si / 1000 Ang^3
#
#
#
# Elastic Constant Matrix: (Units=GPa)
#
#
# Indices 1 2 3 4 5 6 
#
# 1 76.4923 0.6425 10.0435 0.0000 6.8756 0.0000
# 2 0.6425 33.4617 -3.0488 0.0000 -5.5083 0.0000
# 3 10.0435 -3.0488 67.1726 0.0000 22.0164 0.0000
# 4 0.0000 0.0000 0.0000 11.5832 0.0000 6.1730
# 5 6.8756 -5.5083 22.0164 0.0000 21.3174 0.0000
# 6 0.0000 0.0000 0.0000 6.1730 0.0000 10.2911
#
#
#
# Elastic Compliance Matrix: (Units=1/GPa)
#
#
# Indices 1 2 3 4 5 6 
#
# 1 0.013528 -0.000952 -0.000839 0.000000 -0.003743 0.000000
# 2 -0.000952 0.031433 -0.001805 0.000000 0.010293 0.000000
# 3 -0.000839 -0.001805 0.022668 0.000000 -0.023607 0.000000
# 4 0.000000 0.000000 0.000000 0.126897 0.000000 -0.076118
# 5 -0.003743 0.010293 -0.023607 0.000000 0.075158 0.000000
# 6 0.000000 0.000000 0.000000 -0.076118 0.000000 0.142830
#
#
# Mechanical properties :
#
#
# Convention : Reuss Voigt Hill
#
# Bulk Modulus (GPa) = 16.54624 21.37790 18.96207
# Shear Modulus (GPa) = 11.36747 19.93763 15.65255
#
# Velocity S-wave (km/s) = 2.28639 3.02800 2.68294
# Velocity P-wave (km/s) = 3.81829 4.69640 4.27992
#
# Compressibility (1/GPa) = 0.06043669
#
# Stress axis : x y z
#
# Youngs Moduli (GPa) = 73.92179 31.81347 44.11522
#
# Poissons Ratio (x) = 0.03030 0.03702
# Poissons Ratio (y) = 0.07040 0.07961
# Poissons Ratio (z) = 0.06204 0.05741
#
# Static dielectric constant tensor:
#      x y z
#    x 1.794180 0.000000 0.060920 
#    y 0.000000 1.794070 0.000000 
#    z 0.060920 0.000000 1.894670 
# 
# From -- ./inp_files/3387.got.cif
#   From: 2010.05.17/outbox.cif.g08.bks.cpg/sg6_2_cif.got.tgz:3387.got - 2010.06.03 19:42:10.
