data_PCOD9130048
_publ_section_title
;
Structure prediction by ZEFSAII (Michael W. Deem and Ramdas Pophale) SiO2 
 PCOD9130048
Probable space group: C 2
;
_chemical_formula_sum "Si O2"
_cell_formula_units_Z 32
_cell_length_a 14.138517
_cell_length_b 11.811280
_cell_length_c 17.530276
_cell_angle_alpha 90.000000
_cell_angle_beta 28.832291
_cell_angle_gamma 90.000000
_cell_volume 1411.755653
_symmetry_space_group_name_H-M "C 2"
_symmetry_group_IT_number 5
_symmetry_cell_setting 'monoclinic'
loop_
_space_group_symop_operation_xyz
x,y,z
-x,y,-z
1/2+x,1/2+y,z
1/2-x,1/2+y,-z
loop_
_atom_site_type_symbol
_atom_site_label
_atom_site_fract_x
_atom_site_fract_y
_atom_site_fract_z
Si Si1 0.984585 0.759970 0.136790
Si Si2 0.916610 0.382414 0.144061
Si Si3 0.293696 0.653893 0.187821
Si Si4 0.115096 0.125409 0.615532
Si Si5 0.837129 0.097796 0.680075
Si Si6 0.399869 0.845319 0.832241
Si Si7 0.728271 0.967916 0.358993
Si Si8 0.498047 0.104030 0.738329
O O1 0.822447 0.697685 0.199922
O O2 0.861117 0.856915 0.266693
O O3 0.062308 0.662888 0.139961
O O4 0.177144 0.818200 0.966147
O O5 0.781307 0.271326 0.241251
O O6 0.785875 0.488854 0.258977
O O7 0.085438 0.357394 0.086233
O O8 0.000000 0.400448 0.000000
O O9 0.288587 0.547688 0.246266
O O10 0.130227 0.650396 0.239697
O O11 0.500000 0.655148 0.000000
O O12 0.282179 0.142624 0.434334
O O13 0.936163 0.075477 0.692128
O O14 0.037458 0.242397 0.707001
O O15 0.216372 0.042636 0.605753
O O16 0.000000 0.123075 0.500000
O O17 0.471425 0.968519 0.754625
O O18 0.500000 0.942169 0.500000
#
# Coordination Sequence:
#
# PCOD9130048 Si02
#       8
#     4   4   4   4   4   4   4   4
#     4  12  28  48  77 107 155 196 250 319 372 460
#     4  11  25  47  73 107 150 198 256 313 371 451
#     4  11  24  46  72 106 148 194 251 310 374 448
#     4  12  29  47  76 109 152 199 253 313 381 455
#     4  12  27  49  73 111 155 201 252 309 385 456
#     4  12  28  50  78 112 152 199 260 311 382 448
#     4  12  27  48  73 108 147 199 253 313 382 451
#     4  12  27  48  75 111 152 198 251 310 383 451
#
# _framework density 22.666810999999999
#
# number of rings (size 3 to 8) (size 9 to 14) (size 15 to 20)
#    0.000    0.250    5.000    2.625   10.500    1.500 
#    0.000    0.000    0.000    0.000    0.000    0.000 
#    0.000    0.000    0.000    0.000    0.000    0.000 
#
# Total GULP energy -89488.966098 kJ/mol
# GULP energy per Si atom -5593.060381 kJ/mol
# Density = 2.261522 g / cm^3
# Si number density = 22.666811 Si / 1000 Ang^3
#
#
#
# Elastic Constant Matrix: (Units=GPa)
#
#
# Indices 1 2 3 4 5 6 
#
# 1 109.1608 8.6593 18.7820 -0.0017 -20.1049 -0.0001
# 2 8.6593 113.6720 48.1800 -0.0039 -18.7402 0.0026
# 3 18.7820 48.1800 93.0756 -0.0024 -16.8932 0.0025
# 4 -0.0017 -0.0039 -0.0024 37.2942 0.0004 -0.5321
# 5 -20.1049 -18.7402 -16.8932 0.0004 28.3739 0.0001
# 6 -0.0001 0.0026 0.0025 -0.5321 0.0001 24.8130
#
#
#
# Elastic Compliance Matrix: (Units=1/GPa)
#
#
# Indices 1 2 3 4 5 6 
#
# 1 0.010676 0.000964 -0.001306 0.000000 0.007424 0.000000
# 2 0.000964 0.011882 -0.005378 0.000001 0.005329 -0.000001
# 3 -0.001306 -0.005378 0.014551 0.000000 0.004186 -0.000001
# 4 0.000000 0.000001 0.000000 0.026822 0.000001 0.000575
# 5 0.007424 0.005329 0.004186 0.000001 0.046516 -0.000001
# 6 0.000000 -0.000001 -0.000001 0.000575 -0.000001 0.040314
#
#
# Mechanical properties :
#
#
# Convention : Reuss Voigt Hill
#
# Bulk Modulus (GPa) = 38.95622 51.90564 45.43093
# Shear Modulus (GPa) = 29.28135 34.11537 31.69836
#
# Velocity S-wave (km/s) = 3.59808 3.88375 3.74364
# Velocity P-wave (km/s) = 5.87242 6.56204 6.22679
#
# Compressibility (1/GPa) = 0.02566984
#
# Stress axis : x y z
#
# Youngs Moduli (GPa) = 93.66453 84.16265 68.72338
#
# Poissons Ratio (x) = -0.08115 0.08976
# Poissons Ratio (y) = -0.09032 0.36959
# Poissons Ratio (z) = 0.12233 0.45262
#
# Static dielectric constant tensor:
#      x y z
#    x 1.850100 0.000000 -0.023070 
#    y 0.000000 1.824850 0.000000 
#    z -0.023070 0.000000 1.880360 
# 
# From -- ./inp_files/61687.got.cif
#   From: 2010.05.17/outbox.cif.g08.bks.cpg/sg5_31_cif.got.tgz:61687.got - 2010.06.03 18:56:24.
