data_PCOD9130402
_publ_section_title
;
Structure prediction by ZEFSAII (Michael W. Deem and Ramdas Pophale) SiO2 
 PCOD9130402
Probable space group: C 2
;
_chemical_formula_sum "Si O2"
_cell_formula_units_Z 24
_cell_length_a 15.077483
_cell_length_b 15.149052
_cell_length_c 5.960481
_cell_angle_alpha 90.000000
_cell_angle_beta 56.462045
_cell_angle_gamma 90.000000
_cell_volume 1134.779925
_symmetry_space_group_name_H-M "C 2"
_symmetry_group_IT_number 5
_symmetry_cell_setting 'monoclinic'
loop_
_space_group_symop_operation_xyz
x,y,z
-x,y,-z
1/2+x,1/2+y,z
1/2-x,1/2+y,-z
loop_
_atom_site_type_symbol
_atom_site_label
_atom_site_fract_x
_atom_site_fract_y
_atom_site_fract_z
Si Si1 0.225221 0.434820 0.233004
Si Si2 0.090206 0.873737 0.721352
Si Si3 0.796357 0.774563 0.837342
Si Si4 0.104690 0.555628 0.708294
Si Si5 0.500000 0.186216 0.500000
Si Si6 0.771995 0.096574 0.857030
Si Si7 0.500000 0.512770 0.500000
O O1 0.332422 0.428875 0.226522
O O2 0.138004 0.464896 0.536863
O O3 0.233418 0.346896 0.070979
O O4 0.224893 0.514479 0.059389
O O5 0.170140 0.814676 0.453842
O O6 0.027156 0.944188 0.659475
O O7 0.000000 0.828768 0.000000
O O8 0.915791 0.747330 0.745382
O O9 0.737151 0.683171 0.974868
O O10 0.200972 0.595437 0.727425
O O11 0.067105 0.626186 0.574972
O O12 0.000000 0.539754 0.000000
O O13 0.895271 0.072599 0.656324
#
# Coordination Sequence:
#
# PCOD9130402 Si02
#       7
#     4   4   4   4   2   4   2
#     4  12  24  46  71 108 152 191 245 313 369 441
#     4  12  23  43  77 108 146 190 250 314 373 423
#     4  12  26  44  71 117 143 191 253 311 369 434
#     4  12  24  47  74 109 148 198 245 309 373 442
#     4  12  25  42  77 114 142 186 257 316 367 430
#     4  12  26  48  70 111 153 193 247 304 377 439
#     4  12  23  48  75 108 142 198 247 304 367 446
#
# _framework density 21.149476
#
# number of rings (size 3 to 8) (size 9 to 14) (size 15 to 20)
#    0.000    0.000    8.333    1.500    2.333    0.667 
#    3.000    4.167    0.000    0.000    8.667    0.000 
#    0.000    0.000    0.000    0.000    0.000    0.000 
#
# Total GULP energy -66898.965515 kJ/mol
# GULP energy per Si atom -5574.913793 kJ/mol
# Density = 2.110134 g / cm^3
# Si number density = 21.149476 Si / 1000 Ang^3
#
#
#
# Elastic Constant Matrix: (Units=GPa)
#
#
# Indices 1 2 3 4 5 6 
#
# 1 50.1317 10.7330 5.4084 0.0000 19.6994 0.0000
# 2 10.7330 126.5380 47.0339 0.0000 -0.7091 0.0000
# 3 5.4084 47.0339 105.0253 0.0000 -17.7446 0.0000
# 4 0.0000 0.0000 0.0000 -42.1662 0.0000 1.6341
# 5 19.6994 -0.7091 -17.7446 0.0000 44.1562 0.0000
# 6 0.0000 0.0000 0.0000 1.6341 0.0000 13.5782
#
#
#
# Elastic Compliance Matrix: (Units=1/GPa)
#
#
# Indices 1 2 3 4 5 6 
#
# 1 0.025433 -0.001144 -0.002916 0.000000 -0.012536 0.000000
# 2 -0.001144 0.009648 -0.004452 0.000000 -0.001124 0.000000
# 3 -0.002916 -0.004452 0.012738 0.000000 0.006348 0.000000
# 4 0.000000 0.000000 0.000000 -0.023606 0.000000 0.002841
# 5 -0.012536 -0.001124 0.006348 0.000000 0.030773 0.000000
# 6 0.000000 0.000000 0.000000 0.002841 0.000000 0.073306
#
#
# Mechanical properties :
#
#
# Convention : Reuss Voigt Hill
#
# Bulk Modulus (GPa) = 32.47078 45.33838 38.90458
# Shear Modulus (GPa) = 32.13780 17.68160 24.90970
#
# Velocity S-wave (km/s) = 3.90238 2.89456 3.43562
# Velocity P-wave (km/s) = 5.97420 5.71445 5.84577
#
# Compressibility (1/GPa) = 0.03079692
#
# Stress axis : x y z
#
# Youngs Moduli (GPa) = 39.31879 103.64643 78.50623
#
# Poissons Ratio (x) = 0.11855 0.22889
# Poissons Ratio (y) = 0.04497 0.34949
# Poissons Ratio (z) = 0.11464 0.46141
#
# Static dielectric constant tensor:
#      x y z
#    x 1.769140 0.000000 0.015640 
#    y 0.000000 1.786940 0.000000 
#    z 0.015640 0.000000 1.895410 
# 
# From -- ./inp_files/6818.got.cif
#   From: 2010.05.17/outbox.cif.g08.bks.cpg/sg5_4_cif.got.tgz:6818.got - 2010.06.03 18:56:24.
