data_PCOD9130600
_publ_section_title
;
Structure prediction by ZEFSAII (Michael W. Deem and Ramdas Pophale) SiO2 
 PCOD9130600
Probable space group: C 2
;
_chemical_formula_sum "Si O2"
_cell_formula_units_Z 20
_cell_length_a 4.825607
_cell_length_b 12.487203
_cell_length_c 13.393492
_cell_angle_alpha 90.000000
_cell_angle_beta 100.378399
_cell_angle_gamma 90.000000
_cell_volume 793.865423
_symmetry_space_group_name_H-M "C 2"
_symmetry_group_IT_number 5
_symmetry_cell_setting 'monoclinic'
loop_
_space_group_symop_operation_xyz
x,y,z
-x,y,-z
1/2+x,1/2+y,z
1/2-x,1/2+y,-z
loop_
_atom_site_type_symbol
_atom_site_label
_atom_site_fract_x
_atom_site_fract_y
_atom_site_fract_z
Si Si1 0.959166 0.921050 0.160206
Si Si2 0.452888 0.067070 0.137811
Si Si3 0.000000 0.995975 0.500000
Si Si4 0.500000 0.245976 0.000000
Si Si5 0.201036 0.171050 0.660206
Si Si6 0.315081 0.317070 0.362189
O O1 0.906068 0.874656 0.265895
O O2 0.197166 0.010160 0.175062
O O3 0.070749 0.829575 0.092274
O O4 0.667910 0.977989 0.107128
O O5 0.640171 0.124656 0.234106
O O6 0.332436 0.156822 0.054338
O O7 0.778098 0.906821 0.445661
O O8 0.978479 0.079574 0.407727
O O9 0.439209 0.227989 0.607128
O O10 0.977890 0.260158 0.675063
#
# Coordination Sequence:
#
# PCOD9130600 Si02
#       6
#     4   4   2   2   4   4
#     4  12  27  49  75 110 149 198 252 309 374 447
#     4  12  27  49  75 110 149 198 252 309 374 447
#     4  12  28  46  80 104 160 194 248 314 376 438
#     4  12  28  46  80 104 160 194 248 314 376 438
#     4  12  27  49  75 110 149 198 252 309 374 447
#     4  12  27  49  75 110 149 198 252 309 374 447
#
# _framework density 25.193187000000002
#
# number of rings (size 3 to 8) (size 9 to 14) (size 15 to 20)
#    0.000    0.000    4.000    4.800    0.000    3.200 
#    0.000    0.000    0.000    0.000    0.000    0.000 
#    0.000    0.000    0.000    0.000    0.000    0.000 
#
# Total GULP energy -55845.463745 kJ/mol
# GULP energy per Si atom -5584.546374 kJ/mol
# Density = 2.513585 g / cm^3
# Si number density = 25.193187 Si / 1000 Ang^3
#
#
#
# Elastic Constant Matrix: (Units=GPa)
#
#
# Indices 1 2 3 4 5 6 
#
# 1 156.6991 60.5637 41.4041 0.0000 -1.1612 0.0000
# 2 60.5637 112.9129 42.8192 0.0000 -0.2269 0.0000
# 3 41.4041 42.8192 107.6985 0.0000 0.5346 0.0000
# 4 0.0000 0.0000 0.0000 57.5240 0.0000 0.2379
# 5 -1.1612 -0.2269 0.5346 0.0000 12.0412 0.0000
# 6 0.0000 0.0000 0.0000 0.2379 0.0000 38.6152
#
#
#
# Elastic Compliance Matrix: (Units=1/GPa)
#
#
# Indices 1 2 3 4 5 6 
#
# 1 0.008307 -0.003817 -0.001680 0.000000 0.000804 0.000000
# 2 -0.003817 0.012184 -0.003377 0.000000 0.000011 0.000000
# 3 -0.001680 -0.003377 0.011277 0.000000 -0.000726 0.000000
# 4 0.000000 0.000000 0.000000 0.017384 0.000000 -0.000107
# 5 0.000804 0.000011 -0.000726 0.000000 0.083158 0.000000
# 6 0.000000 0.000000 0.000000 -0.000107 0.000000 0.025897
#
#
# Mechanical properties :
#
#
# Convention : Reuss Voigt Hill
#
# Bulk Modulus (GPa) = 71.32283 74.09828 72.71055
# Shear Modulus (GPa) = 27.68105 37.13766 32.40936
#
# Velocity S-wave (km/s) = 3.31834 3.84359 3.59058
# Velocity P-wave (km/s) = 6.56153 7.01238 6.79069
#
# Compressibility (1/GPa) = 0.01402076
#
# Stress axis : x y z
#
# Youngs Moduli (GPa) = 120.38496 82.07295 88.67406
#
# Poissons Ratio (x) = 0.31326 0.14897
# Poissons Ratio (y) = 0.45949 0.29945
# Poissons Ratio (z) = 0.20224 0.27716
#
# Static dielectric constant tensor:
#      x y z
#    x 1.959110 0.000000 0.001010 
#    y 0.000000 2.017080 0.000000 
#    z 0.001010 0.000000 2.038630 
# 
# From -- ./inp_files/48674.got.cif
#   From: 2010.05.17/outbox.cif.g08.bks.cpg/sg5_25_cif.got.tgz:48674.got - 2010.06.03 18:56:24.
