data_PCOD9130634
_publ_section_title
;
Structure prediction by ZEFSAII (Michael W. Deem and Ramdas Pophale) SiO2 
 PCOD9130634
Probable space group: C 2
;
_chemical_formula_sum "Si O2"
_cell_formula_units_Z 18
_cell_length_a 6.922524
_cell_length_b 18.539267
_cell_length_c 5.745036
_cell_angle_alpha 90.000000
_cell_angle_beta 73.811721
_cell_angle_gamma 90.000000
_cell_volume 708.075648
_symmetry_space_group_name_H-M "C 2"
_symmetry_group_IT_number 5
_symmetry_cell_setting 'monoclinic'
loop_
_space_group_symop_operation_xyz
x,y,z
-x,y,-z
1/2+x,1/2+y,z
1/2-x,1/2+y,-z
loop_
_atom_site_type_symbol
_atom_site_label
_atom_site_fract_x
_atom_site_fract_y
_atom_site_fract_z
Si Si1 0.000000 0.606091 0.500000
Si Si2 0.000000 0.831199 0.500000
Si Si3 0.954743 0.315815 0.271279
Si Si4 0.214632 0.539688 0.048338
Si Si5 0.000000 0.910396 0.000000
Si Si6 0.717268 0.188963 0.826177
O O1 0.134798 0.657067 0.614182
O O2 0.163495 0.554108 0.330999
O O3 0.217957 0.796890 0.365518
O O4 0.044065 0.869289 0.740387
O O5 0.891142 0.247968 0.770846
O O6 0.000000 0.357100 0.500000
O O7 0.000000 0.348511 0.000000
O O8 0.331325 0.467193 0.976948
O O9 0.295292 0.616775 0.930305
O O10 0.000000 0.534357 0.000000
O O11 0.500000 0.215533 0.000000
#
# Coordination Sequence:
#
# PCOD9130634 Si02
#       6
#     2   2   4   4   2   4
#     4   8  18  41  72 120 158 185 258 306 422 478
#     4  12  32  57  70 122 154 219 278 310 372 466
#     4  12  30  50  82 107 159 212 262 325 385 462
#     4   9  22  43  75 119 151 194 251 329 405 464
#     4  12  28  50  84 106 160 206 274 320 378 468
#     4   9  22  42  77 121 161 194 253 322 412 476
#
# _framework density 25.421012000000001
#
# number of rings (size 3 to 8) (size 9 to 14) (size 15 to 20)
#    0.000    2.222    0.000    1.333   17.111    2.667 
#    0.000    0.000    0.000    0.000    0.000    0.000 
#    0.000    0.000    0.000    0.000    0.000    0.000 
#
# Total GULP energy -50191.010179 kJ/mol
# GULP energy per Si atom -5576.778909 kJ/mol
# Density = 2.536315 g / cm^3
# Si number density = 25.421012 Si / 1000 Ang^3
#
#
#
# Elastic Constant Matrix: (Units=GPa)
#
#
# Indices 1 2 3 4 5 6 
#
# 1 159.2920 48.2357 34.0963 0.0000 -30.8381 0.0000
# 2 48.2357 88.7833 44.9488 0.0000 -21.3634 0.0000
# 3 34.0963 44.9488 154.1994 0.0000 -7.8563 0.0000
# 4 0.0000 0.0000 0.0000 5.4478 0.0000 -25.4237
# 5 -30.8381 -21.3634 -7.8563 0.0000 48.1410 0.0000
# 6 0.0000 0.0000 0.0000 -25.4237 0.0000 93.1381
#
#
#
# Elastic Compliance Matrix: (Units=1/GPa)
#
#
# Indices 1 2 3 4 5 6 
#
# 1 0.008093 -0.003171 -0.000678 0.000000 0.003666 0.000000
# 2 -0.003171 0.015935 -0.003718 0.000000 0.004433 0.000000
# 3 -0.000678 -0.003718 0.007677 0.000000 -0.000832 0.000000
# 4 0.000000 0.000000 0.000000 -0.670241 0.000000 -0.182954
# 5 0.003666 0.004433 -0.000832 0.000000 0.024952 0.000000
# 6 0.000000 0.000000 0.000000 -0.182954 0.000000 -0.039204
#
#
# Mechanical properties :
#
#
# Convention : Reuss Voigt Hill
#
# Bulk Modulus (GPa) = 60.35115 72.98181 66.66648
# Shear Modulus (GPa) = -7.90979 47.67833 19.88427
#
# Velocity S-wave (km/s) = -1.76586 4.33546 2.79981
# Velocity P-wave (km/s) = 4.43108 7.33711 6.06084
#
# Compressibility (1/GPa) = 0.01656969
#
# Stress axis : x y z
#
# Youngs Moduli (GPa) = 123.56277 62.75303 130.26738
#
# Poissons Ratio (x) = 0.19901 0.08836
# Poissons Ratio (y) = 0.39186 0.48434
# Poissons Ratio (z) = 0.08381 0.23332
#
# Static dielectric constant tensor:
#      x y z
#    x 1.804910 0.000000 0.148500 
#    y 0.000000 1.994930 0.000000 
#    z 0.148500 0.000000 1.981080 
# 
# From -- ./inp_files/2587.got.cif
#   From: 2010.05.17/outbox.cif.g08.bks.cpg/sg5_2_cif.got.tgz:2587.got - 2010.06.03 18:56:24.
