data_PCOD9130889
_publ_section_title
;
Structure prediction by ZEFSAII (Michael W. Deem and Ramdas Pophale) SiO2 
 PCOD9130889
Probable space group: P M
;
_chemical_formula_sum "Si O2"
_cell_formula_units_Z 14
_cell_length_a 13.824744
_cell_length_b 9.534479
_cell_length_c 7.166639
_cell_angle_alpha 90.000000
_cell_angle_beta 40.000425
_cell_angle_gamma 90.000000
_cell_volume 607.212816
_symmetry_space_group_name_H-M "P M"
_symmetry_group_IT_number 6
_symmetry_cell_setting 'monoclinic'
loop_
_space_group_symop_operation_xyz
x,y,z
x,-y,z
loop_
_atom_site_type_symbol
_atom_site_label
_atom_site_fract_x
_atom_site_fract_y
_atom_site_fract_z
Si Si1 0.734760 0.154676 0.117240
Si Si2 0.749925 0.758695 0.681307
Si Si3 0.513256 0.845524 0.742255
Si Si4 0.439906 0.346536 0.155612
Si Si5 0.234949 0.831955 0.711218
Si Si6 0.084834 0.337958 0.237238
Si Si7 0.009221 0.663072 0.785055
O O1 0.569289 0.173397 0.449550
O O2 0.787554 0.000000 0.101750
O O3 0.746211 0.154876 0.877722
O O4 0.839354 0.280839 0.030056
O O5 0.672025 0.839604 0.625041
O O6 0.916207 0.699076 0.410383
O O7 0.619674 0.644715 0.910842
O O8 0.445541 0.000000 0.866532
O O9 0.420289 0.724352 0.981104
O O10 0.370400 0.500000 0.273095
O O11 0.376566 0.238893 0.399651
O O12 0.102288 0.767137 0.778127
O O13 0.240550 0.000000 0.703855
O O14 0.198887 0.768047 0.967806
O O15 0.121484 0.500000 0.138619
O O16 0.069878 0.325117 0.482778
O O17 0.015877 0.500000 0.831892
#
# Coordination Sequence:
#
# PCOD9130889 Si02
#       7
#     2   2   2   2   2   2   2
#     4  10  19  34  59  91 121 154 196 241 295 352
#     4   9  20  35  63  87 120 153 191 243 295 349
#     4   9  19  34  54  83 117 152 190 237 291 346
#     4  10  22  41  62  84 117 159 201 246 296 353
#     4  12  25  41  62  88 121 163 202 247 303 360
#     4  10  21  40  65  92 120 155 201 250 299 354
#     4  10  22  39  61  89 122 158 201 250 297 354
#
# _framework density 23.056166000000001
#
# number of rings (size 3 to 8) (size 9 to 14) (size 15 to 20)
#    0.857    1.143    0.000    3.857    0.000    5.714 
#    2.571    0.000    0.000    0.000    0.000    0.000 
#    0.000    0.000    0.000    0.000    0.000    0.000 
#
# Total GULP energy -78134.520827 kJ/mol
# GULP energy per Si atom -5581.037202 kJ/mol
# Density = 2.300369 g / cm^3
# Si number density = 23.056166 Si / 1000 Ang^3
#
#
#
# Elastic Constant Matrix: (Units=GPa)
#
#
# Indices 1 2 3 4 5 6 
#
# 1 60.4397 20.3669 2.5049 0.0000 13.4711 0.0000
# 2 20.3669 206.9747 69.1899 0.0000 17.6236 0.0000
# 3 2.5049 69.1899 109.0969 0.0000 11.5909 0.0000
# 4 0.0000 0.0000 0.0000 44.7417 0.0000 3.0632
# 5 13.4711 17.6236 11.5909 0.0000 33.7243 0.0000
# 6 0.0000 0.0000 0.0000 3.0632 0.0000 20.8552
#
#
#
# Elastic Compliance Matrix: (Units=1/GPa)
#
#
# Indices 1 2 3 4 5 6 
#
# 1 0.018628 -0.001702 0.001399 0.000000 -0.007032 0.000000
# 2 -0.001702 0.006411 -0.003885 0.000000 -0.001335 0.000000
# 3 0.001399 -0.003885 0.011875 0.000000 -0.002610 0.000000
# 4 0.000000 0.000000 0.000000 0.022578 0.000000 -0.003316
# 5 -0.007032 -0.001335 -0.002610 0.000000 0.034056 0.000000
# 6 0.000000 0.000000 0.000000 -0.003316 0.000000 0.048437
#
#
# Mechanical properties :
#
#
# Convention : Reuss Voigt Hill
#
# Bulk Modulus (GPa) = 35.04033 62.29275 48.66654
# Shear Modulus (GPa) = 31.27440 38.82756 35.05098
#
# Velocity S-wave (km/s) = 3.68699 4.10816 3.90326
# Velocity P-wave (km/s) = 5.77546 7.04124 6.43953
#
# Compressibility (1/GPa) = 0.02853855
#
# Stress axis : x y z
#
# Youngs Moduli (GPa) = 53.68155 155.96995 84.20776
#
# Poissons Ratio (x) = 0.26544 -0.11779
# Poissons Ratio (y) = 0.09136 0.32717
# Poissons Ratio (z) = -0.07509 0.60598
#
# Static dielectric constant tensor:
#      x y z
#    x 1.949230 0.000000 -0.029610 
#    y 0.000000 1.791690 0.000000 
#    z -0.029610 0.000000 1.865570 
# 
# From -- ./inp_files/4211.got.cif
#   From: 2010.05.17/outbox.cif.g08.bks.cpg/sg6_3_cif.got.tgz:4211.got - 2010.06.03 19:42:10.
