data_PCOD9130206
_publ_section_title
;
Structure prediction by ZEFSAII (Michael W. Deem and Ramdas Pophale) SiO2 
 PCOD9130206
Probable space group: C 2
;
_chemical_formula_sum "Si O2"
_cell_formula_units_Z 18
_cell_length_a 6.671850
_cell_length_b 18.118436
_cell_length_c 7.866019
_cell_angle_alpha 90.000000
_cell_angle_beta 122.246108
_cell_angle_gamma 90.000000
_cell_volume 804.213207
_symmetry_space_group_name_H-M "C 2"
_symmetry_group_IT_number 5
_symmetry_cell_setting 'monoclinic'
loop_
_space_group_symop_operation_xyz
x,y,z
-x,y,-z
1/2+x,1/2+y,z
1/2-x,1/2+y,-z
loop_
_atom_site_type_symbol
_atom_site_label
_atom_site_fract_x
_atom_site_fract_y
_atom_site_fract_z
Si Si1 0.007748 0.604900 0.812504
Si Si2 0.256618 0.325940 0.685989
Si Si3 0.328295 0.498803 0.758138
Si Si4 0.000000 0.082674 0.500000
Si Si5 0.732102 0.262658 0.929544
O O1 0.105707 0.546413 0.723057
O O2 0.176687 0.675724 0.895105
O O3 0.740593 0.627279 0.642450
O O4 0.000000 0.572999 0.000000
O O5 0.263949 0.414432 0.694312
O O6 0.512926 0.300058 0.728328
O O7 0.000000 0.303083 0.500000
O O8 0.269410 0.292097 0.879546
O O9 0.448036 0.534269 0.645292
O O10 0.500000 0.500943 0.000000
O O11 0.000000 0.278237 0.000000
#
# Coordination Sequence:
#
# PCOD9130206 Si02
#       5
#     4   4   4   2   4
#     4  12  25  46  74 111 152 196 251 309 374 449
#     4  11  25  49  74 107 151 194 252 310 376 455
#     4  12  25  50  78 112 152 196 256 314 375 450
#     4  12  28  46  80 108 152 204 252 308 384 446
#     4  11  26  46  72 108 149 197 246 309 377 442
#
# _framework density 22.382124999999998
#
# number of rings (size 3 to 8) (size 9 to 14) (size 15 to 20)
#    0.000    0.444    6.667    2.667    1.556    5.333 
#    4.000    0.000    0.000    0.000    0.000    0.000 
#    0.000    0.000    0.000    0.000    0.000    0.000 
#
# Total GULP energy -50299.510397 kJ/mol
# GULP energy per Si atom -5588.834489 kJ/mol
# Density = 2.233118 g / cm^3
# Si number density = 22.382125 Si / 1000 Ang^3
#
#
#
# Elastic Constant Matrix: (Units=GPa)
#
#
# Indices 1 2 3 4 5 6 
#
# 1 151.4236 40.0948 68.1135 0.0000 34.0605 0.0000
# 2 40.0948 94.9051 3.1900 0.0000 0.3763 0.0000
# 3 68.1135 3.1900 140.1085 0.0000 29.2130 0.0000
# 4 0.0000 0.0000 0.0000 10.2093 0.0000 8.1206
# 5 34.0605 0.3763 29.2130 0.0000 60.6623 0.0000
# 6 0.0000 0.0000 0.0000 8.1206 0.0000 34.4340
#
#
#
# Elastic Compliance Matrix: (Units=1/GPa)
#
#
# Indices 1 2 3 4 5 6 
#
# 1 0.010490 -0.004275 -0.004202 0.000000 -0.003840 0.000000
# 2 -0.004275 0.012287 0.001461 0.000000 0.001621 0.000000
# 3 -0.004202 0.001461 0.009623 0.000000 -0.002284 0.000000
# 4 0.000000 0.000000 0.000000 0.120566 0.000000 -0.028433
# 5 -0.003840 0.001621 -0.002284 0.000000 0.019731 0.000000
# 6 0.000000 0.000000 0.000000 -0.028433 0.000000 0.035747
#
#
# Mechanical properties :
#
#
# Convention : Reuss Voigt Hill
#
# Bulk Modulus (GPa) = 54.44290 67.69265 61.06777
# Shear Modulus (GPa) = 21.87243 39.39705 30.63474
#
# Velocity S-wave (km/s) = 3.12946 4.20003 3.70363
# Velocity P-wave (km/s) = 6.11842 7.33689 6.75519
#
# Compressibility (1/GPa) = 0.01836787
#
# Stress axis : x y z
#
# Youngs Moduli (GPa) = 95.33194 81.38381 103.91892
#
# Poissons Ratio (x) = 0.34793 0.43662
# Poissons Ratio (y) = 0.40756 -0.15179
# Poissons Ratio (z) = 0.40054 -0.11887
#
# Static dielectric constant tensor:
#      x y z
#    x 1.681690 0.000000 -0.005740 
#    y 0.000000 1.775430 0.000000 
#    z -0.005740 0.000000 1.847400 
# 
# From -- ./inp_files/12605.got.cif
#   From: 2010.05.17/outbox.cif.g08.bks.cpg/sg5_7_cif.got.tgz:12605.got - 2010.06.03 18:56:24.
