data_PCOD9130305
_publ_section_title
;
Structure prediction by ZEFSAII (Michael W. Deem and Ramdas Pophale) SiO2 
 PCOD9130305
Probable space group: C 2
;
_chemical_formula_sum "Si O2"
_cell_formula_units_Z 14
_cell_length_a 4.888508
_cell_length_b 18.340699
_cell_length_c 5.463109
_cell_angle_alpha 90.000000
_cell_angle_beta 88.640125
_cell_angle_gamma 90.000000
_cell_volume 489.677044
_symmetry_space_group_name_H-M "C 2"
_symmetry_group_IT_number 5
_symmetry_cell_setting 'monoclinic'
loop_
_space_group_symop_operation_xyz
x,y,z
-x,y,-z
1/2+x,1/2+y,z
1/2-x,1/2+y,-z
loop_
_atom_site_type_symbol
_atom_site_label
_atom_site_fract_x
_atom_site_fract_y
_atom_site_fract_z
Si Si1 0.114259 0.587480 0.253846
Si Si2 0.256879 0.383685 0.319386
Si Si3 0.320821 0.715868 0.755701
Si Si4 0.500000 0.501868 0.000000
O O1 0.950055 0.665315 0.255495
O O2 0.000000 0.551764 0.500000
O O3 0.431070 0.562647 0.216359
O O4 0.000000 0.558150 0.000000
O O5 0.500000 0.399688 0.500000
O O6 0.268144 0.299965 0.232445
O O7 0.285283 0.439882 0.098571
O O8 0.000000 0.389302 0.500000
O O9 0.500000 0.705385 0.500000
O O10 0.500000 0.702997 0.000000
#
# Coordination Sequence:
#
# PCOD9130305 Si02
#       4
#     4   4   4   2
#     4  12  30  52  83 123 174 226 282 352 432 511
#     4  11  29  55  89 128 172 229 295 358 434 514
#     4  11  27  54  93 127 169 224 295 364 425 512
#     4  12  32  50  90 120 184 226 284 356 440 526
#
# _framework density 28.590271000000001
#
# number of rings (size 3 to 8) (size 9 to 14) (size 15 to 20)
#    0.000    0.571    0.000    3.429   24.000    0.000 
#    0.000    0.000    0.000    0.000    0.000    0.000 
#    0.000    0.000    0.000    0.000    0.000    0.000 
#
# Total GULP energy -39055.858508 kJ/mol
# GULP energy per Si atom -5579.408358 kJ/mol
# Density = 2.852520 g / cm^3
# Si number density = 28.590271 Si / 1000 Ang^3
#
#
#
# Elastic Constant Matrix: (Units=GPa)
#
#
# Indices 1 2 3 4 5 6 
#
# 1 172.1369 54.9914 72.6332 0.0000 -21.6639 0.0000
# 2 54.9914 298.2520 68.3148 0.0000 -30.5621 0.0000
# 3 72.6332 68.3148 254.3117 0.0000 -40.9458 0.0000
# 4 0.0000 0.0000 0.0000 93.7860 0.0000 -24.2287
# 5 -21.6639 -30.5621 -40.9458 0.0000 77.4008 0.0000
# 6 0.0000 0.0000 0.0000 -24.2287 0.0000 56.0019
#
#
#
# Elastic Compliance Matrix: (Units=1/GPa)
#
#
# Indices 1 2 3 4 5 6 
#
# 1 0.006845 -0.000816 -0.001617 0.000000 0.000738 0.000000
# 2 -0.000816 0.003740 -0.000624 0.000000 0.000918 0.000000
# 3 -0.001617 -0.000624 0.004863 0.000000 0.001874 0.000000
# 4 0.000000 0.000000 0.000000 0.012004 0.000000 0.005194
# 5 0.000738 0.000918 0.001874 0.000000 0.014480 0.000000
# 6 0.000000 0.000000 0.000000 0.005194 0.000000 0.020103
#
#
# Mechanical properties :
#
#
# Convention : Reuss Voigt Hill
#
# Bulk Modulus (GPa) = 107.12191 124.06437 115.59314
# Shear Modulus (GPa) = 70.16330 80.68849 75.42589
#
# Velocity S-wave (km/s) = 4.95926 5.31824 5.14188
# Velocity P-wave (km/s) = 8.38699 9.01108 8.70463
#
# Compressibility (1/GPa) = 0.00933516
#
# Stress axis : x y z
#
# Youngs Moduli (GPa) = 146.08710 267.35551 205.62340
#
# Poissons Ratio (x) = 0.21819 0.33248
# Poissons Ratio (y) = 0.11922 0.12827
# Poissons Ratio (z) = 0.23622 0.16677
#
# Static dielectric constant tensor:
#      x y z
#    x 0.721460 0.000000 0.231620 
#    y 0.000000 2.221530 0.000000 
#    z 0.231620 0.000000 2.208980 
# 
# From -- ./inp_files/530.got.cif
#   From: 2010.05.17/outbox.cif.g08.bks.cpg/sg5_1_cif.got.tgz:530.got - 2010.06.03 18:56:24.
