data_PCOD9130779
_publ_section_title
;
Structure prediction by ZEFSAII (Michael W. Deem and Ramdas Pophale) SiO2 
 PCOD9130779
Probable space group: P M
;
_chemical_formula_sum "Si O2"
_cell_formula_units_Z 16
_cell_length_a 14.714615
_cell_length_b 8.133385
_cell_length_c 8.075944
_cell_angle_alpha 90.000000
_cell_angle_beta 139.185202
_cell_angle_gamma 90.000000
_cell_volume 631.736937
_symmetry_space_group_name_H-M "P M"
_symmetry_group_IT_number 6
_symmetry_cell_setting 'monoclinic'
loop_
_space_group_symop_operation_xyz
x,y,z
x,-y,z
loop_
_atom_site_type_symbol
_atom_site_label
_atom_site_fract_x
_atom_site_fract_y
_atom_site_fract_z
Si Si1 0.851610 0.690692 0.036540
Si Si2 0.448825 0.691650 0.397007
Si Si3 0.678653 0.190889 0.490162
Si Si4 0.625218 0.185858 0.943604
Si Si5 0.194666 0.698475 0.840990
Si Si6 0.114603 0.802753 0.242996
Si Si7 0.369875 0.306643 0.773657
Si Si8 0.943278 0.802711 0.682961
O O1 0.841534 0.500000 0.975402
O O2 0.011192 0.744197 0.247384
O O3 0.775703 0.797951 0.789792
O O4 0.761752 0.714216 0.078614
O O5 0.450036 0.500000 0.448413
O O6 0.544276 0.708895 0.362781
O O7 0.524459 0.793564 0.643749
O O8 0.295912 0.745988 0.133229
O O9 0.784929 0.254181 0.495364
O O10 0.642109 0.000000 0.412637
O O11 0.520566 0.232534 0.946335
O O12 0.671314 0.000000 0.028128
O O13 0.193808 0.500000 0.829385
O O14 0.279200 0.763994 0.799612
O O15 0.038766 0.754155 0.661310
O O16 0.264939 0.724488 0.476123
O O17 0.126185 0.000000 0.258237
O O18 0.034272 0.746279 0.967182
O O19 0.388334 0.500000 0.820863
O O20 0.935277 0.000000 0.678264
#
# Coordination Sequence:
#
# PCOD9130779 Si02
#       8
#     2   2   2   2   2   2   2   2
#     4  10  18  31  54  83 110 140 174 217 267 318
#     4  10  19  34  56  82 107 138 177 220 266 318
#     4   9  17  31  51  80 111 137 170 219 266 313
#     4  11  21  35  56  83 110 141 178 222 269 318
#     4  10  23  38  53  75 107 142 180 221 264 313
#     4  10  20  36  57  84 111 139 176 222 269 319
#     4  11  23  39  54  75 107 145 185 226 267 316
#     4   9  19  34  55  80 107 136 172 215 264 317
#
# _framework density 25.326996000000001
#
# number of rings (size 3 to 8) (size 9 to 14) (size 15 to 20)
#    0.000    2.000    0.000    6.750    0.000    7.000 
#    0.000    1.250    0.000    4.500    0.000    0.000 
#    0.000    0.000    0.000    0.000    0.000    0.000 
#
# Total GULP energy -89524.576688 kJ/mol
# GULP energy per Si atom -5595.286043 kJ/mol
# Density = 2.526935 g / cm^3
# Si number density = 25.326996 Si / 1000 Ang^3
#
#
#
# Elastic Constant Matrix: (Units=GPa)
#
#
# Indices 1 2 3 4 5 6 
#
# 1 185.4765 -1.4570 31.6053 0.0000 20.1818 0.0000
# 2 -1.4570 61.6947 -5.4699 0.0000 2.6234 0.0000
# 3 31.6053 -5.4699 86.1021 0.0000 19.1235 0.0000
# 4 0.0000 0.0000 0.0000 39.0386 0.0000 14.9836
# 5 20.1818 2.6234 19.1235 0.0000 54.3949 0.0000
# 6 0.0000 0.0000 0.0000 14.9836 0.0000 53.1717
#
#
#
# Elastic Compliance Matrix: (Units=1/GPa)
#
#
# Indices 1 2 3 4 5 6 
#
# 1 0.005868 0.000044 -0.001808 0.000000 -0.001544 0.000000
# 2 0.000044 0.016379 0.001305 0.000000 -0.001265 0.000000
# 3 -0.001808 0.001305 0.013261 0.000000 -0.004054 0.000000
# 4 0.000000 0.000000 0.000000 0.028722 0.000000 -0.008094
# 5 -0.001544 -0.001265 -0.004054 0.000000 0.020443 0.000000
# 6 0.000000 0.000000 0.000000 -0.008094 0.000000 0.021088
#
#
# Mechanical properties :
#
#
# Convention : Reuss Voigt Hill
#
# Bulk Modulus (GPa) = 28.90950 42.51444 35.71197
# Shear Modulus (GPa) = 42.29761 49.89405 46.09583
#
# Velocity S-wave (km/s) = 4.09107 4.44328 4.27081
# Velocity P-wave (km/s) = 5.80991 6.56858 6.20086
#
# Compressibility (1/GPa) = 0.03459071
#
# Stress axis : x y z
#
# Youngs Moduli (GPa) = 170.41716 61.05222 75.40741
#
# Poissons Ratio (x) = -0.00268 0.13636
# Poissons Ratio (y) = -0.00748 -0.09844
# Poissons Ratio (z) = 0.30817 -0.07970
#
# Static dielectric constant tensor:
#      x y z
#    x 2.093450 0.000000 -0.082680 
#    y 0.000000 1.833980 0.000000 
#    z -0.082680 0.000000 2.060450 
# 
# From -- ./inp_files/4129.got.cif
#   From: 2010.05.17/outbox.cif.g08.bks.cpg/sg6_3_cif.got.tgz:4129.got - 2010.06.03 19:42:10.
