data_PCOD9130690
_publ_section_title
;
Structure prediction by ZEFSAII (Michael W. Deem and Ramdas Pophale) SiO2 
 PCOD9130690
Probable space group: C 2
;
_chemical_formula_sum "Si O2"
_cell_formula_units_Z 16
_cell_length_a 9.000000
_cell_length_b 24.000000
_cell_length_c 15.000000
_cell_angle_alpha 90.000000
_cell_angle_beta 150.000000
_cell_angle_gamma 90.000000
_cell_volume 1620.000000
_symmetry_space_group_name_H-M "C 2"
_symmetry_group_IT_number 5
_symmetry_cell_setting 'monoclinic'
loop_
_space_group_symop_operation_xyz
x,y,z
-x,y,-z
1/2+x,1/2+y,z
1/2-x,1/2+y,-z
loop_
_atom_site_type_symbol
_atom_site_label
_atom_site_fract_x
_atom_site_fract_y
_atom_site_fract_z
Si Si1 0.282111 0.145480 0.965117
Si Si2 0.352772 0.141104 0.195509
Si Si3 0.712587 0.456459 0.906468
Si Si4 0.346653 0.887779 0.156737
Si Si5 0.231546 0.060461 0.291277
Si Si6 0.244522 0.380753 0.549918
Si Si7 0.103472 0.752415 0.412540
Si Si8 0.006307 0.259239 0.218988
O O1 0.976537 0.112529 0.789086
O O2 0.213931 0.211676 0.930272
O O3 0.500000 0.132485 0.000000
O O4 0.427975 0.126249 0.133436
O O5 0.359840 0.087327 0.265077
O O6 0.537123 0.195818 0.322108
O O7 0.000000 0.156601 0.000000
O O8 0.485947 0.505950 0.822460
O O9 0.517625 0.417838 0.734415
O O10 0.853375 0.423594 0.066790
O O11 0.000000 0.477627 0.000000
O O12 0.579616 0.895958 0.365604
O O13 0.387889 0.822138 0.156810
O O14 0.000000 0.896393 0.000000
O O15 0.500000 0.050781 0.500000
O O16 0.340918 0.314977 0.597286
O O17 0.000000 0.386524 0.500000
O O18 0.381974 0.743434 0.623619
O O19 0.802241 0.758089 0.313207
#
# Coordination Sequence:
#
# PCOD9130690 Si02
#       8
#     4   4   4   4   4   4   4   4
#     4  11  23  40  67  99 140 172 240 289 357 424
#     4  10  21  38  65 100 130 187 233 282 359 421
#     4  12  27  47  76 103 140 191 243 304 365 422
#     4  11  24  42  69 101 147 185 238 292 363 430
#     4  11  24  47  71  95 135 185 243 294 353 430
#     4  11  24  44  67 110 145 191 239 292 365 439
#     4  10  20  36  64  94 141 180 231 283 353 435
#     4  10  20  37  62  99 140 187 220 292 358 419
#
# _framework density 9.8765429999999999
#
# number of rings (size 3 to 8) (size 9 to 14) (size 15 to 20)
#    0.000    1.250    3.750    2.625    1.750    5.500 
#    0.000    1.875    2.750    0.000    0.000    0.000 
#    0.000    0.000    0.000    0.000    0.000    0.000 
#
# Total GULP energy -89133.739405 kJ/mol
# GULP energy per Si atom -5570.858713 kJ/mol
# Density = 0.985406 g / cm^3
# Si number density = 9.876543 Si / 1000 Ang^3
#
#
#
# Elastic Constant Matrix: (Units=GPa)
#
#
# Indices 1 2 3 4 5 6 
#
# 1 115.9015 31.5425 38.7968 -0.0001 -16.3946 -0.0002
# 2 31.5425 108.1484 44.7565 0.0000 -20.4625 0.0000
# 3 38.7968 44.7565 110.1896 -0.0002 -28.1980 -0.0002
# 4 -0.0001 0.0000 -0.0002 47.7472 -0.0001 1.7867
# 5 -16.3946 -20.4625 -28.1980 -0.0001 30.8335 -0.0002
# 6 -0.0002 0.0000 -0.0002 1.7867 -0.0002 30.7595
#
#
#
# Elastic Compliance Matrix: (Units=1/GPa)
#
#
# Indices 1 2 3 4 5 6 
#
# 1 0.010160 -0.001564 -0.002383 0.000000 0.002185 0.000000
# 2 -0.001564 0.011797 -0.003199 0.000000 0.004072 0.000000
# 3 -0.002383 -0.003199 0.013507 0.000000 0.008963 0.000000
# 4 0.000000 0.000000 0.000000 0.020989 0.000000 -0.001219
# 5 0.002185 0.004072 0.008963 0.000000 0.044493 0.000000
# 6 0.000000 0.000000 0.000000 -0.001219 0.000000 0.032581
#
#
# Mechanical properties :
#
#
# Convention : Reuss Voigt Hill
#
# Bulk Modulus (GPa) = 47.22976 62.71455 54.97216
# Shear Modulus (GPa) = 32.28362 36.47762 34.38062
#
# Velocity S-wave (km/s) = 4.04711 4.30196 4.17648
# Velocity P-wave (km/s) = 6.76762 7.51625 7.15174
#
# Compressibility (1/GPa) = 0.02117309
#
# Stress axis : x y z
#
# Youngs Moduli (GPa) = 98.42146 84.76754 74.03432
#
# Poissons Ratio (x) = 0.13255 0.17642
# Poissons Ratio (y) = 0.15390 0.23684
# Poissons Ratio (z) = 0.23454 0.27118
#
# Static dielectric constant tensor:
#      x y z
#    x 1.777190 0.000000 -0.016060 
#    y 0.000000 1.709170 0.000000 
#    z -0.016060 0.000000 1.710390 
# 
# From -- ./inp_files/51708.got.cif
#   From: 2010.05.17/outbox.ucp.g08.bks.cvg/sg5_26_cif.got.tgz:51708.got - 2010.06.11 12:53:14.
