data_PCOD9130052
_publ_section_title
;
Structure prediction by ZEFSAII (Michael W. Deem and Ramdas Pophale) SiO2 
 PCOD9130052
Probable space group: C 2
;
_chemical_formula_sum "Si O2"
_cell_formula_units_Z 32
_cell_length_a 7.835526
_cell_length_b 11.557155
_cell_length_c 14.827808
_cell_angle_alpha 90.000000
_cell_angle_beta 97.167123
_cell_angle_gamma 90.000000
_cell_volume 1332.261084
_symmetry_space_group_name_H-M "C 2"
_symmetry_group_IT_number 5
_symmetry_cell_setting 'monoclinic'
loop_
_space_group_symop_operation_xyz
x,y,z
-x,y,-z
1/2+x,1/2+y,z
1/2-x,1/2+y,-z
loop_
_atom_site_type_symbol
_atom_site_label
_atom_site_fract_x
_atom_site_fract_y
_atom_site_fract_z
Si Si1 0.030036 0.024190 0.267518
Si Si2 0.657483 0.106897 0.944430
Si Si3 0.901484 0.179363 0.406597
Si Si4 0.296624 0.909413 0.739996
Si Si5 0.690805 0.842463 0.970901
Si Si6 0.070050 0.544809 0.409934
Si Si7 0.322936 0.840174 0.229604
Si Si8 0.172174 0.661488 0.751047
O O1 0.127173 0.128075 0.224867
O O2 0.006665 0.070302 0.369198
O O3 0.168400 0.922827 0.255907
O O4 0.834357 0.000988 0.224506
O O5 0.591044 0.118540 0.837519
O O6 0.751406 0.980184 0.966376
O O7 0.500000 0.103248 0.000000
O O8 0.740790 0.234395 0.964927
O O9 0.715451 0.141284 0.429519
O O10 0.866639 0.259797 0.317764
O O11 0.000000 0.226156 0.500000
O O12 0.489137 0.892218 0.786614
O O13 0.179390 0.796248 0.734937
O O14 0.335078 0.945931 0.640132
O O15 0.729366 0.795364 0.871986
O O16 0.500000 0.853992 0.000000
O O17 0.000000 0.506087 0.500000
O O18 0.919319 0.596850 0.337396
#
# Coordination Sequence:
#
# PCOD9130052 Si02
#       8
#     4   4   4   4   4   4   4   4
#     4  11  24  46  73 107 146 196 258 306 385 464
#     4  11  27  47  79 114 158 200 267 326 400 482
#     4  11  26  47  73 111 150 201 262 316 385 473
#     4  11  25  43  75 107 141 203 250 311 383 455
#     4  11  26  50  74 118 153 205 260 331 398 480
#     4  11  25  47  74 110 154 203 252 322 391 459
#     4  12  24  49  77 105 157 201 252 322 392 463
#     4  12  23  49  74 109 157 198 254 324 382 475
#
# _framework density 24.019314999999999
#
# number of rings (size 3 to 8) (size 9 to 14) (size 15 to 20)
#    0.000    0.750    3.750    2.250    3.500    2.000 
#    6.750    2.500    0.000    0.000    0.000    0.000 
#    0.000    0.000    0.000    0.000    0.000    0.000 
#
# Total GULP energy -89149.677800 kJ/mol
# GULP energy per Si atom -5571.854863 kJ/mol
# Density = 2.396465 g / cm^3
# Si number density = 24.019315 Si / 1000 Ang^3
#
#
#
# Elastic Constant Matrix: (Units=GPa)
#
#
# Indices 1 2 3 4 5 6 
#
# 1 107.6664 21.8855 11.5783 0.0000 -19.1447 0.0000
# 2 21.8855 107.6821 27.1737 0.0000 6.6658 0.0000
# 3 11.5783 27.1737 106.9990 0.0000 -12.3967 0.0000
# 4 0.0000 0.0000 0.0000 31.1437 0.0000 -8.3942
# 5 -19.1447 6.6658 -12.3967 0.0000 28.7561 0.0000
# 6 0.0000 0.0000 0.0000 -8.3942 0.0000 32.7554
#
#
#
# Elastic Compliance Matrix: (Units=1/GPa)
#
#
# Indices 1 2 3 4 5 6 
#
# 1 0.011337 -0.002954 0.000502 0.000000 0.008449 0.000000
# 2 -0.002954 0.011052 -0.003170 0.000000 -0.005895 0.000000
# 3 0.000502 -0.003170 0.010758 0.000000 0.005707 0.000000
# 4 0.000000 0.000000 0.000000 0.034492 0.000000 0.008839
# 5 0.008449 -0.005895 0.005707 0.000000 0.044227 0.000000
# 6 0.000000 0.000000 0.000000 0.008839 0.000000 0.032795
#
#
# Mechanical properties :
#
#
# Convention : Reuss Voigt Hill
#
# Bulk Modulus (GPa) = 45.65579 49.29139 47.47359
# Shear Modulus (GPa) = 30.63656 35.97837 33.30747
#
# Velocity S-wave (km/s) = 3.57528 3.87446 3.72788
# Velocity P-wave (km/s) = 6.00772 6.37035 6.19169
#
# Compressibility (1/GPa) = 0.02190303
#
# Stress axis : x y z
#
# Youngs Moduli (GPa) = 88.20913 90.48276 92.95571
#
# Poissons Ratio (x) = 0.26727 -0.04669
# Poissons Ratio (y) = 0.26056 0.29468
# Poissons Ratio (z) = -0.04431 0.28684
#
# Static dielectric constant tensor:
#      x y z
#    x 1.929340 0.000000 0.028330 
#    y 0.000000 2.100380 0.000000 
#    z 0.028330 0.000000 1.932080 
# 
# From -- ./inp_files/50505.got.cif
#   From: 2010.05.17/outbox.cif.g08.bks.cpg/sg5_26_cif.got.tgz:50505.got - 2010.06.03 18:56:24.
