data_PCOD9130847
_publ_section_title
;
Structure prediction by ZEFSAII (Michael W. Deem and Ramdas Pophale) SiO2 
 PCOD9130847
Probable space group: P M
;
_chemical_formula_sum "Si O2"
_cell_formula_units_Z 16
_cell_length_a 8.543726
_cell_length_b 8.749161
_cell_length_c 12.694646
_cell_angle_alpha 90.000000
_cell_angle_beta 54.678696
_cell_angle_gamma 90.000000
_cell_volume 774.253747
_symmetry_space_group_name_H-M "P M"
_symmetry_group_IT_number 6
_symmetry_cell_setting 'monoclinic'
loop_
_space_group_symop_operation_xyz
x,y,z
x,-y,z
loop_
_atom_site_type_symbol
_atom_site_label
_atom_site_fract_x
_atom_site_fract_y
_atom_site_fract_z
Si Si1 0.250000 0.686229 0.454700
Si Si2 0.860212 0.323443 0.512127
Si Si3 0.460874 0.180048 0.579454
Si Si4 0.016566 0.169561 0.260827
Si Si5 0.495182 0.329138 0.161520
Si Si6 0.891238 0.669264 0.125192
Si Si7 0.427717 0.825823 0.984262
Si Si8 0.271023 0.678838 0.846539
O O1 0.258784 0.500000 0.451678
O O2 0.374561 0.744960 0.505851
O O3 0.352124 0.739453 0.305585
O O4 0.021128 0.728580 0.536611
O O5 0.815203 0.500000 0.550765
O O6 0.661642 0.241813 0.553421
O O7 0.984396 0.299389 0.358103
O O8 0.309331 0.220243 0.730033
O O9 0.480973 0.000000 0.554540
O O10 0.871298 0.205674 0.223468
O O11 0.218467 0.177887 0.122336
O O12 0.992830 0.000000 0.315601
O O13 0.424624 0.500000 0.159704
O O14 0.693178 0.342474 0.144608
O O15 0.544973 0.240124 0.035511
O O16 0.939526 0.500000 0.151870
O O17 0.061854 0.705401 0.978048
O O18 0.474287 0.000000 0.939118
O O19 0.416343 0.726077 0.883846
O O20 0.291318 0.500000 0.812821
#
# Coordination Sequence:
#
# PCOD9130847 Si02
#       8
#     2   2   2   2   2   2   2   2
#     4  10  22  40  65  95 127 164 208 256 306 371
#     4  11  22  39  64  92 123 165 212 257 306 369
#     4  12  26  43  64  90 124 166 211 263 320 372
#     4  10  19  32  54  85 120 154 191 242 304 364
#     4  10  19  35  58  90 122 152 195 247 303 365
#     4   9  19  34  58  87 116 155 200 249 300 361
#     4  10  20  34  56  86 121 155 189 240 300 358
#     4  10  21  41  63  83 113 159 210 254 297 358
#
# _framework density 20.665061999999999
#
# number of rings (size 3 to 8) (size 9 to 14) (size 15 to 20)
#    0.000    1.750    1.250    3.375    0.000    4.500 
#    2.250    0.000    0.000    0.000    0.000    0.000 
#    0.000    0.000    0.000    0.000    0.000    0.000 
#
# Total GULP energy -89128.157382 kJ/mol
# GULP energy per Si atom -5570.509836 kJ/mol
# Density = 2.061803 g / cm^3
# Si number density = 20.665062 Si / 1000 Ang^3
#
#
#
# Elastic Constant Matrix: (Units=GPa)
#
#
# Indices 1 2 3 4 5 6 
#
# 1 98.0333 11.7059 8.8545 0.0000 -0.6268 0.0000
# 2 11.7059 32.9118 -1.4296 0.0000 -5.8076 0.0000
# 3 8.8545 -1.4296 38.2869 0.0000 9.5982 0.0000
# 4 0.0000 0.0000 0.0000 21.5229 0.0000 -6.2836
# 5 -0.6268 -5.8076 9.5982 0.0000 20.2185 0.0000
# 6 0.0000 0.0000 0.0000 -6.2836 0.0000 9.8420
#
#
#
# Elastic Compliance Matrix: (Units=1/GPa)
#
#
# Indices 1 2 3 4 5 6 
#
# 1 0.010925 -0.003911 -0.002810 0.000000 0.000549 0.000000
# 2 -0.003911 0.033460 -0.000256 0.000000 0.009611 0.000000
# 3 -0.002810 -0.000256 0.030419 0.000000 -0.014601 0.000000
# 4 0.000000 0.000000 0.000000 0.057106 0.000000 0.036459
# 5 0.000549 0.009611 -0.014601 0.000000 0.059169 0.000000
# 6 0.000000 0.000000 0.000000 0.036459 0.000000 0.124882
#
#
# Mechanical properties :
#
#
# Convention : Reuss Voigt Hill
#
# Bulk Modulus (GPa) = 16.43362 23.05484 19.74423
# Shear Modulus (GPa) = 14.27759 20.32342 17.30050
#
# Velocity S-wave (km/s) = 2.63136 3.13943 2.89656
# Velocity P-wave (km/s) = 4.14749 4.93174 4.55652
#
# Compressibility (1/GPa) = 0.06085086
#
# Stress axis : x y z
#
# Youngs Moduli (GPa) = 91.53362 29.88632 32.87370
#
# Poissons Ratio (x) = 0.11688 0.09239
# Poissons Ratio (y) = 0.35797 0.00840
# Poissons Ratio (z) = 0.25724 0.00764
#
# Static dielectric constant tensor:
#      x y z
#    x 1.813670 0.000000 -0.018080 
#    y 0.000000 1.746410 0.000000 
#    z -0.018080 0.000000 1.731520 
# 
# From -- ./inp_files/3709.got.cif
#   From: 2010.05.17/outbox.cif.g08.bks.cpg/sg6_2_cif.got.tgz:3709.got - 2010.06.03 19:42:10.
