data_PCOD9130341
_publ_section_title
;
Structure prediction by ZEFSAII (Michael W. Deem and Ramdas Pophale) SiO2 
 PCOD9130341
Probable space group: C 2
;
_chemical_formula_sum "Si O2"
_cell_formula_units_Z 22
_cell_length_a 9.334762
_cell_length_b 11.404988
_cell_length_c 8.935956
_cell_angle_alpha 90.000000
_cell_angle_beta 83.598731
_cell_angle_gamma 90.000000
_cell_volume 945.416108
_symmetry_space_group_name_H-M "C 2"
_symmetry_group_IT_number 5
_symmetry_cell_setting 'monoclinic'
loop_
_space_group_symop_operation_xyz
x,y,z
-x,y,-z
1/2+x,1/2+y,z
1/2-x,1/2+y,-z
loop_
_atom_site_type_symbol
_atom_site_label
_atom_site_fract_x
_atom_site_fract_y
_atom_site_fract_z
Si Si1 0.857517 0.155730 0.616514
Si Si2 0.883647 0.513106 0.267705
Si Si3 0.942607 0.068053 0.156058
Si Si4 0.313710 0.904482 0.743715
Si Si5 0.000000 0.685229 0.000000
Si Si6 0.777011 0.304626 0.081047
O O1 0.807284 0.288702 0.644243
O O2 0.000000 0.152424 0.500000
O O3 0.920437 0.103831 0.763375
O O4 0.719907 0.075174 0.600251
O O5 0.806825 0.399720 0.205127
O O6 0.039739 0.473618 0.305884
O O7 0.913973 0.604322 0.128020
O O8 0.864105 0.187771 0.115045
O O9 0.826879 0.985174 0.248551
O O10 0.000000 0.007717 0.000000
O O11 0.325133 0.859966 0.916121
O O12 0.886073 0.762142 0.922065
#
# Coordination Sequence:
#
# PCOD9130341 Si02
#       6
#     4   4   4   4   2   4
#     4  12  29  48  67  97 142 186 226 275 341 412
#     4  12  23  42  67 100 139 171 227 286 336 395
#     4  12  23  44  73 106 135 177 229 283 339 400
#     4  12  24  41  71 100 137 174 224 281 340 394
#     4  12  22  36  64 114 136 168 222 288 348 380
#     4  12  21  38  71 107 138 168 220 289 344 389
#
# _framework density 23.270178000000001
#
# number of rings (size 3 to 8) (size 9 to 14) (size 15 to 20)
#    0.000    0.000    9.091    1.091    3.818    1.455 
#    0.000    0.000    0.000    0.000    0.000    0.000 
#    0.000    0.000    0.000    0.000    0.000    0.000 
#
# Total GULP energy -61649.719711 kJ/mol
# GULP energy per Si atom -5604.519974 kJ/mol
# Density = 2.321721 g / cm^3
# Si number density = 23.270178 Si / 1000 Ang^3
#
#
#
# Elastic Constant Matrix: (Units=GPa)
#
#
# Indices 1 2 3 4 5 6 
#
# 1 135.4557 68.8700 1.4767 0.0000 -28.4330 0.0000
# 2 68.8700 128.8289 26.6737 0.0000 -36.3951 0.0000
# 3 1.4767 26.6737 59.7207 0.0000 -30.8403 0.0000
# 4 0.0000 0.0000 0.0000 11.1162 0.0000 -20.3388
# 5 -28.4330 -36.3951 -30.8403 0.0000 39.2933 0.0000
# 6 0.0000 0.0000 0.0000 -20.3388 0.0000 47.9140
#
#
#
# Elastic Compliance Matrix: (Units=1/GPa)
#
#
# Indices 1 2 3 4 5 6 
#
# 1 0.011821 -0.005154 0.006662 0.000000 0.009009 0.000000
# 2 -0.005154 0.012771 -0.002344 0.000000 0.006260 0.000000
# 3 0.006662 -0.002344 0.031941 0.000000 0.027720 0.000000
# 4 0.000000 0.000000 0.000000 0.402801 0.000000 0.170983
# 5 0.009009 0.006260 0.027720 0.000000 0.059524 0.000000
# 6 0.000000 0.000000 0.000000 0.170983 0.000000 0.093451
#
#
# Mechanical properties :
#
#
# Convention : Reuss Voigt Hill
#
# Bulk Modulus (GPa) = 18.22719 57.56068 37.89393
# Shear Modulus (GPa) = 7.90804 34.79703 21.35254
#
# Velocity S-wave (km/s) = 1.84546 3.87117 3.03247
# Velocity P-wave (km/s) = 3.52006 6.69110 5.34610
#
# Compressibility (1/GPa) = 0.05486310
#
# Stress axis : x y z
#
# Youngs Moduli (GPa) = 84.59351 78.30146 31.30726
#
# Poissons Ratio (x) = 0.40354 -0.20857
# Poissons Ratio (y) = 0.43596 0.07338
# Poissons Ratio (z) = -0.56356 0.18352
#
# Static dielectric constant tensor:
#      x y z
#    x 1.859090 0.000000 -0.016810 
#    y 0.000000 1.857050 0.000000 
#    z -0.016810 0.000000 1.941120 
# 
# From -- ./inp_files/35168.got.cif
#   From: 2010.05.17/outbox.cif.g08.bks.cpg/sg5_18_cif.got.tgz:35168.got - 2010.06.03 18:56:24.
