data_PCOD9130843
_publ_section_title
;
Structure prediction by ZEFSAII (Michael W. Deem and Ramdas Pophale) SiO2 
 PCOD9130843
Probable space group: P M
;
_chemical_formula_sum "Si O2"
_cell_formula_units_Z 16
_cell_length_a 12.822355
_cell_length_b 9.013692
_cell_length_c 10.415858
_cell_angle_alpha 90.000000
_cell_angle_beta 138.684532
_cell_angle_gamma 90.000000
_cell_volume 794.774667
_symmetry_space_group_name_H-M "P M"
_symmetry_group_IT_number 6
_symmetry_cell_setting 'monoclinic'
loop_
_space_group_symop_operation_xyz
x,y,z
x,-y,z
loop_
_atom_site_type_symbol
_atom_site_label
_atom_site_fract_x
_atom_site_fract_y
_atom_site_fract_z
Si Si1 0.857640 0.177826 0.985250
Si Si2 0.468745 0.334731 0.017527
Si Si3 0.504784 0.174007 0.555661
Si Si4 0.187801 0.322354 0.197668
Si Si5 0.628945 0.337923 0.444052
Si Si6 0.236517 0.833999 0.972284
Si Si7 0.748117 0.173827 0.160830
Si Si8 0.878913 0.163743 0.562858
O O1 0.676700 0.220617 0.775110
O O2 0.871493 0.000000 0.972327
O O3 0.852096 0.206370 0.132799
O O4 0.014195 0.255754 0.072473
O O5 0.413975 0.500000 0.933034
O O6 0.565271 0.344938 0.240947
O O7 0.333706 0.225861 0.940701
O O8 0.588258 0.268648 0.024114
O O9 0.335692 0.256523 0.419137
O O10 0.541995 0.211978 0.442176
O O11 0.484675 0.000000 0.563410
O O12 0.185856 0.500000 0.205777
O O13 0.227313 0.273096 0.087463
O O14 0.609210 0.500000 0.486298
O O15 0.806961 0.286024 0.590341
O O16 0.288970 0.000000 0.059322
O O17 0.060365 0.844377 0.758028
O O18 0.841556 0.196432 0.380100
O O19 0.704076 0.000000 0.112722
O O20 0.806899 0.000000 0.523726
#
# Coordination Sequence:
#
# PCOD9130843 Si02
#       8
#     2   2   2   2   2   2   2   2
#     4  10  23  43  65  89 118 161 212 256 300 355
#     4  10  20  34  55  83 117 151 186 234 292 353
#     4  11  22  38  62  89 119 159 205 253 302 359
#     4  12  25  40  61  91 127 162 199 250 310 369
#     4  10  19  32  53  82 115 148 184 233 295 357
#     4  11  21  35  57  87 120 152 193 244 297 358
#     4   9  19  40  63  82 111 152 200 247 290 348
#     4   9  19  34  56  85 113 149 193 239 294 353
#
# _framework density 20.131492999999999
#
# number of rings (size 3 to 8) (size 9 to 14) (size 15 to 20)
#    0.000    1.750    1.250    3.375    0.000    6.500 
#    2.250    0.000    0.000    0.000    0.000    0.000 
#    0.000    0.000    0.000    0.000    0.000    0.000 
#
# Total GULP energy -89128.661648 kJ/mol
# GULP energy per Si atom -5570.541353 kJ/mol
# Density = 2.008567 g / cm^3
# Si number density = 20.131493 Si / 1000 Ang^3
#
#
#
# Elastic Constant Matrix: (Units=GPa)
#
#
# Indices 1 2 3 4 5 6 
#
# 1 64.2441 19.1468 19.5653 0.0000 14.8966 0.0000
# 2 19.1468 65.6907 36.4222 0.0000 12.8454 0.0000
# 3 19.5653 36.4222 88.9840 0.0000 26.6700 0.0000
# 4 0.0000 0.0000 0.0000 4.3669 0.0000 -5.3852
# 5 14.8966 12.8454 26.6700 0.0000 25.0561 0.0000
# 6 0.0000 0.0000 0.0000 -5.3852 0.0000 8.5599
#
#
#
# Elastic Compliance Matrix: (Units=1/GPa)
#
#
# Indices 1 2 3 4 5 6 
#
# 1 0.018820 -0.003766 0.000262 0.000000 -0.009537 0.000000
# 2 -0.003766 0.020530 -0.007477 0.000000 -0.000328 0.000000
# 3 0.000262 -0.007477 0.019294 0.000000 -0.016859 0.000000
# 4 0.000000 0.000000 0.000000 1.021474 0.000000 0.642629
# 5 -0.009537 -0.000328 -0.016859 0.000000 0.063693 0.000000
# 6 0.000000 0.000000 0.000000 0.642629 0.000000 0.521114
#
#
# Mechanical properties :
#
#
# Convention : Reuss Voigt Hill
#
# Bulk Modulus (GPa) = 27.26162 41.02083 34.14123
# Shear Modulus (GPa) = 2.94271 17.18222 10.06246
#
# Velocity S-wave (km/s) = 1.21034 2.92464 2.23813
# Velocity P-wave (km/s) = 3.94010 5.64140 4.86568
#
# Compressibility (1/GPa) = 0.03668160
#
# Stress axis : x y z
#
# Youngs Moduli (GPa) = 53.13625 48.70895 51.83027
#
# Poissons Ratio (x) = 0.18341 -0.01356
# Poissons Ratio (y) = 0.20009 0.38754
# Poissons Ratio (z) = -0.01391 0.36420
#
# Static dielectric constant tensor:
#      x y z
#    x 1.697140 0.000000 0.002190 
#    y 0.000000 1.771150 0.000000 
#    z 0.002190 0.000000 1.774090 
# 
# From -- ./inp_files/3474.got.cif
#   From: 2010.05.17/outbox.cif.g08.bks.cpg/sg6_2_cif.got.tgz:3474.got - 2010.06.03 19:42:10.
