data_PCOD9130625
_publ_section_title
;
Structure prediction by ZEFSAII (Michael W. Deem and Ramdas Pophale) SiO2 
 PCOD9130625
Probable space group: C 2
;
_chemical_formula_sum "Si O2"
_cell_formula_units_Z 18
_cell_length_a 7.634626
_cell_length_b 21.208884
_cell_length_c 5.576395
_cell_angle_alpha 90.000000
_cell_angle_beta 68.529216
_cell_angle_gamma 90.000000
_cell_volume 840.280301
_symmetry_space_group_name_H-M "C 2"
_symmetry_group_IT_number 5
_symmetry_cell_setting 'monoclinic'
loop_
_space_group_symop_operation_xyz
x,y,z
-x,y,-z
1/2+x,1/2+y,z
1/2-x,1/2+y,-z
loop_
_atom_site_type_symbol
_atom_site_label
_atom_site_fract_x
_atom_site_fract_y
_atom_site_fract_z
Si Si1 0.214000 0.122940 0.995531
Si Si2 0.000000 0.156198 0.500000
Si Si3 0.000000 0.924648 0.000000
Si Si4 0.185603 0.249114 0.786115
Si Si5 0.895280 0.497014 0.801554
Si Si6 0.000000 0.847227 0.500000
O O1 0.163827 0.114849 0.299446
O O2 0.271704 0.195751 0.921693
O O3 0.355461 0.072181 0.826461
O O4 0.000000 0.113952 0.000000
O O5 0.106993 0.203572 0.620984
O O6 0.989259 0.885688 0.255793
O O7 0.810055 0.965440 0.087805
O O8 0.322560 0.301199 0.620882
O O9 0.000000 0.278444 0.000000
O O10 0.000000 0.480011 0.500000
O O11 0.000000 0.480759 0.000000
#
# Coordination Sequence:
#
# PCOD9130625 Si02
#       6
#     4   2   2   4   4   2
#     4   9  20  39  69 103 148 177 220 303 358 414
#     4   8  18  37  68 100 149 176 214 292 364 410
#     4  12  30  54  66 106 146 190 244 300 334 418
#     4   9  22  41  65 108 137 183 224 294 356 416
#     4  12  28  47  76 106 137 193 241 293 356 420
#     4  12  28  45  78  94 143 194 236 288 344 432
#
# _framework density 21.421420999999999
#
# number of rings (size 3 to 8) (size 9 to 14) (size 15 to 20)
#    0.000    2.222    1.111    1.333   14.000    3.556 
#    0.000    0.000    0.000    0.000    0.000    0.000 
#    0.000    0.000    0.000    0.000    0.000    0.000 
#
# Total GULP energy -50170.523807 kJ/mol
# GULP energy per Si atom -5574.502645 kJ/mol
# Density = 2.137266 g / cm^3
# Si number density = 21.421421 Si / 1000 Ang^3
#
#
#
# Elastic Constant Matrix: (Units=GPa)
#
#
# Indices 1 2 3 4 5 6 
#
# 1 101.3531 38.6713 63.5159 0.0000 -13.2291 0.0000
# 2 38.6713 76.7932 59.0887 0.0000 -18.0750 0.0000
# 3 63.5159 59.0887 170.8230 0.0000 -14.2359 0.0000
# 4 0.0000 0.0000 0.0000 33.7447 0.0000 -20.1708
# 5 -13.2291 -18.0750 -14.2359 0.0000 36.3731 0.0000
# 6 0.0000 0.0000 0.0000 -20.1708 0.0000 89.8538
#
#
#
# Elastic Compliance Matrix: (Units=1/GPa)
#
#
# Indices 1 2 3 4 5 6 
#
# 1 0.013835 -0.003694 -0.003721 0.000000 0.001740 0.000000
# 2 -0.003694 0.020427 -0.005125 0.000000 0.006801 0.000000
# 3 -0.003721 -0.005125 0.008978 0.000000 -0.000386 0.000000
# 4 0.000000 0.000000 0.000000 0.034227 0.000000 0.007683
# 5 0.001740 0.006801 -0.000386 0.000000 0.031354 0.000000
# 6 0.000000 0.000000 0.000000 0.007683 0.000000 0.012854
#
#
# Mechanical properties :
#
#
# Convention : Reuss Voigt Hill
#
# Bulk Modulus (GPa) = 55.07066 74.61348 64.84207
# Shear Modulus (GPa) = 32.72028 44.50722 38.61375
#
# Velocity S-wave (km/s) = 3.91251 4.56312 4.25028
# Velocity P-wave (km/s) = 6.79517 7.91642 7.37713
#
# Compressibility (1/GPa) = 0.01815849
#
# Stress axis : x y z
#
# Youngs Moduli (GPa) = 72.27919 48.95516 111.37803
#
# Poissons Ratio (x) = 0.18085 0.41449
# Poissons Ratio (y) = 0.26701 0.57086
# Poissons Ratio (z) = 0.26898 0.25092
#
# Static dielectric constant tensor:
#      x y z
#    x 1.666710 0.000000 -0.024240 
#    y 0.000000 1.769760 0.000000 
#    z -0.024240 0.000000 1.891520 
# 
# From -- ./inp_files/2752.got.cif
#   From: 2010.05.17/outbox.cif.g08.bks.cpg/sg5_2_cif.got.tgz:2752.got - 2010.06.03 18:56:24.
