data_PCOD9130946
_publ_section_title
;
Structure prediction by ZEFSAII (Michael W. Deem and Ramdas Pophale) SiO2 
 PCOD9130946
Probable space group: P M
;
_chemical_formula_sum "Si O2"
_cell_formula_units_Z 12
_cell_length_a 6.625464
_cell_length_b 15.033239
_cell_length_c 9.917262
_cell_angle_alpha 90.000000
_cell_angle_beta 31.110188
_cell_angle_gamma 90.000000
_cell_volume 510.372171
_symmetry_space_group_name_H-M "P M"
_symmetry_group_IT_number 6
_symmetry_cell_setting 'monoclinic'
loop_
_space_group_symop_operation_xyz
x,y,z
x,-y,z
loop_
_atom_site_type_symbol
_atom_site_label
_atom_site_fract_x
_atom_site_fract_y
_atom_site_fract_z
Si Si1 0.636700 0.397726 0.395920
Si Si2 0.785314 0.096629 0.676414
Si Si3 0.678048 0.101501 0.060865
Si Si4 0.626692 0.702482 0.116982
Si Si5 0.738388 0.270323 0.566927
Si Si6 0.568564 0.402911 0.900697
O O1 0.488441 0.500000 0.488685
O O2 0.588291 0.350710 0.278802
O O3 0.526955 0.322894 0.569030
O O4 0.099871 0.407673 0.164282
O O5 0.615698 0.171847 0.677026
O O6 0.250273 0.096901 0.377587
O O7 0.630382 0.000000 0.728884
O O8 0.694870 0.110159 0.886823
O O9 0.823661 0.200446 0.022978
O O10 0.842642 0.000000 0.991420
O O11 0.209313 0.730175 0.287653
O O12 0.752691 0.628612 0.935785
O O13 0.675992 0.329702 0.732838
O O14 0.715709 0.500000 0.775393
#
# Coordination Sequence:
#
# PCOD9130946 Si02
#       6
#     2   2   2   2   2   2
#     4  10  22  37  53  80 116 149 190 243 291 339
#     4   9  17  32  58  87 114 149 191 236 290 348
#     4   9  17  32  57  87 115 148 191 238 289 345
#     4  10  20  36  57  81 109 151 192 235 287 348
#     4  10  20  36  57  81 110 149 190 238 287 344
#     4  10  20  35  54  78 110 146 190 238 288 342
#
# _framework density 23.512255
#
# number of rings (size 3 to 8) (size 9 to 14) (size 15 to 20)
#    0.000    2.333    1.667    1.000    0.000    3.333 
#    0.000    0.833    0.000    2.000    0.000    0.000 
#    0.000    0.000    0.000    0.000    0.000    0.000 
#
# Total GULP energy -66851.911452 kJ/mol
# GULP energy per Si atom -5570.992621 kJ/mol
# Density = 2.345874 g / cm^3
# Si number density = 23.512255 Si / 1000 Ang^3
#
#
#
# Elastic Constant Matrix: (Units=GPa)
#
#
# Indices 1 2 3 4 5 6 
#
# 1 93.9004 32.7231 25.9355 0.0000 19.3464 0.0000
# 2 32.7231 246.6795 21.5062 0.0000 30.4982 0.0000
# 3 25.9355 21.5062 67.9497 0.0000 15.4572 0.0000
# 4 0.0000 0.0000 0.0000 40.5667 0.0000 15.4654
# 5 19.3464 30.4982 15.4572 0.0000 55.1098 0.0000
# 6 0.0000 0.0000 0.0000 15.4654 0.0000 24.5275
#
#
#
# Elastic Compliance Matrix: (Units=1/GPa)
#
#
# Indices 1 2 3 4 5 6 
#
# 1 0.012643 -0.000993 -0.003874 0.000000 -0.002802 0.000000
# 2 -0.000993 0.004480 -0.000592 0.000000 -0.001965 0.000000
# 3 -0.003874 -0.000592 0.017089 0.000000 -0.003106 0.000000
# 4 0.000000 0.000000 0.000000 0.032451 0.000000 -0.020462
# 5 -0.002802 -0.001965 -0.003106 0.000000 0.021088 0.000000
# 6 0.000000 0.000000 0.000000 -0.020462 0.000000 0.053672
#
#
# Mechanical properties :
#
#
# Convention : Reuss Voigt Hill
#
# Bulk Modulus (GPa) = 42.92861 63.20657 53.06759
# Shear Modulus (GPa) = 31.22923 45.93177 38.58050
#
# Velocity S-wave (km/s) = 3.64842 4.42466 4.05516
# Velocity P-wave (km/s) = 6.00379 7.28315 6.67420
#
# Compressibility (1/GPa) = 0.02329449
#
# Stress axis : x y z
#
# Youngs Moduli (GPa) = 79.09541 223.21020 58.51633
#
# Poissons Ratio (x) = 0.22164 0.22669
# Poissons Ratio (y) = 0.07854 0.03464
# Poissons Ratio (z) = 0.30641 0.13215
#
# Static dielectric constant tensor:
#      x y z
#    x 1.875690 0.000000 -0.089210 
#    y 0.000000 1.934970 0.000000 
#    z -0.089210 0.000000 2.037640 
# 
# From -- ./inp_files/408.got.cif
#   From: 2010.05.17/outbox.cif.g08.bks.cpg/sg6_1_cif.got.tgz:408.got - 2010.06.03 19:42:10.
