data_PCOD9130950
_publ_section_title
;
Structure prediction by ZEFSAII (Michael W. Deem and Ramdas Pophale) SiO2 
 PCOD9130950
Probable space group: P M
;
_chemical_formula_sum "Si O2"
_cell_formula_units_Z 16
_cell_length_a 9.464655
_cell_length_b 8.929739
_cell_length_c 11.497541
_cell_angle_alpha 90.000000
_cell_angle_beta 65.469080
_cell_angle_gamma 90.000000
_cell_volume 884.024994
_symmetry_space_group_name_H-M "P M"
_symmetry_group_IT_number 6
_symmetry_cell_setting 'monoclinic'
loop_
_space_group_symop_operation_xyz
x,y,z
x,-y,z
loop_
_atom_site_type_symbol
_atom_site_label
_atom_site_fract_x
_atom_site_fract_y
_atom_site_fract_z
Si Si1 0.395940 0.319872 0.871010
Si Si2 0.699817 0.179479 0.876027
Si Si3 0.318974 0.319612 0.635190
Si Si4 0.633756 0.680673 0.393478
Si Si5 0.571133 0.320120 0.149216
Si Si6 0.234337 0.321000 0.164656
Si Si7 0.944185 0.820745 0.391196
Si Si8 0.010138 0.819559 0.634875
O O1 0.418886 0.500000 0.865277
O O2 0.559096 0.243539 0.846371
O O3 0.335287 0.276752 0.765013
O O4 0.277896 0.284010 0.016380
O O5 0.864095 0.224916 0.764887
O O6 0.691114 0.000000 0.880396
O O7 0.671754 0.242764 0.014668
O O8 0.306550 0.500000 0.633524
O O9 0.476412 0.276037 0.514363
O O10 0.168765 0.249242 0.627545
O O11 0.646809 0.500000 0.394865
O O12 0.618114 0.722649 0.263202
O O13 0.783733 0.752603 0.400513
O O14 0.586224 0.500000 0.131827
O O15 0.390235 0.284778 0.184758
O O16 0.208711 0.500000 0.181364
O O17 0.086220 0.236665 0.264217
O O18 0.976590 0.774248 0.513412
O O19 0.935753 0.000000 0.390341
O O20 0.021419 0.000000 0.633743
#
# Coordination Sequence:
#
# PCOD9130950 Si02
#       8
#     2   2   2   2   2   2   2   2
#     4   9  19  36  57  82 110 139 175 220 267 313
#     4  10  20  35  56  81 109 143 180 215 259 318
#     4  10  21  37  59  83 104 136 183 224 262 316
#     4  10  21  37  57  81 108 138 176 223 270 314
#     4   9  19  36  57  81 109 140 175 219 269 314
#     4   9  18  35  57  80 109 141 173 216 266 313
#     4  11  23  37  54  78 108 143 181 218 262 319
#     4  10  23  39  53  76 111 144 175 219 271 315
#
# _framework density 18.099036000000002
#
# number of rings (size 3 to 8) (size 9 to 14) (size 15 to 20)
#    0.000    2.250    0.000    3.000    0.000    7.500 
#    0.000    3.750    0.000    0.000    0.000    0.000 
#    0.000    0.000    0.000    0.000    0.000    0.000 
#
# Total GULP energy -89348.405343 kJ/mol
# GULP energy per Si atom -5584.275334 kJ/mol
# Density = 1.805784 g / cm^3
# Si number density = 18.099036 Si / 1000 Ang^3
#
#
#
# Elastic Constant Matrix: (Units=GPa)
#
#
# Indices 1 2 3 4 5 6 
#
# 1 179.1490 53.9888 138.2302 0.0000 5.3099 0.0000
# 2 53.9888 24.5897 52.9846 0.0000 -1.3590 0.0000
# 3 138.2302 52.9846 162.9540 0.0000 -1.5328 0.0000
# 4 0.0000 0.0000 0.0000 15.2410 0.0000 19.3889
# 5 5.3099 -1.3590 -1.5328 0.0000 37.9776 0.0000
# 6 0.0000 0.0000 0.0000 19.3889 0.0000 -4.8801
#
#
#
# Elastic Compliance Matrix: (Units=1/GPa)
#
#
# Indices 1 2 3 4 5 6 
#
# 1 0.020313 -0.025433 -0.009000 0.000000 -0.004113 0.000000
# 2 -0.025433 0.168042 -0.032987 0.000000 0.008238 0.000000
# 3 -0.009000 -0.032987 0.024507 0.000000 0.001067 0.000000
# 4 0.000000 0.000000 0.000000 0.010837 0.000000 0.043057
# 5 -0.004113 0.008238 0.001067 0.000000 0.027244 0.000000
# 6 0.000000 0.000000 0.000000 0.043057 0.000000 -0.033846
#
#
# Mechanical properties :
#
#
# Convention : Reuss Voigt Hill
#
# Bulk Modulus (GPa) = 12.81699 95.23332 54.02515
# Shear Modulus (GPa) = 13.22944 17.76698 15.49821
#
# Velocity S-wave (km/s) = 2.70654 3.13653 2.92944
# Velocity P-wave (km/s) = 4.10659 8.11476 6.43091
#
# Compressibility (1/GPa) = 0.07802145
#
# Stress axis : x y z
#
# Youngs Moduli (GPa) = 49.23027 5.95089 40.80459
#
# Poissons Ratio (x) = 0.15135 0.36724
# Poissons Ratio (y) = 1.25207 1.34603
# Poissons Ratio (z) = 0.44307 0.19630
#
# Static dielectric constant tensor:
#      x y z
#    x 1.581890 0.000000 0.011400 
#    y 0.000000 1.612290 0.000000 
#    z 0.011400 0.000000 1.614070 
# 
# From -- ./inp_files/3499.got.cif
#   From: 2010.05.17/outbox.cif.g08.bks.cpg/sg6_2_cif.got.tgz:3499.got - 2010.06.03 19:42:10.
