data_PCOD9130072
_publ_section_title
;
Structure prediction by ZEFSAII (Michael W. Deem and Ramdas Pophale) SiO2 
 PCOD9130072
Probable space group: C 2
;
_chemical_formula_sum "Si O2"
_cell_formula_units_Z 28
_cell_length_a 14.399465
_cell_length_b 5.141712
_cell_length_c 14.781724
_cell_angle_alpha 90.000000
_cell_angle_beta 70.481326
_cell_angle_gamma 90.000000
_cell_volume 1031.515110
_symmetry_space_group_name_H-M "C 2"
_symmetry_group_IT_number 5
_symmetry_cell_setting 'monoclinic'
loop_
_space_group_symop_operation_xyz
x,y,z
-x,y,-z
1/2+x,1/2+y,z
1/2-x,1/2+y,-z
loop_
_atom_site_type_symbol
_atom_site_label
_atom_site_fract_x
_atom_site_fract_y
_atom_site_fract_z
Si Si1 0.144085 0.179800 0.795302
Si Si2 0.335766 0.499094 0.020402
Si Si3 0.000000 0.970832 0.500000
Si Si4 0.689336 0.145154 0.383012
Si Si5 0.445772 0.167797 0.271084
Si Si6 0.000000 0.581737 0.000000
Si Si7 0.630369 0.844549 0.553372
Si Si8 0.389532 0.872310 0.871787
O O1 0.143253 0.195225 0.903567
O O2 0.255638 0.111380 0.728910
O O3 0.122975 0.460370 0.759651
O O4 0.077057 0.952107 0.766437
O O5 0.218465 0.471255 0.065354
O O6 0.404490 0.268232 0.034194
O O7 0.368445 0.568784 0.906754
O O8 0.958211 0.144611 0.430279
O O9 0.909078 0.810533 0.572793
O O10 0.775865 0.249903 0.421458
O O11 0.662943 0.876160 0.439165
O O12 0.554704 0.031997 0.225229
O O13 0.408998 0.107515 0.385391
O O14 0.971153 0.423720 0.921769
#
# Coordination Sequence:
#
# PCOD9130072 Si02
#       8
#     4   4   2   4   4   2   4   4
#     4  11  26  49  79 111 154 207 256 321 389 453
#     4  12  26  46  74 110 148 202 253 317 382 462
#     4  12  26  44  76 116 148 220 242 324 386 462
#     4  11  24  47  76 108 158 201 261 317 390 458
#     4  11  26  49  79 111 154 207 256 321 389 453
#     4  12  22  48  72  96 156 184 242 308 382 434
#     4  11  24  47  76 108 158 201 261 317 390 458
#     4  12  26  46  74 110 148 202 253 317 382 462
#
# _framework density 27.144538000000001
#
# number of rings (size 3 to 8) (size 9 to 14) (size 15 to 20)
#    0.000    0.571    4.286    3.429    4.000    2.286 
#    2.571    0.000    0.000    0.000    0.000    0.000 
#    0.000    0.000    0.000    0.000    0.000    0.000 
#
# Total GULP energy -78075.347942 kJ/mol
# GULP energy per Si atom -5576.810567 kJ/mol
# Density = 2.708276 g / cm^3
# Si number density = 27.144538 Si / 1000 Ang^3
#
#
#
# Elastic Constant Matrix: (Units=GPa)
#
#
# Indices 1 2 3 4 5 6 
#
# 1 176.5585 12.6401 -4.7235 0.0003 -33.8644 0.0004
# 2 12.6401 63.8977 -16.3073 0.0009 7.1214 0.0016
# 3 -4.7235 -16.3073 102.5392 0.0000 -27.7011 0.0002
# 4 0.0003 0.0009 0.0000 14.6703 -0.0002 -10.6342
# 5 -33.8644 7.1214 -27.7011 -0.0002 38.6294 0.0000
# 6 0.0004 0.0016 0.0002 -10.6342 0.0000 48.7920
#
#
#
# Elastic Compliance Matrix: (Units=1/GPa)
#
#
# Indices 1 2 3 4 5 6 
#
# 1 0.007517 -0.001841 0.002388 0.000000 0.008642 0.000000
# 2 -0.001841 0.016826 0.001634 -0.000002 -0.003544 -0.000001
# 3 0.002388 0.001634 0.013155 0.000000 0.011226 0.000000
# 4 0.000000 -0.000002 0.000000 0.080955 0.000001 0.017644
# 5 0.008642 -0.003544 0.011226 0.000001 0.042166 0.000000
# 6 0.000000 -0.000001 0.000000 0.017644 0.000000 0.024341
#
#
# Mechanical properties :
#
#
# Convention : Reuss Voigt Hill
#
# Bulk Modulus (GPa) = 23.88908 36.24603 30.06755
# Shear Modulus (GPa) = 25.70030 43.84407 34.77219
#
# Velocity S-wave (km/s) = 3.08034 4.02333 3.58299
# Velocity P-wave (km/s) = 4.63370 5.91311 5.31206
#
# Compressibility (1/GPa) = 0.04186014
#
# Stress axis : x y z
#
# Youngs Moduli (GPa) = 133.03212 59.43169 76.01783
#
# Poissons Ratio (x) = 0.10939 -0.18154
# Poissons Ratio (y) = 0.24486 -0.12419
# Poissons Ratio (z) = -0.31769 -0.09709
#
# Static dielectric constant tensor:
#      x y z
#    x 2.101870 0.000000 -0.066260 
#    y 0.000000 2.277870 0.000000 
#    z -0.066260 0.000000 2.402830 
# 
# From -- ./inp_files/61089.got.cif
#   From: 2010.05.17/outbox.cif.g08.bks.cpg/sg5_31_cif.got.tgz:61089.got - 2010.06.03 18:56:24.
