data_PCOD9130837
_publ_section_title
;
Structure prediction by ZEFSAII (Michael W. Deem and Ramdas Pophale) SiO2 
 PCOD9130837
Probable space group: P M
;
_chemical_formula_sum "Si O2"
_cell_formula_units_Z 16
_cell_length_a 9.558533
_cell_length_b 7.498244
_cell_length_c 11.666982
_cell_angle_alpha 90.000000
_cell_angle_beta 64.925864
_cell_angle_gamma 90.000000
_cell_volume 757.395240
_symmetry_space_group_name_H-M "P M"
_symmetry_group_IT_number 6
_symmetry_cell_setting 'monoclinic'
loop_
_space_group_symop_operation_xyz
x,y,z
x,-y,z
loop_
_atom_site_type_symbol
_atom_site_label
_atom_site_fract_x
_atom_site_fract_y
_atom_site_fract_z
Si Si1 0.533040 0.218489 0.948690
Si Si2 0.217286 0.218002 0.939379
Si Si3 0.962866 0.206641 0.427253
Si Si4 0.602811 0.791926 0.179374
Si Si5 0.292040 0.707473 0.413089
Si Si6 0.837538 0.218141 0.708693
Si Si7 0.160513 0.784888 0.702313
Si Si8 0.916358 0.219220 0.186648
O O1 0.370470 0.276451 0.952546
O O2 0.677151 0.273046 0.820004
O O3 0.529697 0.000000 0.950854
O O4 0.560802 0.281432 0.068815
O O5 0.212788 0.277244 0.808824
O O6 0.218277 0.000000 0.938048
O O7 0.062967 0.272664 0.059688
O O8 0.143060 0.211832 0.400593
O O9 0.870093 0.282644 0.568149
O O10 0.935138 0.282207 0.311056
O O11 0.916250 0.000000 0.436426
O O12 0.453666 0.780241 0.312032
O O13 0.756301 0.718907 0.185886
O O14 0.637528 0.000000 0.147517
O O15 0.289416 0.500000 0.387271
O O16 0.265361 0.732406 0.557894
O O17 0.985723 0.272681 0.732790
O O18 0.838989 0.000000 0.706202
O O19 0.159517 0.000000 0.704795
O O20 0.917224 0.000000 0.188502
#
# Coordination Sequence:
#
# PCOD9130837 Si02
#       8
#     2   2   2   2   2   2   2   2
#     4   9  16  26  46  77 107 130 159 205 254 297
#     4   9  16  26  45  75 105 130 162 207 253 296
#     4   9  17  32  54  78 105 134 167 206 248 298
#     4  10  19  32  52  76 103 135 170 208 251 299
#     4  11  22  35  51  72 101 135 172 212 255 302
#     4   8  14  25  43  69  98 127 157 195 244 293
#     4   9  17  31  51  72  97 130 168 208 251 300
#     4   9  17  29  50  81 108 131 165 209 252 295
#
# _framework density 21.125032000000001
#
# number of rings (size 3 to 8) (size 9 to 14) (size 15 to 20)
#    0.000    2.750    0.000    3.375    0.000    6.000 
#    0.000    4.375    0.000    9.750    0.000    0.000 
#    0.000    0.000    0.000    0.000    0.000    0.000 
#
# Total GULP energy -89333.656333 kJ/mol
# GULP energy per Si atom -5583.353521 kJ/mol
# Density = 2.107695 g / cm^3
# Si number density = 21.125032 Si / 1000 Ang^3
#
#
#
# Elastic Constant Matrix: (Units=GPa)
#
#
# Indices 1 2 3 4 5 6 
#
# 1 183.6429 -4.7928 148.8639 0.0000 8.0464 0.0000
# 2 -4.7928 54.5410 -9.0893 0.0000 6.5798 0.0000
# 3 148.8639 -9.0893 171.8390 0.0000 10.1556 0.0000
# 4 0.0000 0.0000 0.0000 -26.9066 0.0000 5.7543
# 5 8.0464 6.5798 10.1556 0.0000 41.7475 0.0000
# 6 0.0000 0.0000 0.0000 5.7543 0.0000 -19.5748
#
#
#
# Elastic Compliance Matrix: (Units=1/GPa)
#
#
# Indices 1 2 3 4 5 6 
#
# 1 0.018358 -0.001116 -0.015993 0.000000 0.000528 0.000000
# 2 -0.001116 0.018997 0.002167 0.000000 -0.003306 0.000000
# 3 -0.015993 0.002167 0.019913 0.000000 -0.002103 0.000000
# 4 0.000000 0.000000 0.000000 -0.039659 0.000000 -0.011658
# 5 0.000528 -0.003306 -0.002103 0.000000 0.024884 0.000000
# 6 0.000000 0.000000 0.000000 -0.011658 0.000000 -0.054513
#
#
# Mechanical properties :
#
#
# Convention : Reuss Voigt Hill
#
# Bulk Modulus (GPa) = 36.51908 75.55405 56.03657
# Shear Modulus (GPa) = 185.23735 17.38930 101.31332
#
# Velocity S-wave (km/s) = 9.37425 2.87219 6.93275
# Velocity P-wave (km/s) = 11.59713 6.84413 9.52196
#
# Compressibility (1/GPa) = 0.02738295
#
# Stress axis : x y z
#
# Youngs Moduli (GPa) = 54.47344 52.64061 50.21757
#
# Poissons Ratio (x) = 0.05874 0.80315
# Poissons Ratio (y) = 0.06078 -0.10881
# Poissons Ratio (z) = 0.87121 -0.11406
#
# Static dielectric constant tensor:
#      x y z
#    x 1.723770 0.000000 0.013560 
#    y 0.000000 1.784860 0.000000 
#    z 0.013560 0.000000 1.731990 
# 
# From -- ./inp_files/3497.got.cif
#   From: 2010.05.17/outbox.cif.g08.bks.cpg/sg6_2_cif.got.tgz:3497.got - 2010.06.03 19:42:10.
