data_PCOD9130645
_publ_section_title
;
Structure prediction by ZEFSAII (Michael W. Deem and Ramdas Pophale) SiO2 
 PCOD9130645
Probable space group: C 2
;
_chemical_formula_sum "Si O2"
_cell_formula_units_Z 18
_cell_length_a 13.954097
_cell_length_b 11.039720
_cell_length_c 4.919840
_cell_angle_alpha 90.000000
_cell_angle_beta 121.205591
_cell_angle_gamma 90.000000
_cell_volume 648.240569
_symmetry_space_group_name_H-M "C 2"
_symmetry_group_IT_number 5
_symmetry_cell_setting 'monoclinic'
loop_
_space_group_symop_operation_xyz
x,y,z
-x,y,-z
1/2+x,1/2+y,z
1/2-x,1/2+y,-z
loop_
_atom_site_type_symbol
_atom_site_label
_atom_site_fract_x
_atom_site_fract_y
_atom_site_fract_z
Si Si1 0.105443 0.206710 0.459483
Si Si2 0.190922 0.981930 0.348654
Si Si3 0.000000 0.434627 0.000000
Si Si4 0.830117 0.601595 0.103264
Si Si5 0.381942 0.359401 0.255996
O O1 0.222580 0.170651 0.792163
O O2 0.116158 0.102328 0.251535
O O3 0.000000 0.190765 0.500000
O O4 0.079457 0.336962 0.282004
O O5 0.203776 0.928154 0.669654
O O6 0.865949 0.879270 0.914982
O O7 0.290526 0.022699 0.300394
O O8 0.920113 0.524065 0.060934
O O9 0.882924 0.719645 0.318877
O O10 0.500000 0.417119 0.500000
#
# Coordination Sequence:
#
# PCOD9130645 Si02
#       5
#     4   4   2   4   4
#     4  12  30  55  96 135 185 244 307 385 469 550
#     4  12  29  53  89 131 176 242 301 378 455 554
#     4  12  34  60  90 142 192 244 318 384 464 566
#     4  12  33  57  90 138 188 245 310 386 469 553
#     4  12  31  54  88 131 182 238 308 373 470 551
#
# _framework density 27.767469999999999
#
# number of rings (size 3 to 8) (size 9 to 14) (size 15 to 20)
#    0.000    0.000    2.222    2.667   21.778    0.889 
#    0.000    0.000    0.000    0.000    0.000    0.000 
#    0.000    0.000    0.000    0.000    0.000    0.000 
#
# Total GULP energy -50320.835151 kJ/mol
# GULP energy per Si atom -5591.203906 kJ/mol
# Density = 2.770427 g / cm^3
# Si number density = 27.767470 Si / 1000 Ang^3
#
#
#
# Elastic Constant Matrix: (Units=GPa)
#
#
# Indices 1 2 3 4 5 6 
#
# 1 233.5152 104.5594 43.9169 0.0000 -31.8613 0.0000
# 2 104.5594 208.8489 56.3892 0.0000 -19.2151 0.0000
# 3 43.9169 56.3892 100.9083 0.0000 -13.5163 0.0000
# 4 0.0000 0.0000 0.0000 52.6763 0.0000 -20.7928
# 5 -31.8613 -19.2151 -13.5163 0.0000 54.8677 0.0000
# 6 0.0000 0.0000 0.0000 -20.7928 0.0000 52.7482
#
#
#
# Elastic Compliance Matrix: (Units=1/GPa)
#
#
# Indices 1 2 3 4 5 6 
#
# 1 0.005879 -0.002500 -0.000850 0.000000 0.002329 0.000000
# 2 -0.002500 0.006784 -0.002668 0.000000 0.000267 0.000000
# 3 -0.000850 -0.002668 0.011974 0.000000 0.001522 0.000000
# 4 0.000000 0.000000 0.000000 0.022482 0.000000 0.008862
# 5 0.002329 0.000267 0.001522 0.000000 0.020047 0.000000
# 6 0.000000 0.000000 0.000000 0.008862 0.000000 0.022451
#
#
# Mechanical properties :
#
#
# Convention : Reuss Voigt Hill
#
# Bulk Modulus (GPa) = 79.34055 105.88928 92.61491
# Shear Modulus (GPa) = 47.23490 54.61890 50.92690
#
# Velocity S-wave (km/s) = 4.12890 4.43991 4.28723
# Velocity P-wave (km/s) = 7.16698 8.03124 7.61139
#
# Compressibility (1/GPa) = 0.01260390
#
# Stress axis : x y z
#
# Youngs Moduli (GPa) = 170.08868 147.39638 83.51127
#
# Poissons Ratio (x) = 0.36844 0.07098
# Poissons Ratio (y) = 0.42516 0.22277
# Poissons Ratio (z) = 0.14456 0.39319
#
# Static dielectric constant tensor:
#      x y z
#    x 2.691760 0.000000 0.337540 
#    y 0.000000 2.128760 0.000000 
#    z 0.337540 0.000000 2.413340 
# 
# From -- ./inp_files/4477.got.cif
#   From: 2010.05.17/outbox.cif.g08.bks.cpg/sg5_3_cif.got.tgz:4477.got - 2010.06.03 18:56:24.
