data_PCOD9130792
_publ_section_title
;
Structure prediction by ZEFSAII (Michael W. Deem and Ramdas Pophale) SiO2 
 PCOD9130792
Probable space group: P M
;
_chemical_formula_sum "Si O2"
_cell_formula_units_Z 16
_cell_length_a 10.535600
_cell_length_b 8.580276
_cell_length_c 12.496376
_cell_angle_alpha 90.000000
_cell_angle_beta 52.577988
_cell_angle_gamma 90.000000
_cell_volume 897.148279
_symmetry_space_group_name_H-M "P M"
_symmetry_group_IT_number 6
_symmetry_cell_setting 'monoclinic'
loop_
_space_group_symop_operation_xyz
x,y,z
x,-y,z
loop_
_atom_site_type_symbol
_atom_site_label
_atom_site_fract_x
_atom_site_fract_y
_atom_site_fract_z
Si Si1 0.781590 0.686603 0.481550
Si Si2 0.451053 0.313540 0.041416
Si Si3 0.146647 0.689501 0.323977
Si Si4 0.947690 0.313541 0.778759
Si Si5 0.717650 0.186198 0.064795
Si Si6 0.267403 0.688599 0.497797
Si Si7 0.621454 0.186112 0.350966
Si Si8 0.680890 0.184658 0.754906
O O1 0.778986 0.500000 0.493882
O O2 0.705281 0.735252 0.408827
O O3 0.688604 0.759509 0.629450
O O4 0.966249 0.740766 0.395047
O O5 0.453257 0.500000 0.027979
O O6 0.275974 0.261843 0.169214
O O7 0.574064 0.267469 0.073013
O O8 0.521561 0.236421 0.898955
O O9 0.145833 0.500000 0.324836
O O10 0.208509 0.737436 0.409547
O O11 0.939443 0.500000 0.792830
O O12 0.827205 0.263310 0.745302
O O13 0.126394 0.269584 0.652655
O O14 0.878344 0.236939 0.921537
O O15 0.704745 0.229644 0.195532
O O16 0.698125 0.000000 0.065134
O O17 0.282766 0.500000 0.489615
O O18 0.437148 0.762297 0.437220
O O19 0.630308 0.000000 0.357651
O O20 0.698940 0.000000 0.752861
#
# Coordination Sequence:
#
# PCOD9130792 Si02
#       8
#     2   2   2   2   2   2   2   2
#     4  11  22  40  61  82 111 150 191 234 279 333
#     4  10  18  32  57  84 110 142 185 235 280 326
#     4   9  18  34  58  86 111 138 188 241 277 320
#     4  10  19  33  57  85 112 143 190 237 276 325
#     4  10  20  34  52  79 116 149 183 226 281 337
#     4  10  19  36  59  85 112 144 191 238 277 325
#     4  11  24  39  55  83 118 152 187 227 283 344
#     4  11  21  34  53  82 118 150 183 226 283 338
#
# _framework density 17.834287
#
# number of rings (size 3 to 8) (size 9 to 14) (size 15 to 20)
#    0.000    1.750    2.500    4.500    0.000    2.500 
#    0.000    3.750    0.000    4.500    0.000    0.000 
#    0.000    0.000    0.000    0.000    0.000    0.000 
#
# Total GULP energy -89340.921882 kJ/mol
# GULP energy per Si atom -5583.807618 kJ/mol
# Density = 1.779369 g / cm^3
# Si number density = 17.834287 Si / 1000 Ang^3
#
#
#
# Elastic Constant Matrix: (Units=GPa)
#
#
# Indices 1 2 3 4 5 6 
#
# 1 82.7764 6.0451 51.3096 0.0000 0.7295 0.0000
# 2 6.0451 26.4333 16.0369 0.0000 -0.3467 0.0000
# 3 51.3096 16.0369 146.2709 0.0000 -0.6345 0.0000
# 4 0.0000 0.0000 0.0000 20.5938 0.0000 17.2932
# 5 0.7295 -0.3467 -0.6345 0.0000 23.9650 0.0000
# 6 0.0000 0.0000 0.0000 17.2932 0.0000 -7.1191
#
#
#
# Elastic Compliance Matrix: (Units=1/GPa)
#
#
# Indices 1 2 3 4 5 6 
#
# 1 0.015448 -0.000270 -0.005392 0.000000 -0.000617 0.000000
# 2 -0.000270 0.040537 -0.004348 0.000000 0.000480 0.000000
# 3 -0.005392 -0.004348 0.009206 0.000000 0.000345 0.000000
# 4 0.000000 0.000000 0.000000 0.015974 0.000000 0.038803
# 5 -0.000617 0.000480 0.000345 0.000000 0.041762 0.000000
# 6 0.000000 0.000000 0.000000 0.038803 0.000000 -0.046209
#
#
# Mechanical properties :
#
#
# Convention : Reuss Voigt Hill
#
# Bulk Modulus (GPa) = 22.13745 44.69597 33.41671
# Shear Modulus (GPa) = 44.72479 19.62720 32.17599
#
# Velocity S-wave (km/s) = 5.01322 3.32103 4.25215
# Velocity P-wave (km/s) = 6.77862 6.31045 6.54872
#
# Compressibility (1/GPa) = 0.04517232
#
# Stress axis : x y z
#
# Youngs Moduli (GPa) = 64.73240 24.66897 108.62152
#
# Poissons Ratio (x) = 0.00665 0.58570
# Poissons Ratio (y) = 0.01745 0.47226
# Poissons Ratio (z) = 0.34904 0.10725
#
# Static dielectric constant tensor:
#      x y z
#    x 1.573400 0.000000 -0.010820 
#    y 0.000000 1.598000 0.000000 
#    z -0.010820 0.000000 1.625480 
# 
# From -- ./inp_files/4547.got.cif
#   From: 2010.05.17/outbox.cif.g08.bks.cpg/sg6_3_cif.got.tgz:4547.got - 2010.06.03 19:42:10.
