data_PCOD9130284
_publ_section_title
;
Structure prediction by ZEFSAII (Michael W. Deem and Ramdas Pophale) SiO2 
 PCOD9130284
Probable space group: C 2
;
_chemical_formula_sum "Si O2"
_cell_formula_units_Z 18
_cell_length_a 5.185583
_cell_length_b 13.048878
_cell_length_c 10.684534
_cell_angle_alpha 90.000000
_cell_angle_beta 70.495267
_cell_angle_gamma 90.000000
_cell_volume 681.491105
_symmetry_space_group_name_H-M "C 2"
_symmetry_group_IT_number 5
_symmetry_cell_setting 'monoclinic'
loop_
_space_group_symop_operation_xyz
x,y,z
-x,y,-z
1/2+x,1/2+y,z
1/2-x,1/2+y,-z
loop_
_atom_site_type_symbol
_atom_site_label
_atom_site_fract_x
_atom_site_fract_y
_atom_site_fract_z
Si Si1 0.373111 0.933780 0.294327
Si Si2 0.967935 0.664257 0.355741
Si Si3 0.500000 0.805972 0.500000
Si Si4 0.485603 0.748117 0.854831
Si Si5 0.690490 0.522990 0.091138
O O1 0.325353 0.878520 0.435476
O O2 0.588138 0.856007 0.195367
O O3 0.470081 0.048224 0.307370
O O4 0.144383 0.954662 0.223667
O O5 0.690962 0.729718 0.389370
O O6 0.215998 0.722190 0.249672
O O7 0.000000 0.658882 0.500000
O O8 0.320959 0.642832 0.866633
O O9 0.500000 0.764722 0.000000
O O10 0.500000 0.511469 0.000000
O O11 0.000000 0.503611 0.000000
#
# Coordination Sequence:
#
# PCOD9130284 Si02
#       5
#     4   4   2   4   4
#     4  12  25  48  83 118 160 221 277 336 418 497
#     4  12  27  51  78 119 169 218 276 348 410 497
#     4  12  28  50  80 122 166 218 282 340 420 494
#     4  11  26  50  81 119 161 215 272 343 412 491
#     4  11  26  53  83 121 171 215 272 348 416 491
#
# _framework density 26.412673000000002
#
# number of rings (size 3 to 8) (size 9 to 14) (size 15 to 20)
#    0.000    0.444    3.333    4.667    0.000    5.333 
#    0.000   13.333    0.000    0.000    0.000    0.000 
#    0.000    0.000    0.000    0.000    0.000    0.000 
#
# Total GULP energy -50392.035714 kJ/mol
# GULP energy per Si atom -5599.115079 kJ/mol
# Density = 2.635256 g / cm^3
# Si number density = 26.412673 Si / 1000 Ang^3
#
#
#
# Elastic Constant Matrix: (Units=GPa)
#
#
# Indices 1 2 3 4 5 6 
#
# 1 114.3535 52.4887 52.8711 0.0000 2.8859 0.0000
# 2 52.4887 226.2199 85.9333 0.0000 17.7114 0.0000
# 3 52.8711 85.9333 190.6447 0.0000 19.3893 0.0000
# 4 0.0000 0.0000 0.0000 83.7072 0.0000 13.4344
# 5 2.8859 17.7114 19.3893 0.0000 56.7749 0.0000
# 6 0.0000 0.0000 0.0000 13.4344 0.0000 29.6952
#
#
#
# Elastic Compliance Matrix: (Units=1/GPa)
#
#
# Indices 1 2 3 4 5 6 
#
# 1 0.010522 -0.001644 -0.002253 0.000000 0.000747 0.000000
# 2 -0.001644 0.005633 -0.001982 0.000000 -0.000997 0.000000
# 3 -0.002253 -0.001982 0.006930 0.000000 -0.001634 0.000000
# 4 0.000000 0.000000 0.000000 0.012882 0.000000 -0.005828
# 5 0.000747 -0.000997 -0.001634 0.000000 0.018444 0.000000
# 6 0.000000 0.000000 0.000000 -0.005828 0.000000 0.036312
#
#
# Mechanical properties :
#
#
# Convention : Reuss Voigt Hill
#
# Bulk Modulus (GPa) = 88.28430 101.53380 94.90905
# Shear Modulus (GPa) = 47.05616 56.69714 51.87665
#
# Velocity S-wave (km/s) = 4.22545 4.63816 4.43660
# Velocity P-wave (km/s) = 7.56990 8.19805 7.89023
#
# Compressibility (1/GPa) = 0.01132704
#
# Stress axis : x y z
#
# Youngs Moduli (GPa) = 95.03626 177.53320 144.30868
#
# Poissons Ratio (x) = 0.29188 0.32514
# Poissons Ratio (y) = 0.15625 0.28597
# Poissons Ratio (z) = 0.21412 0.35181
#
# Static dielectric constant tensor:
#      x y z
#    x 2.126130 0.000000 0.168770 
#    y 0.000000 2.007930 0.000000 
#    z 0.168770 0.000000 2.236060 
# 
# From -- ./inp_files/32992.got.cif
#   From: 2010.05.17/outbox.cif.g08.bks.cpg/sg5_17_cif.got.tgz:32992.got - 2010.06.03 18:56:24.
