data_PCOD9130745
_publ_section_title
;
Structure prediction by ZEFSAII (Michael W. Deem and Ramdas Pophale) SiO2 
 PCOD9130745
Probable space group: C 2
;
_chemical_formula_sum "Si O2"
_cell_formula_units_Z 15
_cell_length_a 12.000000
_cell_length_b 18.000000
_cell_length_c 15.000000
_cell_angle_alpha 90.000000
_cell_angle_beta 30.000000
_cell_angle_gamma 90.000000
_cell_volume 1620.000000
_symmetry_space_group_name_H-M "C 2"
_symmetry_group_IT_number 5
_symmetry_cell_setting 'monoclinic'
loop_
_space_group_symop_operation_xyz
x,y,z
-x,y,-z
1/2+x,1/2+y,z
1/2-x,1/2+y,-z
loop_
_atom_site_type_symbol
_atom_site_label
_atom_site_fract_x
_atom_site_fract_y
_atom_site_fract_z
Si Si1 0.881599 0.866110 0.987053
Si Si2 0.500000 0.128942 0.000000
Si Si3 0.706249 0.219330 0.539909
Si Si4 0.696290 0.871917 0.430236
Si Si5 0.754954 0.584417 0.346146
Si Si6 0.150180 0.210348 0.126152
Si Si7 0.538618 0.991243 0.283090
Si Si8 0.746177 0.650214 0.865174
O O1 0.079941 0.885708 0.781423
O O2 0.738949 0.794773 0.054059
O O3 0.714961 0.934180 0.118851
O O4 0.000000 0.849001 0.000000
O O5 0.599636 0.087485 0.844922
O O6 0.704139 0.177917 0.894060
O O7 0.749130 0.303458 0.542039
O O8 0.738277 0.161948 0.601510
O O9 0.449350 0.202941 0.691810
O O10 0.892525 0.204219 0.334995
O O11 0.500000 0.845575 0.500000
O O12 0.594112 0.944444 0.549785
O O13 0.500000 0.569526 0.500000
O O14 0.859790 0.522180 0.336935
O O15 0.216115 0.164231 0.992276
O O16 0.674824 0.066361 0.214152
O O17 0.500000 0.665977 0.000000
#
# Coordination Sequence:
#
# PCOD9130745 Si02
#       8
#     4   2   4   4   4   4   4   4
#     4  12  22  39  66  97 132 166 218 281 334 385
#     4  12  20  38  70  98 124 158 210 272 336 376
#     4  11  22  41  69 102 125 165 224 278 326 390
#     4  12  23  39  68  99 130 169 217 283 337 379
#     4  11  23  40  64  95 129 163 213 271 329 396
#     4  12  22  39  73 101 125 169 218 279 331 381
#     4  11  25  41  61  96 135 168 216 271 336 396
#     4  11  26  46  64  97 140 180 221 263 326 414
#
# _framework density 9.2592590000000001
#
# number of rings (size 3 to 8) (size 9 to 14) (size 15 to 20)
#    0.000    0.533    8.667    0.800    0.000    3.733 
#    0.000    1.333    1.467    0.000    0.000    0.000 
#    0.000    0.000    0.000    0.000    0.000    0.000 
#
# Total GULP energy -83749.466532 kJ/mol
# GULP energy per Si atom -5583.297769 kJ/mol
# Density = 0.923818 g / cm^3
# Si number density = 9.259259 Si / 1000 Ang^3
#
#
#
# Elastic Constant Matrix: (Units=GPa)
#
#
# Indices 1 2 3 4 5 6 
#
# 1 56.9831 24.1323 30.4025 0.0013 -24.7199 -0.0037
# 2 24.1323 87.0123 38.6042 -0.0101 2.1029 -0.0148
# 3 30.4025 38.6042 189.4129 -0.0002 -4.8771 -0.0263
# 4 0.0013 -0.0101 -0.0002 29.1243 0.0035 -7.5116
# 5 -24.7199 2.1029 -4.8771 0.0035 44.7851 0.0111
# 6 -0.0037 -0.0148 -0.0263 -7.5116 0.0111 18.8513
#
#
#
# Elastic Compliance Matrix: (Units=1/GPa)
#
#
# Indices 1 2 3 4 5 6 
#
# 1 0.029063 -0.007215 -0.002780 -0.000010 0.016078 -0.000017
# 2 -0.007215 0.014461 -0.001915 0.000010 -0.004870 0.000014
# 3 -0.002780 -0.001915 0.006096 0.000002 -0.000781 0.000008
# 4 -0.000010 0.000010 0.000002 0.038269 -0.000013 0.015249
# 5 0.016078 -0.004870 -0.000781 -0.000013 0.031347 -0.000025
# 6 -0.000017 0.000014 0.000008 0.015249 -0.000025 0.059123
#
#
# Mechanical properties :
#
#
# Convention : Reuss Voigt Hill
#
# Bulk Modulus (GPa) = 38.76112 57.74293 48.25202
# Shear Modulus (GPa) = 23.72164 34.57011 29.14587
#
# Velocity S-wave (km/s) = 3.58295 4.32532 3.97152
# Velocity P-wave (km/s) = 6.17196 7.49622 6.86609
#
# Compressibility (1/GPa) = 0.02579905
#
# Stress axis : x y z
#
# Youngs Moduli (GPa) = 34.40820 69.15203 164.04666
#
# Poissons Ratio (x) = 0.49896 0.45610
# Poissons Ratio (y) = 0.24827 0.31407
# Poissons Ratio (z) = 0.09566 0.13239
#
# Static dielectric constant tensor:
#      x y z
#    x 1.661260 0.000000 -0.002060 
#    y 0.000000 1.629620 0.000000 
#    z -0.002060 0.000000 1.639830 
# 
# From -- ./inp_files/53389.got.cif
#   From: 2010.05.17/outbox.ucp.g08.bks.cvg/sg5_27_cif.got.tgz:53389.got - 2010.06.11 12:53:14.
