data_PCOD9130894
_publ_section_title
;
Structure prediction by ZEFSAII (Michael W. Deem and Ramdas Pophale) SiO2 
 PCOD9130894
Probable space group: P M
;
_chemical_formula_sum "Si O2"
_cell_formula_units_Z 16
_cell_length_a 9.682391
_cell_length_b 7.881485
_cell_length_c 11.471894
_cell_angle_alpha 90.000000
_cell_angle_beta 64.289981
_cell_angle_gamma 90.000000
_cell_volume 788.771396
_symmetry_space_group_name_H-M "P M"
_symmetry_group_IT_number 6
_symmetry_cell_setting 'monoclinic'
loop_
_space_group_symop_operation_xyz
x,y,z
x,-y,z
loop_
_atom_site_type_symbol
_atom_site_label
_atom_site_fract_x
_atom_site_fract_y
_atom_site_fract_z
Si Si1 0.851620 0.291810 0.450270
Si Si2 0.768789 0.800787 0.982967
Si Si3 0.916764 0.702822 0.687729
Si Si4 0.463830 0.699593 0.211775
Si Si5 0.237798 0.203290 0.674290
Si Si6 0.156458 0.295561 0.204021
Si Si7 0.545876 0.701105 0.435729
Si Si8 0.086122 0.795788 0.967948
O O1 0.850994 0.500000 0.451353
O O2 0.862296 0.238085 0.580970
O O3 0.698585 0.230993 0.441468
O O4 0.003286 0.236344 0.325742
O O5 0.821070 0.777389 0.830447
O O6 0.912317 0.733900 0.007255
O O7 0.750860 0.000000 0.013020
O O8 0.609675 0.715976 0.074417
O O9 0.901716 0.500000 0.698648
O O10 0.094813 0.747351 0.644494
O O11 0.433071 0.500000 0.242255
O O12 0.310103 0.771136 0.209767
O O13 0.509152 0.773699 0.321137
O O14 0.396543 0.274927 0.569713
O O15 0.190391 0.263203 0.821409
O O16 0.249035 0.000000 0.671670
O O17 0.157653 0.500000 0.211152
O O18 0.146863 0.251761 0.071658
O O19 0.573274 0.500000 0.411029
O O20 0.080019 0.000000 0.962128
#
# Coordination Sequence:
#
# PCOD9130894 Si02
#       8
#     2   2   2   2   2   2   2   2
#     4   9  19  35  56  82 108 136 176 226 272 316
#     4  10  21  37  56  80 111 144 180 220 266 322
#     4  10  19  35  59  83 109 141 179 222 268 318
#     4  10  21  36  56  82 109 140 181 225 269 320
#     4  10  21  37  55  79 112 145 180 220 266 322
#     4  10  20  35  56  81 107 137 178 225 269 317
#     4  10  20  36  58  81 107 141 182 225 269 318
#     4   9  20  37  54  76 107 142 178 217 263 319
#
# _framework density 20.28471
#
# number of rings (size 3 to 8) (size 9 to 14) (size 15 to 20)
#    0.000    2.250    0.000    3.375    0.000    8.000 
#    0.000    8.125    0.000    0.000    0.000    0.000 
#    0.000    0.000    0.000    0.000    0.000    0.000 
#
# Total GULP energy -89353.616043 kJ/mol
# GULP energy per Si atom -5584.601003 kJ/mol
# Density = 2.023854 g / cm^3
# Si number density = 20.284710 Si / 1000 Ang^3
#
#
#
# Elastic Constant Matrix: (Units=GPa)
#
#
# Indices 1 2 3 4 5 6 
#
# 1 205.1694 -4.3842 114.4422 0.0000 11.9156 0.0000
# 2 -4.3842 8.7855 -7.8331 0.0000 11.1938 0.0000
# 3 114.4422 -7.8331 97.9386 0.0000 2.1675 0.0000
# 4 0.0000 0.0000 0.0000 103.5559 0.0000 14.0626
# 5 11.9156 11.1938 2.1675 0.0000 35.9652 0.0000
# 6 0.0000 0.0000 0.0000 14.0626 0.0000 10.2200
#
#
#
# Elastic Compliance Matrix: (Units=1/GPa)
#
#
# Indices 1 2 3 4 5 6 
#
# 1 0.014645 -0.005777 -0.017531 0.000000 -0.001997 0.000000
# 2 -0.005777 0.221503 0.025984 0.000000 -0.068592 0.000000
# 3 -0.017531 0.025984 0.032868 0.000000 -0.004260 0.000000
# 4 0.000000 0.000000 0.000000 0.011876 0.000000 -0.016341
# 5 -0.001997 -0.068592 -0.004260 0.000000 0.050072 0.000000
# 6 0.000000 0.000000 0.000000 -0.016341 0.000000 0.120332
#
#
# Mechanical properties :
#
#
# Convention : Reuss Voigt Hill
#
# Bulk Modulus (GPa) = 3.64473 57.37146 30.50809
# Shear Modulus (GPa) = 9.30408 43.92614 26.61511
#
# Velocity S-wave (km/s) = 2.14399 4.65852 3.62619
# Velocity P-wave (km/s) = 2.81596 7.56837 5.71007
#
# Compressibility (1/GPa) = 0.27436872
#
# Stress axis : x y z
#
# Youngs Moduli (GPa) = 68.28178 4.51462 30.42471
#
# Poissons Ratio (x) = 0.02608 0.53337
# Poissons Ratio (y) = 0.39447 -0.79057
# Poissons Ratio (z) = 1.19704 -0.11731
#
# Static dielectric constant tensor:
#      x y z
#    x 1.708500 0.000000 0.011840 
#    y 0.000000 1.725930 0.000000 
#    z 0.011840 0.000000 1.704880 
# 
# From -- ./inp_files/3741.got.cif
#   From: 2010.05.17/outbox.cif.g08.bks.cpg/sg6_2_cif.got.tgz:3741.got - 2010.06.03 19:42:10.
