data_PCOD9130819
_publ_section_title
;
Structure prediction by ZEFSAII (Michael W. Deem and Ramdas Pophale) SiO2 
 PCOD9130819
Probable space group: P M
;
_chemical_formula_sum "Si O2"
_cell_formula_units_Z 16
_cell_length_a 9.585989
_cell_length_b 18.006052
_cell_length_c 5.200888
_cell_angle_alpha 90.000000
_cell_angle_beta 121.076855
_cell_angle_gamma 90.000000
_cell_volume 768.861225
_symmetry_space_group_name_H-M "P M"
_symmetry_group_IT_number 6
_symmetry_cell_setting 'monoclinic'
loop_
_space_group_symop_operation_xyz
x,y,z
x,-y,z
loop_
_atom_site_type_symbol
_atom_site_label
_atom_site_fract_x
_atom_site_fract_y
_atom_site_fract_z
Si Si1 0.311980 0.855326 0.375000
Si Si2 0.977506 0.913341 0.799643
Si Si3 0.295334 0.293323 0.079451
Si Si4 0.660951 0.841738 0.690563
Si Si5 0.055156 0.588011 0.844292
Si Si6 0.627026 0.741551 0.157505
Si Si7 0.923792 0.338409 0.208460
Si Si8 0.082570 0.196583 0.527174
O O1 0.334621 0.767438 0.332163
O O2 0.490144 0.886660 0.486689
O O3 0.241404 0.849746 0.593740
O O4 0.155646 0.891296 0.084374
O O5 0.962803 0.863360 0.530715
O O6 0.825051 0.889604 0.830179
O O7 0.973752 0.000000 0.744373
O O8 0.449184 0.292697 0.038061
O O9 0.227534 0.373364 0.085520
O O10 0.142728 0.253105 0.799679
O O11 0.674671 0.780131 0.474787
O O12 0.632451 0.803164 0.938566
O O13 0.058382 0.500000 0.866627
O O14 0.014509 0.612188 0.512025
O O15 0.931956 0.622283 0.940481
O O16 0.750799 0.679769 0.171813
O O17 0.003549 0.255118 0.254502
#
# Coordination Sequence:
#
# PCOD9130819 Si02
#       8
#     2   2   2   2   2   2   2   2
#     4  10  20  39  65  90 122 162 217 268 316 377
#     4  11  25  40  59  91 131 174 213 268 335 393
#     4   9  20  35  61  91 115 157 209 261 308 371
#     4  11  23  40  64  95 127 160 215 274 320 375
#     4  11  23  39  59  91 130 167 206 256 323 387
#     4  11  21  38  65  95 119 157 215 270 312 365
#     4  11  21  37  64  90 121 167 209 264 309 378
#     4  10  18  38  61  87 118 158 216 261 312 372
#
# _framework density 20.809996999999999
#
# number of rings (size 3 to 8) (size 9 to 14) (size 15 to 20)
#    0.000    1.500    3.750    1.875    1.750    1.000 
#    0.000    1.250    0.000    0.000    0.000    0.000 
#    0.000    0.000    0.000    0.000    0.000    0.000 
#
# Total GULP energy -89143.338793 kJ/mol
# GULP energy per Si atom -5571.458675 kJ/mol
# Density = 2.076263 g / cm^3
# Si number density = 20.809997 Si / 1000 Ang^3
#
#
#
# Elastic Constant Matrix: (Units=GPa)
#
#
# Indices 1 2 3 4 5 6 
#
# 1 156.6038 44.3243 14.8621 0.0000 10.2340 0.0000
# 2 44.3243 108.6365 12.8251 0.0000 10.6121 0.0000
# 3 14.8621 12.8251 48.9613 0.0000 -2.5375 0.0000
# 4 0.0000 0.0000 0.0000 10.8689 0.0000 -2.6931
# 5 10.2340 10.6121 -2.5375 0.0000 35.1594 0.0000
# 6 0.0000 0.0000 0.0000 -2.6931 0.0000 17.8789
#
#
#
# Elastic Compliance Matrix: (Units=1/GPa)
#
#
# Indices 1 2 3 4 5 6 
#
# 1 0.007394 -0.002683 -0.001617 0.000000 -0.001459 0.000000
# 2 -0.002683 0.010812 -0.002154 0.000000 -0.002638 0.000000
# 3 -0.001617 -0.002154 0.021618 0.000000 0.002681 0.000000
# 4 0.000000 0.000000 0.000000 0.095573 0.000000 0.014396
# 5 -0.001459 -0.002638 0.002681 0.000000 0.029856 0.000000
# 6 0.000000 0.000000 0.000000 0.014396 0.000000 0.058100
#
#
# Mechanical properties :
#
#
# Convention : Reuss Voigt Hill
#
# Bulk Modulus (GPa) = 37.15446 50.91383 44.03415
# Shear Modulus (GPa) = 20.38863 28.92742 24.65803
#
# Velocity S-wave (km/s) = 3.13349 3.73241 3.44599
# Velocity P-wave (km/s) = 5.56638 6.56458 6.08598
#
# Compressibility (1/GPa) = 0.02691467
#
# Stress axis : x y z
#
# Youngs Moduli (GPa) = 135.24812 92.49151 46.25678
#
# Poissons Ratio (x) = 0.24818 0.07480
# Poissons Ratio (y) = 0.36291 0.09965
# Poissons Ratio (z) = 0.21871 0.19925
#
# Static dielectric constant tensor:
#      x y z
#    x 1.832300 0.000000 0.035720 
#    y 0.000000 1.726150 0.000000 
#    z 0.035720 0.000000 1.878260 
# 
# From -- ./inp_files/1312.got.cif
#   From: 2010.05.17/outbox.cif.g08.bks.cpg/sg6_1_cif.got.tgz:1312.got - 2010.06.03 19:42:10.
