data_PCOD9130379
_publ_section_title
;
Structure prediction by ZEFSAII (Michael W. Deem and Ramdas Pophale) SiO2 
 PCOD9130379
Probable space group: C 2
;
_chemical_formula_sum "Si O2"
_cell_formula_units_Z 28
_cell_length_a 15.984571
_cell_length_b 11.416817
_cell_length_c 8.957486
_cell_angle_alpha 90.000000
_cell_angle_beta 58.421012
_cell_angle_gamma 90.000000
_cell_volume 1392.613132
_symmetry_space_group_name_H-M "C 2"
_symmetry_group_IT_number 5
_symmetry_cell_setting 'monoclinic'
loop_
_space_group_symop_operation_xyz
x,y,z
-x,y,-z
1/2+x,1/2+y,z
1/2-x,1/2+y,-z
loop_
_atom_site_type_symbol
_atom_site_label
_atom_site_fract_x
_atom_site_fract_y
_atom_site_fract_z
Si Si1 0.000000 0.295300 0.500000
Si Si2 0.966175 0.668999 0.861328
Si Si3 0.878268 0.130954 0.394809
Si Si4 0.500000 0.581185 0.000000
Si Si5 0.611040 0.406627 0.419445
Si Si6 0.357710 0.418853 0.938257
Si Si7 0.335884 0.165978 0.520862
Si Si8 0.358277 0.981558 0.769754
O O1 0.928002 0.215177 0.469152
O O2 0.935619 0.379993 0.663651
O O3 0.905554 0.789775 0.898804
O O4 0.898646 0.563915 0.864020
O O5 0.065527 0.670411 0.669769
O O6 0.000000 0.656125 0.000000
O O7 0.762567 0.147828 0.481200
O O8 0.935508 0.147389 0.184711
O O9 0.890377 0.998740 0.445214
O O10 0.575640 0.501127 0.021426
O O11 0.500000 0.364083 0.500000
O O12 0.641005 0.462718 0.234249
O O13 0.674523 0.292768 0.392573
O O14 0.246848 0.425425 0.098045
O O15 0.347928 0.065769 0.634379
#
# Coordination Sequence:
#
# PCOD9130379 Si02
#       8
#     2   4   4   2   4   4   4   4
#     4  12  28  52  68 102 156 194 242 306 372 440
#     4  12  26  46  73 110 145 187 248 302 356 438
#     4  12  28  44  76 105 148 194 244 300 377 433
#     4  12  22  46  70 112 144 182 246 310 352 438
#     4  12  23  47  71 102 145 195 239 296 363 441
#     4  12  25  42  76 107 145 187 245 300 360 434
#     4  12  25  47  75 106 146 198 245 296 371 439
#     4  12  27  49  74 106 149 195 240 307 373 428
#
# _framework density 20.106088
#
# number of rings (size 3 to 8) (size 9 to 14) (size 15 to 20)
#    0.000    0.000    8.571    0.000    6.000    2.286 
#    1.286    0.000    0.000    0.000    0.000    0.000 
#    0.000    0.000    0.000    0.000    0.000    0.000 
#
# Total GULP energy -78326.503806 kJ/mol
# GULP energy per Si atom -5594.750272 kJ/mol
# Density = 2.006033 g / cm^3
# Si number density = 20.106088 Si / 1000 Ang^3
#
#
#
# Elastic Constant Matrix: (Units=GPa)
#
#
# Indices 1 2 3 4 5 6 
#
# 1 134.2706 42.9102 36.3241 0.0000 -8.7782 0.0000
# 2 42.9102 75.9792 15.9290 0.0000 0.3744 0.0000
# 3 36.3241 15.9290 109.1262 0.0000 -6.2257 0.0000
# 4 0.0000 0.0000 0.0000 25.5973 0.0000 -3.9924
# 5 -8.7782 0.3744 -6.2257 0.0000 42.0095 0.0000
# 6 0.0000 0.0000 0.0000 -3.9924 0.0000 27.1450
#
#
#
# Elastic Compliance Matrix: (Units=1/GPa)
#
#
# Indices 1 2 3 4 5 6 
#
# 1 0.009835 -0.005052 -0.002437 0.000000 0.001739 0.000000
# 2 -0.005052 0.016179 -0.000755 0.000000 -0.001312 0.000000
# 3 -0.002437 -0.000755 0.010142 0.000000 0.001001 0.000000
# 4 0.000000 0.000000 0.000000 0.039984 0.000000 0.005881
# 5 0.001739 -0.001312 0.001001 0.000000 0.024327 0.000000
# 6 0.000000 0.000000 0.000000 0.005881 0.000000 0.037704
#
#
# Mechanical properties :
#
#
# Convention : Reuss Voigt Hill
#
# Bulk Modulus (GPa) = 50.84242 56.63362 53.73802
# Shear Modulus (GPa) = 31.01416 33.89790 32.45603
#
# Velocity S-wave (km/s) = 3.93176 4.11049 4.02212
# Velocity P-wave (km/s) = 6.77891 7.12437 6.95379
#
# Compressibility (1/GPa) = 0.01966861
#
# Stress axis : x y z
#
# Youngs Moduli (GPa) = 101.67534 61.80663 98.59803
#
# Poissons Ratio (x) = 0.31226 0.24029
# Poissons Ratio (y) = 0.51368 0.07443
# Poissons Ratio (z) = 0.24779 0.04665
#
# Static dielectric constant tensor:
#      x y z
#    x 1.703470 0.000000 -0.005100 
#    y 0.000000 1.681330 0.000000 
#    z -0.005100 0.000000 1.737570 
# 
# From -- ./inp_files/23733.got.cif
#   From: 2010.05.17/outbox.cif.g08.bks.cpg/sg5_12_cif.got.tgz:23733.got - 2010.06.03 18:56:24.
