data_PCOD9130265
_publ_section_title
;
Structure prediction by ZEFSAII (Michael W. Deem and Ramdas Pophale) SiO2 
 PCOD9130265
Probable space group: C 2
;
_chemical_formula_sum "Si O2"
_cell_formula_units_Z 18
_cell_length_a 14.384865
_cell_length_b 4.877176
_cell_length_c 14.237385
_cell_angle_alpha 90.000000
_cell_angle_beta 133.723339
_cell_angle_gamma 90.000000
_cell_volume 721.861509
_symmetry_space_group_name_H-M "C 2"
_symmetry_group_IT_number 5
_symmetry_cell_setting 'monoclinic'
loop_
_space_group_symop_operation_xyz
x,y,z
-x,y,-z
1/2+x,1/2+y,z
1/2-x,1/2+y,-z
loop_
_atom_site_type_symbol
_atom_site_label
_atom_site_fract_x
_atom_site_fract_y
_atom_site_fract_z
Si Si1 0.130981 0.175510 0.771783
Si Si2 0.461118 0.634138 0.823008
Si Si3 0.743001 0.922244 0.561790
Si Si4 0.000000 0.195728 0.500000
Si Si5 0.803195 0.193305 0.882820
O O1 0.065908 0.044113 0.633720
O O2 0.205403 0.448526 0.796239
O O3 0.025732 0.257692 0.775410
O O4 0.230136 0.947812 0.878498
O O5 0.367826 0.400908 0.716112
O O6 0.368569 0.792569 0.831105
O O7 0.584228 0.570239 0.973432
O O8 0.757975 0.723075 0.483522
O O9 0.613679 0.862651 0.528423
#
# Coordination Sequence:
#
# PCOD9130265 Si02
#       5
#     4   4   4   2   4
#     4  12  27  46  74 106 148 189 243 296 362 428
#     4  11  26  48  76 104 148 192 243 296 362 427
#     4  12  29  47  75 108 146 193 245 299 361 433
#     4  12  28  48  76 108 150 192 240 302 366 426
#     4  11  28  47  72 109 145 192 241 299 357 430
#
# _framework density 24.935533
#
# number of rings (size 3 to 8) (size 9 to 14) (size 15 to 20)
#    0.000    0.444    4.444    1.333    6.222    8.889 
#    0.000    0.000    0.000    0.000    0.000    0.000 
#    0.000    0.000    0.000    0.000    0.000    0.000 
#
# Total GULP energy -50325.575172 kJ/mol
# GULP energy per Si atom -5591.730575 kJ/mol
# Density = 2.487878 g / cm^3
# Si number density = 24.935533 Si / 1000 Ang^3
#
#
#
# Elastic Constant Matrix: (Units=GPa)
#
#
# Indices 1 2 3 4 5 6 
#
# 1 169.5555 -0.1163 55.6364 0.0000 9.9511 0.0002
# 2 -0.1163 46.2939 19.3061 0.0000 18.7456 0.0005
# 3 55.6364 19.3061 124.4431 -0.0001 5.0144 -0.0001
# 4 0.0000 0.0000 -0.0001 10.8238 0.0000 -1.6043
# 5 9.9511 18.7456 5.0144 0.0000 43.5504 0.0000
# 6 0.0002 0.0005 -0.0001 -1.6043 0.0000 24.2720
#
#
#
# Elastic Compliance Matrix: (Units=1/GPa)
#
#
# Indices 1 2 3 4 5 6 
#
# 1 0.007177 0.002391 -0.003488 0.000000 -0.002267 0.000000
# 2 0.002391 0.028689 -0.005024 0.000000 -0.012317 -0.000001
# 3 -0.003488 -0.005024 0.010303 0.000000 0.001773 0.000000
# 4 0.000000 0.000000 0.000000 0.093303 0.000000 0.006167
# 5 -0.002267 -0.012317 0.001773 0.000000 0.028577 0.000000
# 6 0.000000 -0.000001 0.000000 0.006167 0.000000 0.041607
#
#
# Mechanical properties :
#
#
# Convention : Reuss Voigt Hill
#
# Bulk Modulus (GPa) = 29.47417 54.43831 41.95624
# Shear Modulus (GPa) = 21.44001 33.42700 27.43350
#
# Velocity S-wave (km/s) = 2.93545 3.66531 3.32049
# Velocity P-wave (km/s) = 4.83062 6.30806 5.61812
#
# Compressibility (1/GPa) = 0.03392802
#
# Stress axis : x y z
#
# Youngs Moduli (GPa) = 139.33173 34.85600 97.05652
#
# Poissons Ratio (x) = -0.08334 0.33856
# Poissons Ratio (y) = -0.33313 0.48756
# Poissons Ratio (z) = 0.48603 0.17510
#
# Static dielectric constant tensor:
#      x y z
#    x 1.929270 0.000000 -0.021140 
#    y 0.000000 1.850280 0.000000 
#    z -0.021140 0.000000 2.021680 
# 
# From -- ./inp_files/45335.got.cif
#   From: 2010.05.17/outbox.cif.g08.bks.cpg/sg5_23_cif.got.tgz:45335.got - 2010.06.03 18:56:24.
