data_PCOD9130350
_publ_section_title
;
Structure prediction by ZEFSAII (Michael W. Deem and Ramdas Pophale) SiO2 
 PCOD9130350
Probable space group: C 2
;
_chemical_formula_sum "Si O2"
_cell_formula_units_Z 20
_cell_length_a 7.823676
_cell_length_b 17.895360
_cell_length_c 12.029773
_cell_angle_alpha 90.000000
_cell_angle_beta 150.618551
_cell_angle_gamma 90.000000
_cell_volume 826.333647
_symmetry_space_group_name_H-M "C 2"
_symmetry_group_IT_number 5
_symmetry_cell_setting 'monoclinic'
loop_
_space_group_symop_operation_xyz
x,y,z
-x,y,-z
1/2+x,1/2+y,z
1/2-x,1/2+y,-z
loop_
_atom_site_type_symbol
_atom_site_label
_atom_site_fract_x
_atom_site_fract_y
_atom_site_fract_z
Si Si1 0.846401 0.123470 0.793052
Si Si2 0.154340 0.844588 0.383089
Si Si3 0.079473 0.013964 0.746373
Si Si4 0.500000 0.623866 0.500000
Si Si5 0.421854 0.238923 0.078177
Si Si6 0.500000 0.240349 0.500000
O O1 0.500149 0.172059 0.596334
O O2 0.899000 0.049914 0.752486
O O3 0.000000 0.109387 0.000000
O O4 0.067972 0.192492 0.866102
O O5 0.500000 0.841849 0.500000
O O6 0.881874 0.801277 0.148868
O O7 0.034771 0.929025 0.332657
O O8 0.171711 0.801736 0.510493
O O9 0.948083 0.064087 0.570120
O O10 0.500000 0.020740 0.000000
O O11 0.205024 0.678879 0.281865
O O12 0.500000 0.268889 0.000000
#
# Coordination Sequence:
#
# PCOD9130350 Si02
#       6
#     4   4   4   2   4   2
#     4  12  25  44  76 107 141 191 248 299 362 436
#     4  12  28  49  74 110 152 194 241 307 374 431
#     4  12  28  48  72 108 151 192 240 305 372 432
#     4  12  21  48  79  98 142 188 250 300 353 436
#     4  12  23  46  77 104 139 191 249 300 358 435
#     4  12  27  50  79 108 146 194 252 306 359 442
#
# _framework density 24.203299000000001
#
# number of rings (size 3 to 8) (size 9 to 14) (size 15 to 20)
#    0.000    0.000    7.000    3.000    4.200    0.800 
#    7.200    0.000    0.000    0.000    0.000    0.000 
#    0.000    0.000    0.000    0.000    0.000    0.000 
#
# Total GULP energy -55782.350807 kJ/mol
# GULP energy per Si atom -5578.235081 kJ/mol
# Density = 2.414821 g / cm^3
# Si number density = 24.203299 Si / 1000 Ang^3
#
#
#
# Elastic Constant Matrix: (Units=GPa)
#
#
# Indices 1 2 3 4 5 6 
#
# 1 135.6380 59.4428 57.1675 0.0030 -29.5045 0.0014
# 2 59.4428 219.9962 72.4996 -0.0015 -8.1911 -0.0014
# 3 57.1675 72.4996 104.1035 0.0061 -34.9513 0.0056
# 4 0.0030 -0.0015 0.0061 40.3886 0.0063 -9.8037
# 5 -29.5045 -8.1911 -34.9513 0.0063 35.5626 0.0051
# 6 0.0014 -0.0014 0.0056 -9.8037 0.0051 47.3274
#
#
#
# Elastic Compliance Matrix: (Units=1/GPa)
#
#
# Indices 1 2 3 4 5 6 
#
# 1 0.010492 -0.001761 -0.002610 -0.000002 0.005734 -0.000001
# 2 -0.001761 0.006602 -0.005389 0.000002 -0.005237 0.000002
# 3 -0.002610 -0.005389 0.020370 -0.000007 0.016613 -0.000006
# 4 -0.000002 0.000002 -0.000007 0.026070 -0.000013 0.005400
# 5 0.005734 -0.005237 0.016613 -0.000013 0.047998 -0.000010
# 6 -0.000001 0.000002 -0.000006 0.005400 -0.000010 0.022248
#
#
# Mechanical properties :
#
#
# Convention : Reuss Voigt Hill
#
# Bulk Modulus (GPa) = 55.73093 93.10640 74.41866
# Shear Modulus (GPa) = 31.39107 42.69758 37.04433
#
# Velocity S-wave (km/s) = 3.60526 4.20470 3.91647
# Velocity P-wave (km/s) = 6.35663 7.88192 7.16001
#
# Compressibility (1/GPa) = 0.01794336
#
# Stress axis : x y z
#
# Youngs Moduli (GPa) = 95.31421 151.45975 49.09290
#
# Poissons Ratio (x) = 0.26677 0.12812
# Poissons Ratio (y) = 0.16788 0.26457
# Poissons Ratio (z) = 0.24874 0.81623
#
# Static dielectric constant tensor:
#      x y z
#    x 2.010150 0.000000 -0.061600 
#    y 0.000000 1.830520 0.000000 
#    z -0.061600 0.000000 1.834860 
# 
# From -- ./inp_files/2469.got.cif
#   From: 2010.05.17/outbox.cif.g08.bks.cpg/sg5_2_cif.got.tgz:2469.got - 2010.06.03 18:56:24.
