data_PCOD9130001
_publ_section_title
;
Structure prediction by ZEFSAII (Michael W. Deem and Ramdas Pophale) SiO2 
 PCOD9130001
Probable space group: C 2
;
_chemical_formula_sum "Si O2"
_cell_formula_units_Z 26
_cell_length_a 11.273637
_cell_length_b 8.821664
_cell_length_c 25.261375
_cell_angle_alpha 90.000000
_cell_angle_beta 153.051499
_cell_angle_gamma 90.000000
_cell_volume 1138.547992
_symmetry_space_group_name_H-M "C 2"
_symmetry_group_IT_number 5
_symmetry_cell_setting 'monoclinic'
loop_
_space_group_symop_operation_xyz
x,y,z
-x,y,-z
1/2+x,1/2+y,z
1/2-x,1/2+y,-z
loop_
_atom_site_type_symbol
_atom_site_label
_atom_site_fract_x
_atom_site_fract_y
_atom_site_fract_z
Si Si1 0.114844 0.172380 0.379165
Si Si2 0.500000 0.143643 0.000000
Si Si3 0.637060 0.978172 0.330296
Si Si4 0.996234 0.308676 0.172355
Si Si5 0.237648 0.253650 0.676804
Si Si6 0.947543 0.573860 0.368803
Si Si7 0.829965 0.925394 0.206585
O O1 0.314513 0.155521 0.507052
O O2 0.211431 0.313237 0.382908
O O3 0.826111 0.206998 0.288354
O O4 0.065775 0.017187 0.328993
O O5 0.293968 0.245533 0.950146
O O6 0.331259 0.039430 0.894060
O O7 0.833827 0.106672 0.386673
O O8 0.498608 0.048803 0.326730
O O9 0.489093 0.931826 0.217040
O O10 0.185276 0.172224 0.267250
O O11 0.137924 0.365364 0.175807
O O12 0.079528 0.411357 0.613238
O O13 0.527958 0.299082 0.773181
#
# Coordination Sequence:
#
# PCOD9130001 Si02
#       7
#     4   2   4   4   4   4   4
#     4  11  26  44  73 114 154 192 237 301 378 457
#     4  12  28  52  72 102 148 200 258 326 374 432
#     4  11  24  44  75 107 151 192 245 302 367 448
#     4  12  26  49  74 107 147 196 252 310 380 444
#     4  11  24  44  75 107 151 192 245 302 367 448
#     4  11  26  44  73 114 154 192 237 301 378 457
#     4  12  26  49  74 107 147 196 252 310 380 444
#
# _framework density 22.836105
#
# number of rings (size 3 to 8) (size 9 to 14) (size 15 to 20)
#    0.000    0.615    6.154    0.000    4.308    8.000 
#    0.000    0.000    0.000    0.000    0.000    0.000 
#    0.000    0.000    0.000    0.000    0.000    0.000 
#
# Total GULP energy -72557.557671 kJ/mol
# GULP energy per Si atom -5581.350590 kJ/mol
# Density = 2.278413 g / cm^3
# Si number density = 22.836105 Si / 1000 Ang^3
#
#
#
# Elastic Constant Matrix: (Units=GPa)
#
#
# Indices 1 2 3 4 5 6 
#
# 1 166.2080 46.6545 23.8801 0.0002 -0.7156 0.0001
# 2 46.6545 91.6154 -0.7560 -0.0002 3.0973 0.0000
# 3 23.8801 -0.7560 51.8231 0.0014 6.4830 0.0002
# 4 0.0002 -0.0002 0.0014 17.1529 -0.0003 -13.6384
# 5 -0.7156 3.0973 6.4830 -0.0003 24.8568 -0.0002
# 6 0.0001 0.0000 0.0002 -13.6384 -0.0002 60.4229
#
#
#
# Elastic Compliance Matrix: (Units=1/GPa)
#
#
# Indices 1 2 3 4 5 6 
#
# 1 0.007699 -0.004010 -0.003821 0.000000 0.001718 0.000000
# 2 -0.004010 0.013056 0.002332 0.000000 -0.002351 0.000000
# 3 -0.003821 0.002332 0.021854 -0.000002 -0.006101 -0.000001
# 4 0.000000 0.000000 -0.000002 0.071050 0.000002 0.016037
# 5 0.001718 -0.002351 -0.006101 0.000002 0.042164 0.000001
# 6 0.000000 0.000000 -0.000001 0.016037 0.000001 0.020170
#
#
# Mechanical properties :
#
#
# Convention : Reuss Voigt Hill
#
# Bulk Modulus (GPa) = 31.63391 49.91152 40.77271
# Shear Modulus (GPa) = 25.31296 36.47774 30.89535
#
# Velocity S-wave (km/s) = 3.33297 4.00105 3.68219
# Velocity P-wave (km/s) = 5.35670 6.57635 5.99761
#
# Compressibility (1/GPa) = 0.03161165
#
# Stress axis : x y z
#
# Youngs Moduli (GPa) = 129.89484 76.59319 45.75767
#
# Poissons Ratio (x) = 0.30714 0.17483
# Poissons Ratio (y) = 0.52088 -0.10672
# Poissons Ratio (z) = 0.49631 -0.17864
#
# Static dielectric constant tensor:
#      x y z
#    x 1.892110 0.000000 -0.006440 
#    y 0.000000 1.901530 0.000000 
#    z -0.006440 0.000000 1.797720 
# 
# From -- ./inp_files/68316.got.cif
#   From: 2010.05.17/outbox.cif.g08.bks.cpg/sg5_35_cif.got.tgz:68316.got - 2010.06.03 18:56:24.
