data_PCOD9130192
_publ_section_title
;
Structure prediction by ZEFSAII (Michael W. Deem and Ramdas Pophale) SiO2 
 PCOD9130192
Probable space group: C 2
;
_chemical_formula_sum "Si O2"
_cell_formula_units_Z 22
_cell_length_a 14.844107
_cell_length_b 7.073159
_cell_length_c 8.422121
_cell_angle_alpha 90.000000
_cell_angle_beta 89.213223
_cell_angle_gamma 90.000000
_cell_volume 884.194942
_symmetry_space_group_name_H-M "C 2"
_symmetry_group_IT_number 5
_symmetry_cell_setting 'monoclinic'
loop_
_space_group_symop_operation_xyz
x,y,z
-x,y,-z
1/2+x,1/2+y,z
1/2-x,1/2+y,-z
loop_
_atom_site_type_symbol
_atom_site_label
_atom_site_fract_x
_atom_site_fract_y
_atom_site_fract_z
Si Si1 0.066835 0.075760 0.819883
Si Si2 0.241534 0.181663 0.261160
Si Si3 0.500000 0.931535 0.000000
Si Si4 0.082395 0.761332 0.205556
Si Si5 0.230715 0.534056 0.069137
Si Si6 0.132298 0.918174 0.505042
O O1 0.050261 0.282915 0.885019
O O2 0.161889 0.017052 0.900081
O O3 0.083451 0.054475 0.631022
O O4 0.978607 0.941262 0.845412
O O5 0.193335 0.346236 0.157697
O O6 0.186576 0.717552 0.154660
O O7 0.180584 0.047871 0.370984
O O8 0.288678 0.066306 0.116575
O O9 0.459730 0.080406 0.876541
O O10 0.079219 0.773105 0.394701
O O11 0.804056 0.792158 0.384068
#
# Coordination Sequence:
#
# PCOD9130192 Si02
#       6
#     4   4   2   4   4   4
#     4  11  28  55  79 123 165 218 275 358 415 514
#     4  11  25  47  82 121 161 224 275 346 425 516
#     4  12  30  50  88 116 160 220 300 328 432 516
#     4  12  28  53  82 124 163 221 278 356 417 516
#     4  11  26  50  86 114 160 220 284 335 421 509
#     4  11  26  50  78 121 177 206 279 354 438 495
#
# _framework density 24.881388999999999
#
# number of rings (size 3 to 8) (size 9 to 14) (size 15 to 20)
#    0.000    0.727    0.000    5.455   17.818    1.455 
#    6.545    0.000    0.000    0.000    0.000    0.000 
#    0.000    0.000    0.000    0.000    0.000    0.000 
#
# Total GULP energy -61398.591180 kJ/mol
# GULP energy per Si atom -5581.690107 kJ/mol
# Density = 2.482476 g / cm^3
# Si number density = 24.881389 Si / 1000 Ang^3
#
#
#
# Elastic Constant Matrix: (Units=GPa)
#
#
# Indices 1 2 3 4 5 6 
#
# 1 101.9189 58.3318 53.8884 0.0000 4.2484 0.0000
# 2 58.3318 167.8919 86.9133 0.0000 15.5767 0.0000
# 3 53.8884 86.9133 255.6684 0.0000 2.6047 0.0000
# 4 0.0000 0.0000 0.0000 64.1062 0.0000 9.6330
# 5 4.2484 15.5767 2.6047 0.0000 42.1647 0.0000
# 6 0.0000 0.0000 0.0000 9.6330 0.0000 32.0069
#
#
#
# Elastic Compliance Matrix: (Units=1/GPa)
#
#
# Indices 1 2 3 4 5 6 
#
# 1 0.012661 -0.003680 -0.001419 0.000000 0.000171 0.000000
# 2 -0.003680 0.008576 -0.002112 0.000000 -0.002667 0.000000
# 3 -0.001419 -0.002112 0.004922 0.000000 0.000619 0.000000
# 4 0.000000 0.000000 0.000000 0.016338 0.000000 -0.004917
# 5 0.000171 -0.002667 0.000619 0.000000 0.024646 0.000000
# 6 0.000000 0.000000 0.000000 -0.004917 0.000000 0.032723
#
#
# Mechanical properties :
#
#
# Convention : Reuss Voigt Hill
#
# Bulk Modulus (GPa) = 85.21176 102.63847 93.92511
# Shear Modulus (GPa) = 42.30025 49.41194 45.85610
#
# Velocity S-wave (km/s) = 4.12767 4.46118 4.29766
# Velocity P-wave (km/s) = 7.55238 8.23874 7.90301
#
# Compressibility (1/GPa) = 0.01173547
#
# Stress axis : x y z
#
# Youngs Moduli (GPa) = 78.98067 116.60698 203.15712
#
# Poissons Ratio (x) = 0.42913 0.28836
# Poissons Ratio (y) = 0.29066 0.42916
# Poissons Ratio (z) = 0.11210 0.24633
#
# Static dielectric constant tensor:
#      x y z
#    x 2.188680 0.000000 -0.036570 
#    y 0.000000 1.976020 0.000000 
#    z -0.036570 0.000000 1.934930 
# 
# From -- ./inp_files/41182.got.cif
#   From: 2010.05.17/outbox.cif.g08.bks.cpg/sg5_21_cif.got.tgz:41182.got - 2010.06.03 18:56:24.
