data_PCOD9130618
_publ_section_title
;
Structure prediction by ZEFSAII (Michael W. Deem and Ramdas Pophale) SiO2 
 PCOD9130618
Probable space group: C 2
;
_chemical_formula_sum "Si O2"
_cell_formula_units_Z 12
_cell_length_a 16.952045
_cell_length_b 4.968349
_cell_length_c 6.895794
_cell_angle_alpha 90.000000
_cell_angle_beta 53.950631
_cell_angle_gamma 90.000000
_cell_volume 469.573943
_symmetry_space_group_name_H-M "C 2"
_symmetry_group_IT_number 5
_symmetry_cell_setting 'monoclinic'
loop_
_space_group_symop_operation_xyz
x,y,z
-x,y,-z
1/2+x,1/2+y,z
1/2-x,1/2+y,-z
loop_
_atom_site_type_symbol
_atom_site_label
_atom_site_fract_x
_atom_site_fract_y
_atom_site_fract_z
Si Si1 0.887227 0.998350 0.669793
Si Si2 0.320979 0.002108 0.513871
Si Si3 0.612131 0.633787 0.883987
O O1 0.834643 0.750449 0.641785
O O2 0.000000 0.921843 0.500000
O O3 0.866073 0.258840 0.573219
O O4 0.869145 0.084456 0.916814
O O5 0.203947 0.973417 0.657934
O O6 0.372518 0.933235 0.231328
O O7 0.500000 0.553974 0.000000
#
# Coordination Sequence:
#
# PCOD9130618 Si02
#       3
#     4   4   4
#     4  12  27  54  82 120 171 221 276 348 424 498
#     4  12  28  54  79 124 166 220 280 343 423 501
#     4  12  28  54  85 126 167 224 281 353 419 507
#
# _framework density 25.555084000000001
#
# number of rings (size 3 to 8) (size 9 to 14) (size 15 to 20)
#    0.000    0.000    3.333    5.000    0.000    5.333 
#    0.000    0.000    0.000    0.000    0.000    0.000 
#    0.000    0.000    0.000    0.000    0.000    0.000 
#
# Total GULP energy -33514.604008 kJ/mol
# GULP energy per Si atom -5585.767335 kJ/mol
# Density = 2.549692 g / cm^3
# Si number density = 25.555084 Si / 1000 Ang^3
#
#
#
# Elastic Constant Matrix: (Units=GPa)
#
#
# Indices 1 2 3 4 5 6 
#
# 1 169.9896 19.3266 60.8564 0.0000 -4.1658 0.0000
# 2 19.3266 107.4162 41.3343 0.0000 32.6739 0.0000
# 3 60.8564 41.3343 202.4932 0.0000 33.1477 0.0000
# 4 0.0000 0.0000 0.0000 38.3294 0.0000 -10.3085
# 5 -4.1658 32.6739 33.1477 0.0000 67.3519 0.0000
# 6 0.0000 0.0000 0.0000 -10.3085 0.0000 40.9203
#
#
#
# Elastic Compliance Matrix: (Units=1/GPa)
#
#
# Indices 1 2 3 4 5 6 
#
# 1 0.006821 -0.000992 -0.002170 0.000000 0.001971 0.000000
# 2 -0.000992 0.011490 -0.001223 0.000000 -0.005033 0.000000
# 3 -0.002170 -0.001223 0.006270 0.000000 -0.002627 0.000000
# 4 0.000000 0.000000 0.000000 0.027986 0.000000 0.007050
# 5 0.001971 -0.005033 -0.002627 0.000000 0.018704 0.000000
# 6 0.000000 0.000000 0.000000 0.007050 0.000000 0.026214
#
#
# Mechanical properties :
#
#
# Convention : Reuss Voigt Hill
#
# Bulk Modulus (GPa) = 63.24924 80.32595 71.78760
# Shear Modulus (GPa) = 44.83322 53.21243 49.02282
#
# Velocity S-wave (km/s) = 4.19307 4.56813 4.38461
# Velocity P-wave (km/s) = 6.94596 7.70224 7.33385
#
# Compressibility (1/GPa) = 0.01581047
#
# Stress axis : x y z
#
# Youngs Moduli (GPa) = 146.61384 87.03386 159.48103
#
# Poissons Ratio (x) = 0.08631 0.34608
# Poissons Ratio (y) = 0.14539 0.19511
# Poissons Ratio (z) = 0.31816 0.10648
#
# Static dielectric constant tensor:
#      x y z
#    x 1.953720 0.000000 -0.010550 
#    y 0.000000 2.103980 0.000000 
#    z -0.010550 0.000000 2.092630 
# 
# From -- ./inp_files/6265.got.cif
#   From: 2010.05.17/outbox.cif.g08.bks.cpg/sg5_4_cif.got.tgz:6265.got - 2010.06.03 18:56:24.
