data_PCOD9130273
_publ_section_title
;
Structure prediction by ZEFSAII (Michael W. Deem and Ramdas Pophale) SiO2 
 PCOD9130273
Probable space group: C 2
;
_chemical_formula_sum "Si O2"
_cell_formula_units_Z 26
_cell_length_a 14.937726
_cell_length_b 8.356218
_cell_length_c 15.893547
_cell_angle_alpha 90.000000
_cell_angle_beta 32.792299
_cell_angle_gamma 90.000000
_cell_volume 1074.459151
_symmetry_space_group_name_H-M "C 2"
_symmetry_group_IT_number 5
_symmetry_cell_setting 'monoclinic'
loop_
_space_group_symop_operation_xyz
x,y,z
-x,y,-z
1/2+x,1/2+y,z
1/2-x,1/2+y,-z
loop_
_atom_site_type_symbol
_atom_site_label
_atom_site_fract_x
_atom_site_fract_y
_atom_site_fract_z
Si Si1 0.422241 0.404540 0.300633
Si Si2 0.500000 0.214592 0.500000
Si Si3 0.129459 0.155242 0.070046
Si Si4 0.601469 0.070438 0.592543
Si Si5 0.365709 0.867142 0.184401
Si Si6 0.301234 0.880696 0.849224
Si Si7 0.650209 0.241042 0.815136
O O1 0.578426 0.518513 0.176079
O O2 0.436262 0.236204 0.333430
O O3 0.285437 0.509970 0.454718
O O4 0.369611 0.361805 0.246476
O O5 0.555708 0.104573 0.532719
O O6 0.671828 0.307790 0.335727
O O7 0.246622 0.266253 0.034757
O O8 0.968765 0.251339 0.165459
O O9 0.206120 0.051062 0.933080
O O10 0.487825 0.931173 0.717264
O O11 0.349948 0.057687 0.215712
O O12 0.500000 0.864069 0.000000
O O13 0.293634 0.794388 0.765555
O O14 0.500000 0.260318 0.000000
#
# Coordination Sequence:
#
# PCOD9130273 Si02
#       7
#     4   2   4   4   4   4   4
#     4  12  26  48  74 104 157 203 248 323 392 461
#     4  12  26  48  78 112 150 206 264 316 398 462
#     4  12  26  47  74 109 153 197 258 319 395 465
#     4  12  27  45  73 110 153 201 259 313 392 465
#     4  11  27  47  80 109 154 200 263 325 396 462
#     4  12  27  44  76 112 148 201 256 321 390 470
#     4  11  26  49  75 108 151 201 259 323 390 464
#
# _framework density 24.198221
#
# number of rings (size 3 to 8) (size 9 to 14) (size 15 to 20)
#    0.000    0.308    3.077    4.615   10.769    1.231 
#    0.000    0.000    0.000    0.000    0.000    0.000 
#    0.000    0.000    0.000    0.000    0.000    0.000 
#
# Total GULP energy -72597.143717 kJ/mol
# GULP energy per Si atom -5584.395671 kJ/mol
# Density = 2.414314 g / cm^3
# Si number density = 24.198221 Si / 1000 Ang^3
#
#
#
# Elastic Constant Matrix: (Units=GPa)
#
#
# Indices 1 2 3 4 5 6 
#
# 1 62.0341 34.6151 1.6073 0.0000 10.0993 0.0000
# 2 34.6151 121.2780 26.8101 0.0000 9.2204 0.0000
# 3 1.6073 26.8101 84.8534 0.0000 -9.7233 0.0000
# 4 0.0000 0.0000 0.0000 45.3220 0.0000 -4.1575
# 5 10.0993 9.2204 -9.7233 0.0000 28.2620 0.0000
# 6 0.0000 0.0000 0.0000 -4.1575 0.0000 40.4968
#
#
#
# Elastic Compliance Matrix: (Units=1/GPa)
#
#
# Indices 1 2 3 4 5 6 
#
# 1 0.019992 -0.005490 0.000773 0.000000 -0.005087 0.000000
# 2 -0.005490 0.010833 -0.003642 0.000000 -0.002825 0.000000
# 3 0.000773 -0.003642 0.013560 0.000000 0.005577 0.000000
# 4 0.000000 0.000000 0.000000 0.022274 0.000000 0.002287
# 5 -0.005087 -0.002825 0.005577 0.000000 0.040042 0.000000
# 6 0.000000 0.000000 0.000000 0.002287 0.000000 0.024928
#
#
# Mechanical properties :
#
#
# Convention : Reuss Voigt Hill
#
# Bulk Modulus (GPa) = 36.14585 43.80338 39.97461
# Shear Modulus (GPa) = 31.73207 36.49169 34.11188
#
# Velocity S-wave (km/s) = 3.62517 3.88755 3.75865
# Velocity P-wave (km/s) = 5.70020 6.18805 5.94913
#
# Compressibility (1/GPa) = 0.02766569
#
# Stress axis : x y z
#
# Youngs Moduli (GPa) = 50.02047 92.31451 73.74455
#
# Poissons Ratio (x) = 0.50683 -0.05701
# Poissons Ratio (y) = 0.27462 0.26861
# Poissons Ratio (z) = -0.03867 0.33624
#
# Static dielectric constant tensor:
#      x y z
#    x 2.090780 0.000000 0.022880 
#    y 0.000000 1.879270 0.000000 
#    z 0.022880 0.000000 1.997150 
# 
# From -- ./inp_files/54291.got.cif
#   From: 2010.05.17/outbox.cif.g08.bks.cpg/sg5_28_cif.got.tgz:54291.got - 2010.06.03 18:56:24.
