data_PCOD9130940
_publ_section_title
;
Structure prediction by ZEFSAII (Michael W. Deem and Ramdas Pophale) SiO2 
 PCOD9130940
Probable space group: P M
;
_chemical_formula_sum "Si O2"
_cell_formula_units_Z 16
_cell_length_a 12.400995
_cell_length_b 8.781021
_cell_length_c 10.232026
_cell_angle_alpha 90.000000
_cell_angle_beta 53.953212
_cell_angle_gamma 90.000000
_cell_volume 900.871692
_symmetry_space_group_name_H-M "P M"
_symmetry_group_IT_number 6
_symmetry_cell_setting 'monoclinic'
loop_
_space_group_symop_operation_xyz
x,y,z
x,-y,z
loop_
_atom_site_type_symbol
_atom_site_label
_atom_site_fract_x
_atom_site_fract_y
_atom_site_fract_z
Si Si1 0.965000 0.681368 0.554110
Si Si2 0.128549 0.181786 0.667854
Si Si3 0.191615 0.682009 0.897591
Si Si4 0.462371 0.817454 0.082923
Si Si5 0.676984 0.818536 0.707676
Si Si6 0.501015 0.681161 0.612115
Si Si7 0.413795 0.681663 0.389899
Si Si8 0.164278 0.182623 0.197179
O O1 0.974765 0.500000 0.552321
O O2 0.815851 0.734174 0.629104
O O3 0.015479 0.751748 0.654557
O O4 0.062909 0.745131 0.372287
O O5 0.123711 0.247160 0.817879
O O6 0.270825 0.236625 0.507692
O O7 0.124101 0.000000 0.672021
O O8 0.175055 0.500000 0.909233
O O9 0.350468 0.714125 0.769382
O O10 0.142739 0.753663 0.067322
O O11 0.479286 0.735315 0.209143
O O12 0.315605 0.778486 0.132435
O O13 0.465818 0.000000 0.099857
O O14 0.573668 0.777142 0.897160
O O15 0.606246 0.771191 0.623255
O O16 0.697804 0.000000 0.696100
O O17 0.523501 0.500000 0.611109
O O18 0.498053 0.717874 0.460091
O O19 0.390650 0.500000 0.406242
O O20 0.151418 0.000000 0.207730
#
# Coordination Sequence:
#
# PCOD9130940 Si02
#       8
#     2   2   2   2   2   2   2   2
#     4  12  25  41  60  85 118 158 198 243 296 352
#     4  11  21  36  58  85 118 155 196 243 293 348
#     4  10  20  35  58  89 121 153 193 243 292 343
#     4  10  21  36  58  88 119 151 194 242 290 346
#     4  11  23  40  60  85 117 155 196 239 292 355
#     4   9  19  35  55  84 118 152 191 235 287 346
#     4  10  20  34  57  88 119 151 193 242 293 344
#     4  11  21  37  60  90 120 153 195 243 293 346
#
# _framework density 17.760574999999999
#
# number of rings (size 3 to 8) (size 9 to 14) (size 15 to 20)
#    0.000    1.500    2.500    4.500    0.000    4.000 
#    0.000    1.250    0.000    3.000    0.000    0.000 
#    0.000    0.000    0.000    0.000    0.000    0.000 
#
# Total GULP energy -89407.450784 kJ/mol
# GULP energy per Si atom -5587.965674 kJ/mol
# Density = 1.772015 g / cm^3
# Si number density = 17.760575 Si / 1000 Ang^3
#
#
#
# Elastic Constant Matrix: (Units=GPa)
#
#
# Indices 1 2 3 4 5 6 
#
# 1 121.3771 68.9464 68.4232 0.0000 16.1260 0.0000
# 2 68.9464 93.7759 55.9886 0.0000 6.9458 0.0000
# 3 68.4232 55.9886 105.3826 0.0000 17.0806 0.0000
# 4 0.0000 0.0000 0.0000 20.5343 0.0000 23.5693
# 5 16.1260 6.9458 17.0806 0.0000 31.4139 0.0000
# 6 0.0000 0.0000 0.0000 23.5693 0.0000 6.3593
#
#
#
# Elastic Compliance Matrix: (Units=1/GPa)
#
#
# Indices 1 2 3 4 5 6 
#
# 1 0.016935 -0.008741 -0.005764 0.000000 -0.003627 0.000000
# 2 -0.008741 0.020168 -0.005532 0.000000 0.003036 0.000000
# 3 -0.005764 -0.005532 0.016990 0.000000 -0.005056 0.000000
# 4 0.000000 0.000000 0.000000 -0.014966 0.000000 0.055467
# 5 -0.003627 0.003036 -0.005056 0.000000 0.035773 0.000000
# 6 0.000000 0.000000 0.000000 0.055467 0.000000 -0.048324
#
#
# Mechanical properties :
#
#
# Convention : Reuss Voigt Hill
#
# Bulk Modulus (GPa) = 71.32631 78.58358 74.95494
# Shear Modulus (GPa) = 70.10339 20.13998 45.12169
#
# Velocity S-wave (km/s) = 6.28944 3.37110 5.04586
# Velocity P-wave (km/s) = 9.64312 7.71327 8.73168
#
# Compressibility (1/GPa) = 0.01402007
#
# Stress axis : x y z
#
# Youngs Moduli (GPa) = 59.04875 49.58257 58.85843
#
# Poissons Ratio (x) = 0.43342 0.33924
# Poissons Ratio (y) = 0.51616 0.32559
# Poissons Ratio (z) = 0.34034 0.27427
#
# Static dielectric constant tensor:
#      x y z
#    x 1.586470 0.000000 0.010860 
#    y 0.000000 1.591550 0.000000 
#    z 0.010860 0.000000 1.593060 
# 
# From -- ./inp_files/3752.got.cif
#   From: 2010.05.17/outbox.cif.g08.bks.cpg/sg6_2_cif.got.tgz:3752.got - 2010.06.03 19:42:10.
