data_PCOD9130297
_publ_section_title
;
Structure prediction by ZEFSAII (Michael W. Deem and Ramdas Pophale) SiO2 
 PCOD9130297
Probable space group: C 2
;
_chemical_formula_sum "Si O2"
_cell_formula_units_Z 24
_cell_length_a 22.559472
_cell_length_b 5.241701
_cell_length_c 8.848475
_cell_angle_alpha 90.000000
_cell_angle_beta 115.768286
_cell_angle_gamma 90.000000
_cell_volume 942.284472
_symmetry_space_group_name_H-M "C 2"
_symmetry_group_IT_number 5
_symmetry_cell_setting 'monoclinic'
loop_
_space_group_symop_operation_xyz
x,y,z
-x,y,-z
1/2+x,1/2+y,z
1/2-x,1/2+y,-z
loop_
_atom_site_type_symbol
_atom_site_label
_atom_site_fract_x
_atom_site_fract_y
_atom_site_fract_z
Si Si1 0.278734 0.744050 0.683845
Si Si2 0.519468 0.010175 0.780668
Si Si3 0.286916 0.432917 0.986021
Si Si4 0.898400 0.599863 0.824217
Si Si5 0.145245 0.978888 0.467869
Si Si6 0.425206 0.494133 0.301130
O O1 0.290242 0.520481 0.816764
O O2 0.200898 0.787525 0.595105
O O3 0.305425 0.689233 0.545254
O O4 0.328617 0.971032 0.782542
O O5 0.445830 0.951134 0.758029
O O6 0.527819 0.253725 0.681311
O O7 0.547752 0.757451 0.736051
O O8 0.560870 0.093292 0.975765
O O9 0.251098 0.166710 0.974911
O O10 0.358503 0.427391 0.137810
O O11 0.889272 0.858627 0.718234
O O12 0.096472 0.036937 0.549670
#
# Coordination Sequence:
#
# PCOD9130297 Si02
#       6
#     4   4   4   4   4   4
#     4  12  26  44  73 107 152 193 246 310 386 452
#     4  11  28  52  80 105 150 207 257 305 359 463
#     4  12  26  44  77 109 148 195 247 313 374 450
#     4  11  27  50  76 108 147 205 255 305 379 450
#     4  12  28  44  75 111 153 196 244 321 389 440
#     4  12  27  49  75 114 148 194 257 309 376 441
#
# _framework density 25.470015
#
# number of rings (size 3 to 8) (size 9 to 14) (size 15 to 20)
#    0.000    0.333    5.000    2.000    9.333    2.000 
#    0.000    0.000    0.000    0.000    0.000    0.000 
#    0.000    0.000    0.000    0.000    0.000    0.000 
#
# Total GULP energy -67220.807545 kJ/mol
# GULP energy per Si atom -5601.733962 kJ/mol
# Density = 2.541204 g / cm^3
# Si number density = 25.470015 Si / 1000 Ang^3
#
#
#
# Elastic Constant Matrix: (Units=GPa)
#
#
# Indices 1 2 3 4 5 6 
#
# 1 146.0258 72.3090 39.2829 0.0000 -40.9544 0.0000
# 2 72.3090 91.6851 40.0588 0.0000 -22.9270 0.0000
# 3 39.2829 40.0588 85.6312 0.0000 -20.2039 0.0000
# 4 0.0000 0.0000 0.0000 30.0431 0.0000 -22.8518
# 5 -40.9544 -22.9270 -20.2039 0.0000 61.4968 0.0000
# 6 0.0000 0.0000 0.0000 -22.8518 0.0000 55.5838
#
#
#
# Elastic Compliance Matrix: (Units=1/GPa)
#
#
# Indices 1 2 3 4 5 6 
#
# 1 0.012590 -0.008377 -0.000667 0.000000 0.005042 0.000000
# 2 -0.008377 0.019912 -0.005460 0.000000 0.000051 0.000000
# 3 -0.000667 -0.005460 0.015126 0.000000 0.002489 0.000000
# 4 0.000000 0.000000 0.000000 0.048430 0.000000 0.019911
# 5 0.005042 0.000051 0.002489 0.000000 0.020456 0.000000
# 6 0.000000 0.000000 0.000000 0.019911 0.000000 0.026177
#
#
# Mechanical properties :
#
#
# Convention : Reuss Voigt Hill
#
# Bulk Modulus (GPa) = 53.70789 69.62705 61.66747
# Shear Modulus (GPa) = 28.10511 40.87084 34.48798
#
# Velocity S-wave (km/s) = 3.32544 4.01017 3.68375
# Velocity P-wave (km/s) = 5.98976 6.98843 6.50828
#
# Compressibility (1/GPa) = 0.01861924
#
# Stress axis : x y z
#
# Youngs Moduli (GPa) = 79.43036 50.22181 66.11310
#
# Poissons Ratio (x) = 0.42069 0.04411
# Poissons Ratio (y) = 0.66537 0.36098
# Poissons Ratio (z) = 0.05299 0.27421
#
# Static dielectric constant tensor:
#      x y z
#    x 2.007130 0.000000 0.021560 
#    y 0.000000 2.041940 0.000000 
#    z 0.021560 0.000000 2.041010 
# 
# From -- ./inp_files/30327.got.cif
#   From: 2010.05.17/outbox.cif.g08.bks.cpg/sg5_16_cif.got.tgz:30327.got - 2010.06.03 18:56:24.
