data_PCOD9130231
_publ_section_title
;
Structure prediction by ZEFSAII (Michael W. Deem and Ramdas Pophale) SiO2 
 PCOD9130231
Probable space group: C 2
;
_chemical_formula_sum "Si O2"
_cell_formula_units_Z 22
_cell_length_a 23.478839
_cell_length_b 5.090761
_cell_length_c 11.687541
_cell_angle_alpha 90.000000
_cell_angle_beta 144.597454
_cell_angle_gamma 90.000000
_cell_volume 809.280435
_symmetry_space_group_name_H-M "C 2"
_symmetry_group_IT_number 5
_symmetry_cell_setting 'monoclinic'
loop_
_space_group_symop_operation_xyz
x,y,z
-x,y,-z
1/2+x,1/2+y,z
1/2-x,1/2+y,-z
loop_
_atom_site_type_symbol
_atom_site_label
_atom_site_fract_x
_atom_site_fract_y
_atom_site_fract_z
Si Si1 0.868816 0.466980 0.928129
Si Si2 0.316534 0.166263 0.279875
Si Si3 0.444571 0.448591 0.665440
Si Si4 0.259951 0.762975 0.439684
Si Si5 0.639756 0.350996 0.897962
Si Si6 0.000000 0.059737 0.000000
O O1 0.771548 0.313340 0.802254
O O2 0.830501 0.716567 0.792678
O O3 0.899227 0.598599 0.096486
O O4 0.930066 0.271605 0.950118
O O5 0.401043 0.219492 0.512741
O O6 0.251230 0.920130 0.123348
O O7 0.353913 0.303993 0.225733
O O8 0.360732 0.676008 0.541620
O O9 0.548582 0.541699 0.781339
O O10 0.462482 0.389964 0.829908
O O11 0.258131 0.049183 0.490111
#
# Coordination Sequence:
#
# PCOD9130231 Si02
#       6
#     4   4   4   4   4   2
#     4  11  26  44  75 107 157 214 260 340 410 496
#     4  11  25  52  76 113 156 213 276 339 414 488
#     4  11  27  45  79 114 162 211 272 336 417 507
#     4  11  26  46  70 113 163 212 269 333 418 510
#     4  12  25  50  82 111 159 211 279 345 417 496
#     4  12  24  50  72 124 162 214 276 334 426 516
#
# _framework density 27.184640999999999
#
# number of rings (size 3 to 8) (size 9 to 14) (size 15 to 20)
#    0.000    0.727    5.455    0.545   10.182    0.000 
#    3.273    0.000    0.000    0.000    0.000    0.000 
#    0.000    0.000    0.000    0.000    0.000    0.000 
#
# Total GULP energy -61468.855319 kJ/mol
# GULP energy per Si atom -5588.077756 kJ/mol
# Density = 2.712277 g / cm^3
# Si number density = 27.184641 Si / 1000 Ang^3
#
#
#
# Elastic Constant Matrix: (Units=GPa)
#
#
# Indices 1 2 3 4 5 6 
#
# 1 236.5744 49.2948 72.4204 0.0000 -11.5034 0.0000
# 2 49.2948 100.0890 47.6878 0.0003 -21.5458 0.0000
# 3 72.4204 47.6878 193.0282 0.0000 -18.8978 0.0000
# 4 0.0000 0.0003 0.0000 30.5403 0.0000 -2.3951
# 5 -11.5034 -21.5458 -18.8978 0.0000 58.7965 0.0000
# 6 0.0000 0.0000 0.0000 -2.3951 0.0000 29.6426
#
#
#
# Elastic Compliance Matrix: (Units=1/GPa)
#
#
# Indices 1 2 3 4 5 6 
#
# 1 0.005046 -0.001823 -0.001457 0.000000 -0.000149 0.000000
# 2 -0.001823 0.012662 -0.002091 0.000000 0.003611 0.000000
# 3 -0.001457 -0.002091 0.006340 0.000000 0.000987 0.000000
# 4 0.000000 0.000000 0.000000 0.032952 0.000000 0.002663
# 5 -0.000149 0.003611 0.000987 0.000000 0.018619 0.000000
# 6 0.000000 0.000000 0.000000 0.002663 0.000000 0.033950
#
#
# Mechanical properties :
#
#
# Convention : Reuss Voigt Hill
#
# Bulk Modulus (GPa) = 75.15001 96.49973 85.82487
# Shear Modulus (GPa) = 40.08081 47.81514 43.94797
#
# Velocity S-wave (km/s) = 3.84395 4.19848 4.02512
# Velocity P-wave (km/s) = 6.88517 7.68621 7.29669
#
# Compressibility (1/GPa) = 0.01330672
#
# Stress axis : x y z
#
# Youngs Moduli (GPa) = 198.18936 78.97355 157.71685
#
# Poissons Ratio (x) = 0.14395 0.22984
# Poissons Ratio (y) = 0.36126 0.32976
# Poissons Ratio (z) = 0.28883 0.16512
#
# Static dielectric constant tensor:
#      x y z
#    x 2.086290 0.000000 0.081880 
#    y 0.000000 2.229550 0.000000 
#    z 0.081880 0.000000 2.358950 
# 
# From -- ./inp_files/47005.got.cif
#   From: 2010.05.17/outbox.cif.g08.bks.cpg/sg5_24_cif.got.tgz:47005.got - 2010.06.03 18:56:24.
