data_PCOD9130221
_publ_section_title
;
Structure prediction by ZEFSAII (Michael W. Deem and Ramdas Pophale) SiO2 
 PCOD9130221
Probable space group: C 2
;
_chemical_formula_sum "Si O2"
_cell_formula_units_Z 16
_cell_length_a 13.198723
_cell_length_b 7.404269
_cell_length_c 16.067168
_cell_angle_alpha 90.000000
_cell_angle_beta 155.210507
_cell_angle_gamma 90.000000
_cell_volume 658.359930
_symmetry_space_group_name_H-M "C 2"
_symmetry_group_IT_number 5
_symmetry_cell_setting 'monoclinic'
loop_
_space_group_symop_operation_xyz
x,y,z
-x,y,-z
1/2+x,1/2+y,z
1/2-x,1/2+y,-z
loop_
_atom_site_type_symbol
_atom_site_label
_atom_site_fract_x
_atom_site_fract_y
_atom_site_fract_z
Si Si1 0.269533 0.272160 0.383892
Si Si2 0.750722 0.889913 0.028187
Si Si3 0.259190 0.871871 0.451145
Si Si4 0.249576 0.246428 0.859928
O O1 0.500000 0.315870 0.500000
O O2 0.267669 0.382536 0.468858
O O3 0.281752 0.063698 0.422284
O O4 0.011817 0.307243 0.147587
O O5 0.004749 0.786388 0.233122
O O6 0.776413 0.068793 0.102463
O O7 0.752260 0.908531 0.929270
O O8 0.512345 0.769583 0.626914
O O9 0.500000 0.241022 0.000000
#
# Coordination Sequence:
#
# PCOD9130221 Si02
#       4
#     4   4   4   4
#     4  11  28  47  75 105 143 189 234 291 356 414
#     4  11  25  50  70 109 142 184 239 293 342 430
#     4  11  25  50  70 109 142 184 239 293 342 430
#     4  11  28  47  75 105 143 189 234 291 356 414
#
# _framework density 24.302814999999999
#
# number of rings (size 3 to 8) (size 9 to 14) (size 15 to 20)
#    0.000    1.000    5.000    0.000   14.000    0.000 
#    0.000    2.500    0.000    0.000    0.000    0.000 
#    0.000    0.000    0.000    0.000    0.000    0.000 
#
# Total GULP energy -44714.868243 kJ/mol
# GULP energy per Si atom -5589.358530 kJ/mol
# Density = 2.424750 g / cm^3
# Si number density = 24.302815 Si / 1000 Ang^3
#
#
#
# Elastic Constant Matrix: (Units=GPa)
#
#
# Indices 1 2 3 4 5 6 
#
# 1 71.2517 -30.5823 19.1210 -0.0004 42.4317 0.0005
# 2 -30.5823 61.9067 11.6149 0.0016 -8.7871 0.0026
# 3 19.1210 11.6149 218.0739 0.0041 30.7451 0.0052
# 4 -0.0004 0.0016 0.0041 41.2623 0.0023 -1.5999
# 5 42.4317 -8.7871 30.7451 0.0023 50.8325 0.0014
# 6 0.0005 0.0026 0.0052 -1.5999 0.0014 31.3334
#
#
#
# Elastic Compliance Matrix: (Units=1/GPa)
#
#
# Indices 1 2 3 4 5 6 
#
# 1 0.037198 0.014319 0.000005 0.000001 -0.028578 0.000000
# 2 0.014319 0.022475 -0.001438 0.000000 -0.007198 -0.000002
# 3 0.000005 -0.001438 0.005135 0.000000 -0.003359 -0.000001
# 4 0.000001 0.000000 0.000000 0.024283 -0.000002 0.001240
# 5 -0.028578 -0.007198 -0.003359 -0.000002 0.044315 0.000000
# 6 0.000000 -0.000002 -0.000001 0.001240 0.000000 0.031978
#
#
# Mechanical properties :
#
#
# Convention : Reuss Voigt Hill
#
# Bulk Modulus (GPa) = 11.03991 39.05994 25.04993
# Shear Modulus (GPa) = 29.44524 48.09088 38.76806
#
# Velocity S-wave (km/s) = 3.48458 4.45322 3.99834
# Velocity P-wave (km/s) = 4.55436 6.52293 5.62543
#
# Compressibility (1/GPa) = 0.09058041
#
# Stress axis : x y z
#
# Youngs Moduli (GPa) = 26.88295 44.49381 194.73212
#
# Poissons Ratio (x) = -0.63710 -0.00095
# Poissons Ratio (y) = -0.38493 0.27998
# Poissons Ratio (z) = -0.00013 0.06397
#
# Static dielectric constant tensor:
#      x y z
#    x 1.894590 0.000000 -0.020790 
#    y 0.000000 2.032210 0.000000 
#    z -0.020790 0.000000 2.007780 
# 
# From -- ./inp_files/58489.got.cif
#   From: 2010.05.17/outbox.cif.g08.bks.cpg/sg5_30_cif.got.tgz:58489.got - 2010.06.03 18:56:24.
