data_PCOD9130781
_publ_section_title
;
Structure prediction by ZEFSAII (Michael W. Deem and Ramdas Pophale) SiO2 
 PCOD9130781
Probable space group: P M
;
_chemical_formula_sum "Si O2"
_cell_formula_units_Z 14
_cell_length_a 10.317221
_cell_length_b 11.586464
_cell_length_c 7.167434
_cell_angle_alpha 90.000000
_cell_angle_beta 42.298214
_cell_angle_gamma 90.000000
_cell_volume 576.614572
_symmetry_space_group_name_H-M "P M"
_symmetry_group_IT_number 6
_symmetry_cell_setting 'monoclinic'
loop_
_space_group_symop_operation_xyz
x,y,z
x,-y,z
loop_
_atom_site_type_symbol
_atom_site_label
_atom_site_fract_x
_atom_site_fract_y
_atom_site_fract_z
Si Si1 0.392820 0.124527 0.801650
Si Si2 0.761393 0.876269 0.154499
Si Si3 0.361311 0.625802 0.784146
Si Si4 0.524099 0.808652 0.062491
Si Si5 0.813852 0.627417 0.201406
Si Si6 0.844346 0.629192 0.598182
Si Si7 0.257707 0.624478 0.326401
O O1 0.608999 0.125203 0.487326
O O2 0.292262 0.241192 0.832710
O O3 0.304018 0.000000 0.848896
O O4 0.422189 0.132249 0.994410
O O5 0.627820 0.878274 0.112783
O O6 0.860674 0.749827 0.054963
O O7 0.869026 0.000000 0.047252
O O8 0.276932 0.500000 0.816354
O O9 0.581377 0.625574 0.476883
O O10 0.355538 0.620516 0.016579
O O11 0.363297 0.724786 0.322757
O O12 0.692635 0.726498 0.804847
O O13 0.863232 0.500000 0.067317
O O14 0.895378 0.632499 0.324952
O O15 0.766602 0.500000 0.717312
O O16 0.036450 0.643868 0.513083
O O17 0.284726 0.500000 0.386332
#
# Coordination Sequence:
#
# PCOD9130781 Si02
#       7
#     2   2   2   2   2   2   2
#     4   9  17  31  52  79 106 137 181 224 265 318
#     4  10  20  33  55  84 110 146 188 225 272 329
#     4   8  13  26  48  74 102 132 170 213 259 312
#     4  11  19  33  57  79 104 149 184 223 271 329
#     4   9  16  31  54  82 110 144 184 224 274 328
#     4  10  18  31  55  83 113 145 180 228 277 327
#     4   9  17  29  51  83 112 141 180 225 275 327
#
# _framework density 24.279651999999999
#
# number of rings (size 3 to 8) (size 9 to 14) (size 15 to 20)
#    0.000    2.571    4.286    0.857    0.000    1.143 
#    0.000    0.000    9.429   12.857    0.000    0.000 
#    0.000    0.000    0.000    0.000    0.000    0.000 
#
# Total GULP energy -78060.873912 kJ/mol
# GULP energy per Si atom -5575.776708 kJ/mol
# Density = 2.422439 g / cm^3
# Si number density = 24.279652 Si / 1000 Ang^3
#
#
#
# Elastic Constant Matrix: (Units=GPa)
#
#
# Indices 1 2 3 4 5 6 
#
# 1 68.9627 41.4030 28.1417 0.0000 12.6114 0.0000
# 2 41.4030 272.0893 17.4003 0.0000 -4.0682 0.0000
# 3 28.1417 17.4003 30.7718 0.0000 2.5763 0.0000
# 4 0.0000 0.0000 0.0000 -29.8319 0.0000 5.3023
# 5 12.6114 -4.0682 2.5763 0.0000 34.3878 0.0000
# 6 0.0000 0.0000 0.0000 5.3023 0.0000 18.1765
#
#
#
# Elastic Compliance Matrix: (Units=1/GPa)
#
#
# Indices 1 2 3 4 5 6 
#
# 1 0.026789 -0.002783 -0.022215 0.000000 -0.008489 0.000000
# 2 -0.002783 0.004115 0.000092 0.000000 0.001500 0.000000
# 3 -0.022215 0.000092 0.052407 0.000000 0.004232 0.000000
# 4 0.000000 0.000000 0.000000 -0.031869 0.000000 0.009296
# 5 -0.008489 0.001500 0.004232 0.000000 0.032054 0.000000
# 6 0.000000 0.000000 0.000000 0.009296 0.000000 0.052304
#
#
# Mechanical properties :
#
#
# Convention : Reuss Voigt Hill
#
# Bulk Modulus (GPa) = 29.85045 60.63487 45.24266
# Shear Modulus (GPa) = 25.40920 23.53840 24.47380
#
# Velocity S-wave (km/s) = 3.23851 3.11701 3.17834
# Velocity P-wave (km/s) = 5.12884 6.16296 5.66953
#
# Compressibility (1/GPa) = 0.03350033
#
# Stress axis : x y z
#
# Youngs Moduli (GPa) = 37.32856 242.99956 19.08131
#
# Poissons Ratio (x) = 0.67619 0.42390
# Poissons Ratio (y) = 0.10387 -0.00176
# Poissons Ratio (z) = 0.82926 -0.02241
#
# Static dielectric constant tensor:
#      x y z
#    x 1.913180 0.000000 0.032220 
#    y 0.000000 2.078110 0.000000 
#    z 0.032220 0.000000 1.923430 
# 
# From -- ./inp_files/2836.got.cif
#   From: 2010.05.17/outbox.cif.g08.bks.cpg/sg6_2_cif.got.tgz:2836.got - 2010.06.03 19:42:10.
