data_PCOD9130227
_publ_section_title
;
Structure prediction by ZEFSAII (Michael W. Deem and Ramdas Pophale) SiO2 
 PCOD9130227
Probable space group: C 2
;
_chemical_formula_sum "Si O2"
_cell_formula_units_Z 22
_cell_length_a 6.723427
_cell_length_b 21.160462
_cell_length_c 7.548504
_cell_angle_alpha 90.000000
_cell_angle_beta 115.852841
_cell_angle_gamma 90.000000
_cell_volume 966.449539
_symmetry_space_group_name_H-M "C 2"
_symmetry_group_IT_number 5
_symmetry_cell_setting 'monoclinic'
loop_
_space_group_symop_operation_xyz
x,y,z
-x,y,-z
1/2+x,1/2+y,z
1/2-x,1/2+y,-z
loop_
_atom_site_type_symbol
_atom_site_label
_atom_site_fract_x
_atom_site_fract_y
_atom_site_fract_z
Si Si1 0.801942 0.141350 0.282459
Si Si2 0.202781 0.015686 0.853299
Si Si3 0.505874 0.389353 0.713420
Si Si4 0.543291 0.246890 0.726417
Si Si5 0.500000 0.689305 0.000000
Si Si6 0.711781 0.997520 0.704773
O O1 0.701738 0.070575 0.233112
O O2 0.618463 0.194776 0.249925
O O3 0.000000 0.148029 0.500000
O O4 0.899753 0.151028 0.124337
O O5 0.715938 0.016468 0.912646
O O6 0.205146 0.940354 0.815855
O O7 0.938964 0.029042 0.724330
O O8 0.500000 0.384902 0.500000
O O9 0.514425 0.318227 0.784848
O O10 0.291413 0.424377 0.713090
O O11 0.500000 0.245095 0.500000
O O12 0.796683 0.229505 0.851335
O O13 0.500000 0.009388 0.500000
#
# Coordination Sequence:
#
# PCOD9130227 Si02
#       6
#     4   4   4   4   2   4
#     4  12  25  48  77 105 155 195 249 315 373 447
#     4   9  21  43  65 103 141 182 237 301 371 436
#     4   9  20  43  70 100 146 182 247 305 363 442
#     4  11  25  51  72 108 151 203 249 309 372 456
#     4  12  26  48  76 108 144 208 244 302 382 454
#     4   9  19  41  68 103 140 187 236 314 364 441
#
# _framework density 22.763729999999999
#
# number of rings (size 3 to 8) (size 9 to 14) (size 15 to 20)
#    1.091    0.727    1.818    2.182    0.000    3.636 
#   16.364    0.000    0.000    0.000    0.000    0.000 
#    0.000    0.000    0.000    0.000    0.000    0.000 
#
# Total GULP energy -61325.565062 kJ/mol
# GULP energy per Si atom -5575.051369 kJ/mol
# Density = 2.271192 g / cm^3
# Si number density = 22.763730 Si / 1000 Ang^3
#
#
#
# Elastic Constant Matrix: (Units=GPa)
#
#
# Indices 1 2 3 4 5 6 
#
# 1 90.0691 75.3533 45.7729 0.0000 21.3830 0.0000
# 2 75.3533 181.5304 59.4072 0.0000 10.6231 0.0000
# 3 45.7729 59.4072 118.8078 0.0000 19.6162 0.0000
# 4 0.0000 0.0000 0.0000 44.5228 0.0000 10.6841
# 5 21.3830 10.6231 19.6162 0.0000 47.1745 0.0000
# 6 0.0000 0.0000 0.0000 10.6841 0.0000 38.9406
#
#
#
# Elastic Compliance Matrix: (Units=1/GPa)
#
#
# Indices 1 2 3 4 5 6 
#
# 1 0.019949 -0.006861 -0.003240 0.000000 -0.006150 0.000000
# 2 -0.006861 0.008947 -0.002159 0.000000 0.001993 0.000000
# 3 -0.003240 -0.002159 0.011190 0.000000 -0.002698 0.000000
# 4 0.000000 0.000000 0.000000 0.024043 0.000000 -0.006597
# 5 -0.006150 0.001993 -0.002698 0.000000 0.024659 0.000000
# 6 0.000000 0.000000 0.000000 -0.006597 0.000000 0.027490
#
#
# Mechanical properties :
#
#
# Convention : Reuss Voigt Hill
#
# Bulk Modulus (GPa) = 64.24110 83.49709 73.86910
# Shear Modulus (GPa) = 34.24970 40.11916 37.18443
#
# Velocity S-wave (km/s) = 3.88309 4.20267 4.04604
# Velocity P-wave (km/s) = 6.95605 7.76591 7.37211
#
# Compressibility (1/GPa) = 0.01556636
#
# Stress axis : x y z
#
# Youngs Moduli (GPa) = 50.12826 111.77380 89.36209
#
# Poissons Ratio (x) = 0.76684 0.28950
# Poissons Ratio (y) = 0.34391 0.19297
# Poissons Ratio (z) = 0.16240 0.24137
#
# Static dielectric constant tensor:
#      x y z
#    x 1.865070 0.000000 -0.006970 
#    y 0.000000 1.956400 0.000000 
#    z -0.006970 0.000000 1.818370 
# 
# From -- ./inp_files/12711.got.cif
#   From: 2010.05.17/outbox.cif.g08.bks.cpg/sg5_7_cif.got.tgz:12711.got - 2010.06.03 18:56:24.
