data_PCOD9130161
_publ_section_title
;
Structure prediction by ZEFSAII (Michael W. Deem and Ramdas Pophale) SiO2 
 PCOD9130161
Probable space group: C 2
;
_chemical_formula_sum "Si O2"
_cell_formula_units_Z 18
_cell_length_a 14.731818
_cell_length_b 6.831875
_cell_length_c 7.380031
_cell_angle_alpha 90.000000
_cell_angle_beta 77.974314
_cell_angle_gamma 90.000000
_cell_volume 726.469536
_symmetry_space_group_name_H-M "C 2"
_symmetry_group_IT_number 5
_symmetry_cell_setting 'monoclinic'
loop_
_space_group_symop_operation_xyz
x,y,z
-x,y,-z
1/2+x,1/2+y,z
1/2-x,1/2+y,-z
loop_
_atom_site_type_symbol
_atom_site_label
_atom_site_fract_x
_atom_site_fract_y
_atom_site_fract_z
Si Si1 0.944400 0.350920 0.797818
Si Si2 0.355985 0.500674 0.042134
Si Si3 0.000000 0.703407 0.000000
Si Si4 0.864185 0.445488 0.475454
Si Si5 0.789201 0.775753 0.708990
O O1 0.916385 0.181121 0.943671
O O2 0.939113 0.558161 0.902654
O O3 0.876256 0.325989 0.656236
O O4 0.048399 0.371050 0.677518
O O5 0.423494 0.348302 0.116944
O O6 0.318671 0.392873 0.876185
O O7 0.275923 0.596247 0.194996
O O8 0.866132 0.668024 0.551720
O O9 0.773716 0.409421 0.394704
#
# Coordination Sequence:
#
# PCOD9130161 Si02
#       5
#     4   4   2   4   4
#     4  11  25  49  71 108 152 205 248 305 373 462
#     4  12  27  48  77 112 151 205 252 307 378 462
#     4  12  24  46  76 106 152 204 250 290 374 484
#     4  11  25  46  71 109 154 187 252 312 377 437
#     4  12  26  46  79 113 152 195 254 319 380 437
#
# _framework density 24.777363000000001
#
# number of rings (size 3 to 8) (size 9 to 14) (size 15 to 20)
#    0.000    0.444    2.222    6.000    6.222    0.000 
#    8.000    0.000    0.000    0.000    0.000    0.000 
#    0.000    0.000    0.000    0.000    0.000    0.000 
#
# Total GULP energy -50317.530657 kJ/mol
# GULP energy per Si atom -5590.836740 kJ/mol
# Density = 2.472097 g / cm^3
# Si number density = 24.777363 Si / 1000 Ang^3
#
#
#
# Elastic Constant Matrix: (Units=GPa)
#
#
# Indices 1 2 3 4 5 6 
#
# 1 75.0799 34.5952 27.2512 0.0000 5.8857 0.0000
# 2 34.5952 111.6769 40.9251 0.0000 -12.2381 0.0000
# 3 27.2512 40.9251 100.3054 0.0000 3.8042 0.0000
# 4 0.0000 0.0000 0.0000 42.6489 0.0000 -1.9062
# 5 5.8857 -12.2381 3.8042 0.0000 43.1387 0.0000
# 6 0.0000 0.0000 0.0000 -1.9062 0.0000 45.5892
#
#
#
# Elastic Compliance Matrix: (Units=1/GPa)
#
#
# Indices 1 2 3 4 5 6 
#
# 1 0.016609 -0.004591 -0.002512 0.000000 -0.003347 0.000000
# 2 -0.004591 0.012312 -0.003945 0.000000 0.004467 0.000000
# 3 -0.002512 -0.003945 0.012333 0.000000 -0.001864 0.000000
# 4 0.000000 0.000000 0.000000 0.023491 0.000000 0.000982
# 5 -0.003347 0.004467 -0.001864 0.000000 0.025069 0.000000
# 6 0.000000 0.000000 0.000000 0.000982 0.000000 0.021976
#
#
# Mechanical properties :
#
#
# Convention : Reuss Voigt Hill
#
# Bulk Modulus (GPa) = 52.20357 54.73389 53.46873
# Shear Modulus (GPa) = 35.64476 38.56141 37.10309
#
# Velocity S-wave (km/s) = 3.79701 3.94930 3.87390
# Velocity P-wave (km/s) = 6.35120 6.55242 6.45259
#
# Compressibility (1/GPa) = 0.01915578
#
# Stress axis : x y z
#
# Youngs Moduli (GPa) = 60.20862 81.22111 81.08653
#
# Poissons Ratio (x) = 0.37291 0.20370
# Poissons Ratio (y) = 0.27644 0.31992
# Poissons Ratio (z) = 0.15125 0.32045
#
# Static dielectric constant tensor:
#      x y z
#    x 2.031900 0.000000 0.018700 
#    y 0.000000 1.959520 0.000000 
#    z 0.018700 0.000000 1.950550 
# 
# From -- ./inp_files/25997.got.cif
#   From: 2010.05.17/outbox.cif.g08.bks.cpg/sg5_13_cif.got.tgz:25997.got - 2010.06.03 18:56:24.
