data_PCOD9130852
_publ_section_title
;
Structure prediction by ZEFSAII (Michael W. Deem and Ramdas Pophale) SiO2 
 PCOD9130852
Probable space group: P M
;
_chemical_formula_sum "Si O2"
_cell_formula_units_Z 16
_cell_length_a 12.560971
_cell_length_b 8.823666
_cell_length_c 10.373593
_cell_angle_alpha 90.000000
_cell_angle_beta 126.382408
_cell_angle_gamma 90.000000
_cell_volume 925.631952
_symmetry_space_group_name_H-M "P M"
_symmetry_group_IT_number 6
_symmetry_cell_setting 'monoclinic'
loop_
_space_group_symop_operation_xyz
x,y,z
x,-y,z
loop_
_atom_site_type_symbol
_atom_site_label
_atom_site_fract_x
_atom_site_fract_y
_atom_site_fract_z
Si Si1 0.125000 0.683528 0.777600
Si Si2 0.597455 0.318333 0.941658
Si Si3 0.361745 0.182027 0.441960
Si Si4 0.608915 0.683152 0.241639
Si Si5 0.663025 0.181074 0.724709
Si Si6 0.823506 0.682684 0.610262
Si Si7 0.328589 0.182125 0.127191
Si Si8 0.294366 0.318307 0.656632
O O1 0.132643 0.500000 0.788225
O O2 0.187306 0.731060 0.685100
O O3 0.973057 0.729013 0.686200
O O4 0.216273 0.750038 0.955482
O O5 0.608979 0.500000 0.935583
O O6 0.672099 0.239655 0.877406
O O7 0.441387 0.279281 0.814859
O O8 0.641190 0.276233 0.116915
O O9 0.516021 0.228412 0.569591
O O10 0.312820 0.228147 0.265685
O O11 0.283803 0.248766 0.507249
O O12 0.358055 0.000000 0.446860
O O13 0.593114 0.500000 0.234415
O O14 0.722761 0.727285 0.423757
O O15 0.470754 0.757668 0.182452
O O16 0.769594 0.249683 0.704501
O O17 0.669448 0.000000 0.726373
O O18 0.820541 0.500000 0.616692
O O19 0.327344 0.000000 0.119553
O O20 0.288551 0.500000 0.641804
#
# Coordination Sequence:
#
# PCOD9130852 Si02
#       8
#     2   2   2   2   2   2   2   2
#     4  10  21  38  55  79 111 142 180 222 266 320
#     4   9  17  31  52  78 106 137 177 223 267 313
#     4   9  19  33  50  77 109 138 173 220 264 312
#     4  10  19  34  56  82 108 138 178 226 269 312
#     4  10  19  33  52  77 111 144 176 218 266 316
#     4  10  21  36  57  80 108 145 180 218 268 322
#     4  11  21  34  54  81 109 141 180 223 267 316
#     4   9  17  31  52  76 104 139 176 218 265 313
#
# _framework density 17.285488999999998
#
# number of rings (size 3 to 8) (size 9 to 14) (size 15 to 20)
#    0.000    2.250    2.500    0.750    0.000    3.000 
#    0.000    1.250    0.000    3.000    0.000    0.000 
#    0.000    0.000    0.000    0.000    0.000    0.000 
#
# Total GULP energy -89263.538861 kJ/mol
# GULP energy per Si atom -5578.971179 kJ/mol
# Density = 1.724615 g / cm^3
# Si number density = 17.285489 Si / 1000 Ang^3
#
#
#
# Elastic Constant Matrix: (Units=GPa)
#
#
# Indices 1 2 3 4 5 6 
#
# 1 153.6368 35.9999 89.0931 0.0000 -20.9714 0.0000
# 2 35.9999 11.7933 30.9309 0.0000 -4.2184 0.0000
# 3 89.0931 30.9309 124.0324 0.0000 -20.2549 0.0000
# 4 0.0000 0.0000 0.0000 19.0567 0.0000 -2.4364
# 5 -20.9714 -4.2184 -20.2549 0.0000 34.2362 0.0000
# 6 0.0000 0.0000 0.0000 -2.4364 0.0000 -10.9739
#
#
#
# Elastic Compliance Matrix: (Units=1/GPa)
#
#
# Indices 1 2 3 4 5 6 
#
# 1 0.024808 -0.085324 0.004675 0.000000 0.007448 0.000000
# 2 -0.085324 0.539931 -0.078626 0.000000 -0.032254 0.000000
# 3 0.004675 -0.078626 0.025678 0.000000 0.008368 0.000000
# 4 0.000000 0.000000 0.000000 0.051026 0.000000 -0.011329
# 5 0.007448 -0.032254 0.008368 0.000000 0.034748 0.000000
# 6 0.000000 0.000000 0.000000 -0.011329 0.000000 -0.088610
#
#
# Mechanical properties :
#
#
# Convention : Reuss Voigt Hill
#
# Bulk Modulus (GPa) = 3.67826 66.83448 35.25637
# Shear Modulus (GPa) = 5.01629 17.35971 11.18800
#
# Velocity S-wave (km/s) = 1.70538 3.17250 2.54687
# Velocity P-wave (km/s) = 2.45160 7.22279 5.39347
#
# Compressibility (1/GPa) = 0.27186781
#
# Stress axis : x y z
#
# Youngs Moduli (GPa) = 40.31036 1.85209 38.94322
#
# Poissons Ratio (x) = 0.15803 -0.18205
# Poissons Ratio (y) = 3.43942 3.06193
# Poissons Ratio (z) = -0.18844 0.14562
#
# Static dielectric constant tensor:
#      x y z
#    x 1.569130 0.000000 -0.009480 
#    y 0.000000 1.577610 0.000000 
#    z -0.009480 0.000000 1.580810 
# 
# From -- ./inp_files/3485.got.cif
#   From: 2010.05.17/outbox.cif.g08.bks.cpg/sg6_2_cif.got.tgz:3485.got - 2010.06.03 19:42:10.
