data_PCOD9130704
_publ_section_title
;
Structure prediction by ZEFSAII (Michael W. Deem and Ramdas Pophale) SiO2 
 PCOD9130704
Probable space group: C 2
;
_chemical_formula_sum "Si O2"
_cell_formula_units_Z 16
_cell_length_a 9.000000
_cell_length_b 24.000000
_cell_length_c 15.000000
_cell_angle_alpha 90.000000
_cell_angle_beta 150.000000
_cell_angle_gamma 90.000000
_cell_volume 1620.000000
_symmetry_space_group_name_H-M "C 2"
_symmetry_group_IT_number 5
_symmetry_cell_setting 'monoclinic'
loop_
_space_group_symop_operation_xyz
x,y,z
-x,y,-z
1/2+x,1/2+y,z
1/2-x,1/2+y,-z
loop_
_atom_site_type_symbol
_atom_site_label
_atom_site_fract_x
_atom_site_fract_y
_atom_site_fract_z
Si Si1 0.188484 0.916490 0.009677
Si Si2 0.762058 0.650040 0.454690
Si Si3 0.362219 0.829601 0.827977
Si Si4 0.519067 0.028023 0.207692
Si Si5 0.347896 0.155082 0.153833
Si Si6 0.632547 0.519509 0.427357
Si Si7 0.203593 0.227243 0.901807
Si Si8 0.331997 0.396585 0.643052
O O1 0.486199 0.880075 0.148996
O O2 0.272317 0.981859 0.058199
O O3 0.000000 0.902167 0.000000
O O4 0.006460 0.902489 0.826541
O O5 0.687450 0.582973 0.418696
O O6 0.486793 0.687920 0.269064
O O7 0.000000 0.657473 0.500000
O O8 0.925677 0.664122 0.639317
O O9 0.476008 0.774602 0.828400
O O10 0.026033 0.854013 0.679253
O O11 0.500000 0.821930 0.000000
O O12 0.417040 0.092121 0.157285
O O13 0.655595 0.015801 0.376084
O O14 0.789835 0.020439 0.279848
O O15 0.342944 0.194753 0.062120
O O16 0.000000 0.157315 0.000000
O O17 0.683499 0.460801 0.402304
O O18 0.500000 0.247736 0.000000
O O19 0.000000 0.377715 0.500000
#
# Coordination Sequence:
#
# PCOD9130704 Si02
#       8
#     4   4   4   4   4   4   4   4
#     4  11  22  40  67 100 140 183 239 283 364 437
#     4  11  24  43  69 113 143 193 247 300 373 453
#     4  10  24  47  72  98 141 188 242 309 357 429
#     4  10  21  37  65 105 141 190 225 290 374 432
#     4  11  23  43  72 104 152 189 246 312 365 436
#     4  10  21  39  64 104 152 177 229 301 360 446
#     4  12  26  47  78 105 144 202 250 306 377 430
#     4  11  23  42  71 103 140 187 234 303 365 429
#
# _framework density 9.8765429999999999
#
# number of rings (size 3 to 8) (size 9 to 14) (size 15 to 20)
#    0.000    1.250    2.500    3.000    1.750    3.500 
#    0.000    5.000    0.000    0.000    0.000    0.000 
#    0.000    0.000    0.000    0.000    0.000    0.000 
#
# Total GULP energy -89089.458346 kJ/mol
# GULP energy per Si atom -5568.091147 kJ/mol
# Density = 0.985406 g / cm^3
# Si number density = 9.876543 Si / 1000 Ang^3
#
#
#
# Elastic Constant Matrix: (Units=GPa)
#
#
# Indices 1 2 3 4 5 6 
#
# 1 134.7027 41.7601 38.4582 0.0000 17.7970 0.0001
# 2 41.7601 105.9281 29.5616 0.0000 2.5209 0.0000
# 3 38.4582 29.5616 90.6335 -0.0001 8.4551 0.0001
# 4 0.0000 0.0000 -0.0001 30.0417 0.0000 1.4580
# 5 17.7970 2.5209 8.4551 0.0000 39.7557 0.0001
# 6 0.0001 0.0000 0.0001 1.4580 0.0001 51.5993
#
#
#
# Elastic Compliance Matrix: (Units=1/GPa)
#
#
# Indices 1 2 3 4 5 6 
#
# 1 0.009589 -0.002918 -0.002789 0.000000 -0.003514 0.000000
# 2 -0.002918 0.011274 -0.002545 0.000000 0.001133 0.000000
# 3 -0.002789 -0.002545 0.013177 0.000000 -0.001392 0.000000
# 4 0.000000 0.000000 0.000000 0.033333 0.000000 -0.000942
# 5 -0.003514 0.001133 -0.001392 0.000000 0.026951 0.000000
# 6 0.000000 0.000000 0.000000 -0.000942 0.000000 0.019407
#
#
# Mechanical properties :
#
#
# Convention : Reuss Voigt Hill
#
# Bulk Modulus (GPa) = 57.02613 61.20269 59.11441
# Shear Modulus (GPa) = 36.74305 39.04495 37.89400
#
# Velocity S-wave (km/s) = 4.31759 4.45078 4.38469
# Velocity P-wave (km/s) = 7.33400 7.58048 7.45826
#
# Compressibility (1/GPa) = 0.01753582
#
# Stress axis : x y z
#
# Youngs Moduli (GPa) = 104.28460 88.69961 75.89074
#
# Poissons Ratio (x) = 0.25885 0.21168
# Poissons Ratio (y) = 0.30433 0.19311
# Poissons Ratio (z) = 0.29087 0.22570
#
# Static dielectric constant tensor:
#      x y z
#    x 1.721390 0.000000 0.015380 
#    y 0.000000 1.730130 0.000000 
#    z 0.015380 0.000000 1.734730 
# 
# From -- ./inp_files/51714.got.cif
#   From: 2010.05.17/outbox.ucp.g08.bks.cvg/sg5_26_cif.got.tgz:51714.got - 2010.06.11 12:53:14.
