data_PCOD9130661
_publ_section_title
;
Structure prediction by ZEFSAII (Michael W. Deem and Ramdas Pophale) SiO2 
 PCOD9130661
Probable space group: C 2
;
_chemical_formula_sum "Si O2"
_cell_formula_units_Z 13
_cell_length_a 15.000000
_cell_length_b 9.000000
_cell_length_c 21.000000
_cell_angle_alpha 90.000000
_cell_angle_beta 150.000000
_cell_angle_gamma 90.000000
_cell_volume 1417.500000
_symmetry_space_group_name_H-M "C 2"
_symmetry_group_IT_number 5
_symmetry_cell_setting 'monoclinic'
loop_
_space_group_symop_operation_xyz
x,y,z
-x,y,-z
1/2+x,1/2+y,z
1/2-x,1/2+y,-z
loop_
_atom_site_type_symbol
_atom_site_label
_atom_site_fract_x
_atom_site_fract_y
_atom_site_fract_z
Si Si1 0.679447 0.152190 0.787447
Si Si2 0.207130 0.406803 0.709777
Si Si3 0.500000 0.863846 0.000000
Si Si4 0.641611 0.047276 0.332034
Si Si5 0.440543 0.413582 0.590651
Si Si6 0.784952 0.379829 0.433102
Si Si7 0.799886 0.573109 0.778300
O O1 0.830748 0.257842 0.911271
O O2 0.554074 0.062090 0.758724
O O3 0.541366 0.257785 0.663222
O O4 0.767593 0.039583 0.792229
O O5 0.242067 0.428989 0.656338
O O6 0.294643 0.250568 0.783911
O O7 0.990403 0.400185 0.580026
O O8 0.424705 0.974514 0.900042
O O9 0.740056 0.204233 0.408272
O O10 0.640106 0.038704 0.255866
O O11 0.769855 0.919715 0.439118
O O12 0.353041 0.456719 0.604316
O O13 0.595732 0.520998 0.662364
#
# Coordination Sequence:
#
# PCOD9130661 Si02
#       7
#     4   4   2   4   4   4   4
#     4  10  22  38  59  84 127 147 193 245 287 339
#     4  10  18  35  56  87 112 155 184 238 287 350
#     4  10  24  46  52  80 114 164 204 244 274 336
#     4  10  18  36  60  89 112 154 187 242 295 348
#     4  10  18  34  57  90 123 147 178 245 296 353
#     4   9  18  31  55  87 126 138 186 227 299 356
#     4  10  21  38  63  79 114 160 201 231 285 347
#
# _framework density 9.1710759999999993
#
# number of rings (size 3 to 8) (size 9 to 14) (size 15 to 20)
#    0.000    2.154    3.077    0.462    0.000    0.615 
#   11.077    7.692    0.000    0.000    0.000    0.000 
#    0.000    0.000    0.000    0.000    0.000    0.000 
#
# Total GULP energy -72450.766159 kJ/mol
# GULP energy per Si atom -5573.135858 kJ/mol
# Density = 0.915020 g / cm^3
# Si number density = 9.171076 Si / 1000 Ang^3
#
#
#
# Elastic Constant Matrix: (Units=GPa)
#
#
# Indices 1 2 3 4 5 6 
#
# 1 82.0356 44.0937 27.8578 0.0000 -0.4066 0.0000
# 2 44.0937 55.6809 39.1873 0.0000 -4.8239 0.0000
# 3 27.8578 39.1873 87.6789 0.0001 3.0785 0.0000
# 4 0.0000 0.0000 0.0001 28.0070 0.0000 -0.2396
# 5 -0.4066 -4.8239 3.0785 0.0000 9.5409 0.0000
# 6 0.0000 0.0000 0.0000 -0.2396 0.0000 20.4613
#
#
#
# Elastic Compliance Matrix: (Units=1/GPa)
#
#
# Indices 1 2 3 4 5 6 
#
# 1 0.022087 -0.019911 0.002227 0.000000 -0.009844 0.000000
# 2 -0.019911 0.047282 -0.015795 0.000000 0.028154 0.000000
# 3 0.002227 -0.015795 0.018241 0.000000 -0.013776 0.000000
# 4 0.000000 0.000000 0.000000 0.035709 0.000000 0.000418
# 5 -0.009844 0.028154 -0.013776 0.000000 0.123072 0.000000
# 6 0.000000 0.000000 0.000000 0.000418 0.000000 0.048878
#
#
# Mechanical properties :
#
#
# Convention : Reuss Voigt Hill
#
# Bulk Modulus (GPa) = 48.41978 49.74145 49.08061
# Shear Modulus (GPa) = 13.54615 19.21894 16.38254
#
# Velocity S-wave (km/s) = 2.72053 3.24049 2.99183
# Velocity P-wave (km/s) = 6.02692 6.41705 6.22504
#
# Compressibility (1/GPa) = 0.02065272
#
# Stress axis : x y z
#
# Youngs Moduli (GPa) = 45.27618 21.14978 54.82273
#
# Poissons Ratio (x) = 0.42111 -0.12209
# Poissons Ratio (y) = 0.90148 0.86590
# Poissons Ratio (z) = -0.10083 0.33405
#
# Static dielectric constant tensor:
#      x y z
#    x 1.641240 0.000000 -0.010400 
#    y 0.000000 1.647410 0.000000 
#    z -0.010400 0.000000 1.615450 
# 
# From -- ./inp_files/29083.got.cif
#   From: 2010.05.17/outbox.ucp.g08.bks.cvg/sg5_15_cif.got.tgz:29083.got - 2010.06.11 12:53:14.
