data_PCOD9130472
_publ_section_title
;
Structure prediction by ZEFSAII (Michael W. Deem and Ramdas Pophale) SiO2 
 PCOD9130472
Probable space group: C 2
;
_chemical_formula_sum "Si O2"
_cell_formula_units_Z 24
_cell_length_a 19.101849
_cell_length_b 5.794210
_cell_length_c 10.273450
_cell_angle_alpha 90.000000
_cell_angle_beta 113.385847
_cell_angle_gamma 90.000000
_cell_volume 1043.659763
_symmetry_space_group_name_H-M "C 2"
_symmetry_group_IT_number 5
_symmetry_cell_setting 'monoclinic'
loop_
_space_group_symop_operation_xyz
x,y,z
-x,y,-z
1/2+x,1/2+y,z
1/2-x,1/2+y,-z
loop_
_atom_site_type_symbol
_atom_site_label
_atom_site_fract_x
_atom_site_fract_y
_atom_site_fract_z
Si Si1 0.700170 0.122720 0.283133
Si Si2 0.281837 0.050603 0.988922
Si Si3 0.500000 0.009198 0.500000
Si Si4 0.353467 0.794260 0.523357
Si Si5 0.000000 0.352983 0.000000
Si Si6 0.550668 0.190533 0.811402
Si Si7 0.079802 0.998651 0.207624
O O1 0.716912 0.988173 0.163545
O O2 0.778256 0.243299 0.385505
O O3 0.632660 0.296938 0.194037
O O4 0.669221 0.983734 0.384805
O O5 0.232751 0.294390 0.959034
O O6 0.360112 0.154111 0.105947
O O7 0.525180 0.151612 0.644893
O O8 0.425765 0.867246 0.491002
O O9 0.380174 0.578588 0.630282
O O10 0.983159 0.500289 0.115058
O O11 0.071109 0.198296 0.096306
O O12 0.506525 0.419141 0.825591
#
# Coordination Sequence:
#
# PCOD9130472 Si02
#       7
#     4   4   2   4   2   4   4
#     4  12  26  50  78 114 154 216 268 331 410 494
#     4  12  31  51  78 115 163 215 270 341 409 490
#     4  12  26  50  72 124 152 204 262 346 406 472
#     4  12  26  47  79 111 162 200 269 335 408 482
#     4  12  24  48  76 108 148 204 266 330 398 490
#     4  12  27  48  76 109 158 200 268 334 403 479
#     4  12  24  45  81 108 147 209 264 328 396 492
#
# _framework density 22.996002000000001
#
# number of rings (size 3 to 8) (size 9 to 14) (size 15 to 20)
#    0.000    0.000    5.000    4.500    7.000    4.667 
#    0.000    0.000    0.000    0.000    0.000    0.000 
#    0.000    0.000    0.000    0.000    0.000    0.000 
#
# Total GULP energy -67071.423761 kJ/mol
# GULP energy per Si atom -5589.285313 kJ/mol
# Density = 2.294366 g / cm^3
# Si number density = 22.996002 Si / 1000 Ang^3
#
#
#
# Elastic Constant Matrix: (Units=GPa)
#
#
# Indices 1 2 3 4 5 6 
#
# 1 117.4209 27.6153 29.6727 0.0000 4.9102 0.0000
# 2 27.6153 61.4662 9.4948 0.0000 -9.1992 0.0000
# 3 29.6727 9.4948 128.6980 0.0000 -8.9741 0.0000
# 4 0.0000 0.0000 0.0000 6.8225 0.0000 34.4757
# 5 4.9102 -9.1992 -8.9741 0.0000 48.8794 0.0000
# 6 0.0000 0.0000 0.0000 34.4757 0.0000 18.9243
#
#
#
# Elastic Compliance Matrix: (Units=1/GPa)
#
#
# Indices 1 2 3 4 5 6 
#
# 1 0.010249 -0.004611 -0.002183 0.000000 -0.002298 0.000000
# 2 -0.004611 0.018951 -0.000055 0.000000 0.004020 0.000000
# 3 -0.002183 -0.000055 0.008400 0.000000 0.001751 0.000000
# 4 0.000000 0.000000 0.000000 -0.017862 0.000000 0.032541
# 5 -0.002298 0.004020 0.001751 0.000000 0.021767 0.000000
# 6 0.000000 0.000000 0.000000 0.032541 0.000000 -0.006440
#
#
# Mechanical properties :
#
#
# Convention : Reuss Voigt Hill
#
# Bulk Modulus (GPa) = 41.83859 49.01675 45.42767
# Shear Modulus (GPa) = 88.13765 30.97873 59.55819
#
# Velocity S-wave (km/s) = 6.19763 3.67432 5.09466
# Velocity P-wave (km/s) = 8.33351 6.27395 7.37597
#
# Compressibility (1/GPa) = 0.02390138
#
# Stress axis : x y z
#
# Youngs Moduli (GPa) = 97.57438 52.76801 119.05363
#
# Poissons Ratio (x) = 0.24332 0.25989
# Poissons Ratio (y) = 0.44993 0.00651
# Poissons Ratio (z) = 0.21300 0.00288
#
# Static dielectric constant tensor:
#      x y z
#    x 1.891650 0.000000 -0.008880 
#    y 0.000000 1.923400 0.000000 
#    z -0.008880 0.000000 1.861590 
# 
# From -- ./inp_files/43817.got.cif
#   From: 2010.05.17/outbox.cif.g08.bks.cpg/sg5_22_cif.got.tgz:43817.got - 2010.06.03 18:56:24.
