data_PCOD9130054
_publ_section_title
;
Structure prediction by ZEFSAII (Michael W. Deem and Ramdas Pophale) SiO2 
 PCOD9130054
Probable space group: C 2
;
_chemical_formula_sum "Si O2"
_cell_formula_units_Z 20
_cell_length_a 22.630142
_cell_length_b 5.117967
_cell_length_c 15.878446
_cell_angle_alpha 90.000000
_cell_angle_beta 154.613227
_cell_angle_gamma 90.000000
_cell_volume 788.448206
_symmetry_space_group_name_H-M "C 2"
_symmetry_group_IT_number 5
_symmetry_cell_setting 'monoclinic'
loop_
_space_group_symop_operation_xyz
x,y,z
-x,y,-z
1/2+x,1/2+y,z
1/2-x,1/2+y,-z
loop_
_atom_site_type_symbol
_atom_site_label
_atom_site_fract_x
_atom_site_fract_y
_atom_site_fract_z
Si Si1 0.731509 0.640560 0.118645
Si Si2 0.209853 0.813585 0.632693
Si Si3 0.032095 0.419784 0.228426
Si Si4 0.907550 0.768504 0.188555
Si Si5 0.806192 0.799434 0.670858
O O1 0.819607 0.672085 0.316512
O O2 0.820251 0.783230 0.160582
O O3 0.586531 0.754826 0.967127
O O4 0.681639 0.386838 0.002869
O O5 0.296784 0.592525 0.694095
O O6 0.059779 0.881198 0.400385
O O7 0.286472 0.090470 0.721174
O O8 0.070026 0.679422 0.224744
O O9 0.174782 0.288751 0.438334
O O10 0.955040 0.484565 0.217465
#
# Coordination Sequence:
#
# PCOD9130054 Si02
#       5
#     4   4   4   4   4
#     4  12  25  45  75 109 148 200 248 315 378 455
#     4  11  27  47  74 109 150 190 252 313 375 445
#     4  11  24  46  75 100 148 198 248 306 378 445
#     4  11  24  47  71 108 146 195 248 308 375 453
#     4  11  25  47  71 108 143 198 248 309 371 446
#
# _framework density 25.366284
#
# number of rings (size 3 to 8) (size 9 to 14) (size 15 to 20)
#    0.000    0.800    4.000    3.000    5.600    0.800 
#    0.000    2.000    0.000    0.000    0.000    0.000 
#    0.000    0.000    0.000    0.000    0.000    0.000 
#
# Total GULP energy -55768.882778 kJ/mol
# GULP energy per Si atom -5576.888278 kJ/mol
# Density = 2.530855 g / cm^3
# Si number density = 25.366284 Si / 1000 Ang^3
#
#
#
# Elastic Constant Matrix: (Units=GPa)
#
#
# Indices 1 2 3 4 5 6 
#
# 1 130.9380 31.3595 6.2401 0.0001 -2.9592 0.0001
# 2 31.3595 103.7240 16.1813 0.0024 5.4502 0.0006
# 3 6.2401 16.1813 33.3463 0.0004 -0.1293 0.0002
# 4 0.0001 0.0024 0.0004 34.3419 0.0001 7.3638
# 5 -2.9592 5.4502 -0.1293 0.0001 51.6003 -0.0001
# 6 0.0001 0.0006 0.0002 7.3638 -0.0001 40.0763
#
#
#
# Elastic Compliance Matrix: (Units=1/GPa)
#
#
# Indices 1 2 3 4 5 6 
#
# 1 0.008265 -0.002485 -0.000338 0.000000 0.000736 0.000000
# 2 -0.002485 0.011242 -0.004995 -0.000001 -0.001342 0.000000
# 3 -0.000338 -0.004995 0.032478 0.000000 0.000590 0.000000
# 4 0.000000 -0.000001 0.000000 0.030313 0.000000 -0.005570
# 5 0.000736 -0.001342 0.000590 0.000000 0.019565 0.000000
# 6 0.000000 0.000000 0.000000 -0.005570 0.000000 0.025976
#
#
# Mechanical properties :
#
#
# Convention : Reuss Voigt Hill
#
# Bulk Modulus (GPa) = 27.51146 41.73003 34.62075
# Shear Modulus (GPa) = 32.13535 39.48553 35.81044
#
# Velocity S-wave (km/s) = 3.56315 3.94968 3.76138
# Velocity P-wave (km/s) = 5.27231 6.10628 5.70455
#
# Compressibility (1/GPa) = 0.03634848
#
# Stress axis : x y z
#
# Youngs Moduli (GPa) = 120.99167 88.95184 30.79017
#
# Poissons Ratio (x) = 0.22102 0.01041
# Poissons Ratio (y) = 0.30063 0.15381
# Poissons Ratio (z) = 0.04090 0.44435
#
# Static dielectric constant tensor:
#      x y z
#    x 2.021330 0.000000 -0.032560 
#    y 0.000000 2.104820 0.000000 
#    z -0.032560 0.000000 2.183480 
# 
# From -- ./inp_files/56615.got.cif
#   From: 2010.05.17/outbox.cif.g08.bks.cpg/sg5_29_cif.got.tgz:56615.got - 2010.06.03 18:56:24.
