data_PCOD9130964
_publ_section_title
;
Structure prediction by ZEFSAII (Michael W. Deem and Ramdas Pophale) SiO2 
 PCOD9130964
Probable space group: P M
;
_chemical_formula_sum "Si O2"
_cell_formula_units_Z 13
_cell_length_a 11.946823
_cell_length_b 7.962440
_cell_length_c 11.945127
_cell_angle_alpha 90.000000
_cell_angle_beta 38.809647
_cell_angle_gamma 90.000000
_cell_volume 712.153047
_symmetry_space_group_name_H-M "P M"
_symmetry_group_IT_number 6
_symmetry_cell_setting 'monoclinic'
loop_
_space_group_symop_operation_xyz
x,y,z
x,-y,z
loop_
_atom_site_type_symbol
_atom_site_label
_atom_site_fract_x
_atom_site_fract_y
_atom_site_fract_z
Si Si1 0.353640 0.194753 0.825260
Si Si2 0.950732 0.313171 0.826731
Si Si3 0.339027 0.799857 0.579895
Si Si4 0.703985 0.200140 0.215148
Si Si5 0.834282 0.500000 0.710565
Si Si6 0.443047 0.500000 0.913993
Si Si7 0.038035 0.500000 0.319168
Si Si8 0.949134 0.805246 0.229940
O O1 0.363396 0.255467 0.689431
O O2 0.440630 0.332298 0.838750
O O3 0.419904 0.000000 0.783240
O O4 0.144478 0.190141 0.020705
O O5 0.977489 0.500000 0.853361
O O6 0.144568 0.233748 0.682995
O O7 0.880027 0.342662 0.756489
O O8 0.807329 0.233692 0.020543
O O9 0.502795 0.732626 0.378700
O O10 0.353490 0.000000 0.575073
O O11 0.813224 0.255504 0.239837
O O12 0.699144 0.000000 0.229671
O O13 0.626656 0.500000 0.839814
O O14 0.963889 0.500000 0.502789
O O15 0.254524 0.500000 0.130542
O O16 0.962744 0.667708 0.316836
O O17 0.907163 0.000000 0.296192
#
# Coordination Sequence:
#
# PCOD9130964 Si02
#       8
#     2   2   2   2   1   1   1   2
#     4   9  18  34  59  90 123 151 185 240 305 365
#     4  10  23  39  58  80 123 155 203 246 295 341
#     4  10  20  35  59  92 121 151 191 242 307 367
#     4  10  20  35  59  92 121 151 191 242 307 367
#     4  10  26  42  56  84 108 166 218 230 280 356
#     4  10  22  39  59  81 119 158 198 247 292 342
#     4  10  22  39  59  81 119 158 198 247 292 342
#     4   9  18  34  59  90 123 151 185 240 305 365
#
# _framework density 18.254504000000001
#
# number of rings (size 3 to 8) (size 9 to 14) (size 15 to 20)
#    0.462    1.846    1.538    0.462    4.308    1.846 
#    0.000    3.077    0.000    3.692    0.000    0.000 
#    0.000    0.000    0.000    0.000    0.000    0.000 
#
# Total GULP energy -72404.227741 kJ/mol
# GULP energy per Si atom -5569.555980 kJ/mol
# Density = 1.821296 g / cm^3
# Si number density = 18.254504 Si / 1000 Ang^3
#
#
#
# Elastic Constant Matrix: (Units=GPa)
#
#
# Indices 1 2 3 4 5 6 
#
# 1 135.3898 39.2299 96.5618 0.0000 0.6808 0.0000
# 2 39.2299 57.0928 34.8693 0.0000 1.6401 0.0000
# 3 96.5618 34.8693 129.1018 0.0000 0.3925 0.0000
# 4 0.0000 0.0000 0.0000 -6.4975 0.0000 -19.2212
# 5 0.6808 1.6401 0.3925 0.0000 17.8305 0.0000
# 6 0.0000 0.0000 0.0000 -19.2212 0.0000 -51.9414
#
#
#
# Elastic Compliance Matrix: (Units=1/GPa)
#
#
# Indices 1 2 3 4 5 6 
#
# 1 0.016796 -0.004634 -0.011311 0.000000 0.000034 0.000000
# 2 -0.004634 0.022312 -0.002555 0.000000 -0.001819 0.000000
# 3 -0.011311 -0.002555 0.016895 0.000000 0.000295 0.000000
# 4 0.000000 0.000000 0.000000 1.624742 0.000000 -0.601246
# 5 0.000034 -0.001819 0.000295 0.000000 0.056243 0.000000
# 6 0.000000 0.000000 0.000000 -0.601246 0.000000 0.203242
#
#
# Mechanical properties :
#
#
# Convention : Reuss Voigt Hill
#
# Bulk Modulus (GPa) = 52.62184 73.65627 63.13905
# Shear Modulus (GPa) = 2.52072 1.93990 2.23031
#
# Velocity S-wave (km/s) = 1.17638 1.03199 1.10654
# Velocity P-wave (km/s) = 5.54387 6.46972 6.02461
#
# Compressibility (1/GPa) = 0.01900352
#
# Stress axis : x y z
#
# Youngs Moduli (GPa) = 59.53947 44.81912 59.18904
#
# Poissons Ratio (x) = 0.20767 0.66948
# Poissons Ratio (y) = 0.27588 0.15123
# Poissons Ratio (z) = 0.67344 0.11452
#
# Static dielectric constant tensor:
#      x y z
#    x 1.595550 0.000000 -0.006760 
#    y 0.000000 1.813030 0.000000 
#    z -0.006760 0.000000 1.611610 
# 
# From -- ./inp_files/4947.got.cif
#   From: 2010.05.17/outbox.cif.g08.bks.cpg/sg6_3_cif.got.tgz:4947.got - 2010.06.03 19:42:10.
