data_PCOD9130275
_publ_section_title
;
Structure prediction by ZEFSAII (Michael W. Deem and Ramdas Pophale) SiO2 
 PCOD9130275
Probable space group: C 2
;
_chemical_formula_sum "Si O2"
_cell_formula_units_Z 20
_cell_length_a 5.181424
_cell_length_b 30.963500
_cell_length_c 5.381549
_cell_angle_alpha 90.000000
_cell_angle_beta 85.349420
_cell_angle_gamma 90.000000
_cell_volume 860.546390
_symmetry_space_group_name_H-M "C 2"
_symmetry_group_IT_number 5
_symmetry_cell_setting 'monoclinic'
loop_
_space_group_symop_operation_xyz
x,y,z
-x,y,-z
1/2+x,1/2+y,z
1/2-x,1/2+y,-z
loop_
_atom_site_type_symbol
_atom_site_label
_atom_site_fract_x
_atom_site_fract_y
_atom_site_fract_z
Si Si1 0.500000 0.030350 0.500000
Si Si2 0.134259 0.161632 0.244330
Si Si3 0.259004 0.754222 0.828278
Si Si4 0.500000 0.324165 0.500000
Si Si5 0.773014 0.893464 0.840293
Si Si6 0.000000 0.587663 0.000000
Si Si7 0.000000 0.970066 0.500000
O O1 0.531163 0.058211 0.243419
O O2 0.754873 0.000456 0.469583
O O3 0.227491 0.208935 0.325499
O O4 0.292902 0.121960 0.119707
O O5 0.000000 0.143227 0.500000
O O6 0.000000 0.176292 0.000000
O O7 0.175451 0.793440 0.659157
O O8 0.500000 0.763927 0.000000
O O9 0.000000 0.746183 0.000000
O O10 0.286281 0.356547 0.633521
O O11 0.886885 0.937904 0.719035
O O12 0.500000 0.898805 0.000000
O O13 0.000000 0.877343 0.000000
#
# Coordination Sequence:
#
# PCOD9130275 Si02
#       7
#     2   4   4   2   4   2   2
#     4  12  30  47  86 119 164 197 270 323 412 474
#     4  11  26  49  76 109 160 217 271 326 399 467
#     4  11  27  48  74 112 157 217 273 333 393 473
#     4  11  28  47  78 116 162 202 278 329 402 463
#     4  11  26  51  80 111 156 201 257 324 406 482
#     4  12  28  50  78 120 158 208 260 340 390 480
#     4  11  28  52  78 119 146 211 244 332 398 493
#
# _framework density 23.241050999999999
#
# number of rings (size 3 to 8) (size 9 to 14) (size 15 to 20)
#    0.000    0.800    1.000    3.000   14.000    8.000 
#    0.000    0.000    0.000    0.000    0.000    0.000 
#    0.000    0.000    0.000    0.000    0.000    0.000 
#
# Total GULP energy -55731.752582 kJ/mol
# GULP energy per Si atom -5573.175258 kJ/mol
# Density = 2.318815 g / cm^3
# Si number density = 23.241051 Si / 1000 Ang^3
#
#
#
# Elastic Constant Matrix: (Units=GPa)
#
#
# Indices 1 2 3 4 5 6 
#
# 1 151.7833 53.1385 56.0516 0.0000 -25.8291 0.0000
# 2 53.1385 169.7194 66.4292 0.0000 -9.6437 0.0000
# 3 56.0516 66.4292 152.8170 0.0000 -39.0506 0.0000
# 4 0.0000 0.0000 0.0000 1735.4159 0.0000 1149.7175
# 5 -25.8291 -9.6437 -39.0506 0.0000 45.7823 0.0000
# 6 0.0000 0.0000 0.0000 1149.7175 0.0000 791.8591
#
#
#
# Elastic Compliance Matrix: (Units=1/GPa)
#
#
# Indices 1 2 3 4 5 6 
#
# 1 0.008294 -0.001853 -0.001459 0.000000 0.003045 0.000000
# 2 -0.001853 0.007591 -0.003169 0.000000 -0.002150 0.000000
# 3 -0.001459 -0.003169 0.010326 0.000000 0.007317 0.000000
# 4 0.000000 0.000000 0.000000 0.015125 0.000000 -0.021960
# 5 0.003045 -0.002150 0.007317 0.000000 0.029349 0.000000
# 6 0.000000 0.000000 0.000000 -0.021960 0.000000 0.033147
#
#
# Mechanical properties :
#
#
# Convention : Reuss Voigt Hill
#
# Bulk Modulus (GPa) = 75.47662 91.72869 83.60266
# Shear Modulus (GPa) = 41.25083 534.52485 287.88784
#
# Velocity S-wave (km/s) = 4.21754 15.18193 11.14178
# Velocity P-wave (km/s) = 7.50086 18.62459 14.19751
#
# Compressibility (1/GPa) = 0.01324914
#
# Stress axis : x y z
#
# Youngs Moduli (GPa) = 120.57249 131.74307 96.83942
#
# Poissons Ratio (x) = 0.24410 0.14125
# Poissons Ratio (y) = 0.22340 0.30692
# Poissons Ratio (z) = 0.17587 0.41754
#
# Static dielectric constant tensor:
#      x y z
#    x 0.444660 0.000000 -0.779000 
#    y 0.000000 1.972640 0.000000 
#    z -0.779000 0.000000 1.315720 
# 
# From -- ./inp_files/1269.got.cif
#   From: 2010.05.17/outbox.cif.g08.bks.cpg/sg5_1_cif.got.tgz:1269.got - 2010.06.03 18:56:24.
