data_PCOD9130239
_publ_section_title
;
Structure prediction by ZEFSAII (Michael W. Deem and Ramdas Pophale) SiO2 
 PCOD9130239
Probable space group: C 2
;
_chemical_formula_sum "Si O2"
_cell_formula_units_Z 28
_cell_length_a 23.288380
_cell_length_b 9.511457
_cell_length_c 7.765596
_cell_angle_alpha 90.000000
_cell_angle_beta 135.904947
_cell_angle_gamma 90.000000
_cell_volume 1196.953407
_symmetry_space_group_name_H-M "C 2"
_symmetry_group_IT_number 5
_symmetry_cell_setting 'monoclinic'
loop_
_space_group_symop_operation_xyz
x,y,z
-x,y,-z
1/2+x,1/2+y,z
1/2-x,1/2+y,-z
loop_
_atom_site_type_symbol
_atom_site_label
_atom_site_fract_x
_atom_site_fract_y
_atom_site_fract_z
Si Si1 0.454926 0.459450 0.087882
Si Si2 0.000000 0.468098 0.000000
Si Si3 0.173061 0.372034 0.469746
Si Si4 0.287772 0.598781 0.609567
Si Si5 0.761964 0.504862 0.863601
Si Si6 0.500000 0.637166 0.500000
Si Si7 0.823884 0.239025 0.148028
Si Si8 0.942642 0.645641 0.205590
O O1 0.371006 0.548152 0.879661
O O2 0.500000 0.447636 0.000000
O O3 0.508111 0.541572 0.346792
O O4 0.434575 0.306560 0.123447
O O5 0.078867 0.374037 0.209835
O O6 0.982312 0.560874 0.131219
O O7 0.209956 0.526980 0.532014
O O8 0.218419 0.263537 0.440526
O O9 0.181704 0.313873 0.678855
O O10 0.287013 0.534399 0.415875
O O11 0.713376 0.584554 0.910340
O O12 0.773172 0.340901 0.917607
O O13 0.852527 0.577490 0.045701
O O14 0.419028 0.730268 0.303722
O O15 0.000000 0.638411 0.500000
#
# Coordination Sequence:
#
# PCOD9130239 Si02
#       8
#     4   2   4   4   4   2   4   4
#     4  12  26  48  78 111 153 199 253 309 383 452
#     4  12  26  48  78 112 152 206 250 316 378 452
#     4  11  26  47  75 110 151 197 257 307 381 451
#     4  11  26  45  76 106 150 193 248 313 371 446
#     4  11  26  49  73 111 151 194 254 314 377 453
#     4  12  30  50  78 114 154 202 252 324 370 452
#     4  11  28  48  76 111 151 199 254 310 388 446
#     4  12  26  48  76 112 157 196 253 312 381 451
#
# _framework density 23.392723
#
# number of rings (size 3 to 8) (size 9 to 14) (size 15 to 20)
#    0.000    0.571    2.857    4.286   12.000    1.143 
#    0.000    0.000    0.000    0.000    0.000    0.000 
#    0.000    0.000    0.000    0.000    0.000    0.000 
#
# Total GULP energy -78449.510308 kJ/mol
# GULP energy per Si atom -5603.536451 kJ/mol
# Density = 2.333948 g / cm^3
# Si number density = 23.392723 Si / 1000 Ang^3
#
#
#
# Elastic Constant Matrix: (Units=GPa)
#
#
# Indices 1 2 3 4 5 6 
#
# 1 80.4730 0.7666 15.8189 0.0000 -7.7374 0.0000
# 2 0.7666 41.9993 1.4275 0.0000 -13.0497 0.0000
# 3 15.8189 1.4275 113.4056 0.0000 -25.0006 0.0000
# 4 0.0000 0.0000 0.0000 32.1447 0.0000 6.9691
# 5 -7.7374 -13.0497 -25.0006 0.0000 47.9186 0.0000
# 6 0.0000 0.0000 0.0000 6.9691 0.0000 30.4138
#
#
#
# Elastic Compliance Matrix: (Units=1/GPa)
#
#
# Indices 1 2 3 4 5 6 
#
# 1 0.012849 0.000239 -0.001496 0.000000 0.001359 0.000000
# 2 0.000239 0.026212 0.001377 0.000000 0.007896 0.000000
# 3 -0.001496 0.001377 0.010213 0.000000 0.005462 0.000000
# 4 0.000000 0.000000 0.000000 0.032736 0.000000 -0.007501
# 5 0.001359 0.007896 0.005462 0.000000 0.026088 0.000000
# 6 0.000000 0.000000 0.000000 -0.007501 0.000000 0.034599
#
#
# Mechanical properties :
#
#
# Convention : Reuss Voigt Hill
#
# Bulk Modulus (GPa) = 20.19583 30.21155 25.20369
# Shear Modulus (GPa) = 31.45426 36.61974 34.03700
#
# Velocity S-wave (km/s) = 3.67088 3.96085 3.81862
# Velocity P-wave (km/s) = 5.15939 5.81900 5.49909
#
# Compressibility (1/GPa) = 0.04951518
#
# Stress axis : x y z
#
# Youngs Moduli (GPa) = 77.82736 38.15045 97.91102
#
# Poissons Ratio (x) = -0.00911 0.14644
# Poissons Ratio (y) = -0.01858 -0.13486
# Poissons Ratio (z) = 0.11640 -0.05255
#
# Static dielectric constant tensor:
#      x y z
#    x 1.888710 0.000000 -0.031390 
#    y 0.000000 1.859270 0.000000 
#    z -0.031390 0.000000 1.842420 
# 
# From -- ./inp_files/31800.got.cif
#   From: 2010.05.17/outbox.cif.g08.bks.cpg/sg5_16_cif.got.tgz:31800.got - 2010.06.03 18:56:24.
