data_PCOD9130809
_publ_section_title
;
Structure prediction by ZEFSAII (Michael W. Deem and Ramdas Pophale) SiO2 
 PCOD9130809
Probable space group: P M
;
_chemical_formula_sum "Si O2"
_cell_formula_units_Z 16
_cell_length_a 8.556197
_cell_length_b 8.290485
_cell_length_c 19.696248
_cell_angle_alpha 90.000000
_cell_angle_beta 146.506562
_cell_angle_gamma 90.000000
_cell_volume 771.007419
_symmetry_space_group_name_H-M "P M"
_symmetry_group_IT_number 6
_symmetry_cell_setting 'monoclinic'
loop_
_space_group_symop_operation_xyz
x,y,z
x,-y,z
loop_
_atom_site_type_symbol
_atom_site_label
_atom_site_fract_x
_atom_site_fract_y
_atom_site_fract_z
Si Si1 0.648100 0.693250 0.000000
Si Si2 0.985794 0.679394 0.382516
Si Si3 0.525277 0.184867 0.297386
Si Si4 0.640158 0.819813 0.481250
Si Si5 0.967020 0.821381 0.239811
Si Si6 0.095947 0.693465 0.889989
Si Si7 0.617131 0.194749 0.616963
Si Si8 0.021468 0.806067 0.018931
O O1 0.648887 0.500000 0.998241
O O2 0.890826 0.760195 0.138216
O O3 0.364038 0.744935 0.939103
O O4 0.734868 0.754459 0.955988
O O5 0.921369 0.500000 0.383538
O O6 0.315012 0.718140 0.512217
O O7 0.805340 0.813117 0.354499
O O8 0.886629 0.695834 0.268485
O O9 0.629458 0.266803 0.405068
O O10 0.439172 0.000000 0.283278
O O11 0.278254 0.254643 0.160700
O O12 0.751261 0.752018 0.592513
O O13 0.302992 0.835052 0.371070
O O14 0.766675 0.000000 0.518705
O O15 0.842870 0.000000 0.205662
O O16 0.097252 0.500000 0.890571
O O17 0.820047 0.759042 0.751542
O O18 0.079221 0.748586 0.962746
O O19 0.580868 0.000000 0.600928
O O20 0.029035 0.000000 0.020311
#
# Coordination Sequence:
#
# PCOD9130809 Si02
#       8
#     2   2   2   2   2   2   2   2
#     4  11  23  39  62  93 129 168 206 258 323 379
#     4  11  22  35  55  88 123 160 198 245 313 375
#     4  10  19  36  59  89 123 156 198 250 306 365
#     4   8  16  33  58  85 113 144 188 246 297 345
#     4  10  18  34  58  85 116 154 199 248 298 361
#     4  11  25  44  63  88 127 170 212 262 317 372
#     4  10  21  41  65  86 112 157 210 256 301 362
#     4  11  23  40  66  96 127 167 213 261 309 371
#
# _framework density 20.752071000000001
#
# number of rings (size 3 to 8) (size 9 to 14) (size 15 to 20)
#    0.000    1.750    1.250    4.500    0.000    5.000 
#    2.250    1.250    0.000    0.000    0.000    0.000 
#    0.000    0.000    0.000    0.000    0.000    0.000 
#
# Total GULP energy -89090.346495 kJ/mol
# GULP energy per Si atom -5568.146656 kJ/mol
# Density = 2.070484 g / cm^3
# Si number density = 20.752071 Si / 1000 Ang^3
#
#
#
# Elastic Constant Matrix: (Units=GPa)
#
#
# Indices 1 2 3 4 5 6 
#
# 1 128.0929 22.6548 48.2965 0.0000 -20.6621 0.0000
# 2 22.6548 61.6577 8.7272 0.0000 -2.4183 0.0000
# 3 48.2965 8.7272 69.2698 0.0000 -22.6655 0.0000
# 4 0.0000 0.0000 0.0000 16.5830 0.0000 -3.1787
# 5 -20.6621 -2.4183 -22.6655 0.0000 30.3081 0.0000
# 6 0.0000 0.0000 0.0000 -3.1787 0.0000 25.6063
#
#
#
# Elastic Compliance Matrix: (Units=1/GPa)
#
#
# Indices 1 2 3 4 5 6 
#
# 1 0.011261 -0.003099 -0.006659 0.000000 0.002450 0.000000
# 2 -0.003099 0.017368 -0.000351 0.000000 -0.000990 0.000000
# 3 -0.006659 -0.000351 0.023340 0.000000 0.012887 0.000000
# 4 0.000000 0.000000 0.000000 0.061773 0.000000 0.007668
# 5 0.002450 -0.000990 0.012887 0.000000 0.044223 0.000000
# 6 0.000000 0.000000 0.000000 0.007668 0.000000 0.040005
#
#
# Mechanical properties :
#
#
# Convention : Reuss Voigt Hill
#
# Bulk Modulus (GPa) = 31.49608 46.48636 38.99122
# Shear Modulus (GPa) = 21.85579 26.45560 24.15569
#
# Velocity S-wave (km/s) = 3.24880 3.57437 3.41547
# Velocity P-wave (km/s) = 5.41140 6.28365 5.86376
#
# Compressibility (1/GPa) = 0.03174998
#
# Stress axis : x y z
#
# Youngs Moduli (GPa) = 88.80253 57.57671 42.84433
#
# Poissons Ratio (x) = 0.17843 0.28532
# Poissons Ratio (y) = 0.27519 0.01505
# Poissons Ratio (z) = 0.59138 0.02023
#
# Static dielectric constant tensor:
#      x y z
#    x 1.822830 0.000000 -0.020620 
#    y 0.000000 1.739690 0.000000 
#    z -0.020620 0.000000 1.756650 
# 
# From -- ./inp_files/3571.got.cif
#   From: 2010.05.17/outbox.cif.g08.bks.cpg/sg6_2_cif.got.tgz:3571.got - 2010.06.03 19:42:10.
