data_PCOD9130628
_publ_section_title
;
Structure prediction by ZEFSAII (Michael W. Deem and Ramdas Pophale) SiO2 
 PCOD9130628
Probable space group: C 2
;
_chemical_formula_sum "Si O2"
_cell_formula_units_Z 16
_cell_length_a 8.261281
_cell_length_b 5.180273
_cell_length_c 19.037606
_cell_angle_alpha 90.000000
_cell_angle_beta 49.389159
_cell_angle_gamma 90.000000
_cell_volume 618.498884
_symmetry_space_group_name_H-M "C 2"
_symmetry_group_IT_number 5
_symmetry_cell_setting 'monoclinic'
loop_
_space_group_symop_operation_xyz
x,y,z
-x,y,-z
1/2+x,1/2+y,z
1/2-x,1/2+y,-z
loop_
_atom_site_type_symbol
_atom_site_label
_atom_site_fract_x
_atom_site_fract_y
_atom_site_fract_z
Si Si1 0.769297 0.747490 0.687705
Si Si2 0.332383 0.927475 0.436719
Si Si3 0.642534 0.177460 0.063282
Si Si4 0.167581 0.997476 0.187705
O O1 0.722634 0.672930 0.504257
O O2 0.533929 0.665403 0.778588
O O3 0.918070 0.498390 0.635694
O O4 0.749006 0.888295 0.619359
O O5 0.630310 0.415409 0.278588
O O6 0.674832 0.248371 0.135698
O O7 0.392915 0.138274 0.119355
O O8 0.735403 0.422920 0.995745
#
# Coordination Sequence:
#
# PCOD9130628 Si02
#       4
#     4   4   4   4
#     4  12  28  50  78 113 154 202 254 315 382 454
#     4  12  29  52  80 115 155 204 257 317 382 456
#     4  12  29  52  80 115 155 204 257 317 382 456
#     4  12  28  50  78 113 154 202 254 315 382 454
#
# _framework density 25.869087
#
# number of rings (size 3 to 8) (size 9 to 14) (size 15 to 20)
#    0.000    0.000    0.000    7.500    0.000   24.000 
#    0.000    0.000    0.000    0.000    0.000    0.000 
#    0.000    0.000    0.000    0.000    0.000    0.000 
#
# Total GULP energy -45019.812493 kJ/mol
# GULP energy per Si atom -5627.476562 kJ/mol
# Density = 2.581021 g / cm^3
# Si number density = 25.869087 Si / 1000 Ang^3
#
#
#
# Elastic Constant Matrix: (Units=GPa)
#
#
# Indices 1 2 3 4 5 6 
#
# 1 128.4001 38.9793 38.7848 0.0001 -1.8557 0.0009
# 2 38.9793 149.2192 54.4932 -0.0002 1.3810 0.0022
# 3 38.7848 54.4932 111.4475 0.0001 0.3407 -0.0005
# 4 0.0001 -0.0002 0.0001 25.5288 -0.0006 -2.0695
# 5 -1.8557 1.3810 0.3407 -0.0006 34.6170 0.0012
# 6 0.0009 0.0022 -0.0005 -2.0695 0.0012 48.7608
#
#
#
# Elastic Compliance Matrix: (Units=1/GPa)
#
#
# Indices 1 2 3 4 5 6 
#
# 1 0.008969 -0.001470 -0.002404 0.000000 0.000563 0.000000
# 2 -0.001470 0.008402 -0.003596 0.000000 -0.000379 0.000000
# 3 -0.002404 -0.003596 0.011568 0.000000 -0.000099 0.000000
# 4 0.000000 0.000000 0.000000 0.039307 0.000001 0.001668
# 5 0.000563 -0.000379 -0.000099 0.000001 0.028934 -0.000001
# 6 0.000000 0.000000 0.000000 0.001668 -0.000001 0.020579
#
#
# Mechanical properties :
#
#
# Convention : Reuss Voigt Hill
#
# Bulk Modulus (GPa) = 71.43230 72.62015 72.02622
# Shear Modulus (GPa) = 36.39957 38.90195 37.65076
#
# Velocity S-wave (km/s) = 3.75516 3.88209 3.81915
# Velocity P-wave (km/s) = 6.81723 6.94459 6.88120
#
# Compressibility (1/GPa) = 0.01399927
#
# Stress axis : x y z
#
# Youngs Moduli (GPa) = 111.49791 119.01757 86.44639
#
# Poissons Ratio (x) = 0.17497 0.20783
# Poissons Ratio (y) = 0.16391 0.31082
# Poissons Ratio (z) = 0.26806 0.42793
#
# Static dielectric constant tensor:
#      x y z
#    x 1.975150 0.000000 0.004700 
#    y 0.000000 1.967870 0.000000 
#    z 0.004700 0.000000 2.027840 
# 
# From -- ./inp_files/48481.got.cif
#   From: 2010.05.17/outbox.cif.g08.bks.cpg/sg5_25_cif.got.tgz:48481.got - 2010.06.03 18:56:24.
