data_PCOD9130159
_publ_section_title
;
Structure prediction by ZEFSAII (Michael W. Deem and Ramdas Pophale) SiO2 
 PCOD9130159
Probable space group: C 2
;
_chemical_formula_sum "Si O2"
_cell_formula_units_Z 30
_cell_length_a 14.438549
_cell_length_b 5.452083
_cell_length_c 18.709327
_cell_angle_alpha 90.000000
_cell_angle_beta 55.976938
_cell_angle_gamma 90.000000
_cell_volume 1220.676065
_symmetry_space_group_name_H-M "C 2"
_symmetry_group_IT_number 5
_symmetry_cell_setting 'monoclinic'
loop_
_space_group_symop_operation_xyz
x,y,z
-x,y,-z
1/2+x,1/2+y,z
1/2-x,1/2+y,-z
loop_
_atom_site_type_symbol
_atom_site_label
_atom_site_fract_x
_atom_site_fract_y
_atom_site_fract_z
Si Si1 0.576525 0.979520 0.599488
Si Si2 0.164983 0.635592 0.822556
Si Si3 0.935091 0.878372 0.903659
Si Si4 0.251001 0.147775 0.719426
Si Si5 0.780523 0.242914 0.914713
Si Si6 0.500000 0.685921 0.500000
Si Si7 0.411677 0.133791 0.772961
Si Si8 0.316576 0.326119 0.543980
O O1 0.510274 0.836987 0.567885
O O2 0.701647 0.886944 0.555618
O O3 0.513890 0.971567 0.701159
O O4 0.597623 0.242283 0.554255
O O5 0.168520 0.377663 0.776839
O O6 0.234214 0.587326 0.866434
O O7 0.042778 0.753625 0.893383
O O8 0.216293 0.872376 0.758371
O O9 0.955828 0.824378 0.810879
O O10 0.887639 0.155613 0.915212
O O11 0.825047 0.765402 0.988029
O O12 0.357627 0.216832 0.722346
O O13 0.283050 0.144426 0.622553
O O14 0.819401 0.485947 0.857138
O O15 0.384765 0.537504 0.553577
#
# Coordination Sequence:
#
# PCOD9130159 Si02
#       8
#     4   4   4   4   4   2   4   4
#     4  12  27  48  75 111 150 203 257 317 386 462
#     4  11  27  46  76 112 152 201 255 315 382 461
#     4  12  24  45  76 103 152 199 252 323 384 457
#     4  11  26  49  74 113 156 197 256 319 378 461
#     4  11  25  46  70 111 145 202 254 316 386 458
#     4  12  26  48  78 104 156 198 250 320 382 450
#     4  11  25  46  74 105 152 198 253 318 386 452
#     4  12  27  48  75 112 151 201 258 314 387 460
#
# _framework density 24.576542
#
# number of rings (size 3 to 8) (size 9 to 14) (size 15 to 20)
#    0.000    0.533    4.000    3.200    9.333    2.133 
#    0.000    1.333    0.000    0.000    0.000    0.000 
#    0.000    0.000    0.000    0.000    0.000    0.000 
#
# Total GULP energy -83684.134205 kJ/mol
# GULP energy per Si atom -5578.942280 kJ/mol
# Density = 2.452060 g / cm^3
# Si number density = 24.576542 Si / 1000 Ang^3
#
#
#
# Elastic Constant Matrix: (Units=GPa)
#
#
# Indices 1 2 3 4 5 6 
#
# 1 103.2988 15.2890 9.7749 0.0010 1.5745 0.0060
# 2 15.2890 45.6985 11.3251 -0.0021 2.8936 0.0093
# 3 9.7749 11.3251 113.8675 -0.0005 -4.6936 0.0004
# 4 0.0010 -0.0021 -0.0005 32.5187 -0.0009 -2.8177
# 5 1.5745 2.8936 -4.6936 -0.0009 24.8313 0.0015
# 6 0.0060 0.0093 0.0004 -2.8177 0.0015 34.1940
#
#
#
# Elastic Compliance Matrix: (Units=1/GPa)
#
#
# Indices 1 2 3 4 5 6 
#
# 1 0.010222 -0.003255 -0.000569 -0.000001 -0.000376 -0.000001
# 2 -0.003255 0.023705 -0.002201 0.000001 -0.002972 -0.000006
# 3 -0.000569 -0.002201 0.009133 0.000000 0.002019 0.000001
# 4 -0.000001 0.000001 0.000000 0.030973 0.000001 0.002552
# 5 -0.000376 -0.002972 0.002019 0.000001 0.041024 -0.000001
# 6 -0.000001 -0.000006 0.000001 0.002552 -0.000001 0.029455
#
#
# Mechanical properties :
#
#
# Convention : Reuss Voigt Hill
#
# Bulk Modulus (GPa) = 32.24745 37.29366 34.77055
# Shear Modulus (GPa) = 29.95830 33.40718 31.68274
#
# Velocity S-wave (km/s) = 3.49518 3.69088 3.59436
# Velocity P-wave (km/s) = 5.42569 5.77676 5.60397
#
# Compressibility (1/GPa) = 0.03101020
#
# Stress axis : x y z
#
# Youngs Moduli (GPa) = 97.82795 42.18490 109.49173
#
# Poissons Ratio (x) = 0.13731 0.06233
# Poissons Ratio (y) = 0.31843 0.24097
# Poissons Ratio (z) = 0.05569 0.09284
#
# Static dielectric constant tensor:
#      x y z
#    x 2.031160 0.000000 -0.015710 
#    y 0.000000 2.131560 0.000000 
#    z -0.015710 0.000000 1.951550 
# 
# From -- ./inp_files/61181.got.cif
#   From: 2010.05.17/outbox.cif.g08.bks.cpg/sg5_31_cif.got.tgz:61181.got - 2010.06.03 18:56:24.
