data_PCOD9130434
_publ_section_title
;
Structure prediction by ZEFSAII (Michael W. Deem and Ramdas Pophale) SiO2 
 PCOD9130434
Probable space group: C 2
;
_chemical_formula_sum "Si O2"
_cell_formula_units_Z 18
_cell_length_a 22.228115
_cell_length_b 4.827043
_cell_length_c 11.529133
_cell_angle_alpha 90.000000
_cell_angle_beta 145.421167
_cell_angle_gamma 90.000000
_cell_volume 702.063881
_symmetry_space_group_name_H-M "C 2"
_symmetry_group_IT_number 5
_symmetry_cell_setting 'monoclinic'
loop_
_space_group_symop_operation_xyz
x,y,z
-x,y,-z
1/2+x,1/2+y,z
1/2-x,1/2+y,-z
loop_
_atom_site_type_symbol
_atom_site_label
_atom_site_fract_x
_atom_site_fract_y
_atom_site_fract_z
Si Si1 0.468702 0.169790 0.699074
Si Si2 0.088118 0.137582 0.978430
Si Si3 0.270716 0.882730 0.106716
Si Si4 0.241865 0.309352 0.412437
Si Si5 0.000000 0.598067 0.500000
O O1 0.504635 0.264882 0.627571
O O2 0.511088 0.376268 0.864615
O O3 0.521844 0.873724 0.806502
O O4 0.343063 0.191699 0.505272
O O5 0.187251 0.011199 0.063812
O O6 0.136389 0.261063 0.171923
O O7 0.392069 0.922208 0.336553
O O8 0.253848 0.066305 0.963227
O O9 0.259212 0.627759 0.472168
#
# Coordination Sequence:
#
# PCOD9130434 Si02
#       5
#     4   4   4   4   2
#     4  12  27  44  74 104 138 182 226 279 347 407
#     4  12  25  46  69 104 138 179 229 287 339 402
#     4  12  24  42  67 104 141 179 223 277 342 412
#     4  12  28  49  72 100 136 182 235 287 337 404
#     4  12  24  44  72 106 140 180 226 272 350 412
#
# _framework density 25.638691000000001
#
# number of rings (size 3 to 8) (size 9 to 14) (size 15 to 20)
#    0.000    0.000    6.667    2.667    0.000    8.889 
#    0.000    0.000    0.000    0.000    0.000    0.000 
#    0.000    0.000    0.000    0.000    0.000    0.000 
#
# Total GULP energy -50465.300473 kJ/mol
# GULP energy per Si atom -5607.255608 kJ/mol
# Density = 2.558034 g / cm^3
# Si number density = 25.638691 Si / 1000 Ang^3
#
#
#
# Elastic Constant Matrix: (Units=GPa)
#
#
# Indices 1 2 3 4 5 6 
#
# 1 69.7197 -1.5428 6.1067 0.0001 13.9302 0.0000
# 2 -1.5428 88.2163 7.9264 0.0004 4.3338 0.0003
# 3 6.1067 7.9264 119.2707 0.0000 20.1691 0.0000
# 4 0.0001 0.0004 0.0000 27.4504 0.0000 2.1258
# 5 13.9302 4.3338 20.1691 0.0000 45.1014 0.0000
# 6 0.0000 0.0003 0.0000 2.1258 0.0000 27.3696
#
#
#
# Elastic Compliance Matrix: (Units=1/GPa)
#
#
# Indices 1 2 3 4 5 6 
#
# 1 0.015309 0.000503 -0.000010 0.000000 -0.004772 0.000000
# 2 0.000503 0.011448 -0.000621 0.000000 -0.000978 0.000000
# 3 -0.000010 -0.000621 0.009104 0.000000 -0.004008 0.000000
# 4 0.000000 0.000000 0.000000 0.036650 0.000000 -0.002847
# 5 -0.004772 -0.000978 -0.004008 0.000000 0.025533 0.000000
# 6 0.000000 0.000000 0.000000 -0.002847 0.000000 0.036758
#
#
# Mechanical properties :
#
#
# Convention : Reuss Voigt Hill
#
# Bulk Modulus (GPa) = 28.08666 33.57637 30.83152
# Shear Modulus (GPa) = 34.03064 37.63202 35.83133
#
# Velocity S-wave (km/s) = 3.64719 3.83532 3.74244
# Velocity P-wave (km/s) = 5.35860 5.72165 5.54310
#
# Compressibility (1/GPa) = 0.03560409
#
# Stress axis : x y z
#
# Youngs Moduli (GPa) = 65.32253 87.34832 109.84264
#
# Poissons Ratio (x) = -0.04394 0.00113
# Poissons Ratio (y) = -0.03286 0.06824
# Poissons Ratio (z) = 0.00067 0.05427
#
# Static dielectric constant tensor:
#      x y z
#    x 2.065650 0.000000 -0.018320 
#    y 0.000000 1.901390 0.000000 
#    z -0.018320 0.000000 1.999890 
# 
# From -- ./inp_files/47676.got.cif
#   From: 2010.05.17/outbox.cif.g08.bks.cpg/sg5_24_cif.got.tgz:47676.got - 2010.06.03 18:56:24.
