data_PCOD9130299
_publ_section_title
;
Structure prediction by ZEFSAII (Michael W. Deem and Ramdas Pophale) SiO2 
 PCOD9130299
Probable space group: C 2
;
_chemical_formula_sum "Si O2"
_cell_formula_units_Z 12
_cell_length_a 5.129722
_cell_length_b 14.299927
_cell_length_c 7.166377
_cell_angle_alpha 90.000000
_cell_angle_beta 46.065571
_cell_angle_gamma 90.000000
_cell_volume 378.565304
_symmetry_space_group_name_H-M "C 2"
_symmetry_group_IT_number 5
_symmetry_cell_setting 'monoclinic'
loop_
_space_group_symop_operation_xyz
x,y,z
-x,y,-z
1/2+x,1/2+y,z
1/2-x,1/2+y,-z
loop_
_atom_site_type_symbol
_atom_site_label
_atom_site_fract_x
_atom_site_fract_y
_atom_site_fract_z
Si Si1 0.420010 0.753370 0.712463
Si Si2 0.157228 0.858075 0.141964
Si Si3 0.402403 0.550157 0.263099
O O1 0.582803 0.649754 0.644328
O O2 0.207908 0.795195 0.620606
O O3 0.545497 0.817382 0.831746
O O4 0.000000 0.722797 0.000000
O O5 0.140999 0.965056 0.222305
O O6 0.000000 0.884092 0.000000
O O7 0.000000 0.513869 0.500000
O O8 0.500000 0.572109 0.000000
#
# Coordination Sequence:
#
# PCOD9130299 Si02
#       3
#     4   4   4
#     4  11  27  51  80 118 165 215 276 330 411 485
#     4  11  27  50  82 119 168 207 280 336 412 481
#     4  12  29  54  88 122 165 220 275 339 412 490
#
# _framework density 31.698626000000001
#
# number of rings (size 3 to 8) (size 9 to 14) (size 15 to 20)
#    0.000    0.667    3.333    2.000   18.667    0.000 
#    0.000    0.000    0.000    0.000    0.000    0.000 
#    0.000    0.000    0.000    0.000    0.000    0.000 
#
# Total GULP energy -33449.497416 kJ/mol
# GULP energy per Si atom -5574.916236 kJ/mol
# Density = 3.162648 g / cm^3
# Si number density = 31.698626 Si / 1000 Ang^3
#
#
#
# Elastic Constant Matrix: (Units=GPa)
#
#
# Indices 1 2 3 4 5 6 
#
# 1 268.2230 104.0171 141.8823 0.0000 -15.4767 0.0000
# 2 104.0171 336.4758 69.0215 0.0000 -6.5529 0.0000
# 3 141.8823 69.0215 301.5062 0.0000 14.0219 0.0000
# 4 0.0000 0.0000 0.0000 20.3773 0.0000 -3.1807
# 5 -15.4767 -6.5529 14.0219 0.0000 166.1962 0.0000
# 6 0.0000 0.0000 0.0000 -3.1807 0.0000 35.2687
#
#
#
# Elastic Compliance Matrix: (Units=1/GPa)
#
#
# Indices 1 2 3 4 5 6 
#
# 1 0.005461 -0.001198 -0.002326 0.000000 0.000658 0.000000
# 2 -0.001198 0.003387 -0.000213 0.000000 0.000040 0.000000
# 3 -0.002326 -0.000213 0.004488 0.000000 -0.000604 0.000000
# 4 0.000000 0.000000 0.000000 0.049775 0.000000 0.004489
# 5 0.000658 0.000040 -0.000604 0.000000 0.006131 0.000000
# 6 0.000000 0.000000 0.000000 0.004489 0.000000 0.028759
#
#
# Mechanical properties :
#
#
# Convention : Reuss Voigt Hill
#
# Bulk Modulus (GPa) = 170.62392 170.67187 170.64789
# Shear Modulus (GPa) = 46.54171 83.78735 65.16453
#
# Velocity S-wave (km/s) = 3.83594 5.14683 4.53896
# Velocity P-wave (km/s) = 8.57689 9.44874 9.02335
#
# Compressibility (1/GPa) = 0.00586084
#
# Stress axis : x y z
#
# Youngs Moduli (GPa) = 183.10174 295.24974 222.80196
#
# Poissons Ratio (x) = 0.35381 0.51830
# Poissons Ratio (y) = 0.21942 0.04752
# Poissons Ratio (z) = 0.42595 0.06298
#
# Static dielectric constant tensor:
#      x y z
#    x 3.579360 0.000000 0.323230 
#    y 0.000000 2.551780 0.000000 
#    z 0.323230 0.000000 2.343810 
# 
# From -- ./inp_files/36565.got.cif
#   From: 2010.05.17/outbox.cif.g08.bks.cpg/sg5_19_cif.got.tgz:36565.got - 2010.06.03 18:56:24.
