data_PCOD9130608
_publ_section_title
;
Structure prediction by ZEFSAII (Michael W. Deem and Ramdas Pophale) SiO2 
 PCOD9130608
Probable space group: C 2
;
_chemical_formula_sum "Si O2"
_cell_formula_units_Z 16
_cell_length_a 12.553511
_cell_length_b 7.437005
_cell_length_c 7.517910
_cell_angle_alpha 90.000000
_cell_angle_beta 59.322156
_cell_angle_gamma 90.000000
_cell_volume 603.648210
_symmetry_space_group_name_H-M "C 2"
_symmetry_group_IT_number 5
_symmetry_cell_setting 'monoclinic'
loop_
_space_group_symop_operation_xyz
x,y,z
-x,y,-z
1/2+x,1/2+y,z
1/2-x,1/2+y,-z
loop_
_atom_site_type_symbol
_atom_site_label
_atom_site_fract_x
_atom_site_fract_y
_atom_site_fract_z
Si Si1 0.953864 0.102800 0.347232
Si Si2 0.801705 0.469685 0.551008
Si Si3 0.695109 0.460844 0.996110
Si Si4 0.135013 0.582351 0.867599
O O1 0.886155 0.293934 0.443071
O O2 0.000000 0.037058 0.500000
O O3 0.846450 0.979560 0.358697
O O4 0.077061 0.091257 0.121312
O O5 0.846085 0.601544 0.358405
O O6 0.800315 0.514194 0.761120
O O7 0.762701 0.456057 0.129031
O O8 0.649447 0.267816 0.963837
O O9 0.000000 0.503864 0.000000
#
# Coordination Sequence:
#
# PCOD9130608 Si02
#       4
#     4   4   4   4
#     4  12  27  53  85 121 166 213 276 334 410 488
#     4  12  27  51  83 122 161 216 268 333 409 480
#     4  12  28  55  83 120 167 213 273 341 402 488
#     4  12  30  51  79 122 164 216 275 332 413 482
#
# _framework density 26.505504999999999
#
# number of rings (size 3 to 8) (size 9 to 14) (size 15 to 20)
#    0.000    0.000    5.000    2.250   10.500    0.000 
#    0.000    1.250    0.000    0.000    0.000    0.000 
#    0.000    0.000    0.000    0.000    0.000    0.000 
#
# Total GULP energy -44722.947383 kJ/mol
# GULP energy per Si atom -5590.368423 kJ/mol
# Density = 2.644518 g / cm^3
# Si number density = 26.505505 Si / 1000 Ang^3
#
#
#
# Elastic Constant Matrix: (Units=GPa)
#
#
# Indices 1 2 3 4 5 6 
#
# 1 63.2080 -3.7773 -0.3393 0.0000 -22.8963 0.0000
# 2 -3.7773 72.1280 35.6860 0.0000 -12.4453 0.0000
# 3 -0.3393 35.6860 181.8406 0.0000 -25.7931 0.0000
# 4 0.0000 0.0000 0.0000 40.7363 0.0000 -1.1276
# 5 -22.8963 -12.4453 -25.7931 0.0000 55.5746 0.0000
# 6 0.0000 0.0000 0.0000 -1.1276 0.0000 38.2070
#
#
#
# Elastic Compliance Matrix: (Units=1/GPa)
#
#
# Indices 1 2 3 4 5 6 
#
# 1 0.019118 0.002081 0.000868 0.000000 0.008745 0.000000
# 2 0.002081 0.015833 -0.002654 0.000000 0.003171 0.000000
# 3 0.000868 -0.002654 0.006410 0.000000 0.002738 0.000000
# 4 0.000000 0.000000 0.000000 0.024568 0.000000 0.000725
# 5 0.008745 0.003171 0.002738 0.000000 0.023578 0.000000
# 6 0.000000 0.000000 0.000000 0.000725 0.000000 0.026195
#
#
# Mechanical properties :
#
#
# Convention : Reuss Voigt Hill
#
# Bulk Modulus (GPa) = 23.83744 42.25726 33.04735
# Shear Modulus (GPa) = 38.73110 45.94405 42.33757
#
# Velocity S-wave (km/s) = 3.82677 4.16790 4.00098
# Velocity P-wave (km/s) = 5.34214 6.25614 5.81712
#
# Compressibility (1/GPa) = 0.04195081
#
# Stress axis : x y z
#
# Youngs Moduli (GPa) = 52.30805 63.15812 156.00350
#
# Poissons Ratio (x) = -0.13142 -0.13537
# Poissons Ratio (y) = -0.10884 0.41396
# Poissons Ratio (z) = -0.04539 0.16759
#
# Static dielectric constant tensor:
#      x y z
#    x 2.031640 0.000000 0.058230 
#    y 0.000000 2.102190 0.000000 
#    z 0.058230 0.000000 2.152130 
# 
# From -- ./inp_files/17967.got.cif
#   From: 2010.05.17/outbox.cif.g08.bks.cpg/sg5_9_cif.got.tgz:17967.got - 2010.06.03 18:56:24.
