data_PCOD9130657
_publ_section_title
;
Structure prediction by ZEFSAII (Michael W. Deem and Ramdas Pophale) SiO2 
 PCOD9130657
Probable space group: C 2
;
_chemical_formula_sum "Si O2"
_cell_formula_units_Z 24
_cell_length_a 8.339710
_cell_length_b 15.429571
_cell_length_c 10.043259
_cell_angle_alpha 90.000000
_cell_angle_beta 49.798776
_cell_angle_gamma 90.000000
_cell_volume 987.072422
_symmetry_space_group_name_H-M "C 2"
_symmetry_group_IT_number 5
_symmetry_cell_setting 'monoclinic'
loop_
_space_group_symop_operation_xyz
x,y,z
-x,y,-z
1/2+x,1/2+y,z
1/2-x,1/2+y,-z
loop_
_atom_site_type_symbol
_atom_site_label
_atom_site_fract_x
_atom_site_fract_y
_atom_site_fract_z
Si Si1 0.248479 0.823490 0.135394
Si Si2 0.757396 0.683484 0.364705
Si Si3 0.820206 0.503647 0.389533
Si Si4 0.602140 0.499452 0.217461
Si Si5 0.209779 0.185645 0.093589
Si Si6 0.836042 0.314667 0.374814
O O1 0.148975 0.908487 0.123087
O O2 0.191701 0.821937 0.321495
O O3 0.500000 0.838133 0.000000
O O4 0.206376 0.735528 0.079740
O O5 0.500000 0.660505 0.500000
O O6 0.881538 0.604643 0.369099
O O7 0.821996 0.689325 0.176705
O O8 0.765340 0.773183 0.439819
O O9 0.748936 0.503079 0.271847
O O10 0.628189 0.497304 0.596178
O O11 0.931970 0.410713 0.348161
O O12 0.650779 0.584997 0.106654
O O13 0.004072 0.242998 0.239619
#
# Coordination Sequence:
#
# PCOD9130657 Si02
#       6
#     4   4   4   4   4   4
#     4   9  18  29  48  73  90 122 158 192 223 272
#     4   9  14  28  48  68  87 121 154 185 233 271
#     4   9  14  26  49  75  85 118 162 192 218 275
#     4   9  15  29  51  67  93 126 156 185 229 284
#     4   9  16  30  49  66  93 127 151 184 237 282
#     4   9  16  26  48  75  88 112 161 197 218 272
#
# _framework density 24.314325
#
# number of rings (size 3 to 8) (size 9 to 14) (size 15 to 20)
#    0.000    3.000    5.000    0.000    0.000    0.000 
#    0.000    1.667   14.667    0.000    8.667    0.000 
#    0.000    0.000    0.000    0.000    0.000    0.000 
#
# Total GULP energy -66881.497422 kJ/mol
# GULP energy per Si atom -5573.458119 kJ/mol
# Density = 2.425898 g / cm^3
# Si number density = 24.314325 Si / 1000 Ang^3
#
#
#
# Elastic Constant Matrix: (Units=GPa)
#
#
# Indices 1 2 3 4 5 6 
#
# 1 22.2525 29.0721 3.0524 0.0000 -7.3879 0.0000
# 2 29.0721 238.7420 49.1329 0.0000 11.6359 0.0000
# 3 3.0524 49.1329 105.5264 0.0000 7.1149 0.0000
# 4 0.0000 0.0000 0.0000 40.5488 0.0000 9.2005
# 5 -7.3879 11.6359 7.1149 0.0000 19.0250 0.0000
# 6 0.0000 0.0000 0.0000 9.2005 0.0000 27.9510
#
#
#
# Elastic Compliance Matrix: (Units=1/GPa)
#
#
# Indices 1 2 3 4 5 6 
#
# 1 0.068931 -0.010092 0.000497 0.000000 0.032755 0.000000
# 2 -0.010092 0.006192 -0.002125 0.000000 -0.006911 0.000000
# 3 0.000497 -0.002125 0.010618 0.000000 -0.002479 0.000000
# 4 0.000000 0.000000 0.000000 0.026652 0.000000 -0.008773
# 5 0.032755 -0.006911 -0.002479 0.000000 0.070436 0.000000
# 6 0.000000 0.000000 0.000000 -0.008773 0.000000 0.038665
#
#
# Mechanical properties :
#
#
# Convention : Reuss Voigt Hill
#
# Bulk Modulus (GPa) = 16.05150 58.78174 37.41662
# Shear Modulus (GPa) = 18.81810 36.52252 27.67031
#
# Velocity S-wave (km/s) = 2.78502 3.87990 3.37712
# Velocity P-wave (km/s) = 4.11798 6.65580 5.53432
#
# Compressibility (1/GPa) = 0.06229949
#
# Stress axis : x y z
#
# Youngs Moduli (GPa) = 14.50733 161.50487 94.17596
#
# Poissons Ratio (x) = 1.62998 -0.04678
# Poissons Ratio (y) = 0.14641 0.20012
# Poissons Ratio (z) = -0.00721 0.34319
#
# Static dielectric constant tensor:
#      x y z
#    x 2.084150 0.000000 -0.093650 
#    y 0.000000 2.006390 0.000000 
#    z -0.093650 0.000000 2.038600 
# 
# From -- ./inp_files/38737.got.cif
#   From: 2010.05.17/outbox.cif.g08.bks.cpg/sg5_20_cif.got.tgz:38737.got - 2010.06.03 18:56:24.
