data_PCOD9130842
_publ_section_title
;
Structure prediction by ZEFSAII (Michael W. Deem and Ramdas Pophale) SiO2 
 PCOD9130842
Probable space group: P M
;
_chemical_formula_sum "Si O2"
_cell_formula_units_Z 16
_cell_length_a 10.590976
_cell_length_b 7.968419
_cell_length_c 12.716107
_cell_angle_alpha 90.000000
_cell_angle_beta 52.174081
_cell_angle_gamma 90.000000
_cell_volume 847.660910
_symmetry_space_group_name_H-M "P M"
_symmetry_group_IT_number 6
_symmetry_cell_setting 'monoclinic'
loop_
_space_group_symop_operation_xyz
x,y,z
x,-y,z
loop_
_atom_site_type_symbol
_atom_site_label
_atom_site_fract_x
_atom_site_fract_y
_atom_site_fract_z
Si Si1 0.778570 0.700291 0.542110
Si Si2 0.446402 0.297915 0.113002
Si Si3 0.138730 0.705674 0.387560
Si Si4 0.958609 0.201296 0.824851
Si Si5 0.730848 0.202991 0.123435
Si Si6 0.267484 0.698848 0.549979
Si Si7 0.628959 0.196863 0.400078
Si Si8 0.670395 0.297918 0.818876
O O1 0.789430 0.500000 0.550570
O O2 0.693451 0.730961 0.475687
O O3 0.685294 0.766197 0.692577
O O4 0.960663 0.764704 0.452968
O O5 0.438734 0.500000 0.110301
O O6 0.272272 0.237535 0.236215
O O7 0.572359 0.254627 0.140406
O O8 0.524977 0.232802 0.965021
O O9 0.137730 0.500000 0.388127
O O10 0.195690 0.758263 0.474802
O O11 0.833293 0.258187 0.798931
O O12 0.133126 0.266558 0.706122
O O13 0.963018 0.000000 0.822756
O O14 0.880689 0.258922 0.975311
O O15 0.714009 0.266445 0.251055
O O16 0.734324 0.000000 0.124285
O O17 0.292544 0.500000 0.528887
O O18 0.439145 0.777468 0.485047
O O19 0.662383 0.000000 0.386135
O O20 0.655660 0.500000 0.823500
#
# Coordination Sequence:
#
# PCOD9130842 Si02
#       8
#     2   2   2   2   2   2   2   2
#     4  10  20  36  53  74 108 147 180 219 267 317
#     4   9  16  29  53  81 105 133 173 222 268 312
#     4   9  17  31  53  80 106 132 172 222 265 308
#     4  10  19  32  53  81 110 141 176 222 271 317
#     4   9  19  34  51  75 110 143 176 218 266 317
#     4  11  20  35  57  83 109 139 180 226 270 317
#     4  11  23  38  54  78 110 147 184 221 267 322
#     4   9  17  31  52  78 108 140 177 220 266 316
#
# _framework density 18.875471999999998
#
# number of rings (size 3 to 8) (size 9 to 14) (size 15 to 20)
#    0.000    2.250    2.500    1.125    0.000    1.500 
#    0.000    1.875    0.000    1.500    0.000    0.000 
#    0.000    0.000    0.000    0.000    0.000    0.000 
#
# Total GULP energy -89248.001357 kJ/mol
# GULP energy per Si atom -5578.000085 kJ/mol
# Density = 1.883251 g / cm^3
# Si number density = 18.875472 Si / 1000 Ang^3
#
#
#
# Elastic Constant Matrix: (Units=GPa)
#
#
# Indices 1 2 3 4 5 6 
#
# 1 85.3360 -5.8736 65.9328 0.0000 9.0624 0.0000
# 2 -5.8736 10.1872 4.8210 0.0000 1.5057 0.0000
# 3 65.9328 4.8210 171.9925 0.0000 10.8811 0.0000
# 4 0.0000 0.0000 0.0000 13.9449 0.0000 -0.3828
# 5 9.0624 1.5057 10.8811 0.0000 26.0354 0.0000
# 6 0.0000 0.0000 0.0000 -0.3828 0.0000 39.7811
#
#
#
# Elastic Compliance Matrix: (Units=1/GPa)
#
#
# Indices 1 2 3 4 5 6 
#
# 1 0.018944 0.015074 -0.007408 0.000000 -0.004370 0.000000
# 2 0.015074 0.112043 -0.008399 0.000000 -0.008216 0.000000
# 3 -0.007408 -0.008399 0.008932 0.000000 -0.000669 0.000000
# 4 0.000000 0.000000 0.000000 0.071730 0.000000 0.000690
# 5 -0.004370 -0.008216 -0.000669 0.000000 0.040685 0.000000
# 6 0.000000 0.000000 0.000000 0.000690 0.000000 0.025144
#
#
# Mechanical properties :
#
#
# Convention : Reuss Voigt Hill
#
# Bulk Modulus (GPa) = 7.22275 44.14179 25.68227
# Shear Modulus (GPa) = 15.38014 29.46131 22.42073
#
# Velocity S-wave (km/s) = 2.85760 3.95501 3.45022
# Velocity P-wave (km/s) = 3.83702 6.65528 5.43210
#
# Compressibility (1/GPa) = 0.13845135
#
# Stress axis : x y z
#
# Youngs Moduli (GPa) = 52.78822 8.92515 111.95947
#
# Poissons Ratio (x) = -0.13454 0.82940
# Poissons Ratio (y) = -0.79573 0.94039
# Poissons Ratio (z) = 0.39106 0.07497
#
# Static dielectric constant tensor:
#      x y z
#    x 1.602280 0.000000 0.002390 
#    y 0.000000 1.665200 0.000000 
#    z 0.002390 0.000000 1.713390 
# 
# From -- ./inp_files/3462.got.cif
#   From: 2010.05.17/outbox.cif.g08.bks.cpg/sg6_2_cif.got.tgz:3462.got - 2010.06.03 19:42:10.
