data_PCOD9130077
_publ_section_title
;
Structure prediction by ZEFSAII (Michael W. Deem and Ramdas Pophale) SiO2 
 PCOD9130077
Probable space group: C 2
;
_chemical_formula_sum "Si O2"
_cell_formula_units_Z 28
_cell_length_a 14.506575
_cell_length_b 5.308964
_cell_length_c 14.681705
_cell_angle_alpha 90.000000
_cell_angle_beta 70.561311
_cell_angle_gamma 90.000000
_cell_volume 1066.257264
_symmetry_space_group_name_H-M "C 2"
_symmetry_group_IT_number 5
_symmetry_cell_setting 'monoclinic'
loop_
_space_group_symop_operation_xyz
x,y,z
-x,y,-z
1/2+x,1/2+y,z
1/2-x,1/2+y,-z
loop_
_atom_site_type_symbol
_atom_site_label
_atom_site_fract_x
_atom_site_fract_y
_atom_site_fract_z
Si Si1 0.310003 0.396710 0.116205
Si Si2 0.051928 0.863965 0.227471
Si Si3 0.000000 0.885213 0.500000
Si Si4 0.612276 0.604972 0.625075
Si Si5 0.163291 0.480349 0.476504
Si Si6 0.634150 0.061006 0.043349
Si Si7 0.000000 0.190400 0.000000
Si Si8 0.361291 0.854705 0.708788
O O1 0.230284 0.487107 0.067083
O O2 0.410104 0.541890 0.072776
O O3 0.250066 0.422426 0.227873
O O4 0.336301 0.120462 0.070214
O O5 0.086628 0.791386 0.114832
O O6 0.075563 0.599314 0.275653
O O7 0.940929 0.970524 0.273090
O O8 0.114548 0.102360 0.242822
O O9 0.971422 0.037703 0.420729
O O10 0.903277 0.711218 0.534391
O O11 0.720153 0.506649 0.565523
O O12 0.629637 0.896779 0.588854
O O13 0.139539 0.299474 0.398723
O O14 0.550064 0.856580 0.062510
#
# Coordination Sequence:
#
# PCOD9130077 Si02
#       8
#     4   4   2   4   4   4   2   4
#     4  11  24  47  77 111 159 203 264 316 393 463
#     4  11  26  49  79 113 155 210 257 323 392 458
#     4  12  22  48  68 100 148 192 234 324 370 450
#     4  12  26  46  77 110 148 201 260 316 389 462
#     4  12  26  46  77 110 148 201 260 316 389 462
#     4  11  24  47  77 111 159 203 264 316 393 463
#     4  12  26  44  80 116 148 224 246 328 390 470
#     4  11  26  49  79 113 155 210 257 323 392 458
#
# _framework density 26.260079000000001
#
# number of rings (size 3 to 8) (size 9 to 14) (size 15 to 20)
#    0.000    0.571    4.286    3.429    4.000    2.286 
#    0.000    0.000    3.143    0.000    0.000    0.000 
#    0.000    0.000    0.000    0.000    0.000    0.000 
#
# Total GULP energy -78165.573686 kJ/mol
# GULP energy per Si atom -5583.255263 kJ/mol
# Density = 2.620031 g / cm^3
# Si number density = 26.260079 Si / 1000 Ang^3
#
#
#
# Elastic Constant Matrix: (Units=GPa)
#
#
# Indices 1 2 3 4 5 6 
#
# 1 191.5419 40.5966 21.4092 0.0002 -44.6776 0.0000
# 2 40.5966 71.5152 0.0302 0.0004 -9.3178 0.0006
# 3 21.4092 0.0302 100.1585 -0.0002 -27.9864 -0.0002
# 4 0.0002 0.0004 -0.0002 30.0899 0.0001 -7.6412
# 5 -44.6776 -9.3178 -27.9864 0.0001 53.6131 0.0003
# 6 0.0000 0.0006 -0.0002 -7.6412 0.0003 46.7320
#
#
#
# Elastic Compliance Matrix: (Units=1/GPa)
#
#
# Indices 1 2 3 4 5 6 
#
# 1 0.007200 -0.003384 -0.000030 0.000000 0.005396 0.000000
# 2 -0.003384 0.015954 0.000826 0.000000 0.000384 0.000000
# 3 -0.000030 0.000826 0.011735 0.000000 0.006244 0.000000
# 4 0.000000 0.000000 0.000000 0.034673 0.000000 0.005669
# 5 0.005396 0.000384 0.006244 0.000000 0.026475 0.000000
# 6 0.000000 0.000000 0.000000 0.005669 0.000000 0.022326
#
#
# Mechanical properties :
#
#
# Convention : Reuss Voigt Hill
#
# Bulk Modulus (GPa) = 33.65672 54.14307 43.89990
# Shear Modulus (GPa) = 37.46882 46.16565 41.81724
#
# Velocity S-wave (km/s) = 3.78145 4.19742 3.99485
# Velocity P-wave (km/s) = 5.64892 6.64484 6.16702
#
# Compressibility (1/GPa) = 0.02971175
#
# Stress axis : x y z
#
# Youngs Moduli (GPa) = 138.88724 62.68120 85.21417
#
# Poissons Ratio (x) = 0.21212 0.00258
# Poissons Ratio (y) = 0.47002 -0.07037
# Poissons Ratio (z) = 0.00420 -0.05176
#
# Static dielectric constant tensor:
#      x y z
#    x 2.005890 0.000000 -0.001460 
#    y 0.000000 2.194500 0.000000 
#    z -0.001460 0.000000 2.244140 
# 
# From -- ./inp_files/61057.got.cif
#   From: 2010.05.17/outbox.cif.g08.bks.cpg/sg5_31_cif.got.tgz:61057.got - 2010.06.03 18:56:24.
