data_PCOD9130267
_publ_section_title
;
Structure prediction by ZEFSAII (Michael W. Deem and Ramdas Pophale) SiO2 
 PCOD9130267
Probable space group: C 2
;
_chemical_formula_sum "Si O2"
_cell_formula_units_Z 16
_cell_length_a 10.453249
_cell_length_b 7.444784
_cell_length_c 11.833873
_cell_angle_alpha 90.000000
_cell_angle_beta 130.972530
_cell_angle_gamma 90.000000
_cell_volume 695.330178
_symmetry_space_group_name_H-M "C 2"
_symmetry_group_IT_number 5
_symmetry_cell_setting 'monoclinic'
loop_
_space_group_symop_operation_xyz
x,y,z
-x,y,-z
1/2+x,1/2+y,z
1/2-x,1/2+y,-z
loop_
_atom_site_type_symbol
_atom_site_label
_atom_site_fract_x
_atom_site_fract_y
_atom_site_fract_z
Si Si1 0.300670 0.164010 0.887700
Si Si2 0.307251 0.740114 0.923315
Si Si3 0.017103 0.579326 0.384658
Si Si4 0.166462 0.216588 0.572140
O O1 0.233087 0.255801 0.735869
O O2 0.279174 0.947280 0.869785
O O3 0.500000 0.198879 0.000000
O O4 0.215293 0.228184 0.954304
O O5 0.158027 0.620377 0.781905
O O6 0.500000 0.689437 0.000000
O O7 0.087723 0.380029 0.454774
O O8 0.000000 0.661947 0.500000
O O9 0.170979 0.653460 0.400396
O O10 0.000000 0.094494 0.500000
#
# Coordination Sequence:
#
# PCOD9130267 Si02
#       4
#     4   4   4   4
#     4  11  26  48  76 112 149 198 257 307 369 446
#     4  11  28  47  80 108 153 197 255 310 372 440
#     4  11  28  47  73 113 152 197 249 302 383 440
#     4  11  28  45  75 111 154 197 248 303 379 451
#
# _framework density 23.010649999999998
#
# number of rings (size 3 to 8) (size 9 to 14) (size 15 to 20)
#    0.000    1.000    2.500    0.000   17.500    3.000 
#    0.000    0.000    0.000    0.000    0.000    0.000 
#    0.000    0.000    0.000    0.000    0.000    0.000 
#
# Total GULP energy -44658.707243 kJ/mol
# GULP energy per Si atom -5582.338405 kJ/mol
# Density = 2.295828 g / cm^3
# Si number density = 23.010650 Si / 1000 Ang^3
#
#
#
# Elastic Constant Matrix: (Units=GPa)
#
#
# Indices 1 2 3 4 5 6 
#
# 1 265.9203 41.8705 95.6262 0.0000 7.1806 0.0000
# 2 41.8705 88.2408 36.9322 0.0000 17.5050 0.0000
# 3 95.6262 36.9322 144.1340 0.0000 12.0768 0.0000
# 4 0.0000 0.0000 0.0000 15.9970 0.0000 -0.6731
# 5 7.1806 17.5050 12.0768 0.0000 53.9157 0.0000
# 6 0.0000 0.0000 0.0000 -0.6731 0.0000 15.3524
#
#
#
# Elastic Compliance Matrix: (Units=1/GPa)
#
#
# Indices 1 2 3 4 5 6 
#
# 1 0.005042 -0.001185 -0.003075 0.000000 0.000402 0.000000
# 2 -0.001185 0.013638 -0.002395 0.000000 -0.003734 0.000000
# 3 -0.003075 -0.002395 0.009674 0.000000 -0.000980 0.000000
# 4 0.000000 0.000000 0.000000 0.062627 0.000000 0.002746
# 5 0.000402 -0.003734 -0.000980 0.000000 0.019926 0.000000
# 6 0.000000 0.000000 0.000000 0.002746 0.000000 0.065257
#
#
# Mechanical properties :
#
#
# Convention : Reuss Voigt Hill
#
# Bulk Modulus (GPa) = 66.47700 94.12811 80.30255
# Shear Modulus (GPa) = 25.70828 38.64411 32.17619
#
# Velocity S-wave (km/s) = 3.34613 4.10250 3.74347
# Velocity P-wave (km/s) = 6.62429 7.96466 7.32519
#
# Compressibility (1/GPa) = 0.01504280
#
# Stress axis : x y z
#
# Youngs Moduli (GPa) = 198.32809 73.32318 103.36820
#
# Poissons Ratio (x) = 0.08690 0.31788
# Poissons Ratio (y) = 0.23505 0.24761
# Poissons Ratio (z) = 0.60991 0.17564
#
# Static dielectric constant tensor:
#      x y z
#    x 1.914630 0.000000 0.038610 
#    y 0.000000 1.970200 0.000000 
#    z 0.038610 0.000000 1.863420 
# 
# From -- ./inp_files/13537.got.cif
#   From: 2010.05.17/outbox.cif.g08.bks.cpg/sg5_7_cif.got.tgz:13537.got - 2010.06.03 18:56:24.
