data_PCOD9130646
_publ_section_title
;
Structure prediction by ZEFSAII (Michael W. Deem and Ramdas Pophale) SiO2 
 PCOD9130646
Probable space group: C 2
;
_chemical_formula_sum "Si O2"
_cell_formula_units_Z 16
_cell_length_a 13.899715
_cell_length_b 4.802892
_cell_length_c 10.944540
_cell_angle_alpha 90.000000
_cell_angle_beta 50.580006
_cell_angle_gamma 90.000000
_cell_volume 564.431809
_symmetry_space_group_name_H-M "C 2"
_symmetry_group_IT_number 5
_symmetry_cell_setting 'monoclinic'
loop_
_space_group_symop_operation_xyz
x,y,z
-x,y,-z
1/2+x,1/2+y,z
1/2-x,1/2+y,-z
loop_
_atom_site_type_symbol
_atom_site_label
_atom_site_fract_x
_atom_site_fract_y
_atom_site_fract_z
Si Si1 0.000000 0.093091 0.000000
Si Si2 0.000000 0.342963 0.500000
Si Si3 0.730792 0.208577 0.227613
Si Si4 0.308968 0.093011 0.382045
Si Si5 0.458421 0.477420 0.772391
O O1 0.147247 0.010510 0.872618
O O2 0.980142 0.175580 0.872603
O O3 0.114958 0.548164 0.379074
O O4 0.005945 0.137760 0.379092
O O5 0.773224 0.461261 0.280907
O O6 0.676789 0.342988 0.146401
O O7 0.223532 0.343016 0.500002
O O8 0.054149 0.724758 0.719118
#
# Coordination Sequence:
#
# PCOD9130646 Si02
#       5
#     2   2   4   4   4
#     4  12  34  58  92 134 196 256 296 378 502 564
#     4  12  30  64  98 140 184 246 334 392 450 552
#     4  12  32  54  93 139 188 248 314 393 464 566
#     4  12  29  53  94 138 184 244 316 392 461 547
#     4  12  32  54  93 139 188 248 314 393 464 566
#
# _framework density 28.347090999999999
#
# number of rings (size 3 to 8) (size 9 to 14) (size 15 to 20)
#    0.000    0.000    0.000    5.250   31.500    1.000 
#    0.000    0.000    0.000    0.000    0.000    0.000 
#    0.000    0.000    0.000    0.000    0.000    0.000 
#
# Total GULP energy -44683.775652 kJ/mol
# GULP energy per Si atom -5585.471957 kJ/mol
# Density = 2.828257 g / cm^3
# Si number density = 28.347091 Si / 1000 Ang^3
#
#
#
# Elastic Constant Matrix: (Units=GPa)
#
#
# Indices 1 2 3 4 5 6 
#
# 1 254.9586 57.0387 63.6876 -0.0043 0.0926 0.0007
# 2 57.0387 183.3246 40.0661 -0.0164 -0.1919 0.0104
# 3 63.6876 40.0661 121.0859 -0.0056 -1.6171 0.0026
# 4 -0.0043 -0.0164 -0.0056 -19.0239 0.0020 -1.0128
# 5 0.0926 -0.1919 -1.6171 0.0020 98.6979 -0.0008
# 6 0.0007 0.0104 0.0026 -1.0128 -0.0008 67.6129
#
#
#
# Elastic Compliance Matrix: (Units=1/GPa)
#
#
# Indices 1 2 3 4 5 6 
#
# 1 0.004676 -0.000989 -0.002133 0.000000 -0.000041 0.000000
# 2 -0.000989 0.006089 -0.001495 -0.000005 -0.000012 -0.000001
# 3 -0.002133 -0.001495 0.009877 -0.000001 0.000161 0.000000
# 4 0.000000 -0.000005 -0.000001 -0.052524 0.000001 -0.000787
# 5 -0.000041 -0.000012 0.000161 0.000001 0.010135 0.000000
# 6 0.000000 -0.000001 0.000000 -0.000787 0.000000 0.014778
#
#
# Mechanical properties :
#
#
# Convention : Reuss Voigt Hill
#
# Bulk Modulus (GPa) = 87.64746 97.88378 92.76562
# Shear Modulus (GPa) = 823.95433 56.02917 439.99175
#
# Velocity S-wave (km/s) = 17.06743 4.45065 12.47208
# Velocity P-wave (km/s) = 20.47884 7.81131 15.49838
#
# Compressibility (1/GPa) = 0.01140934
#
# Stress axis : x y z
#
# Youngs Moduli (GPa) = 213.84738 164.22604 101.24275
#
# Poissons Ratio (x) = 0.16239 0.21594
# Poissons Ratio (y) = 0.21146 0.15135
# Poissons Ratio (z) = 0.45612 0.24550
#
# Static dielectric constant tensor:
#      x y z
#    x 2.342120 0.000000 -0.001010 
#    y 0.000000 2.235630 0.000000 
#    z -0.001010 0.000000 2.263610 
# 
# From -- ./inp_files/40879.got.cif
#   From: 2010.05.17/outbox.cif.g08.bks.cpg/sg5_21_cif.got.tgz:40879.got - 2010.06.03 18:56:24.
