data_PCOD9130146
_publ_section_title
;
Structure prediction by ZEFSAII (Michael W. Deem and Ramdas Pophale) SiO2 
 PCOD9130146
Probable space group: C 2
;
_chemical_formula_sum "Si O2"
_cell_formula_units_Z 24
_cell_length_a 21.734638
_cell_length_b 7.976810
_cell_length_c 9.958492
_cell_angle_alpha 90.000000
_cell_angle_beta 31.934028
_cell_angle_gamma 90.000000
_cell_volume 913.237333
_symmetry_space_group_name_H-M "C 2"
_symmetry_group_IT_number 5
_symmetry_cell_setting 'monoclinic'
loop_
_space_group_symop_operation_xyz
x,y,z
-x,y,-z
1/2+x,1/2+y,z
1/2-x,1/2+y,-z
loop_
_atom_site_type_symbol
_atom_site_label
_atom_site_fract_x
_atom_site_fract_y
_atom_site_fract_z
Si Si1 0.525209 0.514600 0.751568
Si Si2 0.242016 0.688027 0.054500
Si Si3 0.500000 0.377214 0.500000
Si Si4 0.000000 0.736882 0.000000
Si Si5 0.282790 0.120355 0.329376
Si Si6 0.428103 0.862767 0.887851
Si Si7 0.316419 0.864178 0.676017
O O1 0.509312 0.482683 0.621321
O O2 0.472047 0.358540 0.927581
O O3 0.659565 0.524889 0.552976
O O4 0.462251 0.690837 0.902554
O O5 0.112960 0.760024 0.286851
O O6 0.242050 0.516807 0.137657
O O7 0.327320 0.812804 0.973253
O O8 0.293039 0.698228 0.810263
O O9 0.121848 0.648344 0.729882
O O10 0.236914 0.302950 0.364999
O O11 0.374336 0.014494 0.069435
O O12 0.548297 0.904254 0.591090
#
# Coordination Sequence:
#
# PCOD9130146 Si02
#       7
#     4   4   2   2   4   4   4
#     4  11  28  51  77 116 157 204 261 334 395 470
#     4  12  24  41  70 103 158 199 249 314 393 459
#     4  12  26  48  80 116 162 202 256 330 402 468
#     4  12  28  50  80 110 158 204 268 324 390 478
#     4  11  26  50  74 110 152 205 268 321 395 471
#     4  11  25  45  74 107 148 203 261 315 392 463
#     4  11  27  42  68 109 150 204 258 315 389 466
#
# _framework density 26.280135000000001
#
# number of rings (size 3 to 8) (size 9 to 14) (size 15 to 20)
#    0.000    0.667    1.667    4.500   14.000    4.667 
#    0.000    0.000    0.000    0.000    0.000    0.000 
#    0.000    0.000    0.000    0.000    0.000    0.000 
#
# Total GULP energy -67106.950170 kJ/mol
# GULP energy per Si atom -5592.245848 kJ/mol
# Density = 2.622032 g / cm^3
# Si number density = 26.280135 Si / 1000 Ang^3
#
#
#
# Elastic Constant Matrix: (Units=GPa)
#
#
# Indices 1 2 3 4 5 6 
#
# 1 72.5010 5.3721 21.3578 0.0000 -28.0243 0.0000
# 2 5.3721 76.7769 26.6279 0.0000 -3.2788 0.0000
# 3 21.3578 26.6279 141.8119 0.0000 -57.9616 0.0000
# 4 0.0000 0.0000 0.0000 54.9131 0.0000 -4.9213
# 5 -28.0243 -3.2788 -57.9616 0.0000 50.0868 0.0000
# 6 0.0000 0.0000 0.0000 -4.9213 0.0000 32.2122
#
#
#
# Elastic Compliance Matrix: (Units=1/GPa)
#
#
# Indices 1 2 3 4 5 6 
#
# 1 0.018351 -0.001825 0.003276 0.000000 0.013940 0.000000
# 2 -0.001825 0.014552 -0.004716 0.000000 -0.005526 0.000000
# 3 0.003276 -0.004716 0.015307 0.000000 0.019237 0.000000
# 4 0.000000 0.000000 0.000000 0.018463 0.000000 0.002821
# 5 0.013940 -0.005526 0.019237 0.000000 0.049665 0.000000
# 6 0.000000 0.000000 0.000000 0.002821 0.000000 0.031475
#
#
# Mechanical properties :
#
#
# Convention : Reuss Voigt Hill
#
# Bulk Modulus (GPa) = 23.99241 44.20060 34.09651
# Shear Modulus (GPa) = 29.72002 43.29122 36.50562
#
# Velocity S-wave (km/s) = 3.36652 4.06310 3.73110
# Velocity P-wave (km/s) = 4.92551 6.23436 5.61818
#
# Compressibility (1/GPa) = 0.04167985
#
# Stress axis : x y z
#
# Youngs Moduli (GPa) = 54.49239 68.71834 65.33172
#
# Poissons Ratio (x) = 0.12541 -0.21405
# Poissons Ratio (y) = 0.09945 0.30813
# Poissons Ratio (z) = -0.17854 0.32410
#
# Static dielectric constant tensor:
#      x y z
#    x 2.299410 0.000000 0.015410 
#    y 0.000000 2.096550 0.000000 
#    z 0.015410 0.000000 2.033010 
# 
# From -- ./inp_files/47273.got.cif
#   From: 2010.05.17/outbox.cif.g08.bks.cpg/sg5_24_cif.got.tgz:47273.got - 2010.06.03 18:56:24.
