data_PCOD9130517
_publ_section_title
;
Structure prediction by ZEFSAII (Michael W. Deem and Ramdas Pophale) SiO2 
 PCOD9130517
Probable space group: C 2
;
_chemical_formula_sum "Si O2"
_cell_formula_units_Z 24
_cell_length_a 29.658608
_cell_length_b 7.169948
_cell_length_c 4.790321
_cell_angle_alpha 90.000000
_cell_angle_beta 94.562610
_cell_angle_gamma 90.000000
_cell_volume 1015.436857
_symmetry_space_group_name_H-M "C 2"
_symmetry_group_IT_number 5
_symmetry_cell_setting 'monoclinic'
loop_
_space_group_symop_operation_xyz
x,y,z
-x,y,-z
1/2+x,1/2+y,z
1/2-x,1/2+y,-z
loop_
_atom_site_type_symbol
_atom_site_label
_atom_site_fract_x
_atom_site_fract_y
_atom_site_fract_z
Si Si1 0.392749 0.061070 0.873963
Si Si2 0.530829 0.240772 0.773052
Si Si3 0.142307 0.331618 0.626436
Si Si4 0.243857 0.454773 0.591776
Si Si5 0.881392 0.896436 0.456396
Si Si6 0.709868 0.318643 0.868896
O O1 0.440536 0.083479 0.051044
O O2 0.381905 0.271009 0.740607
O O3 0.391292 0.946008 0.588408
O O4 0.363018 0.928634 0.069740
O O5 0.500000 0.177501 0.500000
O O6 0.569679 0.369386 0.658183
O O7 0.500000 0.331010 0.000000
O O8 0.193926 0.367931 0.556328
O O9 0.130855 0.114928 0.566792
O O10 0.266519 0.479894 0.303300
O O11 0.235872 0.645300 0.750599
O O12 0.279846 0.346882 0.804197
O O13 0.841826 0.805438 0.248175
#
# Coordination Sequence:
#
# PCOD9130517 Si02
#       6
#     4   4   4   4   4   4
#     4  12  25  49  78 107 147 201 248 316 381 473
#     4  12  25  49  82 107 148 194 246 323 399 460
#     4  12  27  46  77 113 154 203 259 306 387 458
#     4  12  25  45  65 108 150 196 253 309 354 457
#     4  12  28  48  80 108 155 203 253 322 387 465
#     4  12  26  43  70 103 150 197 253 302 378 429
#
# _framework density 23.635145999999999
#
# number of rings (size 3 to 8) (size 9 to 14) (size 15 to 20)
#    0.000    0.000    5.000    4.000    7.000    0.000 
#    0.000    3.333    3.667    0.000    0.000    0.000 
#    0.000    0.000    0.000    0.000    0.000    0.000 
#
# Total GULP energy -67018.147778 kJ/mol
# GULP energy per Si atom -5584.845648 kJ/mol
# Density = 2.358135 g / cm^3
# Si number density = 23.635146 Si / 1000 Ang^3
#
#
#
# Elastic Constant Matrix: (Units=GPa)
#
#
# Indices 1 2 3 4 5 6 
#
# 1 124.4181 3.3964 45.8711 0.0000 5.3987 0.0000
# 2 3.3964 113.1521 26.7576 0.0000 0.6004 0.0000
# 3 45.8711 26.7576 183.7645 0.0000 6.2179 0.0000
# 4 0.0000 0.0000 0.0000 31.5674 0.0000 -4.3492
# 5 5.3987 0.6004 6.2179 0.0000 56.0546 0.0000
# 6 0.0000 0.0000 0.0000 -4.3492 0.0000 21.2465
#
#
#
# Elastic Compliance Matrix: (Units=1/GPa)
#
#
# Indices 1 2 3 4 5 6 
#
# 1 0.008881 0.000265 -0.002235 0.000000 -0.000610 0.000000
# 2 0.000265 0.009161 -0.001401 0.000000 0.000032 0.000000
# 3 -0.002235 -0.001401 0.006219 0.000000 -0.000460 0.000000
# 4 0.000000 0.000000 0.000000 0.032598 0.000000 0.006673
# 5 -0.000610 0.000032 -0.000460 0.000000 0.017949 0.000000
# 6 0.000000 0.000000 0.000000 0.006673 0.000000 0.048433
#
#
# Mechanical properties :
#
#
# Convention : Reuss Voigt Hill
#
# Bulk Modulus (GPa) = 57.08054 63.70944 60.39499
# Shear Modulus (GPa) = 36.81312 44.79433 40.80372
#
# Velocity S-wave (km/s) = 3.95087 4.35816 4.15951
# Velocity P-wave (km/s) = 6.70937 7.23455 6.97690
#
# Compressibility (1/GPa) = 0.01751911
#
# Stress axis : x y z
#
# Youngs Moduli (GPa) = 112.60551 109.15986 160.79384
#
# Poissons Ratio (x) = -0.02894 0.35933
# Poissons Ratio (y) = -0.02985 0.22530
# Poissons Ratio (z) = 0.25164 0.15295
#
# Static dielectric constant tensor:
#      x y z
#    x 1.910370 0.000000 -0.036540 
#    y 0.000000 2.027850 0.000000 
#    z -0.036540 0.000000 1.903350 
# 
# From -- ./inp_files/10736.got.cif
#   From: 2010.05.17/outbox.cif.g08.bks.cpg/sg5_6_cif.got.tgz:10736.got - 2010.06.03 18:56:24.
