data_PCOD9130817
_publ_section_title
;
Structure prediction by ZEFSAII (Michael W. Deem and Ramdas Pophale) SiO2 
 PCOD9130817
Probable space group: P M
;
_chemical_formula_sum "Si O2"
_cell_formula_units_Z 14
_cell_length_a 5.663453
_cell_length_b 13.491474
_cell_length_c 8.994487
_cell_angle_alpha 90.000000
_cell_angle_beta 99.839480
_cell_angle_gamma 90.000000
_cell_volume 677.144480
_symmetry_space_group_name_H-M "P M"
_symmetry_group_IT_number 6
_symmetry_cell_setting 'monoclinic'
loop_
_space_group_symop_operation_xyz
x,y,z
x,-y,z
loop_
_atom_site_type_symbol
_atom_site_label
_atom_site_fract_x
_atom_site_fract_y
_atom_site_fract_z
Si Si1 0.956260 0.108728 0.958090
Si Si2 0.852695 0.610868 0.761981
Si Si3 0.703219 0.611515 0.096907
Si Si4 0.600815 0.194459 0.702680
Si Si5 0.284968 0.286608 0.922402
Si Si6 0.361364 0.882278 0.386981
Si Si7 0.823114 0.814753 0.243716
O O1 0.810396 0.125086 0.789965
O O2 0.131063 0.202420 0.985110
O O3 0.068098 0.000000 0.972677
O O4 0.795270 0.123529 0.087050
O O5 0.810239 0.500000 0.702397
O O6 0.715937 0.700085 0.665695
O O7 0.128875 0.642134 0.800272
O O8 0.784384 0.613496 0.931448
O O9 0.733911 0.500000 0.155194
O O10 0.825368 0.698150 0.203154
O O11 0.427434 0.645776 0.052840
O O12 0.452569 0.224983 0.831343
O O13 0.439475 0.144011 0.562967
O O14 0.586012 0.838311 0.315455
O O15 0.088209 0.844188 0.331876
O O16 0.357961 0.000000 0.361883
#
# Coordination Sequence:
#
# PCOD9130817 Si02
#       7
#     2   2   2   2   2   2   2
#     4  11  22  38  64  95 127 168 226 287 328 379
#     4   9  18  35  64  98 127 164 213 276 336 383
#     4  10  20  38  65  97 130 169 213 275 340 392
#     4  10  23  41  63  92 129 171 224 273 322 403
#     4  10  18  37  63  99 127 163 221 281 320 394
#     4  12  28  47  67  93 139 189 217 266 342 399
#     4  12  25  46  66 100 135 170 230 274 328 400
#
# _framework density 20.675056999999999
#
# number of rings (size 3 to 8) (size 9 to 14) (size 15 to 20)
#    0.000    1.429    4.286    3.000    4.000    1.714 
#    0.000    1.429    0.000    0.000    0.000    0.000 
#    0.000    0.000    0.000    0.000    0.000    0.000 
#
# Total GULP energy -78073.263947 kJ/mol
# GULP energy per Si atom -5576.661711 kJ/mol
# Density = 2.062800 g / cm^3
# Si number density = 20.675057 Si / 1000 Ang^3
#
#
#
# Elastic Constant Matrix: (Units=GPa)
#
#
# Indices 1 2 3 4 5 6 
#
# 1 75.7554 29.4962 16.0251 0.0000 21.5306 0.0000
# 2 29.4962 153.7232 23.3102 0.0000 14.3987 0.0000
# 3 16.0251 23.3102 53.1608 0.0000 26.6916 0.0000
# 4 0.0000 0.0000 0.0000 22.6201 0.0000 -0.9836
# 5 21.5306 14.3987 26.6916 0.0000 26.1363 0.0000
# 6 0.0000 0.0000 0.0000 -0.9836 0.0000 15.4816
#
#
#
# Elastic Compliance Matrix: (Units=1/GPa)
#
#
# Indices 1 2 3 4 5 6 
#
# 1 0.018534 -0.002544 0.005112 0.000000 -0.019087 0.000000
# 2 -0.002544 0.007345 -0.003026 0.000000 0.001139 0.000000
# 3 0.005112 -0.003026 0.040789 0.000000 -0.044200 0.000000
# 4 0.000000 0.000000 0.000000 0.044331 0.000000 0.002816
# 5 -0.019087 0.001139 -0.044200 0.000000 0.098496 0.000000
# 6 0.000000 0.000000 0.000000 0.002816 0.000000 0.064772
#
#
# Mechanical properties :
#
#
# Convention : Reuss Voigt Hill
#
# Bulk Modulus (GPa) = 15.20839 46.70026 30.95432
# Shear Modulus (GPa) = 16.82932 27.10147 21.96539
#
# Velocity S-wave (km/s) = 2.85615 3.62447 3.26300
# Velocity P-wave (km/s) = 4.27185 6.33659 5.40375
#
# Compressibility (1/GPa) = 0.06575317
#
# Stress axis : x y z
#
# Youngs Moduli (GPa) = 53.95410 136.13901 24.51640
#
# Poissons Ratio (x) = 0.34629 -0.12532
# Poissons Ratio (y) = 0.13724 0.07419
# Poissons Ratio (z) = -0.27581 0.41195
#
# Static dielectric constant tensor:
#      x y z
#    x 1.850120 0.000000 -0.002640 
#    y 0.000000 1.748300 0.000000 
#    z -0.002640 0.000000 1.739310 
# 
# From -- ./inp_files/2210.got.cif
#   From: 2010.05.17/outbox.cif.g08.bks.cpg/sg6_2_cif.got.tgz:2210.got - 2010.06.03 19:42:10.
