data_PCOD9130344
_publ_section_title
;
Structure prediction by ZEFSAII (Michael W. Deem and Ramdas Pophale) SiO2 
 PCOD9130344
Probable space group: C 2
;
_chemical_formula_sum "Si O2"
_cell_formula_units_Z 18
_cell_length_a 8.296175
_cell_length_b 17.056954
_cell_length_c 7.860876
_cell_angle_alpha 90.000000
_cell_angle_beta 125.865172
_cell_angle_gamma 90.000000
_cell_volume 901.464542
_symmetry_space_group_name_H-M "C 2"
_symmetry_group_IT_number 5
_symmetry_cell_setting 'monoclinic'
loop_
_space_group_symop_operation_xyz
x,y,z
-x,y,-z
1/2+x,1/2+y,z
1/2-x,1/2+y,-z
loop_
_atom_site_type_symbol
_atom_site_label
_atom_site_fract_x
_atom_site_fract_y
_atom_site_fract_z
Si Si1 0.064122 0.812150 0.867094
Si Si2 0.661829 0.435137 0.451004
Si Si3 0.800350 0.067481 0.774953
Si Si4 0.000000 0.703304 0.500000
Si Si5 0.419191 0.933626 0.133573
O O1 0.020626 0.758979 0.677138
O O2 0.908224 0.882834 0.749144
O O3 0.273962 0.858998 0.009115
O O4 0.000000 0.769266 0.000000
O O5 0.500000 0.426570 0.500000
O O6 0.659319 0.521909 0.375530
O O7 0.880242 0.410560 0.643596
O O8 0.681641 0.143953 0.644970
O O9 0.680661 0.005225 0.822335
O O10 0.000000 0.086912 0.000000
O O11 0.500000 0.962256 0.000000
#
# Coordination Sequence:
#
# PCOD9130344 Si02
#       5
#     4   4   4   2   4
#     4  12  25  45  70 104 142 182 236 289 348 418
#     4  12  21  42  74 103 134 185 245 281 333 430
#     4  12  24  45  70 103 141 185 233 291 347 416
#     4  12  28  46  68 108 154 170 228 306 364 384
#     4  12  21  39  76 103 132 187 242 281 338 423
#
# _framework density 19.967509
#
# number of rings (size 3 to 8) (size 9 to 14) (size 15 to 20)
#    0.000    0.000   10.000    0.000    0.000    3.556 
#    4.000    0.000    0.000    0.000    0.000    0.000 
#    0.000    0.000    0.000    0.000    0.000    0.000 
#
# Total GULP energy -50207.074469 kJ/mol
# GULP energy per Si atom -5578.563830 kJ/mol
# Density = 1.992206 g / cm^3
# Si number density = 19.967509 Si / 1000 Ang^3
#
#
#
# Elastic Constant Matrix: (Units=GPa)
#
#
# Indices 1 2 3 4 5 6 
#
# 1 78.1127 48.7348 68.4007 0.0000 -6.0118 0.0000
# 2 48.7348 100.4034 43.6107 0.0000 0.3847 0.0000
# 3 68.4007 43.6107 171.4425 0.0000 29.0497 0.0000
# 4 0.0000 0.0000 0.0000 45.7097 0.0000 6.1069
# 5 -6.0118 0.3847 29.0497 0.0000 56.2123 0.0000
# 6 0.0000 0.0000 0.0000 6.1069 0.0000 9.1105
#
#
#
# Elastic Compliance Matrix: (Units=1/GPa)
#
#
# Indices 1 2 3 4 5 6 
#
# 1 0.028322 -0.009274 -0.010373 0.000000 0.008453 0.000000
# 2 -0.009274 0.014355 0.000256 0.000000 -0.001222 0.000000
# 3 -0.010373 0.000256 0.011063 0.000000 -0.006828 0.000000
# 4 0.000000 0.000000 0.000000 0.024029 0.000000 -0.016107
# 5 0.008453 -0.001222 -0.006828 0.000000 0.022231 0.000000
# 6 0.000000 0.000000 0.000000 -0.016107 0.000000 0.120560
#
#
# Mechanical properties :
#
#
# Convention : Reuss Voigt Hill
#
# Bulk Modulus (GPa) = 66.85527 74.60567 70.73047
# Shear Modulus (GPa) = 18.91587 34.82067 26.86827
#
# Velocity S-wave (km/s) = 3.08122 4.18049 3.67222
# Velocity P-wave (km/s) = 6.79803 7.79402 7.31300
#
# Compressibility (1/GPa) = 0.01495768
#
# Stress axis : x y z
#
# Youngs Moduli (GPa) = 35.30850 69.66219 90.38862
#
# Poissons Ratio (x) = 0.64605 0.93758
# Poissons Ratio (y) = 0.32745 -0.02310
# Poissons Ratio (z) = 0.36625 -0.01781
#
# Static dielectric constant tensor:
#      x y z
#    x 1.778220 0.000000 -0.066140 
#    y 0.000000 1.753680 0.000000 
#    z -0.066140 0.000000 1.847650 
# 
# From -- ./inp_files/15517.got.cif
#   From: 2010.05.17/outbox.cif.g08.bks.cpg/sg5_8_cif.got.tgz:15517.got - 2010.06.03 18:56:24.
