data_PCOD9130716
_publ_section_title
;
Structure prediction by ZEFSAII (Michael W. Deem and Ramdas Pophale) SiO2 
 PCOD9130716
Probable space group: C 2
;
_chemical_formula_sum "Si O2"
_cell_formula_units_Z 15
_cell_length_a 9.000000
_cell_length_b 18.000000
_cell_length_c 21.000000
_cell_angle_alpha 90.000000
_cell_angle_beta 30.000000
_cell_angle_gamma 90.000000
_cell_volume 1701.000000
_symmetry_space_group_name_H-M "C 2"
_symmetry_group_IT_number 5
_symmetry_cell_setting 'monoclinic'
loop_
_space_group_symop_operation_xyz
x,y,z
-x,y,-z
1/2+x,1/2+y,z
1/2-x,1/2+y,-z
loop_
_atom_site_type_symbol
_atom_site_label
_atom_site_fract_x
_atom_site_fract_y
_atom_site_fract_z
Si Si1 0.362311 0.434510 0.357913
Si Si2 0.710096 0.396210 0.359933
Si Si3 0.715916 0.010622 0.219191
Si Si4 0.783750 0.586179 0.642242
Si Si5 0.537332 0.740375 0.205988
Si Si6 0.000000 0.113294 0.000000
Si Si7 0.172929 0.737773 0.039435
Si Si8 0.159868 0.893672 0.119378
O O1 0.521980 0.417677 0.365935
O O2 0.416229 0.519103 0.312781
O O3 0.498995 0.387301 0.248356
O O4 0.000000 0.425943 0.500000
O O5 0.500000 0.387817 0.500000
O O6 0.947243 0.460866 0.290202
O O7 0.875358 0.317590 0.284847
O O8 0.968835 0.951909 0.148356
O O9 0.624967 0.052899 0.320399
O O10 0.844279 0.063521 0.114332
O O11 0.645768 0.666002 0.709494
O O12 0.000000 0.597396 0.500000
O O13 0.843317 0.732531 0.132106
O O14 0.614421 0.741823 0.101865
O O15 0.227652 0.168757 0.952892
O O16 0.180180 0.814021 0.077023
O O17 0.500000 0.920748 0.000000
#
# Coordination Sequence:
#
# PCOD9130716 Si02
#       8
#     4   4   4   4   4   2   4   4
#     4  10  24  42  68  94 134 174 220 271 334 400
#     4  12  24  42  69  98 131 171 220 276 324 391
#     4  11  26  41  67 102 128 171 224 274 327 390
#     4  10  21  45  65  89 131 170 216 264 323 397
#     4  11  24  41  66  96 127 172 217 265 336 384
#     4  12  26  42  66  94 140 166 222 268 334 390
#     4  11  24  42  62  91 135 171 208 273 326 395
#     4  11  22  41  67  94 132 172 218 269 335 388
#
# _framework density 8.8183419999999995
#
# number of rings (size 3 to 8) (size 9 to 14) (size 15 to 20)
#    0.000    1.067    3.333    3.600    5.600    1.067 
#    0.000    0.000    0.000    0.000    0.000    0.000 
#    0.000    0.000    0.000    0.000    0.000    0.000 
#
# Total GULP energy -83661.801866 kJ/mol
# GULP energy per Si atom -5577.453458 kJ/mol
# Density = 0.879827 g / cm^3
# Si number density = 8.818342 Si / 1000 Ang^3
#
#
#
# Elastic Constant Matrix: (Units=GPa)
#
#
# Indices 1 2 3 4 5 6 
#
# 1 172.7989 77.0352 77.4118 -0.0437 15.2065 0.0196
# 2 77.0352 148.6831 74.9182 0.0712 13.7983 -0.0263
# 3 77.4118 74.9182 133.6958 -0.0356 23.3789 0.0283
# 4 -0.0437 0.0712 -0.0356 42.7574 0.0526 8.1412
# 5 15.2065 13.7983 23.3789 0.0526 45.5242 -0.0257
# 6 0.0196 -0.0263 0.0283 8.1412 -0.0257 43.6571
#
#
#
# Elastic Compliance Matrix: (Units=1/GPa)
#
#
# Indices 1 2 3 4 5 6 
#
# 1 0.008524 -0.002687 -0.003378 0.000012 -0.000298 -0.000006
# 2 -0.002687 0.010220 -0.004160 -0.000026 -0.000064 0.000015
# 3 -0.003378 -0.004160 0.012469 0.000022 -0.004014 -0.000015
# 4 0.000012 -0.000026 0.000022 0.024249 -0.000038 -0.004522
# 5 -0.000298 -0.000064 -0.004014 -0.000038 0.024147 0.000024
# 6 -0.000006 0.000015 -0.000015 -0.004522 0.000024 0.023749
#
#
# Mechanical properties :
#
#
# Convention : Reuss Voigt Hill
#
# Bulk Modulus (GPa) = 92.90871 101.54536 97.22703
# Shear Modulus (GPa) = 39.24798 41.44190 40.34494
#
# Velocity S-wave (km/s) = 4.72249 4.85269 4.78803
# Velocity P-wave (km/s) = 9.08457 9.43924 9.26361
#
# Compressibility (1/GPa) = 0.01076325
#
# Stress axis : x y z
#
# Youngs Moduli (GPa) = 117.30947 97.84849 80.20161
#
# Poissons Ratio (x) = 0.26291 0.27092
# Poissons Ratio (y) = 0.31520 0.33364
# Poissons Ratio (z) = 0.39627 0.40705
#
# Static dielectric constant tensor:
#      x y z
#    x 1.600890 0.000000 -0.004820 
#    y 0.000000 1.594730 0.000000 
#    z -0.004820 0.000000 1.623360 
# 
# From -- ./inp_files/64764.got.cif
#   From: 2010.05.17/outbox.ucp.g08.bks.cvg/sg5_33_cif.got.tgz:64764.got - 2010.06.11 12:53:14.
