data_PCOD9130292
_publ_section_title
;
Structure prediction by ZEFSAII (Michael W. Deem and Ramdas Pophale) SiO2 
 PCOD9130292
Probable space group: C 2
;
_chemical_formula_sum "Si O2"
_cell_formula_units_Z 22
_cell_length_a 13.173586
_cell_length_b 14.275423
_cell_length_c 11.160987
_cell_angle_alpha 90.000000
_cell_angle_beta 147.913284
_cell_angle_gamma 90.000000
_cell_volume 1114.950102
_symmetry_space_group_name_H-M "C 2"
_symmetry_group_IT_number 5
_symmetry_cell_setting 'monoclinic'
loop_
_space_group_symop_operation_xyz
x,y,z
-x,y,-z
1/2+x,1/2+y,z
1/2-x,1/2+y,-z
loop_
_atom_site_type_symbol
_atom_site_label
_atom_site_fract_x
_atom_site_fract_y
_atom_site_fract_z
Si Si1 0.000000 0.972450 0.500000
Si Si2 0.841948 0.647307 0.496688
Si Si3 0.000000 0.482674 0.500000
Si Si4 0.500000 0.727552 0.000000
Si Si5 0.794342 0.822958 0.855893
Si Si6 0.158108 0.807819 0.812852
Si Si7 0.705655 0.132156 0.267221
O O1 0.071054 0.904404 0.676718
O O2 0.168166 0.041465 0.629742
O O3 0.929030 0.550723 0.534711
O O4 0.645186 0.669087 0.229417
O O5 0.809991 0.646325 0.606551
O O6 0.000018 0.727567 0.630841
O O7 0.831803 0.413657 0.293427
O O8 0.645135 0.786020 0.060882
O O9 0.718161 0.727554 0.718158
O O10 0.809951 0.808807 0.013383
O O11 0.000000 0.837185 0.000000
O O12 0.500000 0.117911 0.000000
#
# Coordination Sequence:
#
# PCOD9130292 Si02
#       7
#     2   4   2   2   4   4   4
#     4  12  28  42  72 114 134 186 244 290 348 424
#     4  12  26  48  72 107 145 183 241 291 357 427
#     4  12  28  42  72 114 134 186 244 290 348 424
#     4  12  26  44  78  94 150 192 226 290 364 402
#     4  11  27  47  72 101 151 189 231 291 361 420
#     4  12  26  48  72 107 145 183 241 291 357 427
#     4  11  27  47  72 101 151 189 231 291 361 420
#
# _framework density 19.731825000000001
#
# number of rings (size 3 to 8) (size 9 to 14) (size 15 to 20)
#    0.000    0.364    7.273    0.545   12.727    0.000 
#    0.000    0.000    0.000    0.000    0.000    0.000 
#    0.000    0.000    0.000    0.000    0.000    0.000 
#
# Total GULP energy -61512.240459 kJ/mol
# GULP energy per Si atom -5592.021860 kJ/mol
# Density = 1.968691 g / cm^3
# Si number density = 19.731825 Si / 1000 Ang^3
#
#
#
# Elastic Constant Matrix: (Units=GPa)
#
#
# Indices 1 2 3 4 5 6 
#
# 1 160.0906 88.3434 108.7943 0.0000 -27.6365 0.0000
# 2 88.3434 186.9334 87.4491 0.0000 -0.9525 0.0000
# 3 108.7943 87.4491 139.2823 0.0000 2.7954 0.0000
# 4 0.0000 0.0000 0.0000 38.4868 0.0000 29.3531
# 5 -27.6365 -0.9525 2.7954 0.0000 50.9602 0.0000
# 6 0.0000 0.0000 0.0000 29.3531 0.0000 14.2466
#
#
#
# Elastic Compliance Matrix: (Units=1/GPa)
#
#
# Indices 1 2 3 4 5 6 
#
# 1 0.018162 -0.002541 -0.012802 0.000000 0.010504 0.000000
# 2 -0.002541 0.007938 -0.002978 0.000000 -0.001066 0.000000
# 3 -0.012802 -0.002978 0.019211 0.000000 -0.008052 0.000000
# 4 0.000000 0.000000 0.000000 -0.045473 0.000000 0.093691
# 5 0.010504 -0.001066 -0.008052 0.000000 0.025741 0.000000
# 6 0.000000 0.000000 0.000000 0.093691 0.000000 -0.122844
#
#
# Mechanical properties :
#
#
# Convention : Reuss Voigt Hill
#
# Bulk Modulus (GPa) = 115.35011 117.27554 116.31282
# Shear Modulus (GPa) = -86.60308 34.18668 -26.20820
#
# Velocity S-wave (km/s) = -6.63214 4.16693 -3.64843
# Velocity P-wave (km/s) = 0.24755 9.09477 6.42859
#
# Compressibility (1/GPa) = 0.00866926
#
# Stress axis : x y z
#
# Youngs Moduli (GPa) = 55.06074 125.97837 52.05484
#
# Poissons Ratio (x) = 0.32008 0.66640
# Poissons Ratio (y) = 0.13990 0.15501
# Poissons Ratio (z) = 0.70488 0.37514
#
# Static dielectric constant tensor:
#      x y z
#    x 1.678470 0.000000 0.005430 
#    y 0.000000 1.667070 0.000000 
#    z 0.005430 0.000000 1.682990 
# 
# From -- ./inp_files/42733.got.cif
#   From: 2010.05.17/outbox.cif.g08.bks.cpg/sg5_22_cif.got.tgz:42733.got - 2010.06.03 18:56:24.
