data_PCOD9130232
_publ_section_title
;
Structure prediction by ZEFSAII (Michael W. Deem and Ramdas Pophale) SiO2 
 PCOD9130232
Probable space group: C 2
;
_chemical_formula_sum "Si O2"
_cell_formula_units_Z 24
_cell_length_a 13.629214
_cell_length_b 4.761551
_cell_length_c 13.201256
_cell_angle_alpha 90.000000
_cell_angle_beta 78.488281
_cell_angle_gamma 90.000000
_cell_volume 839.477632
_symmetry_space_group_name_H-M "C 2"
_symmetry_group_IT_number 5
_symmetry_cell_setting 'monoclinic'
loop_
_space_group_symop_operation_xyz
x,y,z
-x,y,-z
1/2+x,1/2+y,z
1/2-x,1/2+y,-z
loop_
_atom_site_type_symbol
_atom_site_label
_atom_site_fract_x
_atom_site_fract_y
_atom_site_fract_z
Si Si1 0.387977 0.632300 0.013704
Si Si2 0.092101 0.533141 0.525937
Si Si3 0.686040 0.318809 0.171852
Si Si4 0.760969 0.219534 0.650204
Si Si5 0.481283 0.840029 0.739768
Si Si6 0.587902 0.330740 0.803676
O O1 0.291857 0.758713 0.091684
O O2 0.407504 0.361939 0.079120
O O3 0.500000 0.771055 0.000000
O O4 0.357583 0.527080 0.908905
O O5 0.150869 0.370746 0.426511
O O6 0.000000 0.722200 0.500000
O O7 0.026256 0.353512 0.617557
O O8 0.182035 0.646683 0.577063
O O9 0.616201 0.037489 0.210167
O O10 0.494847 0.520870 0.234159
O O11 0.800536 0.987561 0.723311
O O12 0.692904 0.418226 0.733517
O O13 0.566113 0.013099 0.782407
#
# Coordination Sequence:
#
# PCOD9130232 Si02
#       6
#     4   4   4   4   4   4
#     4  12  27  51  83 127 171 240 297 370 455 551
#     4  11  27  48  85 119 168 235 301 362 457 530
#     4  12  29  50  89 130 186 235 310 378 470 539
#     4  11  27  53  83 130 181 238 307 386 456 553
#     4  11  27  51  84 127 173 230 294 374 441 540
#     4  11  25  52  83 121 178 229 294 367 448 532
#
# _framework density 28.589206000000001
#
# number of rings (size 3 to 8) (size 9 to 14) (size 15 to 20)
#    0.000    0.667    1.667    4.000    9.333    1.333 
#    0.000    0.000    0.000    0.000    0.000    0.000 
#    0.000    0.000    0.000    0.000    0.000    0.000 
#
# Total GULP energy -66946.122579 kJ/mol
# GULP energy per Si atom -5578.843548 kJ/mol
# Density = 2.852414 g / cm^3
# Si number density = 28.589206 Si / 1000 Ang^3
#
#
#
# Elastic Constant Matrix: (Units=GPa)
#
#
# Indices 1 2 3 4 5 6 
#
# 1 250.6615 38.9783 81.9399 0.0000 -13.3921 0.0000
# 2 38.9783 65.6178 56.5795 0.0000 -15.1742 0.0000
# 3 81.9399 56.5795 193.5214 0.0000 -24.6121 0.0000
# 4 0.0000 0.0000 0.0000 40.8175 0.0000 -1.7952
# 5 -13.3921 -15.1742 -24.6121 0.0000 52.1126 0.0000
# 6 0.0000 0.0000 0.0000 -1.7952 0.0000 26.1346
#
#
#
# Elastic Compliance Matrix: (Units=1/GPa)
#
#
# Indices 1 2 3 4 5 6 
#
# 1 0.004731 -0.001440 -0.001576 0.000000 0.000052 0.000000
# 2 -0.001440 0.021369 -0.005206 0.000000 0.003393 0.000000
# 3 -0.001576 -0.005206 0.007567 0.000000 0.001653 0.000000
# 4 0.000000 0.000000 0.000000 0.024574 0.000000 0.001688
# 5 0.000052 0.003393 0.001653 0.000000 0.020971 0.000000
# 6 0.000000 0.000000 0.000000 0.001688 0.000000 0.038379
#
#
# Mechanical properties :
#
#
# Convention : Reuss Voigt Hill
#
# Bulk Modulus (GPa) = 58.06008 96.08844 77.07426
# Shear Modulus (GPa) = 35.77146 45.96648 40.86897
#
# Velocity S-wave (km/s) = 3.54110 4.01412 3.78501
# Velocity P-wave (km/s) = 6.08865 7.42746 6.79113
#
# Compressibility (1/GPa) = 0.01722354
#
# Stress axis : x y z
#
# Youngs Moduli (GPa) = 211.36305 46.79682 132.15337
#
# Poissons Ratio (x) = 0.06737 0.20823
# Poissons Ratio (y) = 0.30429 0.68805
# Poissons Ratio (z) = 0.33304 0.24365
#
# Static dielectric constant tensor:
#      x y z
#    x 2.431000 0.000000 0.025730 
#    y 0.000000 2.275920 0.000000 
#    z 0.025730 0.000000 2.243650 
# 
# From -- ./inp_files/52077.got.cif
#   From: 2010.05.17/outbox.cif.g08.bks.cpg/sg5_27_cif.got.tgz:52077.got - 2010.06.03 18:56:24.
