data_PCOD9130363
_publ_section_title
;
Structure prediction by ZEFSAII (Michael W. Deem and Ramdas Pophale) SiO2 
 PCOD9130363
Probable space group: C 2
;
_chemical_formula_sum "Si O2"
_cell_formula_units_Z 20
_cell_length_a 11.032351
_cell_length_b 17.511965
_cell_length_c 6.843331
_cell_angle_alpha 90.000000
_cell_angle_beta 44.973023
_cell_angle_gamma 90.000000
_cell_volume 934.438926
_symmetry_space_group_name_H-M "C 2"
_symmetry_group_IT_number 5
_symmetry_cell_setting 'monoclinic'
loop_
_space_group_symop_operation_xyz
x,y,z
-x,y,-z
1/2+x,1/2+y,z
1/2-x,1/2+y,-z
loop_
_atom_site_type_symbol
_atom_site_label
_atom_site_fract_x
_atom_site_fract_y
_atom_site_fract_z
Si Si1 0.650327 0.540010 0.201881
Si Si2 0.200629 0.149602 0.791908
Si Si3 0.000000 0.769089 0.500000
Si Si4 0.871438 0.882925 0.973664
Si Si5 0.500000 0.931044 0.500000
Si Si6 0.129717 0.538704 0.702760
O O1 0.500000 0.577372 0.500000
O O2 0.592095 0.469908 0.134980
O O3 0.761749 0.499786 0.247589
O O4 0.725736 0.602740 0.967439
O O5 0.341525 0.215609 0.616462
O O6 0.249590 0.092087 0.562010
O O7 0.000000 0.171265 0.000000
O O8 0.917763 0.823680 0.754753
O O9 0.671737 0.883636 0.262208
O O10 0.000000 0.865342 0.000000
O O11 0.541254 0.983926 0.643419
O O12 0.000000 0.582351 0.000000
#
# Coordination Sequence:
#
# PCOD9130363 Si02
#       6
#     4   4   2   4   2   4
#     4  12  22  43  80 111 136 189 253 310 365 426
#     4  12  26  49  74 108 152 195 252 303 361 454
#     4  12  31  50  66 107 158 202 240 300 377 436
#     4  12  27  48  73 107 153 193 247 307 366 438
#     4  12  25  42  72 113 144 184 248 304 361 440
#     4  12  22  41  76 112 146 177 247 312 366 421
#
# _framework density 21.403217999999999
#
# number of rings (size 3 to 8) (size 9 to 14) (size 15 to 20)
#    0.000    0.000    7.000    3.600    0.000    4.000 
#    1.800    0.000    0.000    0.000    0.000    0.000 
#    0.000    0.000    0.000    0.000    0.000    0.000 
#
# Total GULP energy -55799.081178 kJ/mol
# GULP energy per Si atom -5579.908118 kJ/mol
# Density = 2.135450 g / cm^3
# Si number density = 21.403218 Si / 1000 Ang^3
#
#
#
# Elastic Constant Matrix: (Units=GPa)
#
#
# Indices 1 2 3 4 5 6 
#
# 1 140.0180 29.1650 62.7915 0.0000 -6.7071 0.0000
# 2 29.1650 69.0615 46.2870 0.0000 -11.8666 0.0000
# 3 62.7915 46.2870 192.6772 0.0000 -19.9179 0.0000
# 4 0.0000 0.0000 0.0000 40.1575 0.0000 -0.3441
# 5 -6.7071 -11.8666 -19.9179 0.0000 51.0196 0.0000
# 6 0.0000 0.0000 0.0000 -0.3441 0.0000 16.6690
#
#
#
# Elastic Compliance Matrix: (Units=1/GPa)
#
#
# Indices 1 2 3 4 5 6 
#
# 1 0.008614 -0.002126 -0.002324 0.000000 -0.000270 0.000000
# 2 -0.002126 0.018094 -0.003384 0.000000 0.002608 0.000000
# 3 -0.002324 -0.003384 0.006927 0.000000 0.001612 0.000000
# 4 0.000000 0.000000 0.000000 0.024906 0.000000 0.000514
# 5 -0.000270 0.002608 0.001612 0.000000 0.020801 0.000000
# 6 0.000000 0.000000 0.000000 0.000514 0.000000 0.060002
#
#
# Mechanical properties :
#
#
# Convention : Reuss Voigt Hill
#
# Bulk Modulus (GPa) = 55.66171 75.36041 65.51106
# Shear Modulus (GPa) = 31.05531 39.13675 35.09603
#
# Velocity S-wave (km/s) = 3.81329 4.28079 4.05378
# Velocity P-wave (km/s) = 6.74173 7.72786 7.25158
#
# Compressibility (1/GPa) = 0.01796567
#
# Stress axis : x y z
#
# Youngs Moduli (GPa) = 116.08607 55.26659 144.36021
#
# Poissons Ratio (x) = 0.11751 0.33555
# Poissons Ratio (y) = 0.24684 0.48855
# Poissons Ratio (z) = 0.26983 0.18704
#
# Static dielectric constant tensor:
#      x y z
#    x 1.945930 0.000000 -0.091490 
#    y 0.000000 1.703060 0.000000 
#    z -0.091490 0.000000 1.802790 
# 
# From -- ./inp_files/5101.got.cif
#   From: 2010.05.17/outbox.cif.g08.bks.cpg/sg5_3_cif.got.tgz:5101.got - 2010.06.03 18:56:24.
