data_PCOD9130696
_publ_section_title
;
Structure prediction by ZEFSAII (Michael W. Deem and Ramdas Pophale) SiO2 
 PCOD9130696
Probable space group: C 2
;
_chemical_formula_sum "Si O2"
_cell_formula_units_Z 13
_cell_length_a 24.000000
_cell_length_b 9.000000
_cell_length_c 12.000000
_cell_angle_alpha 90.000000
_cell_angle_beta 150.000000
_cell_angle_gamma 90.000000
_cell_volume 1296.000000
_symmetry_space_group_name_H-M "C 2"
_symmetry_group_IT_number 5
_symmetry_cell_setting 'monoclinic'
loop_
_space_group_symop_operation_xyz
x,y,z
-x,y,-z
1/2+x,1/2+y,z
1/2-x,1/2+y,-z
loop_
_atom_site_type_symbol
_atom_site_label
_atom_site_fract_x
_atom_site_fract_y
_atom_site_fract_z
Si Si1 0.339780 0.069820 0.040331
Si Si2 0.729549 0.411293 0.053243
Si Si3 0.564336 0.926674 0.418911
Si Si4 0.500000 0.668099 0.000000
Si Si5 0.478502 0.597162 0.212943
Si Si6 0.274280 0.552719 0.384757
Si Si7 0.805746 0.355709 0.559716
O O1 0.268935 0.967295 0.000940
O O2 0.470189 0.043706 0.285519
O O3 0.308244 0.240447 0.007827
O O4 0.311606 0.027328 0.863591
O O5 0.838865 0.419410 0.321734
O O6 0.627176 0.515720 0.917226
O O7 0.497529 0.769708 0.283432
O O8 0.627585 0.957990 0.412113
O O9 0.470948 0.586051 0.064849
O O10 0.604068 0.770875 0.209417
O O11 0.602003 0.534133 0.451983
O O12 0.266666 0.449269 0.480265
O O13 0.256541 0.722261 0.398695
#
# Coordination Sequence:
#
# PCOD9130696 Si02
#       7
#     4   4   4   2   4   4   4
#     4  12  25  46  69  96 136 175 228 270 334 389
#     4  12  26  46  66  98 134 180 222 278 321 400
#     4  10  23  47  66  96 134 177 217 281 327 392
#     4   8  18  36  64  96 126 180 212 266 336 392
#     4  10  22  42  69  94 140 173 219 275 335 384
#     4  10  22  42  66 100 132 176 213 277 330 396
#     4  10  20  38  67  94 136 165 220 269 335 390
#
# _framework density 10.030863999999999
#
# number of rings (size 3 to 8) (size 9 to 14) (size 15 to 20)
#    0.000    1.846    3.077    3.231    4.308    1.846 
#    8.308    0.000    0.000    0.000    0.000    0.000 
#    0.000    0.000    0.000    0.000    0.000    0.000 
#
# Total GULP energy -72549.439992 kJ/mol
# GULP energy per Si atom -5580.726153 kJ/mol
# Density = 1.000803 g / cm^3
# Si number density = 10.030864 Si / 1000 Ang^3
#
#
#
# Elastic Constant Matrix: (Units=GPa)
#
#
# Indices 1 2 3 4 5 6 
#
# 1 100.5458 39.5954 42.0168 0.0000 7.0343 0.0000
# 2 39.5954 46.1483 57.0081 0.0000 0.7019 0.0000
# 3 42.0168 57.0081 86.1346 0.0000 15.9607 0.0000
# 4 0.0000 0.0000 0.0000 21.4732 0.0000 9.6332
# 5 7.0343 0.7019 15.9607 0.0000 24.2740 0.0000
# 6 0.0000 0.0000 0.0000 9.6332 0.0000 40.0423
#
#
#
# Elastic Compliance Matrix: (Units=1/GPa)
#
#
# Indices 1 2 3 4 5 6 
#
# 1 0.021700 -0.064385 0.037406 0.000000 -0.029021 0.000000
# 2 -0.064385 0.450417 -0.304892 0.000000 0.206107 0.000000
# 3 0.037406 -0.304892 0.222659 0.000000 -0.148426 0.000000
# 4 0.000000 0.000000 0.000000 0.052204 0.000000 -0.012559
# 5 -0.029021 0.206107 -0.148426 0.000000 0.141240 0.000000
# 6 0.000000 0.000000 0.000000 -0.012559 0.000000 0.027995
#
#
# Mechanical properties :
#
#
# Convention : Reuss Voigt Hill
#
# Bulk Modulus (GPa) = 32.22414 56.67435 44.44924
# Shear Modulus (GPa) = 3.14406 23.43844 13.29125
#
# Velocity S-wave (km/s) = 1.25323 3.42177 2.57673
# Velocity P-wave (km/s) = 4.26515 6.62742 5.57289
#
# Compressibility (1/GPa) = 0.03103264
#
# Stress axis : x y z
#
# Youngs Moduli (GPa) = 46.08316 2.22017 4.49118
#
# Poissons Ratio (x) = 0.14295 -0.16799
# Poissons Ratio (y) = 2.96707 1.36932
# Poissons Ratio (z) = -1.72376 0.67691
#
# Static dielectric constant tensor:
#      x y z
#    x 1.720600 0.000000 -0.001410 
#    y 0.000000 1.721200 0.000000 
#    z -0.001410 0.000000 1.711670 
# 
# From -- ./inp_files/47374.got.cif
#   From: 2010.05.17/outbox.ucp.g08.bks.cvg/sg5_24_cif.got.tgz:47374.got - 2010.06.11 12:53:14.
