data_PCOD9130158
_publ_section_title
;
Structure prediction by ZEFSAII (Michael W. Deem and Ramdas Pophale) SiO2 
 PCOD9130158
Probable space group: C 2
;
_chemical_formula_sum "Si O2"
_cell_formula_units_Z 18
_cell_length_a 7.295944
_cell_length_b 7.298168
_cell_length_c 17.999799
_cell_angle_alpha 90.000000
_cell_angle_beta 126.758939
_cell_angle_gamma 90.000000
_cell_volume 767.860820
_symmetry_space_group_name_H-M "C 2"
_symmetry_group_IT_number 5
_symmetry_cell_setting 'monoclinic'
loop_
_space_group_symop_operation_xyz
x,y,z
-x,y,-z
1/2+x,1/2+y,z
1/2-x,1/2+y,-z
loop_
_atom_site_type_symbol
_atom_site_label
_atom_site_fract_x
_atom_site_fract_y
_atom_site_fract_z
Si Si1 0.962267 0.372010 0.124018
Si Si2 0.886174 0.086184 0.394457
Si Si3 0.000000 0.652206 0.000000
Si Si4 0.693285 0.149184 0.605672
Si Si5 0.114992 0.603065 0.748997
O O1 0.907897 0.453956 0.191963
O O2 0.181193 0.239746 0.180330
O O3 0.020293 0.527618 0.078233
O O4 0.729603 0.269630 0.044724
O O5 0.844243 0.866621 0.389554
O O6 0.000000 0.143572 0.500000
O O7 0.642490 0.178830 0.321561
O O8 0.062558 0.121920 0.371956
O O9 0.500000 0.089765 0.500000
O O10 0.668152 0.046910 0.677453
#
# Coordination Sequence:
#
# PCOD9130158 Si02
#       5
#     4   4   2   4   4
#     4  12  28  48  83 104 152 178 257 302 384 446
#     4  11  25  46  70 107 156 205 245 295 353 418
#     4  12  28  56  74 112 138 194 226 330 396 438
#     4  11  25  46  70 107 156 205 245 295 353 418
#     4  12  26  49  75 120 140 204 247 303 346 458
#
# _framework density 23.441749000000002
#
# number of rings (size 3 to 8) (size 9 to 14) (size 15 to 20)
#    0.000    0.444    4.444    2.667    3.111    5.333 
#    0.000    0.000    0.000    0.000    0.000    0.000 
#    0.000    0.000    0.000    0.000    0.000    0.000 
#
# Total GULP energy -50455.451584 kJ/mol
# GULP energy per Si atom -5606.161287 kJ/mol
# Density = 2.338839 g / cm^3
# Si number density = 23.441749 Si / 1000 Ang^3
#
#
#
# Elastic Constant Matrix: (Units=GPa)
#
#
# Indices 1 2 3 4 5 6 
#
# 1 178.2560 26.6617 8.1399 0.0000 16.0520 0.0000
# 2 26.6617 74.3048 -2.9311 0.0000 10.8895 0.0000
# 3 8.1399 -2.9311 68.1565 0.0000 16.8411 0.0000
# 4 0.0000 0.0000 0.0000 -78.2442 0.0000 -9.4567
# 5 16.0520 10.8895 16.8411 0.0000 52.2745 0.0000
# 6 0.0000 0.0000 0.0000 -9.4567 0.0000 35.8720
#
#
#
# Elastic Compliance Matrix: (Units=1/GPa)
#
#
# Indices 1 2 3 4 5 6 
#
# 1 0.006047 -0.002001 -0.000492 0.000000 -0.001282 0.000000
# 2 -0.002001 0.014673 0.001601 0.000000 -0.002958 0.000000
# 3 -0.000492 0.001601 0.016129 0.000000 -0.005379 0.000000
# 4 0.000000 0.000000 0.000000 -0.012386 0.000000 -0.003265
# 5 -0.001282 -0.002958 -0.005379 0.000000 0.021872 0.000000
# 6 0.000000 0.000000 0.000000 -0.003265 0.000000 0.027016
#
#
# Mechanical properties :
#
#
# Convention : Reuss Voigt Hill
#
# Bulk Modulus (GPa) = 28.51888 42.71759 35.61824
# Shear Modulus (GPa) = 57.58805 21.23689 39.41247
#
# Velocity S-wave (km/s) = 4.96183 3.01315 4.10481
# Velocity P-wave (km/s) = 6.70959 5.51071 6.13948
#
# Compressibility (1/GPa) = 0.03506448
#
# Stress axis : x y z
#
# Youngs Moduli (GPa) = 165.36827 68.15326 62.00121
#
# Poissons Ratio (x) = 0.13640 0.03048
# Poissons Ratio (y) = 0.33096 -0.09926
# Poissons Ratio (z) = 0.08129 -0.10911
#
# Static dielectric constant tensor:
#      x y z
#    x 1.838000 0.000000 -0.010480 
#    y 0.000000 1.935740 0.000000 
#    z -0.010480 0.000000 1.891440 
# 
# From -- ./inp_files/58492.got.cif
#   From: 2010.05.17/outbox.cif.g08.bks.cpg/sg5_30_cif.got.tgz:58492.got - 2010.06.03 18:56:24.
