data_PCOD9130172
_publ_section_title
;
Structure prediction by ZEFSAII (Michael W. Deem and Ramdas Pophale) SiO2 
 PCOD9130172
Probable space group: C 2
;
_chemical_formula_sum "Si O2"
_cell_formula_units_Z 16
_cell_length_a 8.107031
_cell_length_b 16.901522
_cell_length_c 7.552192
_cell_angle_alpha 90.000000
_cell_angle_beta 141.729022
_cell_angle_gamma 90.000000
_cell_volume 640.942188
_symmetry_space_group_name_H-M "C 2"
_symmetry_group_IT_number 5
_symmetry_cell_setting 'monoclinic'
loop_
_space_group_symop_operation_xyz
x,y,z
-x,y,-z
1/2+x,1/2+y,z
1/2-x,1/2+y,-z
loop_
_atom_site_type_symbol
_atom_site_label
_atom_site_fract_x
_atom_site_fract_y
_atom_site_fract_z
Si Si1 0.500000 0.449721 0.000000
Si Si2 0.198338 0.054535 0.494729
Si Si3 0.361111 0.735576 0.575387
Si Si4 0.316536 0.332508 0.108162
Si Si5 0.000000 0.459601 0.000000
O O1 0.608640 0.502585 0.252227
O O2 0.296067 0.387315 0.915432
O O3 0.225216 0.145465 0.462666
O O4 0.000000 0.052688 0.500000
O O5 0.463535 0.016195 0.801299
O O6 0.500000 0.736210 0.500000
O O7 0.102033 0.791403 0.363638
O O8 0.592951 0.766115 0.898657
O O9 0.241393 0.397689 0.190640
#
# Coordination Sequence:
#
# PCOD9130172 Si02
#       5
#     2   4   4   4   2
#     4  12  24  50  76 114 148 204 256 312 378 460
#     4  11  27  48  76 113 158 200 255 321 389 455
#     4  11  25  46  76 110 155 202 255 316 389 456
#     4  12  26  47  78 112 154 205 257 315 382 463
#     4  12  28  48  76 114 160 198 260 318 386 454
#
# _framework density 24.963253000000002
#
# number of rings (size 3 to 8) (size 9 to 14) (size 15 to 20)
#    0.000    0.500    5.000    1.500    7.000    1.000 
#    0.000    2.500    0.000    0.000    0.000    0.000 
#    0.000    0.000    0.000    0.000    0.000    0.000 
#
# Total GULP energy -44777.218906 kJ/mol
# GULP energy per Si atom -5597.152363 kJ/mol
# Density = 2.490644 g / cm^3
# Si number density = 24.963253 Si / 1000 Ang^3
#
#
#
# Elastic Constant Matrix: (Units=GPa)
#
#
# Indices 1 2 3 4 5 6 
#
# 1 75.0641 45.6754 32.1778 0.0000 -8.1403 0.0000
# 2 45.6754 204.2522 70.7324 0.0000 3.3921 0.0000
# 3 32.1778 70.7324 148.7289 0.0001 4.9957 0.0001
# 4 0.0000 0.0000 0.0001 43.9372 0.0000 -2.0664
# 5 -8.1403 3.3921 4.9957 0.0000 48.0236 0.0000
# 6 0.0000 0.0000 0.0001 -2.0664 0.0000 43.7912
#
#
#
# Elastic Compliance Matrix: (Units=1/GPa)
#
#
# Indices 1 2 3 4 5 6 
#
# 1 0.016434 -0.002945 -0.002264 0.000000 0.003229 0.000000
# 2 -0.002945 0.006390 -0.002378 0.000000 -0.000703 0.000000
# 3 -0.002264 -0.002378 0.008381 0.000000 -0.001088 0.000000
# 4 0.000000 0.000000 0.000000 0.022810 0.000000 0.001076
# 5 0.003229 -0.000703 -0.001088 0.000000 0.021533 0.000000
# 6 0.000000 0.000000 0.000000 0.001076 0.000000 0.022886
#
#
# Mechanical properties :
#
#
# Convention : Reuss Voigt Hill
#
# Bulk Modulus (GPa) = 62.37551 80.57960 71.47756
# Shear Modulus (GPa) = 42.03386 45.78105 43.90745
#
# Velocity S-wave (km/s) = 4.10790 4.28710 4.19845
# Velocity P-wave (km/s) = 6.89500 7.54022 7.22482
#
# Compressibility (1/GPa) = 0.01603193
#
# Stress axis : x y z
#
# Youngs Moduli (GPa) = 60.84817 156.50343 119.31971
#
# Poissons Ratio (x) = 0.46088 0.27009
# Poissons Ratio (y) = 0.17919 0.28375
# Poissons Ratio (z) = 0.13773 0.37217
#
# Static dielectric constant tensor:
#      x y z
#    x 2.124820 0.000000 0.032070 
#    y 0.000000 1.903870 0.000000 
#    z 0.032070 0.000000 1.940900 
# 
# From -- ./inp_files/1928.got.cif
#   From: 2010.05.17/outbox.cif.g08.bks.cpg/sg5_1_cif.got.tgz:1928.got - 2010.06.03 18:56:24.
