data_PCOD9130496
_publ_section_title
;
Structure prediction by ZEFSAII (Michael W. Deem and Ramdas Pophale) SiO2 
 PCOD9130496
Probable space group: C 2
;
_chemical_formula_sum "Si O2"
_cell_formula_units_Z 18
_cell_length_a 14.474622
_cell_length_b 6.234010
_cell_length_c 22.197754
_cell_angle_alpha 90.000000
_cell_angle_beta 20.298141
_cell_angle_gamma 90.000000
_cell_volume 694.855654
_symmetry_space_group_name_H-M "C 2"
_symmetry_group_IT_number 5
_symmetry_cell_setting 'monoclinic'
loop_
_space_group_symop_operation_xyz
x,y,z
-x,y,-z
1/2+x,1/2+y,z
1/2-x,1/2+y,-z
loop_
_atom_site_type_symbol
_atom_site_label
_atom_site_fract_x
_atom_site_fract_y
_atom_site_fract_z
Si Si1 0.699623 0.565650 0.107260
Si Si2 0.000000 0.896317 0.000000
Si Si3 0.162273 0.382076 0.743988
Si Si4 0.439516 0.067567 0.650911
Si Si5 0.204376 0.706962 0.608023
O O1 0.501820 0.680483 0.181923
O O2 0.548399 0.363924 0.227137
O O3 0.775489 0.743516 0.109652
O O4 0.970679 0.498656 0.908853
O O5 0.149917 0.031487 0.857679
O O6 0.410886 0.274799 0.626189
O O7 0.207726 0.546921 0.661985
O O8 0.647171 0.099565 0.578388
O O9 0.538194 0.859491 0.554457
#
# Coordination Sequence:
#
# PCOD9130496 Si02
#       5
#     4   2   4   4   4
#     4  12  24  51  79 119 158 205 275 329 405 480
#     4  12  24  50  84 118 162 210 270 338 402 482
#     4  12  26  51  84 117 159 214 267 333 402 482
#     4  12  28  53  82 119 161 216 267 336 407 469
#     4  12  28  55  76 119 166 206 276 332 398 489
#
# _framework density 25.904661999999998
#
# number of rings (size 3 to 8) (size 9 to 14) (size 15 to 20)
#    0.000    0.000    4.444    5.333    0.000    0.889 
#    8.000    0.000    0.000    0.000    0.000    0.000 
#    0.000    0.000    0.000    0.000    0.000    0.000 
#
# Total GULP energy -50576.124591 kJ/mol
# GULP energy per Si atom -5619.569399 kJ/mol
# Density = 2.584570 g / cm^3
# Si number density = 25.904662 Si / 1000 Ang^3
#
#
#
# Elastic Constant Matrix: (Units=GPa)
#
#
# Indices 1 2 3 4 5 6 
#
# 1 128.1302 52.8439 20.9305 0.0033 1.3877 0.0010
# 2 52.8439 111.5070 51.8288 0.0022 22.5163 0.0071
# 3 20.9305 51.8288 114.5988 -0.0200 17.7008 0.0155
# 4 0.0033 0.0022 -0.0200 77.9191 0.0046 -4.8523
# 5 1.3877 22.5163 17.7008 0.0046 40.0312 0.0021
# 6 0.0010 0.0071 0.0155 -4.8523 0.0021 69.6858
#
#
#
# Elastic Compliance Matrix: (Units=1/GPa)
#
#
# Indices 1 2 3 4 5 6 
#
# 1 0.009938 -0.005317 0.000194 0.000000 0.002560 0.000000
# 2 -0.005317 0.014977 -0.004862 -0.000001 -0.006090 0.000000
# 3 0.000194 -0.004862 0.011236 0.000003 -0.002240 -0.000002
# 4 0.000000 -0.000001 0.000003 0.012890 -0.000002 0.000898
# 5 0.002560 -0.006090 -0.002240 -0.000002 0.029308 0.000000
# 6 0.000000 0.000000 -0.000002 0.000898 0.000000 0.014413
#
#
# Mechanical properties :
#
#
# Convention : Reuss Voigt Hill
#
# Bulk Modulus (GPa) = 61.79939 67.27138 64.53538
# Shear Modulus (GPa) = 42.32837 52.76942 47.54889
#
# Velocity S-wave (km/s) = 4.04667 4.51828 4.28896
# Velocity P-wave (km/s) = 6.76331 7.29692 7.03517
#
# Compressibility (1/GPa) = 0.01618139
#
# Stress axis : x y z
#
# Youngs Moduli (GPa) = 100.62466 66.76754 89.00342
#
# Poissons Ratio (x) = 0.35499 -0.01727
# Poissons Ratio (y) = 0.53500 0.43273
# Poissons Ratio (z) = -0.01953 0.32462
#
# Static dielectric constant tensor:
#      x y z
#    x 2.009940 0.000000 -0.032210 
#    y 0.000000 2.035190 0.000010 
#    z -0.032210 0.000010 2.006760 
# 
# From -- ./inp_files/68535.got.cif
#   From: 2010.05.17/outbox.cif.g08.bks.cpg/sg5_35_cif.got.tgz:68535.got - 2010.06.03 18:56:24.
