data_PCOD9130524
_publ_section_title
;
Structure prediction by ZEFSAII (Michael W. Deem and Ramdas Pophale) SiO2 
 PCOD9130524
Probable space group: C 2
;
_chemical_formula_sum "Si O2"
_cell_formula_units_Z 24
_cell_length_a 18.672119
_cell_length_b 8.929368
_cell_length_c 10.545607
_cell_angle_alpha 90.000000
_cell_angle_beta 145.340300
_cell_angle_gamma 90.000000
_cell_volume 999.930900
_symmetry_space_group_name_H-M "C 2"
_symmetry_group_IT_number 5
_symmetry_cell_setting 'monoclinic'
loop_
_space_group_symop_operation_xyz
x,y,z
-x,y,-z
1/2+x,1/2+y,z
1/2-x,1/2+y,-z
loop_
_atom_site_type_symbol
_atom_site_label
_atom_site_fract_x
_atom_site_fract_y
_atom_site_fract_z
Si Si1 0.717831 0.558930 0.637029
Si Si2 0.141910 0.809260 0.705110
Si Si3 0.490336 0.727264 0.832568
Si Si4 0.657976 0.269689 0.010402
Si Si5 0.235033 0.072796 0.218624
Si Si6 0.587420 0.071077 0.294260
O O1 0.699633 0.393475 0.666506
O O2 0.607132 0.622558 0.386562
O O3 0.734923 0.655866 0.788550
O O4 0.850011 0.578343 0.754170
O O5 0.185906 0.833537 0.912171
O O6 0.146548 0.629211 0.690991
O O7 0.000000 0.865307 0.500000
O O8 0.460139 0.900172 0.760033
O O9 0.500000 0.705047 0.000000
O O10 0.630668 0.679232 0.002735
O O11 0.522261 0.188110 0.827716
O O12 0.674033 0.410804 0.125546
O O13 0.290928 0.093963 0.439409
#
# Coordination Sequence:
#
# PCOD9130524 Si02
#       6
#     4   4   4   4   4   4
#     4  12  27  48  80 117 160 210 269 328 403 476
#     4  12  26  50  77 112 166 213 262 330 398 481
#     4  12  25  46  75 112 158 208 257 336 402 460
#     4  12  26  49  78 112 158 211 265 325 401 477
#     4  12  26  47  77 113 156 207 268 324 399 477
#     4  12  26  50  78 115 160 206 264 338 396 467
#
# _framework density 24.001660000000001
#
# number of rings (size 3 to 8) (size 9 to 14) (size 15 to 20)
#    0.000    0.000    5.000    5.500    0.000    1.333 
#    3.000    0.833    0.000    0.000    0.000    0.000 
#    0.000    0.000    0.000    0.000    0.000    0.000 
#
# Total GULP energy -66971.988394 kJ/mol
# GULP energy per Si atom -5580.999033 kJ/mol
# Density = 2.394703 g / cm^3
# Si number density = 24.001660 Si / 1000 Ang^3
#
#
#
# Elastic Constant Matrix: (Units=GPa)
#
#
# Indices 1 2 3 4 5 6 
#
# 1 74.2188 25.8682 30.4402 0.0000 -3.6751 0.0000
# 2 25.8682 131.1164 66.4114 0.0000 2.9096 0.0000
# 3 30.4402 66.4114 156.1492 0.0000 -8.0597 0.0000
# 4 0.0000 0.0000 0.0000 47.7806 0.0000 -3.5443
# 5 -3.6751 2.9096 -8.0597 0.0000 30.7805 0.0000
# 6 0.0000 0.0000 0.0000 -3.5443 0.0000 26.3879
#
#
#
# Elastic Compliance Matrix: (Units=1/GPa)
#
#
# Indices 1 2 3 4 5 6 
#
# 1 0.015065 -0.001982 -0.002019 0.000000 0.001457 0.000000
# 2 -0.001982 0.010108 -0.004029 0.000000 -0.002247 0.000000
# 3 -0.002019 -0.004029 0.008635 0.000000 0.002401 0.000000
# 4 0.000000 0.000000 0.000000 0.021140 0.000000 0.002839
# 5 0.001457 -0.002247 0.002401 0.000000 0.033503 0.000000
# 6 0.000000 0.000000 0.000000 0.002839 0.000000 0.038277
#
#
# Mechanical properties :
#
#
# Convention : Reuss Voigt Hill
#
# Bulk Modulus (GPa) = 56.34047 67.43601 61.88824
# Shear Modulus (GPa) = 33.62403 36.90744 35.26574
#
# Velocity S-wave (km/s) = 3.74693 3.92561 3.83731
# Velocity P-wave (km/s) = 6.49952 6.97887 6.74346
#
# Compressibility (1/GPa) = 0.01774923
#
# Stress axis : x y z
#
# Youngs Moduli (GPa) = 66.38094 98.92862 115.80785
#
# Poissons Ratio (x) = 0.19608 0.23376
# Poissons Ratio (y) = 0.13157 0.46656
# Poissons Ratio (z) = 0.13399 0.39856
#
# Static dielectric constant tensor:
#      x y z
#    x 2.114960 0.000000 0.021210 
#    y 0.000000 2.027770 0.000000 
#    z 0.021210 0.000000 1.950970 
# 
# From -- ./inp_files/47362.got.cif
#   From: 2010.05.17/outbox.cif.g08.bks.cpg/sg5_24_cif.got.tgz:47362.got - 2010.06.03 18:56:24.
