data_PCOD9130252
_publ_section_title
;
Structure prediction by ZEFSAII (Michael W. Deem and Ramdas Pophale) SiO2 
 PCOD9130252
Probable space group: C 2
;
_chemical_formula_sum "Si O2"
_cell_formula_units_Z 18
_cell_length_a 18.772503
_cell_length_b 6.929227
_cell_length_c 7.749496
_cell_angle_alpha 90.000000
_cell_angle_beta 44.776825
_cell_angle_gamma 90.000000
_cell_volume 710.014452
_symmetry_space_group_name_H-M "C 2"
_symmetry_group_IT_number 5
_symmetry_cell_setting 'monoclinic'
loop_
_space_group_symop_operation_xyz
x,y,z
-x,y,-z
1/2+x,1/2+y,z
1/2-x,1/2+y,-z
loop_
_atom_site_type_symbol
_atom_site_label
_atom_site_fract_x
_atom_site_fract_y
_atom_site_fract_z
Si Si1 0.556147 0.057760 0.134229
Si Si2 0.701716 0.358816 0.767117
Si Si3 0.000000 0.235165 0.000000
Si Si4 0.350792 0.127620 0.662295
Si Si5 0.150016 0.015827 0.497165
O O1 0.436449 0.060654 0.378264
O O2 0.613309 0.043648 0.217523
O O3 0.594751 0.260756 0.992257
O O4 0.574078 0.881508 0.974590
O O5 0.741781 0.546449 0.797398
O O6 0.781264 0.192656 0.679016
O O7 0.704440 0.403218 0.560411
O O8 0.054363 0.108589 0.760168
O O9 0.361972 0.359169 0.632694
#
# Coordination Sequence:
#
# PCOD9130252 Si02
#       5
#     4   4   2   4   4
#     4  11  26  47  73 105 151 190 249 305 378 438
#     4  12  24  44  75 102 144 194 246 304 371 451
#     4  12  24  48  78 108 150 204 246 312 376 452
#     4  11  26  49  67 112 146 191 248 314 364 449
#     4  12  24  45  73 105 144 193 251 301 375 442
#
# _framework density 25.351599
#
# number of rings (size 3 to 8) (size 9 to 14) (size 15 to 20)
#    0.000    0.444    4.444    4.000    3.111    0.000 
#    8.000    0.000    0.000    0.000    0.000    0.000 
#    0.000    0.000    0.000    0.000    0.000    0.000 
#
# Total GULP energy -50397.284862 kJ/mol
# GULP energy per Si atom -5599.698318 kJ/mol
# Density = 2.529390 g / cm^3
# Si number density = 25.351599 Si / 1000 Ang^3
#
#
#
# Elastic Constant Matrix: (Units=GPa)
#
#
# Indices 1 2 3 4 5 6 
#
# 1 90.9405 49.5140 21.3091 0.0000 11.8031 0.0000
# 2 49.5140 141.2960 41.6351 0.0000 -3.6793 0.0000
# 3 21.3091 41.6351 91.0622 0.0000 -11.1088 0.0000
# 4 0.0000 0.0000 0.0000 22.8598 0.0000 -21.6100
# 5 11.8031 -3.6793 -11.1088 0.0000 27.9214 0.0000
# 6 0.0000 0.0000 0.0000 -21.6100 0.0000 43.9991
#
#
#
# Elastic Compliance Matrix: (Units=1/GPa)
#
#
# Indices 1 2 3 4 5 6 
#
# 1 0.015223 -0.004861 -0.002316 0.000000 -0.007997 0.000000
# 2 -0.004861 0.009736 -0.003055 0.000000 0.002122 0.000000
# 3 -0.002316 -0.003055 0.013653 0.000000 0.006008 0.000000
# 4 0.000000 0.000000 0.000000 0.081659 0.000000 0.040106
# 5 -0.007997 0.002122 0.006008 0.000000 0.041865 0.000000
# 6 0.000000 0.000000 0.000000 0.040106 0.000000 0.042426
#
#
# Mechanical properties :
#
#
# Convention : Reuss Voigt Hill
#
# Bulk Modulus (GPa) = 55.09693 60.91276 58.00484
# Shear Modulus (GPa) = 21.63802 33.01209 27.32505
#
# Velocity S-wave (km/s) = 2.92467 3.61247 3.28661
# Velocity P-wave (km/s) = 5.76066 6.44044 6.11001
#
# Compressibility (1/GPa) = 0.01814983
#
# Stress axis : x y z
#
# Youngs Moduli (GPa) = 65.68978 102.71020 73.24273
#
# Poissons Ratio (x) = 0.49922 0.16960
# Poissons Ratio (y) = 0.31929 0.22378
# Poissons Ratio (z) = 0.15211 0.31381
#
# Static dielectric constant tensor:
#      x y z
#    x 1.959850 0.000000 -0.046240 
#    y 0.000000 2.048210 0.000000 
#    z -0.046240 0.000000 2.025300 
# 
# From -- ./inp_files/25939.got.cif
#   From: 2010.05.17/outbox.cif.g08.bks.cpg/sg5_13_cif.got.tgz:25939.got - 2010.06.03 18:56:24.
