data_PCOD9130880
_publ_section_title
;
Structure prediction by ZEFSAII (Michael W. Deem and Ramdas Pophale) SiO2 
 PCOD9130880
Probable space group: P M
;
_chemical_formula_sum "Si O2"
_cell_formula_units_Z 14
_cell_length_a 17.384875
_cell_length_b 10.293588
_cell_length_c 14.780348
_cell_angle_alpha 90.000000
_cell_angle_beta 163.859183
_cell_angle_gamma 90.000000
_cell_volume 735.302935
_symmetry_space_group_name_H-M "P M"
_symmetry_group_IT_number 6
_symmetry_cell_setting 'monoclinic'
loop_
_space_group_symop_operation_xyz
x,y,z
x,-y,z
loop_
_atom_site_type_symbol
_atom_site_label
_atom_site_fract_x
_atom_site_fract_y
_atom_site_fract_z
Si Si1 0.449960 0.646098 0.686230
Si Si2 0.801375 0.226346 0.216718
Si Si3 0.207176 0.860231 0.520922
Si Si4 0.114263 0.151592 0.738139
Si Si5 0.749286 0.151975 0.504789
Si Si6 0.959090 0.344335 0.896064
Si Si7 0.600506 0.654155 0.660593
O O1 0.348004 0.500000 0.556076
O O2 0.216473 0.741968 0.460659
O O3 0.578478 0.702030 0.739081
O O4 0.681733 0.649953 0.026985
O O5 0.990299 0.156795 0.355638
O O6 0.975257 0.238940 0.503777
O O7 0.516978 0.148694 0.913316
O O8 0.170598 0.000000 0.435101
O O9 0.955626 0.167043 0.653393
O O10 0.080983 0.000000 0.671685
O O11 0.437506 0.175714 0.118244
O O12 0.829040 0.254133 0.672066
O O13 0.764176 0.000000 0.552013
O O14 0.903738 0.500000 0.821021
O O15 0.823979 0.302290 0.839426
O O16 0.290023 0.327226 0.271370
O O17 0.649175 0.500000 0.725051
#
# Coordination Sequence:
#
# PCOD9130880 Si02
#       7
#     2   2   2   2   2   2   2
#     4   9  22  38  57  84 116 150 189 230 275 327
#     4  10  21  34  58  82 112 146 190 226 269 320
#     4  10  20  34  55  79 111 149 186 227 272 319
#     4  10  19  34  57  81 106 146 186 218 264 332
#     4  10  21  36  57  82 107 138 180 229 277 321
#     4  10  20  37  59  81 105 140 181 227 275 324
#     4   9  19  35  59  81 105 145 188 217 262 335
#
# _framework density 19.039771999999999
#
# number of rings (size 3 to 8) (size 9 to 14) (size 15 to 20)
#    0.857    1.429    0.000    3.000    2.000    1.714 
#    0.000    2.857    0.000    0.000    0.000    0.000 
#    0.000    0.000    0.000    0.000    0.000    0.000 
#
# Total GULP energy -77980.906953 kJ/mol
# GULP energy per Si atom -5570.064782 kJ/mol
# Density = 1.899644 g / cm^3
# Si number density = 19.039772 Si / 1000 Ang^3
#
#
#
# Elastic Constant Matrix: (Units=GPa)
#
#
# Indices 1 2 3 4 5 6 
#
# 1 43.4045 18.8720 8.7255 0.0000 -2.9329 0.0000
# 2 18.8720 63.3166 14.0048 0.0000 -8.7647 0.0000
# 3 8.7255 14.0048 54.8092 0.0000 -0.2849 0.0000
# 4 0.0000 0.0000 0.0000 1.9840 0.0000 -0.7780
# 5 -2.9329 -8.7647 -0.2849 0.0000 42.9574 0.0000
# 6 0.0000 0.0000 0.0000 -0.7780 0.0000 64.8284
#
#
#
# Elastic Compliance Matrix: (Units=1/GPa)
#
#
# Indices 1 2 3 4 5 6 
#
# 1 0.026757 -0.007411 -0.002365 0.000000 0.000299 0.000000
# 2 -0.007411 0.019300 -0.003734 0.000000 0.003407 0.000000
# 3 -0.002365 -0.003734 0.019572 0.000000 -0.000793 0.000000
# 4 0.000000 0.000000 0.000000 0.506409 0.000000 0.006077
# 5 0.000299 0.003407 -0.000793 0.000000 0.023989 0.000000
# 6 0.000000 0.000000 0.000000 0.006077 0.000000 0.015498
#
#
# Mechanical properties :
#
#
# Convention : Reuss Voigt Hill
#
# Bulk Modulus (GPa) = 25.90011 27.19277 26.54644
# Shear Modulus (GPa) = 7.67562 29.94916 18.81239
#
# Velocity S-wave (km/s) = 2.01000 3.97038 3.14675
# Velocity P-wave (km/s) = 4.36114 5.94405 5.21302
#
# Compressibility (1/GPa) = 0.03860988
#
# Stress axis : x y z
#
# Youngs Moduli (GPa) = 37.37373 51.81347 51.09468
#
# Poissons Ratio (x) = 0.38397 0.12081
# Poissons Ratio (y) = 0.27696 0.19079
# Poissons Ratio (z) = 0.08837 0.19347
#
# Static dielectric constant tensor:
#      x y z
#    x 1.655420 0.000000 0.002540 
#    y 0.000000 1.642200 0.000000 
#    z 0.002540 0.000000 1.690810 
# 
# From -- ./inp_files/1614.got.cif
#   From: 2010.05.17/outbox.cif.g08.bks.cpg/sg6_1_cif.got.tgz:1614.got - 2010.06.03 19:42:10.
