data_PCOD9130037
_publ_section_title
;
Structure prediction by ZEFSAII (Michael W. Deem and Ramdas Pophale) SiO2 
 PCOD9130037
Probable space group: C 2
;
_chemical_formula_sum "Si O2"
_cell_formula_units_Z 28
_cell_length_a 16.105205
_cell_length_b 9.414519
_cell_length_c 9.418126
_cell_angle_alpha 90.000000
_cell_angle_beta 55.786879
_cell_angle_gamma 90.000000
_cell_volume 1180.889073
_symmetry_space_group_name_H-M "C 2"
_symmetry_group_IT_number 5
_symmetry_cell_setting 'monoclinic'
loop_
_space_group_symop_operation_xyz
x,y,z
-x,y,-z
1/2+x,1/2+y,z
1/2-x,1/2+y,-z
loop_
_atom_site_type_symbol
_atom_site_label
_atom_site_fract_x
_atom_site_fract_y
_atom_site_fract_z
Si Si1 0.382574 0.621010 0.113312
Si Si2 0.424105 0.309168 0.966562
Si Si3 0.214418 0.042378 0.310822
Si Si4 0.118619 0.345466 0.373701
Si Si5 0.295772 0.076186 0.510990
Si Si6 0.067325 0.832009 0.570494
Si Si7 0.770633 0.326741 0.006580
O O1 0.309194 0.635552 0.320505
O O2 0.500000 0.666950 0.000000
O O3 0.386616 0.453030 0.077824
O O4 0.329353 0.708205 0.039041
O O5 0.497685 0.354154 0.770489
O O6 0.500000 0.228500 0.000000
O O7 0.323885 0.254483 0.985567
O O8 0.147202 0.178959 0.344854
O O9 0.302939 0.088203 0.332732
O O10 0.157027 0.941805 0.477600
O O11 0.236382 0.945746 0.153328
O O12 0.176874 0.425256 0.444491
O O13 0.160470 0.396665 0.181209
O O14 0.000000 0.364499 0.500000
O O15 0.383753 0.178206 0.483650
O O16 0.000000 0.859223 0.500000
#
# Coordination Sequence:
#
# PCOD9130037 Si02
#       7
#     4   4   4   4   4   4   4
#     4  11  24  45  77 106 150 202 258 314 384 458
#     4  11  24  46  75 107 143 202 255 308 383 464
#     4  12  26  46  78 108 151 200 255 312 387 464
#     4  12  30  48  76 112 154 204 260 320 397 458
#     4  12  26  49  73 112 158 198 255 328 384 456
#     4  12  24  46  76 110 148 197 255 314 385 454
#     4  12  26  47  75 111 154 193 264 323 375 456
#
# _framework density 23.710947999999998
#
# number of rings (size 3 to 8) (size 9 to 14) (size 15 to 20)
#    0.000    0.286    4.286    4.286    6.000    0.000 
#    0.000    0.000    0.000    0.000    0.000    0.000 
#    0.000    0.000    0.000    0.000    0.000    0.000 
#
# Total GULP energy -78294.072636 kJ/mol
# GULP energy per Si atom -5592.433760 kJ/mol
# Density = 2.365698 g / cm^3
# Si number density = 23.710948 Si / 1000 Ang^3
#
#
#
# Elastic Constant Matrix: (Units=GPa)
#
#
# Indices 1 2 3 4 5 6 
#
# 1 171.4350 24.1829 51.0122 0.0000 2.3984 0.0000
# 2 24.1829 43.0099 -12.8278 0.0000 -13.6347 0.0000
# 3 51.0122 -12.8278 122.5905 0.0000 -8.4568 0.0000
# 4 0.0000 0.0000 0.0000 15.0059 0.0000 -5.0987
# 5 2.3984 -13.6347 -8.4568 0.0000 44.1462 0.0000
# 6 0.0000 0.0000 0.0000 -5.0987 0.0000 32.0696
#
#
#
# Elastic Compliance Matrix: (Units=1/GPa)
#
#
# Indices 1 2 3 4 5 6 
#
# 1 0.008165 -0.006982 -0.004365 0.000000 -0.003436 0.000000
# 2 -0.006982 0.033124 0.007199 0.000000 0.011989 0.000000
# 3 -0.004365 0.007199 0.011043 0.000000 0.004576 0.000000
# 4 0.000000 0.000000 0.000000 0.070446 0.000000 0.011200
# 5 -0.003436 0.011989 0.004576 0.000000 0.027418 0.000000
# 6 0.000000 0.000000 0.000000 0.011200 0.000000 0.032963
#
#
# Mechanical properties :
#
#
# Convention : Reuss Voigt Hill
#
# Bulk Modulus (GPa) = 22.70994 51.30778 37.00886
# Shear Modulus (GPa) = 24.25604 36.55554 30.40579
#
# Velocity S-wave (km/s) = 3.20189 3.93073 3.58488
# Velocity P-wave (km/s) = 4.82370 6.50282 5.72515
#
# Compressibility (1/GPa) = 0.04403359
#
# Stress axis : x y z
#
# Youngs Moduli (GPa) = 122.47310 30.18968 90.55807
#
# Poissons Ratio (x) = 0.21079 0.39531
# Poissons Ratio (y) = 0.85514 -0.65189
# Poissons Ratio (z) = 0.53463 -0.21732
#
# Static dielectric constant tensor:
#      x y z
#    x 1.920670 0.000000 0.019800 
#    y 0.000000 1.872480 0.000000 
#    z 0.019800 0.000000 1.889840 
# 
# From -- ./inp_files/23762.got.cif
#   From: 2010.05.17/outbox.cif.g08.bks.cpg/sg5_12_cif.got.tgz:23762.got - 2010.06.03 18:56:24.
