data_PCOD9130268
_publ_section_title
;
Structure prediction by ZEFSAII (Michael W. Deem and Ramdas Pophale) SiO2 
 PCOD9130268
Probable space group: C 2
;
_chemical_formula_sum "Si O2"
_cell_formula_units_Z 22
_cell_length_a 14.241062
_cell_length_b 5.347501
_cell_length_c 23.909390
_cell_angle_alpha 90.000000
_cell_angle_beta 29.170837
_cell_angle_gamma 90.000000
_cell_volume 887.484739
_symmetry_space_group_name_H-M "C 2"
_symmetry_group_IT_number 5
_symmetry_cell_setting 'monoclinic'
loop_
_space_group_symop_operation_xyz
x,y,z
-x,y,-z
1/2+x,1/2+y,z
1/2-x,1/2+y,-z
loop_
_atom_site_type_symbol
_atom_site_label
_atom_site_fract_x
_atom_site_fract_y
_atom_site_fract_z
Si Si1 0.128795 0.628100 0.851190
Si Si2 0.706304 0.686292 0.119625
Si Si3 0.740887 0.684781 0.439614
Si Si4 0.016948 0.672657 0.787956
Si Si5 0.433469 0.318106 0.645766
Si Si6 0.500000 0.075367 0.500000
O O1 0.252227 0.752477 0.836682
O O2 0.242534 0.370856 0.780048
O O3 0.116822 0.736921 0.794992
O O4 0.912200 0.613571 0.985870
O O5 0.580767 0.431878 0.181490
O O6 0.627136 0.935557 0.130479
O O7 0.554655 0.565159 0.565052
O O8 0.837160 0.565991 0.334740
O O9 0.909421 0.684858 0.397203
O O10 0.661567 0.933390 0.451865
O O11 0.391824 0.205665 0.607268
#
# Coordination Sequence:
#
# PCOD9130268 Si02
#       6
#     4   4   4   4   4   2
#     4  11  26  48  77 107 152 199 255 308 385 439
#     4  11  28  50  75 114 146 202 252 316 367 456
#     4  12  27  46  76 110 149 198 251 315 379 453
#     4  12  27  49  79 108 154 193 256 311 380 446
#     4  12  26  48  74 109 152 197 251 316 375 458
#     4  12  26  48  76 108 154 198 252 302 398 444
#
# _framework density 24.789159999999999
#
# number of rings (size 3 to 8) (size 9 to 14) (size 15 to 20)
#    0.000    0.364    3.636    3.818    7.636    5.818 
#    3.273    0.000    0.000    0.000    0.000    0.000 
#    0.000    0.000    0.000    0.000    0.000    0.000 
#
# Total GULP energy -61438.655770 kJ/mol
# GULP energy per Si atom -5585.332343 kJ/mol
# Density = 2.473274 g / cm^3
# Si number density = 24.789160 Si / 1000 Ang^3
#
#
#
# Elastic Constant Matrix: (Units=GPa)
#
#
# Indices 1 2 3 4 5 6 
#
# 1 179.8887 42.8515 26.3930 0.0044 29.9627 0.0151
# 2 42.8515 83.0745 23.4022 0.0082 -10.1473 0.0309
# 3 26.3930 23.4022 104.8774 -0.0014 0.2534 0.0015
# 4 0.0044 0.0082 -0.0014 20.4554 -0.0017 1.4842
# 5 29.9627 -10.1473 0.2534 -0.0017 39.7090 0.0021
# 6 0.0151 0.0309 0.0015 1.4842 0.0021 34.4116
#
#
#
# Elastic Compliance Matrix: (Units=1/GPa)
#
#
# Indices 1 2 3 4 5 6 
#
# 1 0.008049 -0.004777 -0.000942 -0.000001 -0.007288 0.000001
# 2 -0.004777 0.016127 -0.002415 -0.000004 0.007741 -0.000013
# 3 -0.000942 -0.002415 0.010311 0.000002 0.000028 0.000002
# 4 -0.000001 -0.000004 0.000002 0.049040 0.000002 -0.002115
# 5 -0.007288 0.007741 0.000028 0.000002 0.032660 -0.000006
# 6 0.000001 -0.000013 0.000002 -0.002115 -0.000006 0.029151
#
#
# Mechanical properties :
#
#
# Convention : Reuss Voigt Hill
#
# Bulk Modulus (GPa) = 54.88752 61.45934 58.17343
# Shear Modulus (GPa) = 29.81871 37.26145 33.54008
#
# Velocity S-wave (km/s) = 3.47204 3.88123 3.68232
# Velocity P-wave (km/s) = 6.18573 6.70313 6.44962
#
# Compressibility (1/GPa) = 0.01821908
#
# Stress axis : x y z
#
# Youngs Moduli (GPa) = 124.23932 62.00722 96.98485
#
# Poissons Ratio (x) = 0.29619 0.09137
# Poissons Ratio (y) = 0.59345 0.23424
# Poissons Ratio (z) = 0.11705 0.14976
#
# Static dielectric constant tensor:
#      x y z
#    x 1.915190 0.000000 0.006930 
#    y 0.000000 2.056040 0.000000 
#    z 0.006930 0.000000 1.979530 
# 
# From -- ./inp_files/53895.got.cif
#   From: 2010.05.17/outbox.cif.g08.bks.cpg/sg5_27_cif.got.tgz:53895.got - 2010.06.03 18:56:24.
