data_PCOD9130795
_publ_section_title
;
Structure prediction by ZEFSAII (Michael W. Deem and Ramdas Pophale) SiO2 
 PCOD9130795
Probable space group: P M
;
_chemical_formula_sum "Si O2"
_cell_formula_units_Z 16
_cell_length_a 10.360814
_cell_length_b 8.518018
_cell_length_c 12.638563
_cell_angle_alpha 90.000000
_cell_angle_beta 54.083831
_cell_angle_gamma 90.000000
_cell_volume 903.334774
_symmetry_space_group_name_H-M "P M"
_symmetry_group_IT_number 6
_symmetry_cell_setting 'monoclinic'
loop_
_space_group_symop_operation_xyz
x,y,z
x,-y,z
loop_
_atom_site_type_symbol
_atom_site_label
_atom_site_fract_x
_atom_site_fract_y
_atom_site_fract_z
Si Si1 0.183070 0.808314 0.018790
Si Si2 0.021490 0.189395 0.313337
Si Si3 0.355806 0.311812 0.556845
Si Si4 0.129233 0.688965 0.481447
Si Si5 0.076189 0.188230 0.841684
Si Si6 0.546847 0.189519 0.810179
Si Si7 0.658296 0.810284 0.522346
Si Si8 0.849637 0.312296 0.777212
O O1 0.100502 0.754749 0.166374
O O2 0.183359 0.000000 0.019621
O O3 0.091617 0.760418 0.955900
O O4 0.367244 0.758220 0.920870
O O5 0.838286 0.243067 0.413805
O O6 0.117194 0.241897 0.370949
O O7 0.019291 0.000000 0.312387
O O8 0.352554 0.500000 0.564060
O O9 0.281441 0.264748 0.479244
O O10 0.232942 0.246270 0.703579
O O11 0.530254 0.250218 0.499734
O O12 0.126572 0.500000 0.476018
O O13 0.974019 0.738621 0.624891
O O14 0.925192 0.251952 0.849956
O O15 0.074572 0.000000 0.839133
O O16 0.601250 0.241559 0.666645
O O17 0.676890 0.248829 0.830730
O O18 0.548292 0.000000 0.809622
O O19 0.655919 0.000000 0.522384
O O20 0.848512 0.500000 0.779093
#
# Coordination Sequence:
#
# PCOD9130795 Si02
#       8
#     2   2   2   2   2   2   2   2
#     4   9  19  35  54  77 107 136 169 216 266 309
#     4  10  20  35  55  78 104 136 174 215 259 312
#     4  10  20  33  52  79 108 137 173 217 264 307
#     4   9  19  34  50  74 107 138 169 210 259 311
#     4  10  18  33  55  78 106 140 173 213 264 309
#     4  10  18  33  54  79 104 134 176 219 259 304
#     4  10  19  32  53  81 104 131 178 222 255 304
#     4  10  20  33  51  80 110 136 172 218 262 306
#
# _framework density 17.712147000000002
#
# number of rings (size 3 to 8) (size 9 to 14) (size 15 to 20)
#    0.000    2.250    2.500    1.875    0.000    3.500 
#    0.000    3.125    0.000    6.000    0.000    0.000 
#    0.000    0.000    0.000    0.000    0.000    0.000 
#
# Total GULP energy -89266.905880 kJ/mol
# GULP energy per Si atom -5579.181617 kJ/mol
# Density = 1.767183 g / cm^3
# Si number density = 17.712147 Si / 1000 Ang^3
#
#
#
# Elastic Constant Matrix: (Units=GPa)
#
#
# Indices 1 2 3 4 5 6 
#
# 1 166.0371 19.9537 89.9242 0.0000 17.4420 0.0000
# 2 19.9537 11.8246 21.2385 0.0000 1.3295 0.0000
# 3 89.9242 21.2385 134.0136 0.0000 14.8774 0.0000
# 4 0.0000 0.0000 0.0000 1.0034 0.0000 -18.2009
# 5 17.4420 1.3295 14.8774 0.0000 26.9130 0.0000
# 6 0.0000 0.0000 0.0000 -18.2009 0.0000 -17.1978
#
#
#
# Elastic Compliance Matrix: (Units=1/GPa)
#
#
# Indices 1 2 3 4 5 6 
#
# 1 0.010080 -0.007193 -0.005261 0.000000 -0.003269 0.000000
# 2 -0.007193 0.123942 -0.015612 0.000000 0.007169 0.000000
# 3 -0.005261 -0.015612 0.013852 0.000000 -0.003477 0.000000
# 4 0.000000 0.000000 0.000000 0.049344 0.000000 -0.052222
# 5 -0.003269 0.007169 -0.003477 0.000000 0.040843 0.000000
# 6 0.000000 0.000000 0.000000 -0.052222 0.000000 -0.002879
#
#
# Mechanical properties :
#
#
# Convention : Reuss Voigt Hill
#
# Bulk Modulus (GPa) = 10.90001 63.78978 37.34490
# Shear Modulus (GPa) = 15.53308 14.19430 14.86369
#
# Velocity S-wave (km/s) = 2.96459 2.83395 2.90000
# Velocity P-wave (km/s) = 4.22915 6.84114 5.68713
#
# Compressibility (1/GPa) = 0.09174303
#
# Stress axis : x y z
#
# Youngs Moduli (GPa) = 99.20874 8.06830 72.19131
#
# Poissons Ratio (x) = 0.05803 0.37978
# Poissons Ratio (y) = 0.71358 1.12704
# Poissons Ratio (z) = 0.52192 0.12596
#
# Static dielectric constant tensor:
#      x y z
#    x 1.601200 0.000000 0.004320 
#    y 0.000000 1.600730 0.000000 
#    z 0.004320 0.000000 1.591500 
# 
# From -- ./inp_files/3483.got.cif
#   From: 2010.05.17/outbox.cif.g08.bks.cpg/sg6_2_cif.got.tgz:3483.got - 2010.06.03 19:42:10.
