data_PCOD9130043
_publ_section_title
;
Structure prediction by ZEFSAII (Michael W. Deem and Ramdas Pophale) SiO2 
 PCOD9130043
Probable space group: C 2
;
_chemical_formula_sum "Si O2"
_cell_formula_units_Z 22
_cell_length_a 20.050748
_cell_length_b 8.825065
_cell_length_c 12.373827
_cell_angle_alpha 90.000000
_cell_angle_beta 155.101915
_cell_angle_gamma 90.000000
_cell_volume 921.807628
_symmetry_space_group_name_H-M "C 2"
_symmetry_group_IT_number 5
_symmetry_cell_setting 'monoclinic'
loop_
_space_group_symop_operation_xyz
x,y,z
-x,y,-z
1/2+x,1/2+y,z
1/2-x,1/2+y,-z
loop_
_atom_site_type_symbol
_atom_site_label
_atom_site_fract_x
_atom_site_fract_y
_atom_site_fract_z
Si Si1 0.500000 0.171750 0.500000
Si Si2 0.933267 0.833315 0.780256
Si Si3 0.593064 0.946630 0.456166
Si Si4 0.355504 0.642282 0.714980
Si Si5 0.256330 0.238442 0.871505
Si Si6 0.730254 0.894660 0.064140
O O1 0.347395 0.276768 0.292054
O O2 0.499069 0.064176 0.395149
O O3 0.760618 0.760929 0.511284
O O4 0.927418 0.011772 0.743397
O O5 0.000000 0.818074 0.000000
O O6 0.060239 0.748816 0.893403
O O7 0.737068 0.038038 0.614562
O O8 0.659263 0.815406 0.631394
O O9 0.454675 0.885370 0.174770
O O10 0.500000 0.702655 0.000000
O O11 0.211835 0.065117 0.828948
O O12 0.237254 0.339487 0.950148
#
# Coordination Sequence:
#
# PCOD9130043 Si02
#       6
#     2   4   4   4   4   4
#     4  12  26  42  66 108 140 178 236 276 360 414
#     4  11  24  48  69 103 140 187 238 289 347 427
#     4  12  23  46  69  96 145 183 232 292 340 424
#     4  11  24  46  71 100 141 188 235 293 351 403
#     4  12  23  48  72  99 143 184 232 286 359 409
#     4  12  25  43  70 104 141 180 231 291 348 421
#
# _framework density 23.866153000000001
#
# number of rings (size 3 to 8) (size 9 to 14) (size 15 to 20)
#    0.000    0.364    9.091    0.000    2.545    2.182 
#    9.818    0.000    0.000    0.000    0.000    0.000 
#    0.000    0.000    0.000    0.000    0.000    0.000 
#
# Total GULP energy -61568.196388 kJ/mol
# GULP energy per Si atom -5597.108763 kJ/mol
# Density = 2.381183 g / cm^3
# Si number density = 23.866153 Si / 1000 Ang^3
#
#
#
# Elastic Constant Matrix: (Units=GPa)
#
#
# Indices 1 2 3 4 5 6 
#
# 1 31.7751 8.8648 1.7242 0.0000 12.7277 0.0000
# 2 8.8648 122.5845 57.8591 0.0000 -13.1794 0.0000
# 3 1.7242 57.8591 187.1377 0.0000 0.6125 0.0000
# 4 0.0000 0.0000 0.0000 51.2657 0.0000 2.1461
# 5 12.7277 -13.1794 0.6125 0.0000 36.0316 0.0000
# 6 0.0000 0.0000 0.0000 2.1461 0.0000 27.2817
#
#
#
# Elastic Compliance Matrix: (Units=1/GPa)
#
#
# Indices 1 2 3 4 5 6 
#
# 1 0.039125 -0.005120 0.001274 0.000000 -0.015715 0.000000
# 2 -0.005120 0.010697 -0.003279 0.000000 0.005777 0.000000
# 3 0.001274 -0.003279 0.006351 0.000000 -0.001757 0.000000
# 4 0.000000 0.000000 0.000000 0.019571 0.000000 -0.001539
# 5 -0.015715 0.005777 -0.001757 0.000000 0.035447 0.000000
# 6 0.000000 0.000000 0.000000 -0.001539 0.000000 0.036776
#
#
# Mechanical properties :
#
#
# Convention : Reuss Voigt Hill
#
# Bulk Modulus (GPa) = 23.85326 53.15485 38.50406
# Shear Modulus (GPa) = 28.37820 41.11909 34.74864
#
# Velocity S-wave (km/s) = 3.45201 4.15529 3.81987
# Velocity P-wave (km/s) = 5.08968 6.73367 5.96855
#
# Compressibility (1/GPa) = 0.04192298
#
# Stress axis : x y z
#
# Youngs Moduli (GPa) = 25.55898 93.48742 157.44456
#
# Poissons Ratio (x) = 0.47868 -0.20059
# Poissons Ratio (y) = 0.13087 0.51625
# Poissons Ratio (z) = -0.03256 0.30654
#
# Static dielectric constant tensor:
#      x y z
#    x 1.928310 0.000000 0.034910 
#    y 0.000000 1.885600 0.000000 
#    z 0.034910 0.000000 1.948100 
# 
# From -- ./inp_files/38074.got.cif
#   From: 2010.05.17/outbox.cif.g08.bks.cpg/sg5_20_cif.got.tgz:38074.got - 2010.06.03 18:56:24.
