data_PCOD9130689
_publ_section_title
;
Structure prediction by ZEFSAII (Michael W. Deem and Ramdas Pophale) SiO2 
 PCOD9130689
Probable space group: C 2
;
_chemical_formula_sum "Si O2"
_cell_formula_units_Z 15
_cell_length_a 15.000000
_cell_length_b 12.000000
_cell_length_c 9.000000
_cell_angle_alpha 90.000000
_cell_angle_beta 70.000000
_cell_angle_gamma 90.000000
_cell_volume 1522.302046
_symmetry_space_group_name_H-M "C 2"
_symmetry_group_IT_number 5
_symmetry_cell_setting 'monoclinic'
loop_
_space_group_symop_operation_xyz
x,y,z
-x,y,-z
1/2+x,1/2+y,z
1/2-x,1/2+y,-z
loop_
_atom_site_type_symbol
_atom_site_label
_atom_site_fract_x
_atom_site_fract_y
_atom_site_fract_z
Si Si1 0.831400 0.095910 0.714296
Si Si2 0.822748 0.304297 0.162242
Si Si3 0.212870 0.923337 0.488710
Si Si4 0.835221 0.516912 0.986783
Si Si5 0.500446 0.454909 0.731265
Si Si6 0.000000 0.133344 0.000000
Si Si7 0.719621 0.850125 0.240073
Si Si8 0.362930 0.265601 0.937048
O O1 0.834802 0.230327 0.715915
O O2 0.780533 0.043072 0.598388
O O3 0.928694 0.026738 0.668330
O O4 0.768039 0.056036 0.891307
O O5 0.764870 0.333330 0.348478
O O6 0.733596 0.273637 0.106681
O O7 0.906793 0.213680 0.082818
O O8 0.867161 0.423975 0.087817
O O9 0.268232 0.908664 0.609904
O O10 0.100568 0.916804 0.601117
O O11 0.824500 0.441853 0.845613
O O12 0.888671 0.634639 0.936935
O O13 0.442471 0.346349 0.823224
O O14 0.508916 0.546303 0.858142
O O15 0.823323 0.814943 0.115242
#
# Coordination Sequence:
#
# PCOD9130689 Si02
#       8
#     4   4   4   4   4   2   4   4
#     4  10  21  39  61  92 134 175 211 273 332 396
#     4  10  23  42  63  95 131 173 218 278 336 387
#     4  11  24  38  61  99 137 162 216 284 338 368
#     4   9  18  39  65  86 129 180 216 259 333 406
#     4  12  22  39  68 103 126 168 234 271 323 398
#     4  12  26  40  74 102 124 178 246 270 310 418
#     4  10  20  36  62  94 129 176 216 265 336 393
#     4  10  20  38  67  92 131 177 219 264 333 409
#
# _framework density 9.8534980000000001
#
# number of rings (size 3 to 8) (size 9 to 14) (size 15 to 20)
#    0.000    1.600    4.000    3.600    3.733    0.000 
#    0.000    4.667    0.000    1.600    0.000    0.000 
#    0.000    0.000    0.000    0.000    0.000    0.000 
#
# Total GULP energy -83532.763829 kJ/mol
# GULP energy per Si atom -5568.850922 kJ/mol
# Density = 0.983107 g / cm^3
# Si number density = 9.853498 Si / 1000 Ang^3
#
#
#
# Elastic Constant Matrix: (Units=GPa)
#
#
# Indices 1 2 3 4 5 6 
#
# 1 56.5470 35.3073 39.1307 0.0000 -18.8964 0.0000
# 2 35.3073 163.5326 48.9440 0.0000 -7.5197 0.0000
# 3 39.1307 48.9440 130.5574 0.0000 -1.0384 0.0000
# 4 0.0000 0.0000 0.0000 29.7533 0.0000 3.9581
# 5 -18.8964 -7.5197 -1.0384 0.0000 39.0972 0.0000
# 6 0.0000 0.0000 0.0000 3.9581 0.0000 22.5959
#
#
#
# Elastic Compliance Matrix: (Units=1/GPa)
#
#
# Indices 1 2 3 4 5 6 
#
# 1 0.029486 -0.003535 -0.007406 0.000000 0.013374 0.000000
# 2 -0.003535 0.007374 -0.001708 0.000000 -0.000335 0.000000
# 3 -0.007406 -0.001708 0.010491 0.000000 -0.003629 0.000000
# 4 0.000000 0.000000 0.000000 0.034412 0.000000 -0.006028
# 5 0.013374 -0.000335 -0.003629 0.000000 0.031881 0.000000
# 6 0.000000 0.000000 0.000000 -0.006028 0.000000 0.045312
#
#
# Mechanical properties :
#
#
# Convention : Reuss Voigt Hill
#
# Bulk Modulus (GPa) = 45.34406 66.37790 55.86098
# Shear Modulus (GPa) = 26.09586 33.43961 29.76773
#
# Velocity S-wave (km/s) = 3.64289 4.12374 3.89075
# Velocity P-wave (km/s) = 6.38383 7.51194 6.97074
#
# Compressibility (1/GPa) = 0.02205361
#
# Stress axis : x y z
#
# Youngs Moduli (GPa) = 33.91473 135.61617 95.32422
#
# Poissons Ratio (x) = 0.47934 0.70598
# Poissons Ratio (y) = 0.11987 0.16278
# Poissons Ratio (z) = 0.25117 0.23158
#
# Static dielectric constant tensor:
#      x y z
#    x 1.758760 0.000000 0.051380 
#    y 0.000000 1.694310 0.000000 
#    z 0.051380 0.000000 1.768860 
# 
# From -- ./inp_files/23869.got.cif
#   From: 2010.05.17/outbox.ucp.g08.bks.cvg/sg5_12_cif.got.tgz:23869.got - 2010.06.11 12:53:14.
