data_PCOD9130151
_publ_section_title
;
Structure prediction by ZEFSAII (Michael W. Deem and Ramdas Pophale) SiO2 
 PCOD9130151
Probable space group: C 2
;
_chemical_formula_sum "Si O2"
_cell_formula_units_Z 26
_cell_length_a 20.601228
_cell_length_b 10.866788
_cell_length_c 6.038930
_cell_angle_alpha 90.000000
_cell_angle_beta 126.541260
_cell_angle_gamma 90.000000
_cell_volume 1086.179064
_symmetry_space_group_name_H-M "C 2"
_symmetry_group_IT_number 5
_symmetry_cell_setting 'monoclinic'
loop_
_space_group_symop_operation_xyz
x,y,z
-x,y,-z
1/2+x,1/2+y,z
1/2-x,1/2+y,-z
loop_
_atom_site_type_symbol
_atom_site_label
_atom_site_fract_x
_atom_site_fract_y
_atom_site_fract_z
Si Si1 0.127094 0.150190 0.478201
Si Si2 0.733639 0.747367 0.081192
Si Si3 0.500000 0.490044 0.500000
Si Si4 0.253006 0.508946 0.599287
Si Si5 0.888206 0.373992 0.849935
Si Si6 0.635661 0.317965 0.948615
Si Si7 0.034530 0.596762 0.823799
O O1 0.194857 0.066882 0.495235
O O2 0.090218 0.248865 0.231135
O O3 0.058703 0.072780 0.466746
O O4 0.177567 0.229836 0.754747
O O5 0.740920 0.613285 0.201484
O O6 0.685135 0.836135 0.140938
O O7 0.819446 0.803818 0.194049
O O8 0.556478 0.401536 0.762545
O O9 0.158633 0.474024 0.394558
O O10 0.302314 0.387981 0.769198
O O11 0.953287 0.450345 0.120322
O O12 0.614683 0.180662 0.978614
O O13 0.000000 0.617473 0.500000
O O14 0.000000 0.634527 0.000000
#
# Coordination Sequence:
#
# PCOD9130151 Si02
#       7
#     4   4   2   4   4   4   4
#     4  11  25  47  73 114 149 207 258 334 409 479
#     4  11  25  48  75 109 149 202 267 334 399 477
#     4  12  26  46  76 114 164 208 266 336 414 486
#     4  11  25  45  77 112 144 201 266 337 395 481
#     4  11  27  47  78 108 153 204 274 332 401 490
#     4  12  26  46  79 111 158 206 265 339 407 487
#     4  12  32  52  77 115 163 218 265 330 415 495
#
# _framework density 23.937121999999999
#
# number of rings (size 3 to 8) (size 9 to 14) (size 15 to 20)
#    0.000    0.615    3.846    1.846   10.769    1.231 
#    0.000    0.000    0.000    0.000    0.000    0.000 
#    0.000    0.000    0.000    0.000    0.000    0.000 
#
# Total GULP energy -72655.937785 kJ/mol
# GULP energy per Si atom -5588.918291 kJ/mol
# Density = 2.388264 g / cm^3
# Si number density = 23.937122 Si / 1000 Ang^3
#
#
#
# Elastic Constant Matrix: (Units=GPa)
#
#
# Indices 1 2 3 4 5 6 
#
# 1 83.0560 12.7373 15.2131 0.0000 -5.5719 0.0000
# 2 12.7373 67.7999 -1.2281 0.0000 -5.2993 0.0000
# 3 15.2131 -1.2281 60.6320 0.0000 0.5828 0.0000
# 4 0.0000 0.0000 0.0000 119.8880 0.0000 68.2721
# 5 -5.5719 -5.2993 0.5828 0.0000 32.8992 0.0000
# 6 0.0000 0.0000 0.0000 68.2721 0.0000 81.5703
#
#
#
# Elastic Compliance Matrix: (Units=1/GPa)
#
#
# Indices 1 2 3 4 5 6 
#
# 1 0.013150 -0.002383 -0.003366 0.000000 0.001903 0.000000
# 2 -0.002383 0.015374 0.000889 0.000000 0.002057 0.000000
# 3 -0.003366 0.000889 0.017363 0.000000 -0.000734 0.000000
# 4 0.000000 0.000000 0.000000 0.015937 0.000000 -0.013339
# 5 0.001903 0.002057 -0.000734 0.000000 0.031063 0.000000
# 6 0.000000 0.000000 0.000000 -0.013339 0.000000 0.023424
#
#
# Mechanical properties :
#
#
# Convention : Reuss Voigt Hill
#
# Bulk Modulus (GPa) = 27.64890 29.43696 28.54293
# Shear Modulus (GPa) = 36.20995 59.18920 47.69957
#
# Velocity S-wave (km/s) = 3.89358 4.97801 4.46881
# Velocity P-wave (km/s) = 5.63817 6.73537 6.21104
#
# Compressibility (1/GPa) = 0.03616781
#
# Stress axis : x y z
#
# Youngs Moduli (GPa) = 76.04771 65.04583 57.59524
#
# Poissons Ratio (x) = 0.15498 0.19386
# Poissons Ratio (y) = 0.18119 -0.05123
# Poissons Ratio (z) = 0.25597 -0.05785
#
# Static dielectric constant tensor:
#      x y z
#    x 1.938560 0.000000 -0.069230 
#    y 0.000000 1.872170 0.000000 
#    z -0.069230 0.000000 2.016490 
# 
# From -- ./inp_files/9621.got.cif
#   From: 2010.05.17/outbox.cif.g08.bks.cpg/sg5_5_cif.got.tgz:9621.got - 2010.06.03 18:56:24.
