data_PCOD9130460
_publ_section_title
;
Structure prediction by ZEFSAII (Michael W. Deem and Ramdas Pophale) SiO2 
 PCOD9130460
Probable space group: C 2
;
_chemical_formula_sum "Si O2"
_cell_formula_units_Z 20
_cell_length_a 22.473705
_cell_length_b 6.427549
_cell_length_c 15.799729
_cell_angle_alpha 90.000000
_cell_angle_beta 158.003145
_cell_angle_gamma 90.000000
_cell_volume 854.842527
_symmetry_space_group_name_H-M "C 2"
_symmetry_group_IT_number 5
_symmetry_cell_setting 'monoclinic'
loop_
_space_group_symop_operation_xyz
x,y,z
-x,y,-z
1/2+x,1/2+y,z
1/2-x,1/2+y,-z
loop_
_atom_site_type_symbol
_atom_site_label
_atom_site_fract_x
_atom_site_fract_y
_atom_site_fract_z
Si Si1 0.500000 0.046890 0.000000
Si Si2 0.511535 0.751186 0.170807
Si Si3 0.088860 0.570661 0.507838
Si Si4 0.500000 0.687801 0.500000
Si Si5 0.691840 0.399262 0.337403
Si Si6 0.195929 0.808137 0.818423
O O1 0.638192 0.201633 0.212397
O O2 0.460390 0.900701 0.026848
O O3 0.539517 0.516951 0.175103
O O4 0.683829 0.824337 0.429072
O O5 0.383213 0.780156 0.076243
O O6 0.056973 0.339612 0.500575
O O7 0.211553 0.560177 0.593768
O O8 0.164221 0.686266 0.688116
O O9 0.923326 0.693673 0.273876
O O10 0.634264 0.538430 0.716956
#
# Coordination Sequence:
#
# PCOD9130460 Si02
#       6
#     2   4   4   2   4   4
#     4  12  24  44  76  94 138 180 206 302 322 388
#     4  12  25  45  66 101 135 178 228 270 336 401
#     4   9  19  38  64  92 128 167 215 274 327 393
#     4   8  16  36  64  96 114 172 216 262 346 386
#     4  12  25  45  66 101 135 178 228 270 336 401
#     4   9  19  38  64  92 128 167 215 274 327 393
#
# _framework density 23.396121000000001
#
# number of rings (size 3 to 8) (size 9 to 14) (size 15 to 20)
#    0.000    2.000    2.000    4.200    0.000    3.200 
#    3.600    0.000    0.000    0.000    0.000    0.000 
#    0.000    0.000    0.000    0.000    0.000    0.000 
#
# Total GULP energy -55914.774442 kJ/mol
# GULP energy per Si atom -5591.477444 kJ/mol
# Density = 2.334287 g / cm^3
# Si number density = 23.396121 Si / 1000 Ang^3
#
#
#
# Elastic Constant Matrix: (Units=GPa)
#
#
# Indices 1 2 3 4 5 6 
#
# 1 36.0175 1.1935 24.0960 0.0000 9.3855 0.0000
# 2 1.1935 105.1967 47.5098 0.0000 1.3927 0.0000
# 3 24.0960 47.5098 82.4646 0.0000 16.1999 0.0000
# 4 0.0000 0.0000 0.0000 32.4617 0.0000 0.9817
# 5 9.3855 1.3927 16.1999 0.0000 38.9759 0.0000
# 6 0.0000 0.0000 0.0000 0.9817 0.0000 27.0167
#
#
#
# Elastic Compliance Matrix: (Units=1/GPa)
#
#
# Indices 1 2 3 4 5 6 
#
# 1 0.037614 0.005764 -0.013603 0.000000 -0.003610 0.000000
# 2 0.005764 0.014030 -0.010232 0.000000 0.002363 0.000000
# 3 -0.013603 -0.010232 0.023173 0.000000 -0.005990 0.000000
# 4 0.000000 0.000000 0.000000 0.030839 0.000000 -0.001121
# 5 -0.003610 0.002363 -0.005990 0.000000 0.028931 0.000000
# 6 0.000000 0.000000 0.000000 -0.001121 0.000000 0.037055
#
#
# Mechanical properties :
#
#
# Convention : Reuss Voigt Hill
#
# Bulk Modulus (GPa) = 25.85519 41.03081 33.44300
# Shear Modulus (GPa) = 22.65773 29.74949 26.20361
#
# Velocity S-wave (km/s) = 3.11535 3.56976 3.35027
# Velocity P-wave (km/s) = 4.90057 5.87932 5.41212
#
# Compressibility (1/GPa) = 0.03867696
#
# Stress axis : x y z
#
# Youngs Moduli (GPa) = 26.58576 71.27442 43.15438
#
# Poissons Ratio (x) = -0.41085 0.58701
# Poissons Ratio (y) = -0.15325 0.44155
# Poissons Ratio (z) = 0.36164 0.72926
#
# Static dielectric constant tensor:
#      x y z
#    x 1.886860 0.000000 0.058000 
#    y 0.000000 1.872190 0.000000 
#    z 0.058000 0.000000 1.969030 
# 
# From -- ./inp_files/40976.got.cif
#   From: 2010.05.17/outbox.cif.g08.bks.cpg/sg5_21_cif.got.tgz:40976.got - 2010.06.03 18:56:24.
