data_PCOD9130698
_publ_section_title
;
Structure prediction by ZEFSAII (Michael W. Deem and Ramdas Pophale) SiO2 
 PCOD9130698
Probable space group: C 2
;
_chemical_formula_sum "Si O2"
_cell_formula_units_Z 12
_cell_length_a 12.000000
_cell_length_b 9.000000
_cell_length_c 24.000000
_cell_angle_alpha 90.000000
_cell_angle_beta 150.000000
_cell_angle_gamma 90.000000
_cell_volume 1296.000000
_symmetry_space_group_name_H-M "C 2"
_symmetry_group_IT_number 5
_symmetry_cell_setting 'monoclinic'
loop_
_space_group_symop_operation_xyz
x,y,z
-x,y,-z
1/2+x,1/2+y,z
1/2-x,1/2+y,-z
loop_
_atom_site_type_symbol
_atom_site_label
_atom_site_fract_x
_atom_site_fract_y
_atom_site_fract_z
Si Si1 0.507350 0.126960 0.638181
Si Si2 0.320867 0.886603 0.991517
Si Si3 0.216286 0.729946 0.056880
Si Si4 0.164625 0.824620 0.807014
Si Si5 0.619224 0.619007 0.294145
Si Si6 0.684502 0.352943 0.534289
O O1 0.585581 0.195008 0.731537
O O2 0.705278 0.081825 0.679907
O O3 0.404856 0.268201 0.559732
O O4 0.346156 0.987125 0.583632
O O5 0.206246 0.795602 0.891069
O O6 0.284942 0.059782 0.964658
O O7 0.225388 0.837042 0.008643
O O8 0.586473 0.864946 0.105487
O O9 0.438145 0.731607 0.189545
O O10 0.000000 0.756400 0.000000
O O11 0.001874 0.968763 0.736759
O O12 0.717116 0.713566 0.387592
O O13 0.500000 0.411748 0.500000
#
# Coordination Sequence:
#
# PCOD9130698 Si02
#       6
#     4   4   4   4   4   4
#     4  11  22  41  64  87 123 157 203 253 305 358
#     4  10  21  39  58  89 125 161 202 245 293 356
#     4  11  21  40  61  87 127 164 200 245 298 355
#     4  10  20  40  60  86 127 159 196 251 298 352
#     4  10  21  39  61  87 121 162 199 247 301 356
#     4  10  24  41  62  91 118 154 207 254 301 360
#
# _framework density 9.2592590000000001
#
# number of rings (size 3 to 8) (size 9 to 14) (size 15 to 20)
#    0.000    1.667    5.000    1.000    0.000    5.333 
#    3.000    0.000    0.000    0.000    0.000    0.000 
#    0.000    0.000    0.000    0.000    0.000    0.000 
#
# Total GULP energy -66864.181260 kJ/mol
# GULP energy per Si atom -5572.015105 kJ/mol
# Density = 0.923818 g / cm^3
# Si number density = 9.259259 Si / 1000 Ang^3
#
#
#
# Elastic Constant Matrix: (Units=GPa)
#
#
# Indices 1 2 3 4 5 6 
#
# 1 134.0863 38.6330 34.9595 -0.0003 3.0055 -0.0005
# 2 38.6330 51.1656 25.0737 -0.0008 7.1647 -0.0007
# 3 34.9595 25.0737 65.5490 -0.0026 8.8785 -0.0025
# 4 -0.0003 -0.0008 -0.0026 23.5638 -0.0007 -9.0033
# 5 3.0055 7.1647 8.8785 -0.0007 11.1203 -0.0011
# 6 -0.0005 -0.0007 -0.0025 -9.0033 -0.0011 23.1706
#
#
#
# Elastic Compliance Matrix: (Units=1/GPa)
#
#
# Indices 1 2 3 4 5 6 
#
# 1 0.010162 -0.006561 -0.003488 0.000000 0.004265 0.000000
# 2 -0.006561 0.029147 -0.005995 0.000000 -0.012220 -0.000001
# 3 -0.003488 -0.005995 0.021033 0.000003 -0.011988 0.000002
# 4 0.000000 0.000000 0.000003 0.049837 0.000003 0.019365
# 5 0.004265 -0.012220 -0.011988 0.000003 0.106217 0.000005
# 6 0.000000 -0.000001 0.000002 0.019365 0.000005 0.050683
#
#
# Mechanical properties :
#
#
# Convention : Reuss Voigt Hill
#
# Bulk Modulus (GPa) = 35.39256 49.79257 42.59257
# Shear Modulus (GPa) = 16.20304 21.71327 18.95816
#
# Velocity S-wave (km/s) = 2.96119 3.42792 3.20307
# Velocity P-wave (km/s) = 5.55383 6.52793 6.06048
#
# Compressibility (1/GPa) = 0.02825452
#
# Stress axis : x y z
#
# Youngs Moduli (GPa) = 98.40614 34.30848 47.54473
#
# Poissons Ratio (x) = 0.22510 0.16583
# Poissons Ratio (y) = 0.64564 0.28503
# Poissons Ratio (z) = 0.34322 0.20568
#
# Static dielectric constant tensor:
#      x y z
#    x 1.630610 0.000000 -0.004130 
#    y 0.000000 1.605440 0.000000 
#    z -0.004130 0.000000 1.724160 
# 
# From -- ./inp_files/38274.got.cif
#   From: 2010.05.17/outbox.ucp.g08.bks.cvg/sg5_20_cif.got.tgz:38274.got - 2010.06.11 12:53:14.
