data_PCOD9130238
_publ_section_title
;
Structure prediction by ZEFSAII (Michael W. Deem and Ramdas Pophale) SiO2 
 PCOD9130238
Probable space group: C 2
;
_chemical_formula_sum "Si O2"
_cell_formula_units_Z 30
_cell_length_a 18.341954
_cell_length_b 14.660018
_cell_length_c 5.128495
_cell_angle_alpha 90.000000
_cell_angle_beta 73.039421
_cell_angle_gamma 90.000000
_cell_volume 1319.038881
_symmetry_space_group_name_H-M "C 2"
_symmetry_group_IT_number 5
_symmetry_cell_setting 'monoclinic'
loop_
_space_group_symop_operation_xyz
x,y,z
-x,y,-z
1/2+x,1/2+y,z
1/2-x,1/2+y,-z
loop_
_atom_site_type_symbol
_atom_site_label
_atom_site_fract_x
_atom_site_fract_y
_atom_site_fract_z
Si Si1 0.268034 0.537920 0.051177
Si Si2 0.622052 0.431463 0.756868
Si Si3 0.761633 0.365568 0.253908
Si Si4 0.500000 0.508087 0.500000
Si Si5 0.670299 0.184613 0.397835
Si Si6 0.122734 0.157362 0.325588
Si Si7 0.089138 0.277425 0.866820
Si Si8 0.414215 0.242262 0.999996
O O1 0.343409 0.519618 0.143335
O O2 0.206196 0.587839 0.291413
O O3 0.241773 0.439612 0.973312
O O4 0.296219 0.605839 0.790766
O O5 0.694493 0.399698 0.512937
O O6 0.548292 0.450232 0.657288
O O7 0.602842 0.350755 0.976782
O O8 0.732762 0.261312 0.249951
O O9 0.848918 0.356656 0.255883
O O10 0.561714 0.578751 0.329899
O O11 0.641239 0.199774 0.720982
O O12 0.602114 0.203810 0.267106
O O13 0.102170 0.203905 0.622024
O O14 0.114213 0.234034 0.115581
O O15 0.000000 0.301773 0.000000
O O16 0.500000 0.227333 0.000000
#
# Coordination Sequence:
#
# PCOD9130238 Si02
#       8
#     4   4   4   2   4   4   4   4
#     4  12  26  46  73 109 145 194 243 306 356 448
#     4  11  27  42  71 108 151 185 238 303 373 439
#     4  11  26  44  71 106 148 192 245 292 373 432
#     4  12  24  42  68 110 146 182 236 294 388 434
#     4  11  26  45  75 104 143 198 239 297 365 434
#     4  12  26  42  72 103 149 182 235 300 375 427
#     4  12  26  48  71 105 143 194 239 301 359 437
#     4  11  26  47  71 104 148 191 244 300 364 429
#
# _framework density 22.743832999999999
#
# number of rings (size 3 to 8) (size 9 to 14) (size 15 to 20)
#    0.000    0.533    5.333    1.200   13.067    0.000 
#    0.000    0.667    2.933    0.000    0.000    0.000 
#    0.000    0.000    0.000    0.000    0.000    0.000 
#
# Total GULP energy -83865.973859 kJ/mol
# GULP energy per Si atom -5591.064924 kJ/mol
# Density = 2.269207 g / cm^3
# Si number density = 22.743833 Si / 1000 Ang^3
#
#
#
# Elastic Constant Matrix: (Units=GPa)
#
#
# Indices 1 2 3 4 5 6 
#
# 1 120.1863 23.8300 19.5497 0.0000 -6.9463 0.0000
# 2 23.8300 55.2533 19.9533 0.0000 -8.5055 0.0000
# 3 19.5497 19.9533 67.3285 0.0000 -5.3484 0.0000
# 4 0.0000 0.0000 0.0000 -9.5839 0.0000 -3.6195
# 5 -6.9463 -8.5055 -5.3484 0.0000 33.1873 0.0000
# 6 0.0000 0.0000 0.0000 -3.6195 0.0000 37.6313
#
#
#
# Elastic Compliance Matrix: (Units=1/GPa)
#
#
# Indices 1 2 3 4 5 6 
#
# 1 0.009289 -0.003278 -0.001659 0.000000 0.000837 0.000000
# 2 -0.003278 0.022043 -0.005254 0.000000 0.004117 0.000000
# 3 -0.001659 -0.005254 0.016974 0.000000 0.001042 0.000000
# 4 0.000000 0.000000 0.000000 -0.100685 0.000000 -0.009684
# 5 0.000837 0.004117 0.001042 0.000000 0.031530 0.000000
# 6 0.000000 0.000000 0.000000 -0.009684 0.000000 0.025642
#
#
# Mechanical properties :
#
#
# Convention : Reuss Voigt Hill
#
# Bulk Modulus (GPa) = 35.81171 41.04820 38.42995
# Shear Modulus (GPa) = 144.99668 24.20928 84.60298
#
# Velocity S-wave (km/s) = 7.99315 3.26610 6.10565
# Velocity P-wave (km/s) = 10.04824 5.68423 8.16326
#
# Compressibility (1/GPa) = 0.02792383
#
# Stress axis : x y z
#
# Youngs Moduli (GPa) = 107.65866 45.36535 58.91341
#
# Poissons Ratio (x) = 0.14871 0.09774
# Poissons Ratio (y) = 0.35292 0.30952
# Poissons Ratio (z) = 0.17862 0.23834
#
# Static dielectric constant tensor:
#      x y z
#    x 1.922880 0.000000 -0.093260 
#    y 0.000000 1.880480 0.000000 
#    z -0.093260 0.000000 2.089530 
# 
# From -- ./inp_files/8644.got.cif
#   From: 2010.05.17/outbox.cif.g08.bks.cpg/sg5_5_cif.got.tgz:8644.got - 2010.06.03 18:56:24.
