data_PCOD9130627
_publ_section_title
;
Structure prediction by ZEFSAII (Michael W. Deem and Ramdas Pophale) SiO2 
 PCOD9130627
Probable space group: C 2
;
_chemical_formula_sum "Si O2"
_cell_formula_units_Z 20
_cell_length_a 23.649897
_cell_length_b 5.057999
_cell_length_c 8.920480
_cell_angle_alpha 90.000000
_cell_angle_beta 127.009246
_cell_angle_gamma 90.000000
_cell_volume 852.102840
_symmetry_space_group_name_H-M "C 2"
_symmetry_group_IT_number 5
_symmetry_cell_setting 'monoclinic'
loop_
_space_group_symop_operation_xyz
x,y,z
-x,y,-z
1/2+x,1/2+y,z
1/2-x,1/2+y,-z
loop_
_atom_site_type_symbol
_atom_site_label
_atom_site_fract_x
_atom_site_fract_y
_atom_site_fract_z
Si Si1 0.961795 0.931580 0.595971
Si Si2 0.983950 0.444785 0.146451
Si Si3 0.251576 0.546114 0.606640
Si Si4 0.328598 0.876205 0.957127
Si Si5 0.182093 0.195099 0.719998
O O1 0.970126 0.686600 0.719600
O O2 0.000000 0.864072 0.500000
O O3 0.999819 0.186821 0.728629
O O4 0.881359 0.013682 0.436660
O O5 0.901470 0.517654 0.034660
O O6 0.000000 0.387731 0.000000
O O7 0.231291 0.796295 0.471659
O O8 0.315259 0.645328 0.814329
O O9 0.191301 0.443330 0.623823
O O10 0.258203 0.052997 0.837002
O O11 0.332588 0.774380 0.133034
#
# Coordination Sequence:
#
# PCOD9130627 Si02
#       5
#     4   4   4   4   4
#     4  12  29  52  78 114 158 211 264 324 403 480
#     4  12  31  53  79 115 164 209 265 329 404 474
#     4  12  28  47  77 124 163 203 261 340 405 463
#     4  12  28  50  84 120 160 213 273 329 400 484
#     4  12  28  49  84 118 161 213 272 332 398 482
#
# _framework density 23.471346
#
# number of rings (size 3 to 8) (size 9 to 14) (size 15 to 20)
#    0.000    0.000    6.000    1.200   11.200    1.600 
#    0.000    0.000    0.000    0.000    0.000    0.000 
#    0.000    0.000    0.000    0.000    0.000    0.000 
#
# Total GULP energy -56092.405592 kJ/mol
# GULP energy per Si atom -5609.240559 kJ/mol
# Density = 2.341792 g / cm^3
# Si number density = 23.471346 Si / 1000 Ang^3
#
#
#
# Elastic Constant Matrix: (Units=GPa)
#
#
# Indices 1 2 3 4 5 6 
#
# 1 93.0552 12.7304 82.9120 0.0000 5.4529 0.0000
# 2 12.7304 97.4624 32.7427 0.0000 -14.1368 0.0000
# 3 82.9120 32.7427 105.8248 0.0000 -13.9415 0.0000
# 4 0.0000 0.0000 0.0000 1.7759 0.0000 9.7405
# 5 5.4529 -14.1368 -13.9415 0.0000 48.5998 0.0000
# 6 0.0000 0.0000 0.0000 9.7405 0.0000 22.4236
#
#
#
# Elastic Compliance Matrix: (Units=1/GPa)
#
#
# Indices 1 2 3 4 5 6 
#
# 1 0.046936 0.005220 -0.040409 0.000000 -0.015340 0.000000
# 2 0.005220 0.012308 -0.007798 0.000000 0.000758 0.000000
# 3 -0.040409 -0.007798 0.045542 0.000000 0.015330 0.000000
# 4 0.000000 0.000000 0.000000 -0.407279 0.000000 0.176917
# 5 -0.015340 0.000758 0.015330 0.000000 0.026915 0.000000
# 6 0.000000 0.000000 0.000000 0.176917 0.000000 -0.032255
#
#
# Mechanical properties :
#
#
# Convention : Reuss Voigt Hill
#
# Bulk Modulus (GPa) = 53.16082 61.45696 57.30889
# Shear Modulus (GPa) = -23.19244 25.75701 1.28229
#
# Velocity S-wave (km/s) = -3.14684 3.31627 0.73994
# Velocity P-wave (km/s) = 3.08138 6.39564 5.01991
#
# Compressibility (1/GPa) = 0.01881085
#
# Stress axis : x y z
#
# Youngs Moduli (GPa) = 21.30574 81.24647 21.95777
#
# Poissons Ratio (x) = -0.42410 0.88730
# Poissons Ratio (y) = -0.11121 0.17123
# Poissons Ratio (z) = 0.86095 0.63357
#
# Static dielectric constant tensor:
#      x y z
#    x 1.850990 0.000000 0.001790 
#    y 0.000000 1.891610 0.000000 
#    z 0.001790 0.000000 1.877130 
# 
# From -- ./inp_files/30361.got.cif
#   From: 2010.05.17/outbox.cif.g08.bks.cpg/sg5_16_cif.got.tgz:30361.got - 2010.06.03 18:56:24.
