data_PCOD9130966
_publ_section_title
;
Structure prediction by ZEFSAII (Michael W. Deem and Ramdas Pophale) SiO2 
 PCOD9130966
Probable space group: P M
;
_chemical_formula_sum "Si O2"
_cell_formula_units_Z 14
_cell_length_a 14.781302
_cell_length_b 10.568526
_cell_length_c 12.526067
_cell_angle_alpha 90.000000
_cell_angle_beta 159.895038
_cell_angle_gamma 90.000000
_cell_volume 672.625309
_symmetry_space_group_name_H-M "P M"
_symmetry_group_IT_number 6
_symmetry_cell_setting 'monoclinic'
loop_
_space_group_symop_operation_xyz
x,y,z
x,-y,z
loop_
_atom_site_type_symbol
_atom_site_label
_atom_site_fract_x
_atom_site_fract_y
_atom_site_fract_z
Si Si1 0.716740 0.360865 0.517190
Si Si2 0.055277 0.151979 0.536337
Si Si3 0.018489 0.858175 0.174591
Si Si4 0.675905 0.647877 0.717664
Si Si5 0.484102 0.848177 0.847088
Si Si6 0.164886 0.231570 0.895846
Si Si7 0.263719 0.866413 0.224749
O O1 0.605542 0.500000 0.375716
O O2 0.796676 0.355594 0.730995
O O3 0.965719 0.338895 0.717446
O O4 0.472717 0.267287 0.227743
O O5 0.307151 0.200195 0.749649
O O6 0.069346 0.183975 0.676172
O O7 0.061593 0.000000 0.533714
O O8 0.781968 0.199558 0.181760
O O9 0.301604 0.830056 0.541338
O O10 0.056987 0.871774 0.090859
O O11 0.935636 0.000000 0.124708
O O12 0.840134 0.733086 0.983550
O O13 0.631813 0.500000 0.698531
O O14 0.422346 0.736977 0.418222
O O15 0.507147 0.000000 0.883780
O O16 0.147395 0.138049 0.977619
O O17 0.420767 0.000000 0.408765
#
# Coordination Sequence:
#
# PCOD9130966 Si02
#       7
#     2   2   2   2   2   2   2
#     4  10  21  36  56  83 116 153 198 238 288 359
#     4  10  20  36  56  85 115 150 192 237 289 351
#     4  10  20  36  59  86 116 153 193 249 299 350
#     4  10  21  36  56  84 120 161 197 238 293 363
#     4   9  20  35  56  82 114 152 194 236 291 351
#     4  11  20  36  58  86 116 153 188 242 302 350
#     4  10  21  35  55  90 122 152 190 246 309 356
#
# _framework density 20.813967999999999
#
# number of rings (size 3 to 8) (size 9 to 14) (size 15 to 20)
#    0.000    2.000    1.429    2.143    2.000    1.143 
#    0.000    1.429    0.000    5.143    0.000    0.000 
#    0.000    0.000    0.000    0.000    0.000    0.000 
#
# Total GULP energy -77966.057623 kJ/mol
# GULP energy per Si atom -5569.004116 kJ/mol
# Density = 2.076659 g / cm^3
# Si number density = 20.813968 Si / 1000 Ang^3
#
#
#
# Elastic Constant Matrix: (Units=GPa)
#
#
# Indices 1 2 3 4 5 6 
#
# 1 60.7730 12.8872 0.0814 0.0000 -3.2736 0.0000
# 2 12.8872 110.0104 23.6680 0.0000 -6.2235 0.0000
# 3 0.0814 23.6680 75.3391 0.0000 -7.6675 0.0000
# 4 0.0000 0.0000 0.0000 9.5973 0.0000 4.6254
# 5 -3.2736 -6.2235 -7.6675 0.0000 27.7678 0.0000
# 6 0.0000 0.0000 0.0000 4.6254 0.0000 11.8291
#
#
#
# Elastic Compliance Matrix: (Units=1/GPa)
#
#
# Indices 1 2 3 4 5 6 
#
# 1 0.016986 -0.002064 0.000810 0.000000 0.001763 0.000000
# 2 -0.002064 0.010051 -0.003036 0.000000 0.001171 0.000000
# 3 0.000810 -0.003036 0.014576 0.000000 0.003440 0.000000
# 4 0.000000 0.000000 0.000000 0.128392 0.000000 -0.050203
# 5 0.001763 0.001171 0.003440 0.000000 0.037433 0.000000
# 6 0.000000 0.000000 0.000000 -0.050203 0.000000 0.104167
#
#
# Mechanical properties :
#
#
# Convention : Reuss Voigt Hill
#
# Bulk Modulus (GPa) = 30.27347 35.48839 32.88093
# Shear Modulus (GPa) = 15.09667 23.80457 19.45062
#
# Velocity S-wave (km/s) = 2.69609 3.38551 3.06027
# Velocity P-wave (km/s) = 4.92628 5.68942 5.32155
#
# Compressibility (1/GPa) = 0.03303222
#
# Stress axis : x y z
#
# Youngs Moduli (GPa) = 58.87088 99.48913 68.60416
#
# Poissons Ratio (x) = 0.20537 -0.05554
# Poissons Ratio (y) = 0.12153 0.20830
# Poissons Ratio (z) = -0.04766 0.30207
#
# Static dielectric constant tensor:
#      x y z
#    x 1.768010 0.000000 0.021390 
#    y 0.000000 1.786280 0.000000 
#    z 0.021390 0.000000 1.780570 
# 
# From -- ./inp_files/1586.got.cif
#   From: 2010.05.17/outbox.cif.g08.bks.cpg/sg6_1_cif.got.tgz:1586.got - 2010.06.03 19:42:10.
