data_PCOD9130059
_publ_section_title
;
Structure prediction by ZEFSAII (Michael W. Deem and Ramdas Pophale) SiO2 
 PCOD9130059
Probable space group: C 2
;
_chemical_formula_sum "Si O2"
_cell_formula_units_Z 28
_cell_length_a 10.920766
_cell_length_b 9.339139
_cell_length_c 13.932013
_cell_angle_alpha 90.000000
_cell_angle_beta 55.722335
_cell_angle_gamma 90.000000
_cell_volume 1174.142951
_symmetry_space_group_name_H-M "C 2"
_symmetry_group_IT_number 5
_symmetry_cell_setting 'monoclinic'
loop_
_space_group_symop_operation_xyz
x,y,z
-x,y,-z
1/2+x,1/2+y,z
1/2-x,1/2+y,-z
loop_
_atom_site_type_symbol
_atom_site_label
_atom_site_fract_x
_atom_site_fract_y
_atom_site_fract_z
Si Si1 0.834728 0.899420 0.045537
Si Si2 0.208189 0.368581 0.739151
Si Si3 0.765103 0.217256 0.090313
Si Si4 0.514058 0.552696 0.383358
Si Si5 0.434801 0.134270 0.301956
Si Si6 0.313041 0.832377 0.688966
Si Si7 0.703865 0.100452 0.430317
O O1 0.738044 0.872063 0.182493
O O2 0.837174 0.068898 0.025628
O O3 0.766316 0.818763 0.985435
O O4 0.000000 0.848577 0.000000
O O5 0.146572 0.291441 0.861229
O O6 0.347887 0.462530 0.715640
O O7 0.104375 0.480674 0.729074
O O8 0.263249 0.245098 0.642789
O O9 0.602409 0.177072 0.205536
O O10 0.500000 0.508131 0.500000
O O11 0.553909 0.720127 0.364953
O O12 0.360314 0.537725 0.398823
O O13 0.320709 0.245922 0.303286
O O14 0.392685 0.132304 0.432852
O O15 0.350680 0.974734 0.614718
#
# Coordination Sequence:
#
# PCOD9130059 Si02
#       7
#     4   4   4   4   4   4   4
#     4  12  29  51  73 101 138 189 248 304 357 414
#     4  11  26  44  69 108 141 185 235 283 355 428
#     4  12  29  48  75 101 138 190 241 306 356 418
#     4  11  25  41  71 104 145 192 224 283 355 423
#     4  11  25  44  73 107 146 186 228 294 361 427
#     4  11  24  47  70 105 144 188 235 288 358 427
#     4  12  24  44  72 108 154 181 232 288 355 443
#
# _framework density 23.847183000000001
#
# number of rings (size 3 to 8) (size 9 to 14) (size 15 to 20)
#    0.000    0.571    5.714    1.714    8.000    1.143 
#    0.000    0.000    0.000    0.000    0.000    0.000 
#    0.000    0.000    0.000    0.000    0.000    0.000 
#
# Total GULP energy -78530.125559 kJ/mol
# GULP energy per Si atom -5609.294683 kJ/mol
# Density = 2.379291 g / cm^3
# Si number density = 23.847183 Si / 1000 Ang^3
#
#
#
# Elastic Constant Matrix: (Units=GPa)
#
#
# Indices 1 2 3 4 5 6 
#
# 1 69.9573 22.7937 31.3919 0.0000 15.9397 0.0000
# 2 22.7937 145.1690 44.2880 0.0000 38.2230 0.0000
# 3 31.3919 44.2880 116.7135 0.0000 39.7633 0.0000
# 4 0.0000 0.0000 0.0000 40.2103 0.0000 12.5833
# 5 15.9397 38.2230 39.7633 0.0000 41.0066 0.0000
# 6 0.0000 0.0000 0.0000 12.5833 0.0000 29.5265
#
#
#
# Elastic Compliance Matrix: (Units=1/GPa)
#
#
# Indices 1 2 3 4 5 6 
#
# 1 0.016631 -0.000987 -0.003300 0.000000 -0.002345 0.000000
# 2 -0.000987 0.009244 -0.000653 0.000000 -0.007599 0.000000
# 3 -0.003300 -0.000653 0.013528 0.000000 -0.011227 0.000000
# 4 0.000000 0.000000 0.000000 0.028696 0.000000 -0.012230
# 5 -0.002345 -0.007599 -0.011227 0.000000 0.043267 0.000000
# 6 0.000000 0.000000 0.000000 -0.012230 0.000000 0.039080
#
#
# Mechanical properties :
#
#
# Convention : Reuss Voigt Hill
#
# Bulk Modulus (GPa) = 33.87234 58.75410 46.31322
# Shear Modulus (GPa) = 29.38289 37.70643 33.54466
#
# Velocity S-wave (km/s) = 3.51398 3.98071 3.75460
# Velocity P-wave (km/s) = 5.54065 6.76899 6.18539
#
# Compressibility (1/GPa) = 0.02952261
#
# Stress axis : x y z
#
# Youngs Moduli (GPa) = 60.12855 108.18258 73.92024
#
# Poissons Ratio (x) = 0.10681 0.24392
# Poissons Ratio (y) = 0.05936 0.04828
# Poissons Ratio (z) = 0.19841 0.07065
#
# Static dielectric constant tensor:
#      x y z
#    x 1.929380 0.000000 -0.031000 
#    y 0.000000 1.894880 0.000000 
#    z -0.031000 0.000000 1.967340 
# 
# From -- ./inp_files/52377.got.cif
#   From: 2010.05.17/outbox.cif.g08.bks.cpg/sg5_27_cif.got.tgz:52377.got - 2010.06.03 18:56:24.
