data_PCOD9130960
_publ_section_title
;
Structure prediction by ZEFSAII (Michael W. Deem and Ramdas Pophale) SiO2 
 PCOD9130960
Probable space group: P M
;
_chemical_formula_sum "Si O2"
_cell_formula_units_Z 14
_cell_length_a 10.240235
_cell_length_b 9.556401
_cell_length_c 9.657655
_cell_angle_alpha 90.000000
_cell_angle_beta 41.299071
_cell_angle_gamma 90.000000
_cell_volume 623.753496
_symmetry_space_group_name_H-M "P M"
_symmetry_group_IT_number 6
_symmetry_cell_setting 'monoclinic'
loop_
_space_group_symop_operation_xyz
x,y,z
x,-y,z
loop_
_atom_site_type_symbol
_atom_site_label
_atom_site_fract_x
_atom_site_fract_y
_atom_site_fract_z
Si Si1 0.444380 0.333117 0.839800
Si Si2 0.271508 0.766452 0.528923
Si Si3 0.865750 0.647770 0.819641
Si Si4 0.877740 0.659635 0.479723
Si Si5 0.700992 0.832390 0.180514
Si Si6 0.258015 0.162264 0.215844
Si Si7 0.126970 0.844966 0.933153
O O1 0.428445 0.500000 0.867882
O O2 0.659061 0.302714 0.602390
O O3 0.270416 0.268007 0.886196
O O4 0.418316 0.256775 0.008786
O O5 0.502943 0.748829 0.375694
O O6 0.265547 0.824302 0.376430
O O7 0.189870 0.855150 0.722170
O O8 0.101718 0.649410 0.660654
O O9 0.780185 0.500000 0.938659
O O10 0.847277 0.653505 0.670213
O O11 0.766922 0.776472 0.977165
O O12 0.933097 0.500000 0.391338
O O13 0.050666 0.772300 0.325752
O O14 0.662042 0.000000 0.211377
O O15 0.895035 0.806404 0.119341
O O16 0.281843 0.000000 0.164476
O O17 0.152703 0.000000 0.973446
#
# Coordination Sequence:
#
# PCOD9130960 Si02
#       7
#     2   2   2   2   2   2   2
#     4  11  24  42  61  84 120 161 198 241 293 348
#     4  10  21  38  62  90 120 153 193 242 296 349
#     4   9  19  35  56  86 120 153 193 239 289 348
#     4   9  20  38  58  82 117 158 195 238 292 346
#     4  10  20  35  58  86 118 154 191 239 296 348
#     4  11  22  37  63  95 120 149 194 244 294 351
#     4  10  22  39  58  85 121 158 198 243 290 346
#
# _framework density 22.444763999999999
#
# number of rings (size 3 to 8) (size 9 to 14) (size 15 to 20)
#    0.000    2.000    0.000    3.000    0.000    9.714 
#    0.000    0.000    0.000    0.000    0.000    0.000 
#    0.000    0.000    0.000    0.000    0.000    0.000 
#
# Total GULP energy -78091.475421 kJ/mol
# GULP energy per Si atom -5577.962530 kJ/mol
# Density = 2.239368 g / cm^3
# Si number density = 22.444764 Si / 1000 Ang^3
#
#
#
# Elastic Constant Matrix: (Units=GPa)
#
#
# Indices 1 2 3 4 5 6 
#
# 1 91.2119 20.8527 25.3446 0.0000 -15.7212 0.0000
# 2 20.8527 84.9184 20.4682 0.0000 -11.8979 0.0000
# 3 25.3446 20.4682 92.9755 0.0000 -22.8127 0.0000
# 4 0.0000 0.0000 0.0000 20.8131 0.0000 8.5404
# 5 -15.7212 -11.8979 -22.8127 0.0000 48.0025 0.0000
# 6 0.0000 0.0000 0.0000 8.5404 0.0000 8.7481
#
#
#
# Elastic Compliance Matrix: (Units=1/GPa)
#
#
# Indices 1 2 3 4 5 6 
#
# 1 0.012532 -0.002170 -0.002336 0.000000 0.002456 0.000000
# 2 -0.002170 0.012987 -0.001870 0.000000 0.001619 0.000000
# 3 -0.002336 -0.001870 0.013021 0.000000 0.004960 0.000000
# 4 0.000000 0.000000 0.000000 0.080157 0.000000 -0.078254
# 5 0.002456 0.001619 0.004960 0.000000 0.024395 0.000000
# 6 0.000000 0.000000 0.000000 -0.078254 0.000000 0.190707
#
#
# Mechanical properties :
#
#
# Convention : Reuss Voigt Hill
#
# Bulk Modulus (GPa) = 38.77847 44.71519 41.74683
# Shear Modulus (GPa) = 14.07873 29.00876 21.54375
#
# Velocity S-wave (km/s) = 2.50724 3.59897 3.10152
# Velocity P-wave (km/s) = 5.06917 6.10210 5.60946
#
# Compressibility (1/GPa) = 0.02578751
#
# Stress axis : x y z
#
# Youngs Moduli (GPa) = 79.79555 77.00265 76.80037
#
# Poissons Ratio (x) = 0.16711 0.17938
# Poissons Ratio (y) = 0.17318 0.14362
# Poissons Ratio (z) = 0.18638 0.14400
#
# Static dielectric constant tensor:
#      x y z
#    x 1.889090 0.000000 -0.001730 
#    y 0.000000 1.702000 0.000000 
#    z -0.001730 0.000000 1.837940 
# 
# From -- ./inp_files/5014.got.cif
#   From: 2010.05.17/outbox.cif.g08.bks.cpg/sg6_3_cif.got.tgz:5014.got - 2010.06.03 19:42:10.
