data_PCOD9130448
_publ_section_title
;
Structure prediction by ZEFSAII (Michael W. Deem and Ramdas Pophale) SiO2 
 PCOD9130448
Probable space group: C 2
;
_chemical_formula_sum "Si O2"
_cell_formula_units_Z 18
_cell_length_a 8.319747
_cell_length_b 5.125856
_cell_length_c 19.551867
_cell_angle_alpha 90.000000
_cell_angle_beta 57.607826
_cell_angle_gamma 90.000000
_cell_volume 704.066286
_symmetry_space_group_name_H-M "C 2"
_symmetry_group_IT_number 5
_symmetry_cell_setting 'monoclinic'
loop_
_space_group_symop_operation_xyz
x,y,z
-x,y,-z
1/2+x,1/2+y,z
1/2-x,1/2+y,-z
loop_
_atom_site_type_symbol
_atom_site_label
_atom_site_fract_x
_atom_site_fract_y
_atom_site_fract_z
Si Si1 0.252355 0.140410 0.270835
Si Si2 0.449380 0.416270 0.437121
Si Si3 0.290414 0.786596 0.031628
Si Si4 0.500000 0.919867 0.500000
Si Si5 0.337049 0.150975 0.789407
O O1 0.437624 0.190370 0.274420
O O2 0.222581 0.370747 0.224148
O O3 0.066288 0.092753 0.358740
O O4 0.280189 0.870656 0.223760
O O5 0.500000 0.561690 0.500000
O O6 0.544755 0.135715 0.426505
O O7 0.230348 0.389677 0.471183
O O8 0.192448 0.693270 0.123514
O O9 0.500000 0.890729 0.000000
O O10 0.313864 0.530299 0.979355
#
# Coordination Sequence:
#
# PCOD9130448 Si02
#       5
#     4   4   4   2   4
#     4  12  24  44  66  96 137 171 218 274 323 387
#     4   8  16  34  60  86 122 167 216 259 319 373
#     4  12  24  44  70  98 133 172 217 266 321 394
#     4   6  14  28  56  78 118 146 224 238 320 350
#     4  12  26  43  68 100 132 173 216 267 334 383
#
# _framework density 25.565773
#
# number of rings (size 3 to 8) (size 9 to 14) (size 15 to 20)
#    1.333    0.000    0.000    7.333    0.000    0.000 
#    0.000    2.222    0.000    0.000    0.000    0.000 
#    0.000    0.000    0.000    0.000    0.000    0.000 
#
# Total GULP energy -50389.864289 kJ/mol
# GULP energy per Si atom -5598.873810 kJ/mol
# Density = 2.550758 g / cm^3
# Si number density = 25.565773 Si / 1000 Ang^3
#
#
#
# Elastic Constant Matrix: (Units=GPa)
#
#
# Indices 1 2 3 4 5 6 
#
# 1 149.5584 18.4171 -9.7560 0.0002 -12.5650 0.0003
# 2 18.4171 130.0882 8.2363 0.0012 14.8325 0.0015
# 3 -9.7560 8.2363 61.2968 0.0004 5.8157 0.0006
# 4 0.0002 0.0012 0.0004 17.5123 0.0001 -14.5383
# 5 -12.5650 14.8325 5.8157 0.0001 34.7818 0.0002
# 6 0.0003 0.0015 0.0006 -14.5383 0.0002 17.6999
#
#
#
# Elastic Compliance Matrix: (Units=1/GPa)
#
#
# Indices 1 2 3 4 5 6 
#
# 1 0.007185 -0.001429 0.001048 0.000000 0.003030 0.000000
# 2 -0.001429 0.008400 -0.000983 -0.000003 -0.003934 -0.000003
# 3 0.001048 -0.000983 0.016804 -0.000002 -0.002012 -0.000002
# 4 0.000000 -0.000003 -0.000002 0.179506 0.000000 0.147442
# 5 0.003030 -0.003934 -0.002012 0.000000 0.031859 0.000000
# 6 0.000000 -0.000003 -0.000002 0.147442 0.000000 0.177603
#
#
# Mechanical properties :
#
#
# Convention : Reuss Voigt Hill
#
# Bulk Modulus (GPa) = 33.71353 41.63758 37.67556
# Shear Modulus (GPa) = 11.52149 35.60187 23.56168
#
# Velocity S-wave (km/s) = 2.12518 3.73575 3.03910
# Velocity P-wave (km/s) = 4.38605 5.91013 5.20418
#
# Compressibility (1/GPa) = 0.02966168
#
# Stress axis : x y z
#
# Youngs Moduli (GPa) = 139.17388 119.04463 59.51022
#
# Poissons Ratio (x) = 0.17012 -0.06238
# Poissons Ratio (y) = 0.19889 0.05849
# Poissons Ratio (z) = -0.14588 0.11701
#
# Static dielectric constant tensor:
#      x y z
#    x 1.957900 0.000000 0.050720 
#    y 0.000000 2.032620 0.000000 
#    z 0.050720 0.000000 2.085960 
# 
# From -- ./inp_files/49744.got.cif
#   From: 2010.05.17/outbox.cif.g08.bks.cpg/sg5_25_cif.got.tgz:49744.got - 2010.06.03 18:56:24.
