data_PCOD9130736
_publ_section_title
;
Structure prediction by ZEFSAII (Michael W. Deem and Ramdas Pophale) SiO2 
 PCOD9130736
Probable space group: C 2
;
_chemical_formula_sum "Si O2"
_cell_formula_units_Z 11
_cell_length_a 15.000000
_cell_length_b 6.000000
_cell_length_c 24.000000
_cell_angle_alpha 90.000000
_cell_angle_beta 30.000000
_cell_angle_gamma 90.000000
_cell_volume 1080.000000
_symmetry_space_group_name_H-M "C 2"
_symmetry_group_IT_number 5
_symmetry_cell_setting 'monoclinic'
loop_
_space_group_symop_operation_xyz
x,y,z
-x,y,-z
1/2+x,1/2+y,z
1/2-x,1/2+y,-z
loop_
_atom_site_type_symbol
_atom_site_label
_atom_site_fract_x
_atom_site_fract_y
_atom_site_fract_z
Si Si1 0.674156 0.203720 0.812932
Si Si2 0.932215 0.082889 0.443646
Si Si3 0.783960 0.581835 0.555487
Si Si4 0.500000 0.461026 0.000000
Si Si5 0.507392 0.523137 0.809589
Si Si6 0.879078 0.318856 0.975223
O O1 0.657655 0.324768 0.882586
O O2 0.620160 0.379849 0.793812
O O3 0.862368 0.100175 0.690054
O O4 0.518358 0.020898 0.905112
O O5 0.885354 0.329820 0.499432
O O6 0.814297 0.081925 0.451128
O O7 0.887815 0.833746 0.497676
O O8 0.638131 0.573906 0.685805
O O9 0.423899 0.618946 0.992949
O O10 0.423221 0.734049 0.888561
O O11 0.323585 0.385589 0.900084
#
# Coordination Sequence:
#
# PCOD9130736 Si02
#       6
#     4   4   4   2   4   4
#     4  11  25  45  66 104 136 185 227 296 345 430
#     4  10  25  47  71 100 138 180 251 279 350 414
#     4  10  25  46  72 101 134 192 228 301 340 419
#     4  10  26  40  72 104 134 182 232 286 362 412
#     4  11  25  43  69 100 144 178 232 285 366 411
#     4  11  24  44  66 106 137 181 228 294 352 429
#
# _framework density 10.185185000000001
#
# number of rings (size 3 to 8) (size 9 to 14) (size 15 to 20)
#    0.000    1.455    1.818    0.545   12.727    3.636 
#    0.000    0.000    0.000    0.000    0.000    0.000 
#    0.000    0.000    0.000    0.000    0.000    0.000 
#
# Total GULP energy -61244.151652 kJ/mol
# GULP energy per Si atom -5567.650150 kJ/mol
# Density = 1.016200 g / cm^3
# Si number density = 10.185185 Si / 1000 Ang^3
#
#
#
# Elastic Constant Matrix: (Units=GPa)
#
#
# Indices 1 2 3 4 5 6 
#
# 1 47.8066 23.6962 34.6051 -0.0002 16.4761 -0.0041
# 2 23.6962 127.5223 63.3801 0.0035 14.7027 -0.0015
# 3 34.6051 63.3801 199.2257 0.0009 25.1282 -0.0014
# 4 -0.0002 0.0035 0.0009 55.9359 -0.0012 6.2607
# 5 16.4761 14.7027 25.1282 -0.0012 44.7210 0.0014
# 6 -0.0041 -0.0015 -0.0014 6.2607 0.0014 30.7178
#
#
#
# Elastic Compliance Matrix: (Units=1/GPa)
#
#
# Indices 1 2 3 4 5 6 
#
# 1 0.026895 -0.002716 -0.002874 0.000000 -0.007401 0.000004
# 2 -0.002716 0.009684 -0.002512 -0.000001 -0.000772 0.000000
# 3 -0.002874 -0.002512 0.006544 0.000000 -0.001792 0.000000
# 4 0.000000 -0.000001 0.000000 0.018295 0.000001 -0.003729
# 5 -0.007401 -0.000772 -0.001792 0.000001 0.026348 -0.000002
# 6 0.000004 0.000000 0.000000 -0.003729 -0.000002 0.033314
#
#
# Mechanical properties :
#
#
# Convention : Reuss Voigt Hill
#
# Bulk Modulus (GPa) = 37.14834 68.65747 52.90291
# Shear Modulus (GPa) = 34.18661 43.13315 38.65988
#
# Velocity S-wave (km/s) = 4.10109 4.60656 4.36116
# Velocity P-wave (km/s) = 6.37976 7.87856 7.16844
#
# Compressibility (1/GPa) = 0.02691910
#
# Stress axis : x y z
#
# Youngs Moduli (GPa) = 37.18186 103.26611 152.81788
#
# Poissons Ratio (x) = 0.28046 0.43922
# Poissons Ratio (y) = 0.10098 0.38382
# Poissons Ratio (z) = 0.10687 0.25936
#
# Static dielectric constant tensor:
#      x y z
#    x 1.789460 0.000000 -0.018520 
#    y 0.000000 1.841630 0.000000 
#    z -0.018520 0.000000 1.698090 
# 
# From -- ./inp_files/43645.got.cif
#   From: 2010.05.17/outbox.ucp.g08.bks.cvg/sg5_22_cif.got.tgz:43645.got - 2010.06.11 12:53:14.
