data_PCOD9130742
_publ_section_title
;
Structure prediction by ZEFSAII (Michael W. Deem and Ramdas Pophale) SiO2 
 PCOD9130742
Probable space group: C 2
;
_chemical_formula_sum "Si O2"
_cell_formula_units_Z 16
_cell_length_a 15.000000
_cell_length_b 21.000000
_cell_length_c 15.000000
_cell_angle_alpha 90.000000
_cell_angle_beta 160.000000
_cell_angle_gamma 90.000000
_cell_volume 1616.045177
_symmetry_space_group_name_H-M "C 2"
_symmetry_group_IT_number 5
_symmetry_cell_setting 'monoclinic'
loop_
_space_group_symop_operation_xyz
x,y,z
-x,y,-z
1/2+x,1/2+y,z
1/2-x,1/2+y,-z
loop_
_atom_site_type_symbol
_atom_site_label
_atom_site_fract_x
_atom_site_fract_y
_atom_site_fract_z
Si Si1 0.687112 0.910990 0.765751
Si Si2 0.856014 0.077976 0.565745
Si Si3 0.106965 0.541178 0.003611
Si Si4 0.841938 0.390707 0.940563
Si Si5 0.845346 0.958435 0.679079
Si Si6 0.748513 0.721227 0.551657
Si Si7 0.700608 0.261539 0.105774
Si Si8 0.691523 0.348999 0.498281
O O1 0.500000 0.901997 0.500000
O O2 0.469093 0.954106 0.608710
O O3 0.743001 0.837781 0.845983
O O4 0.966379 0.944039 0.058443
O O5 0.627889 0.050654 0.287088
O O6 0.774971 0.150489 0.510525
O O7 0.899000 0.026874 0.685437
O O8 0.134671 0.079676 0.778205
O O9 0.194054 0.467105 0.089536
O O10 0.000000 0.559617 0.000000
O O11 0.041272 0.372926 0.206589
O O12 0.565577 0.354981 0.682342
O O13 0.000000 0.375741 0.000000
O O14 0.892376 0.898238 0.658520
O O15 0.492098 0.731948 0.374050
O O16 0.750130 0.778849 0.482825
O O17 0.022426 0.732355 0.859847
O O18 0.500000 0.253035 0.000000
#
# Coordination Sequence:
#
# PCOD9130742 Si02
#       8
#     4   4   4   4   4   4   4   4
#     4  12  23  40  65  97 123 161 213 268 320 369
#     4  12  25  40  59  91 125 173 210 252 310 378
#     4  11  22  38  60  89 128 166 207 249 305 382
#     4  11  22  38  65  96 122 158 207 263 318 368
#     4  12  22  40  66  89 127 166 209 266 315 362
#     4  12  26  39  60  90 127 170 213 250 312 376
#     4  12  23  40  60  91 130 169 206 251 310 386
#     4  12  21  41  64  91 127 161 210 263 313 365
#
# _framework density 9.9007129999999997
#
# number of rings (size 3 to 8) (size 9 to 14) (size 15 to 20)
#    0.000    0.250    5.000    6.000    0.000    5.000 
#    0.000    0.000    0.000    3.000    0.000    0.875 
#    0.000    0.000    0.000    0.000    0.000    0.000 
#
# Total GULP energy -89228.621594 kJ/mol
# GULP energy per Si atom -5576.788850 kJ/mol
# Density = 0.987818 g / cm^3
# Si number density = 9.900713 Si / 1000 Ang^3
#
#
#
# Elastic Constant Matrix: (Units=GPa)
#
#
# Indices 1 2 3 4 5 6 
#
# 1 16.2572 26.1333 10.0454 -0.0074 -15.7650 -0.0029
# 2 26.1333 121.7171 13.2892 -0.0005 -14.9321 -0.0004
# 3 10.0454 13.2892 126.2668 0.0006 5.2434 0.0024
# 4 -0.0074 -0.0005 0.0006 30.4544 -0.0018 3.9073
# 5 -15.7650 -14.9321 5.2434 -0.0018 30.7684 -0.0011
# 6 -0.0029 -0.0004 0.0024 3.9073 -0.0011 13.8960
#
#
#
# Elastic Compliance Matrix: (Units=1/GPa)
#
#
# Indices 1 2 3 4 5 6 
#
# 1 0.229629 -0.034452 -0.018968 0.000056 0.104170 0.000041
# 2 -0.034452 0.014060 0.001723 -0.000008 -0.011123 -0.000006
# 3 -0.018968 0.001723 0.009685 -0.000005 -0.010533 -0.000005
# 4 0.000056 -0.000008 -0.000005 0.034065 0.000028 -0.009578
# 5 0.104170 -0.011123 -0.010533 0.000028 0.082272 0.000021
# 6 0.000041 -0.000006 -0.000005 -0.009578 0.000021 0.074656
#
#
# Mechanical properties :
#
#
# Convention : Reuss Voigt Hill
#
# Bulk Modulus (GPa) = 6.66760 40.35301 23.51030
# Shear Modulus (GPa) = 8.36461 29.34198 18.85329
#
# Velocity S-wave (km/s) = 2.05753 3.85361 3.08899
# Velocity P-wave (km/s) = 3.00318 6.34220 4.96198
#
# Compressibility (1/GPa) = 0.14997904
#
# Stress axis : x y z
#
# Youngs Moduli (GPa) = 4.35484 71.12257 103.25377
#
# Poissons Ratio (x) = 2.45034 1.95856
# Poissons Ratio (y) = 0.15003 -0.17791
# Poissons Ratio (z) = 0.08260 -0.12255
#
# Static dielectric constant tensor:
#      x y z
#    x 1.848790 0.000000 0.014860 
#    y 0.000000 1.666440 0.000000 
#    z 0.014860 0.000000 1.689330 
# 
# From -- ./inp_files/55038.got.cif
#   From: 2010.05.17/outbox.ucp.g08.bks.cvg/sg5_28_cif.got.tgz:55038.got - 2010.06.11 12:53:14.
