data_PCOD9130237
_publ_section_title
;
Structure prediction by ZEFSAII (Michael W. Deem and Ramdas Pophale) SiO2 
 PCOD9130237
Probable space group: C 2
;
_chemical_formula_sum "Si O2"
_cell_formula_units_Z 16
_cell_length_a 5.664322
_cell_length_b 13.280737
_cell_length_c 9.143411
_cell_angle_alpha 90.000000
_cell_angle_beta 117.925023
_cell_angle_gamma 90.000000
_cell_volume 607.736025
_symmetry_space_group_name_H-M "C 2"
_symmetry_group_IT_number 5
_symmetry_cell_setting 'monoclinic'
loop_
_space_group_symop_operation_xyz
x,y,z
-x,y,-z
1/2+x,1/2+y,z
1/2-x,1/2+y,-z
loop_
_atom_site_type_symbol
_atom_site_label
_atom_site_fract_x
_atom_site_fract_y
_atom_site_fract_z
Si Si1 0.417006 0.684690 0.641959
Si Si2 0.309434 0.913338 0.589725
Si Si3 0.754748 0.761364 0.995562
Si Si4 0.727525 0.059786 0.829241
O O1 0.500000 0.670607 0.500000
O O2 0.280996 0.794227 0.617169
O O3 0.654023 0.702373 0.824289
O O4 0.275411 0.588773 0.672561
O O5 0.500000 0.909659 0.500000
O O6 0.000000 0.948406 0.500000
O O7 0.489221 0.978852 0.755998
O O8 0.160545 0.671111 0.871985
O O9 0.500000 0.811360 0.000000
O O10 0.000000 0.822998 0.000000
O O11 0.000000 0.034740 0.000000
#
# Coordination Sequence:
#
# PCOD9130237 Si02
#       4
#     4   4   4   4
#     4   9  21  43  71 102 141 187 237 294 361 426
#     4  11  26  44  68 107 147 186 238 297 358 430
#     4   9  20  38  61  94 130 177 232 279 348 418
#     4   9  22  45  72 103 140 190 240 294 359 424
#
# _framework density 26.327221000000002
#
# number of rings (size 3 to 8) (size 9 to 14) (size 15 to 20)
#    0.000    3.000    0.000    0.000    0.000   19.000 
#    0.000   11.250    0.000    0.000    0.000    0.000 
#    0.000    0.000    0.000    0.000    0.000    0.000 
#
# Total GULP energy -44572.830988 kJ/mol
# GULP energy per Si atom -5571.603874 kJ/mol
# Density = 2.626730 g / cm^3
# Si number density = 26.327221 Si / 1000 Ang^3
#
#
#
# Elastic Constant Matrix: (Units=GPa)
#
#
# Indices 1 2 3 4 5 6 
#
# 1 232.6361 65.6601 75.1677 0.0000 15.3912 0.0000
# 2 65.6601 158.0032 39.8035 0.0000 4.8379 0.0000
# 3 75.1677 39.8035 135.0332 0.0000 -30.2251 0.0000
# 4 0.0000 0.0000 0.0000 22.9585 0.0000 -8.9466
# 5 15.3912 4.8379 -30.2251 0.0000 32.8782 0.0000
# 6 0.0000 0.0000 0.0000 -8.9466 0.0000 -8.4005
#
#
#
# Elastic Compliance Matrix: (Units=1/GPa)
#
#
# Indices 1 2 3 4 5 6 
#
# 1 0.006850 -0.001308 -0.005165 0.000000 -0.007763 0.000000
# 2 -0.001308 0.007442 -0.001982 0.000000 -0.002305 0.000000
# 3 -0.005165 -0.001982 0.014444 0.000000 0.015988 0.000000
# 4 0.000000 0.000000 0.000000 0.030782 0.000000 -0.032783
# 5 -0.007763 -0.002305 0.015988 0.000000 0.049086 0.000000
# 6 0.000000 0.000000 0.000000 -0.032783 0.000000 -0.084126
#
#
# Mechanical properties :
#
#
# Convention : Reuss Voigt Hill
#
# Bulk Modulus (GPa) = 84.55476 98.54836 91.55156
# Shear Modulus (GPa) = 110.30306 32.48997 71.39652
#
# Velocity S-wave (km/s) = 6.47981 3.51676 5.21323
# Velocity P-wave (km/s) = 9.38991 7.34871 8.43131
#
# Compressibility (1/GPa) = 0.01182666
#
# Stress axis : x y z
#
# Youngs Moduli (GPa) = 145.97947 134.36889 69.23435
#
# Poissons Ratio (x) = 0.17572 0.35762
# Poissons Ratio (y) = 0.19091 0.13719
# Poissons Ratio (z) = 0.75404 0.26626
#
# Static dielectric constant tensor:
#      x y z
#    x 2.359310 0.000000 -0.060120 
#    y 0.000000 2.026360 0.000000 
#    z -0.060120 0.000000 2.154720 
# 
# From -- ./inp_files/11723.got.cif
#   From: 2010.05.17/outbox.cif.g08.bks.cpg/sg5_6_cif.got.tgz:11723.got - 2010.06.03 18:56:24.
