data_PCOD9130423
_publ_section_title
;
Structure prediction by ZEFSAII (Michael W. Deem and Ramdas Pophale) SiO2 
 PCOD9130423
Probable space group: C 2
;
_chemical_formula_sum "Si O2"
_cell_formula_units_Z 14
_cell_length_a 4.706270
_cell_length_b 16.429603
_cell_length_c 7.846837
_cell_angle_alpha 90.000000
_cell_angle_beta 117.260598
_cell_angle_gamma 90.000000
_cell_volume 539.345788
_symmetry_space_group_name_H-M "C 2"
_symmetry_group_IT_number 5
_symmetry_cell_setting 'monoclinic'
loop_
_space_group_symop_operation_xyz
x,y,z
-x,y,-z
1/2+x,1/2+y,z
1/2-x,1/2+y,-z
loop_
_atom_site_type_symbol
_atom_site_label
_atom_site_fract_x
_atom_site_fract_y
_atom_site_fract_z
Si Si1 0.584863 0.053050 0.216020
Si Si2 0.000000 0.918169 0.500000
Si Si3 0.323811 0.657501 0.698871
Si Si4 0.328707 0.318845 0.135368
O O1 0.256693 0.079934 0.209864
O O2 0.836414 0.130659 0.285959
O O3 0.724331 0.980222 0.366368
O O4 0.500000 0.036189 0.000000
O O5 0.040449 0.863417 0.339873
O O6 0.306000 0.738694 0.805151
O O7 0.000000 0.663458 0.500000
O O8 0.500000 0.305202 0.000000
O O9 0.000000 0.365229 0.000000
#
# Coordination Sequence:
#
# PCOD9130423 Si02
#       4
#     4   2   4   4
#     4  12  26  46  77 107 145 193 245 304 368 431
#     4  12  28  50  72 110 160 188 246 300 376 448
#     4  12  23  49  76 107 144 191 249 308 358 428
#     4  12  28  49  76 108 147 198 246 303 369 437
#
# _framework density 25.957373
#
# number of rings (size 3 to 8) (size 9 to 14) (size 15 to 20)
#    0.000    0.000    4.286    6.000    0.000    8.000 
#    0.000    0.000    0.000    0.000    0.000    0.000 
#    0.000    0.000    0.000    0.000    0.000    0.000 
#
# Total GULP energy -39112.078315 kJ/mol
# GULP energy per Si atom -5587.439759 kJ/mol
# Density = 2.589829 g / cm^3
# Si number density = 25.957373 Si / 1000 Ang^3
#
#
#
# Elastic Constant Matrix: (Units=GPa)
#
#
# Indices 1 2 3 4 5 6 
#
# 1 138.5365 17.7561 39.4446 0.0000 -11.3215 0.0000
# 2 17.7561 102.8371 49.2939 0.0000 -2.5624 0.0000
# 3 39.4446 49.2939 231.8932 0.0000 6.3007 0.0000
# 4 0.0000 0.0000 0.0000 -45.9966 0.0000 -68.5445
# 5 -11.3215 -2.5624 6.3007 0.0000 46.6637 0.0000
# 6 0.0000 0.0000 0.0000 -68.5445 0.0000 -69.0914
#
#
#
# Elastic Compliance Matrix: (Units=1/GPa)
#
#
# Indices 1 2 3 4 5 6 
#
# 1 0.007827 -0.000709 -0.001236 0.000000 0.002027 0.000000
# 2 -0.000709 0.010930 -0.002223 0.000000 0.000728 0.000000
# 3 -0.001236 -0.002223 0.005025 0.000000 -0.001100 0.000000
# 4 0.000000 0.000000 0.000000 0.045444 0.000000 -0.045084
# 5 0.002027 0.000728 -0.001100 0.000000 0.022110 0.000000
# 6 0.000000 0.000000 0.000000 -0.045084 0.000000 0.030253
#
#
# Mechanical properties :
#
#
# Convention : Reuss Voigt Hill
#
# Bulk Modulus (GPa) = 64.73485 76.25067 70.49276
# Shear Modulus (GPa) = 37.01727 10.76661 23.89194
#
# Velocity S-wave (km/s) = 3.78044 2.03883 3.03715
# Velocity P-wave (km/s) = 6.63692 5.91452 6.28611
#
# Compressibility (1/GPa) = 0.01544763
#
# Stress axis : x y z
#
# Youngs Moduli (GPa) = 127.76919 91.49114 199.00867
#
# Poissons Ratio (x) = 0.06482 0.24593
# Poissons Ratio (y) = 0.09053 0.44233
# Poissons Ratio (z) = 0.15789 0.20336
#
# Static dielectric constant tensor:
#      x y z
#    x 2.154550 0.000000 -0.322920 
#    y 0.000000 2.110350 0.000000 
#    z -0.322920 0.000000 2.546040 
# 
# From -- ./inp_files/11659.got.cif
#   From: 2010.05.17/outbox.cif.g08.bks.cpg/sg5_6_cif.got.tgz:11659.got - 2010.06.03 18:56:24.
