data_PCOD9130019
_publ_section_title
;
Structure prediction by ZEFSAII (Michael W. Deem and Ramdas Pophale) SiO2 
 PCOD9130019
Probable space group: C 2
;
_chemical_formula_sum "Si O2"
_cell_formula_units_Z 32
_cell_length_a 13.043624
_cell_length_b 13.347134
_cell_length_c 18.532538
_cell_angle_alpha 90.000000
_cell_angle_beta 28.238241
_cell_angle_gamma 90.000000
_cell_volume 1526.545729
_symmetry_space_group_name_H-M "C 2"
_symmetry_group_IT_number 5
_symmetry_cell_setting 'monoclinic'
loop_
_space_group_symop_operation_xyz
x,y,z
-x,y,-z
1/2+x,1/2+y,z
1/2-x,1/2+y,-z
loop_
_atom_site_type_symbol
_atom_site_label
_atom_site_fract_x
_atom_site_fract_y
_atom_site_fract_z
Si Si1 0.251609 0.450960 0.866116
Si Si2 0.364932 0.131479 0.410303
Si Si3 0.354487 0.634376 0.908589
Si Si4 0.903779 0.948552 0.479668
Si Si5 0.678685 0.328601 0.830515
Si Si6 0.418696 0.763751 0.334297
Si Si7 0.028072 0.764899 0.190814
Si Si8 0.665790 0.567026 0.836052
O O1 0.279376 0.553111 0.895950
O O2 0.407916 0.451720 0.698348
O O3 0.328817 0.356309 0.866850
O O4 0.000000 0.440796 0.000000
O O5 0.202015 0.160532 0.574440
O O6 0.376728 0.225073 0.348651
O O7 0.601672 0.114789 0.295688
O O8 0.267505 0.036223 0.430734
O O9 0.432022 0.739827 0.826626
O O10 0.553160 0.589708 0.830388
O O11 0.165728 0.667667 0.080328
O O12 0.762322 0.847304 0.563875
O O13 0.000000 0.959657 0.500000
O O14 0.603020 0.299432 0.798012
O O15 0.689570 0.448205 0.829912
O O16 0.912888 0.287822 0.706789
O O17 0.500000 0.292513 0.000000
O O18 0.500000 0.604483 0.000000
#
# Coordination Sequence:
#
# PCOD9130019 Si02
#       8
#     4   4   4   4   4   4   4   4
#     4  12  30  51  72 109 149 188 246 300 361 438
#     4  12  27  47  72 106 145 189 240 294 363 427
#     4  12  27  45  76 107 145 192 240 295 362 430
#     4  12  30  51  72 107 151 190 240 306 363 430
#     4  11  24  45  72 102 140 185 240 294 348 421
#     4  12  27  47  72 106 145 189 240 294 363 427
#     4  12  27  45  76 107 145 192 240 295 362 430
#     4  11  24  45  72 102 140 185 240 294 348 421
#
# _framework density 20.962358999999999
#
# number of rings (size 3 to 8) (size 9 to 14) (size 15 to 20)
#    0.000    0.250    7.500    0.000   10.500    0.000 
#    0.000    2.500    0.000    0.000    0.000    0.000 
#    0.000    0.000    0.000    0.000    0.000    0.000 
#
# Total GULP energy -89478.466311 kJ/mol
# GULP energy per Si atom -5592.404144 kJ/mol
# Density = 2.091465 g / cm^3
# Si number density = 20.962359 Si / 1000 Ang^3
#
#
#
# Elastic Constant Matrix: (Units=GPa)
#
#
# Indices 1 2 3 4 5 6 
#
# 1 102.1163 -0.3927 30.3923 -0.0011 -18.0853 0.0007
# 2 -0.3927 51.2345 3.2015 -0.0038 -2.6734 0.0016
# 3 30.3923 3.2015 72.4555 -0.0053 -13.4460 0.0008
# 4 -0.0011 -0.0038 -0.0053 38.1579 0.0008 3.7232
# 5 -18.0853 -2.6734 -13.4460 0.0008 34.6625 0.0005
# 6 0.0007 0.0016 0.0008 3.7232 0.0005 31.7412
#
#
#
# Elastic Compliance Matrix: (Units=1/GPa)
#
#
# Indices 1 2 3 4 5 6 
#
# 1 0.011845 0.000590 -0.004137 0.000000 0.004621 0.000000
# 2 0.000590 0.019653 -0.000838 0.000002 0.001499 -0.000001
# 3 -0.004137 -0.000838 0.016337 0.000002 0.004114 -0.000001
# 4 0.000000 0.000002 0.000002 0.026510 0.000000 -0.003110
# 5 0.004621 0.001499 0.004114 0.000000 0.032972 -0.000001
# 6 0.000000 -0.000001 -0.000001 -0.003110 -0.000001 0.031870
#
#
# Mechanical properties :
#
#
# Convention : Reuss Voigt Hill
#
# Bulk Modulus (GPa) = 25.59751 32.46763 29.03257
# Shear Modulus (GPa) = 31.06011 33.75268 32.40640
#
# Velocity S-wave (km/s) = 3.85347 4.01703 3.93610
# Velocity P-wave (km/s) = 5.66010 6.08585 5.87683
#
# Compressibility (1/GPa) = 0.03906630
#
# Stress axis : x y z
#
# Youngs Moduli (GPa) = 84.42634 50.88238 61.20916
#
# Poissons Ratio (x) = -0.03004 0.25322
# Poissons Ratio (y) = -0.04984 0.05129
# Poissons Ratio (z) = 0.34927 0.04263
#
# Static dielectric constant tensor:
#      x y z
#    x 1.713680 0.000000 0.007430 
#    y 0.000000 1.741620 0.000000 
#    z 0.007430 0.000000 1.725310 
# 
# From -- ./inp_files/60671.got.cif
#   From: 2010.05.17/outbox.cif.g08.bks.cpg/sg5_31_cif.got.tgz:60671.got - 2010.06.03 18:56:24.
