data_PCOD9130455
_publ_section_title
;
Structure prediction by ZEFSAII (Michael W. Deem and Ramdas Pophale) SiO2 
 PCOD9130455
Probable space group: C 2
;
_chemical_formula_sum "Si O2"
_cell_formula_units_Z 20
_cell_length_a 8.100782
_cell_length_b 5.277892
_cell_length_c 18.039035
_cell_angle_alpha 90.000000
_cell_angle_beta 92.148168
_cell_angle_gamma 90.000000
_cell_volume 770.717874
_symmetry_space_group_name_H-M "C 2"
_symmetry_group_IT_number 5
_symmetry_cell_setting 'monoclinic'
loop_
_space_group_symop_operation_xyz
x,y,z
-x,y,-z
1/2+x,1/2+y,z
1/2-x,1/2+y,-z
loop_
_atom_site_type_symbol
_atom_site_label
_atom_site_fract_x
_atom_site_fract_y
_atom_site_fract_z
Si Si1 0.805110 0.155930 0.596398
Si Si2 0.027573 0.847692 0.693338
Si Si3 0.500000 0.016476 0.500000
Si Si4 0.246157 0.158099 0.792308
Si Si5 0.757699 0.654757 0.109008
Si Si6 0.000000 0.900618 0.000000
O O1 0.696157 0.226086 0.666226
O O2 0.943795 0.345971 0.568990
O O3 0.667835 0.147238 0.529787
O O4 0.908458 0.910771 0.622145
O O5 0.913935 0.700822 0.749106
O O6 0.093135 0.101294 0.734792
O O7 0.214178 0.408271 0.839878
O O8 0.263509 0.907055 0.842536
O O9 0.899979 0.721245 0.053515
O O10 0.605216 0.580185 0.054914
#
# Coordination Sequence:
#
# PCOD9130455 Si02
#       6
#     4   4   2   4   4   2
#     4  12  25  45  72 107 147 196 248 308 372 444
#     4  12  27  47  74 109 151 198 252 312 376 450
#     4  12  24  44  72 104 148 196 248 308 372 444
#     4  12  29  51  78 113 155 202 254 316 382 454
#     4  12  30  52  80 114 154 202 254 316 382 454
#     4  12  30  52  80 114 154 200 256 316 380 456
#
# _framework density 25.949829999999999
#
# number of rings (size 3 to 8) (size 9 to 14) (size 15 to 20)
#    0.000    0.000    0.000    8.400    0.000   21.600 
#    0.000    0.000    0.000    0.000    0.000    0.000 
#    0.000    0.000    0.000    0.000    0.000    0.000 
#
# Total GULP energy -56133.050866 kJ/mol
# GULP energy per Si atom -5613.305087 kJ/mol
# Density = 2.589077 g / cm^3
# Si number density = 25.949830 Si / 1000 Ang^3
#
#
#
# Elastic Constant Matrix: (Units=GPa)
#
#
# Indices 1 2 3 4 5 6 
#
# 1 136.4094 46.2629 46.9811 0.0000 -7.6861 0.0000
# 2 46.2629 142.7631 56.1800 0.0000 -14.4316 0.0000
# 3 46.9811 56.1800 122.3343 0.0000 -16.4352 0.0000
# 4 0.0000 0.0000 0.0000 66.6392 0.0000 8.8180
# 5 -7.6861 -14.4316 -16.4352 0.0000 71.3878 0.0000
# 6 0.0000 0.0000 0.0000 8.8180 0.0000 60.9654
#
#
#
# Elastic Compliance Matrix: (Units=1/GPa)
#
#
# Indices 1 2 3 4 5 6 
#
# 1 0.008837 -0.001866 -0.002538 0.000000 -0.000010 0.000000
# 2 -0.001866 0.008994 -0.003299 0.000000 0.000858 0.000000
# 3 -0.002538 -0.003299 0.010874 0.000000 0.001563 0.000000
# 4 0.000000 0.000000 0.000000 0.015299 0.000000 -0.002213
# 5 -0.000010 0.000858 0.001563 0.000000 0.014540 0.000000
# 6 0.000000 0.000000 0.000000 -0.002213 0.000000 0.016723
#
#
# Mechanical properties :
#
#
# Convention : Reuss Voigt Hill
#
# Bulk Modulus (GPa) = 75.18919 77.81719 76.50319
# Shear Modulus (GPa) = 52.57277 56.60400 54.58839
#
# Velocity S-wave (km/s) = 4.50593 4.67549 4.59149
# Velocity P-wave (km/s) = 7.49059 7.69413 7.59304
#
# Compressibility (1/GPa) = 0.01329979
#
# Stress axis : x y z
#
# Youngs Moduli (GPa) = 113.15587 111.18495 91.96268
#
# Poissons Ratio (x) = 0.20746 0.23343
# Poissons Ratio (y) = 0.21114 0.30334
# Poissons Ratio (z) = 0.28723 0.36675
#
# Static dielectric constant tensor:
#      x y z
#    x 1.952800 0.000000 0.050500 
#    y 0.000000 1.991270 0.000000 
#    z 0.050500 0.000000 2.046220 
# 
# From -- ./inp_files/59146.got.cif
#   From: 2010.05.17/outbox.cif.g08.bks.cpg/sg5_30_cif.got.tgz:59146.got - 2010.06.03 18:56:24.
