data_PCOD9130688
_publ_section_title
;
Structure prediction by ZEFSAII (Michael W. Deem and Ramdas Pophale) SiO2 
 PCOD9130688
Probable space group: C 2
;
_chemical_formula_sum "Si O2"
_cell_formula_units_Z 14
_cell_length_a 15.000000
_cell_length_b 9.000000
_cell_length_c 12.000000
_cell_angle_alpha 90.000000
_cell_angle_beta 110.000000
_cell_angle_gamma 90.000000
_cell_volume 1522.302046
_symmetry_space_group_name_H-M "C 2"
_symmetry_group_IT_number 5
_symmetry_cell_setting 'monoclinic'
loop_
_space_group_symop_operation_xyz
x,y,z
-x,y,-z
1/2+x,1/2+y,z
1/2-x,1/2+y,-z
loop_
_atom_site_type_symbol
_atom_site_label
_atom_site_fract_x
_atom_site_fract_y
_atom_site_fract_z
Si Si1 0.364312 0.003400 0.067054
Si Si2 0.069751 0.915745 0.402218
Si Si3 0.629739 0.257030 0.637071
Si Si4 0.214517 0.227445 0.110639
Si Si5 0.366075 0.916277 0.310222
Si Si6 0.855561 0.937799 0.813184
Si Si7 0.500000 0.222721 0.000000
Si Si8 0.000000 0.195367 0.500000
O O1 0.277296 0.117454 0.058100
O O2 0.446265 0.110743 0.058934
O O3 0.400739 0.933677 0.198338
O O4 0.331117 0.867762 0.972794
O O5 0.138707 0.831272 0.519170
O O6 0.105949 0.927692 0.294315
O O7 0.969530 0.826930 0.362721
O O8 0.051857 0.081353 0.439284
O O9 0.713510 0.285132 0.761824
O O10 0.623565 0.078534 0.628428
O O11 0.144882 0.106457 0.138761
O O12 0.254178 0.887395 0.243865
O O13 0.424025 0.796006 0.403313
O O14 0.919618 0.828843 0.913858
#
# Coordination Sequence:
#
# PCOD9130688 Si02
#       8
#     4   4   4   4   4   4   2   2
#     4  10  22  39  59  85 114 151 193 238 288 339
#     4  10  20  35  56  83 113 149 187 233 284 335
#     4   8  18  36  57  78 110 152 190 229 283 338
#     4  10  21  39  60  84 113 153 195 236 285 342
#     4  10  21  38  58  83 112 148 189 234 284 339
#     4  10  23  39  58  84 117 152 190 234 284 339
#     4  12  24  38  58  88 118 152 192 238 288 340
#     4  10  22  36  58  86 112 144 188 234 284 336
#
# _framework density 9.1965979999999998
#
# number of rings (size 3 to 8) (size 9 to 14) (size 15 to 20)
#    0.000    2.571    0.000    4.286    0.000    9.714 
#    0.000    0.000    0.000    0.000    0.000    0.000 
#    0.000    0.000    0.000    0.000    0.000    0.000 
#
# Total GULP energy -78045.155143 kJ/mol
# GULP energy per Si atom -5574.653939 kJ/mol
# Density = 0.917567 g / cm^3
# Si number density = 9.196598 Si / 1000 Ang^3
#
#
#
# Elastic Constant Matrix: (Units=GPa)
#
#
# Indices 1 2 3 4 5 6 
#
# 1 67.2017 43.0277 42.7535 0.0000 -0.4533 0.0000
# 2 43.0277 115.4235 49.6627 0.0000 26.1683 0.0000
# 3 42.7535 49.6627 53.5565 0.0000 14.2960 0.0000
# 4 0.0000 0.0000 0.0000 31.2158 0.0000 6.3202
# 5 -0.4533 26.1683 14.2960 0.0000 34.1108 0.0000
# 6 0.0000 0.0000 0.0000 6.3202 0.0000 133.1624
#
#
#
# Elastic Compliance Matrix: (Units=1/GPa)
#
#
# Indices 1 2 3 4 5 6 
#
# 1 0.036617 -0.004839 -0.029123 0.000000 0.016404 0.000000
# 2 -0.004839 0.016297 -0.008889 0.000000 -0.008841 0.000000
# 3 -0.029123 -0.008889 0.054549 0.000000 -0.016429 0.000000
# 4 0.000000 0.000000 0.000000 0.032346 0.000000 -0.001535
# 5 0.016404 -0.008841 -0.016429 0.000000 0.043202 0.000000
# 6 0.000000 0.000000 0.000000 -0.001535 0.000000 0.007582
#
#
# Mechanical properties :
#
#
# Convention : Reuss Voigt Hill
#
# Bulk Modulus (GPa) = 45.95401 56.34104 51.14753
# Shear Modulus (GPa) = 17.63364 46.41364 32.02364
#
# Velocity S-wave (km/s) = 3.09965 5.02881 4.17713
# Velocity P-wave (km/s) = 6.15215 8.02599 7.15072
#
# Compressibility (1/GPa) = 0.02176089
#
# Stress axis : x y z
#
# Youngs Moduli (GPa) = 27.30947 61.36258 18.33220
#
# Poissons Ratio (x) = 0.29692 0.53389
# Poissons Ratio (y) = 0.13214 0.16296
# Poissons Ratio (z) = 0.79534 0.54546
#
# Static dielectric constant tensor:
#      x y z
#    x 1.627040 0.000000 0.013640 
#    y 0.000000 1.612530 0.000000 
#    z 0.013640 0.000000 1.594300 
# 
# From -- ./inp_files/41782.got.cif
#   From: 2010.05.17/outbox.ucp.g08.bks.cvg/sg5_21_cif.got.tgz:41782.got - 2010.06.11 12:53:14.
