data_PCOD9130376
_publ_section_title
;
Structure prediction by ZEFSAII (Michael W. Deem and Ramdas Pophale) SiO2 
 PCOD9130376
Probable space group: C 2
;
_chemical_formula_sum "Si O2"
_cell_formula_units_Z 18
_cell_length_a 13.911421
_cell_length_b 4.792125
_cell_length_c 8.124159
_cell_angle_alpha 90.000000
_cell_angle_beta 109.038618
_cell_angle_gamma 90.000000
_cell_volume 511.973179
_symmetry_space_group_name_H-M "C 2"
_symmetry_group_IT_number 5
_symmetry_cell_setting 'monoclinic'
loop_
_space_group_symop_operation_xyz
x,y,z
-x,y,-z
1/2+x,1/2+y,z
1/2-x,1/2+y,-z
loop_
_atom_site_type_symbol
_atom_site_label
_atom_site_fract_x
_atom_site_fract_y
_atom_site_fract_z
Si Si1 0.966141 0.088750 0.275245
Si Si2 0.809288 0.534087 0.282217
Si Si3 0.635006 0.140375 0.336084
Si Si4 0.834829 0.818611 0.009390
Si Si5 0.500000 0.844780 0.000000
O O1 0.092674 0.327415 0.660577
O O2 0.069436 0.358141 0.247791
O O3 0.930581 0.084812 0.059153
O O4 0.053880 0.868136 0.351934
O O5 0.794882 0.605398 0.465966
O O6 0.755824 0.566829 0.058720
O O7 0.864641 0.843439 0.242707
O O8 0.703941 0.287328 0.227957
O O9 0.917920 0.580109 0.014012
#
# Coordination Sequence:
#
# PCOD9130376 Si02
#       5
#     4   4   4   4   2
#     4  12  24  51  79 112 162 210 268 338 382 477
#     4  12  29  47  84 118 164 214 268 331 411 478
#     4  12  27  49  80 121 158 213 275 323 414 478
#     4  12  25  50  76 118 164 210 270 330 401 482
#     4  12  22  44  78 114 152 206 268 334 386 466
#
# _framework density 35.158098000000003
#
# number of rings (size 3 to 8) (size 9 to 14) (size 15 to 20)
#    0.000    0.000    8.889    0.000    0.000   10.667 
#    0.000    0.000    0.000    0.000    0.000    0.000 
#    0.000    0.000    0.000    0.000    0.000    0.000 
#
# Total GULP energy -50414.114684 kJ/mol
# GULP energy per Si atom -5601.568298 kJ/mol
# Density = 3.507808 g / cm^3
# Si number density = 35.158098 Si / 1000 Ang^3
#
#
#
# Elastic Constant Matrix: (Units=GPa)
#
#
# Indices 1 2 3 4 5 6 
#
# 1 294.4652 95.4975 131.6077 0.0000 -2.7542 0.0000
# 2 95.4975 388.5160 122.2297 0.0000 -10.4487 0.0000
# 3 131.6077 122.2297 317.8529 0.0000 -3.4792 0.0000
# 4 0.0000 0.0000 0.0000 65.1487 0.0000 6.6773
# 5 -2.7542 -10.4487 -3.4792 0.0000 88.0012 0.0000
# 6 0.0000 0.0000 0.0000 6.6773 0.0000 269.7023
#
#
#
# Elastic Compliance Matrix: (Units=1/GPa)
#
#
# Indices 1 2 3 4 5 6 
#
# 1 0.004272 -0.000561 -0.001553 0.000000 0.000006 0.000000
# 2 -0.000561 0.003010 -0.000922 0.000000 0.000303 0.000000
# 3 -0.001553 -0.000922 0.004144 0.000000 0.000006 0.000000
# 4 0.000000 0.000000 0.000000 0.015389 0.000000 -0.000381
# 5 0.000006 0.000303 0.000006 0.000000 0.011400 0.000000
# 6 0.000000 0.000000 0.000000 -0.000381 0.000000 0.003717
#
#
# Mechanical properties :
#
#
# Convention : Reuss Voigt Hill
#
# Bulk Modulus (GPa) = 186.78766 188.83378 187.81072
# Shear Modulus (GPa) = 100.42528 128.00371 114.21449
#
# Velocity S-wave (km/s) = 5.35032 6.04045 5.70583
# Velocity P-wave (km/s) = 9.56092 10.12304 9.84599
#
# Compressibility (1/GPa) = 0.00535367
#
# Stress axis : x y z
#
# Youngs Moduli (GPa) = 234.07263 332.22279 241.33404
#
# Poissons Ratio (x) = 0.18650 0.37478
# Poissons Ratio (y) = 0.13140 0.22245
# Poissons Ratio (z) = 0.36351 0.30622
#
# Static dielectric constant tensor:
#      x y z
#    x -0.031680 0.000000 2.145870 
#    y 0.000000 3.205940 0.000000 
#    z 2.145870 0.000000 1.764020 
# 
# From -- ./inp_files/28209.got.cif
#   From: 2010.05.17/outbox.cif.g08.bks.cpg/sg5_15_cif.got.tgz:28209.got - 2010.06.03 18:56:24.
