data_PCOD9130142
_publ_section_title
;
Structure prediction by ZEFSAII (Michael W. Deem and Ramdas Pophale) SiO2 
 PCOD9130142
Probable space group: C 2
;
_chemical_formula_sum "Si O2"
_cell_formula_units_Z 20
_cell_length_a 25.388003
_cell_length_b 7.305575
_cell_length_c 5.221303
_cell_angle_alpha 90.000000
_cell_angle_beta 56.478442
_cell_angle_gamma 90.000000
_cell_volume 807.346990
_symmetry_space_group_name_H-M "C 2"
_symmetry_group_IT_number 5
_symmetry_cell_setting 'monoclinic'
loop_
_space_group_symop_operation_xyz
x,y,z
-x,y,-z
1/2+x,1/2+y,z
1/2-x,1/2+y,-z
loop_
_atom_site_type_symbol
_atom_site_label
_atom_site_fract_x
_atom_site_fract_y
_atom_site_fract_z
Si Si1 0.435569 0.485270 0.561895
Si Si2 0.161142 0.176003 0.814492
Si Si3 0.644740 0.184528 0.438010
Si Si4 0.787526 0.561272 0.220538
Si Si5 0.561552 0.860430 0.706244
O O1 0.500000 0.398074 0.500000
O O2 0.400589 0.359777 0.447742
O O3 0.457517 0.681687 0.398046
O O4 0.378575 0.536289 0.907539
O O5 0.195435 0.347164 0.863697
O O6 0.214928 0.080796 0.500200
O O7 0.109707 0.277544 0.780933
O O8 0.672633 0.136994 0.641514
O O9 0.599021 0.019212 0.466134
O O10 0.697655 0.177131 0.073907
O O11 0.500000 0.943041 0.000000
#
# Coordination Sequence:
#
# PCOD9130142 Si02
#       5
#     4   4   4   4   4
#     4  12  26  45  76 106 147 196 250 304 370 442
#     4  11  25  45  73 105 148 194 247 302 372 436
#     4  11  28  47  74 109 148 190 248 305 372 435
#     4  11  26  47  74 108 147 195 243 309 365 443
#     4  11  25  48  73 104 152 195 244 309 370 441
#
# _framework density 24.772494999999999
#
# number of rings (size 3 to 8) (size 9 to 14) (size 15 to 20)
#    0.000    0.800    4.000    1.200    8.400    4.800 
#    0.000    0.000    0.000    0.000    0.000    0.000 
#    0.000    0.000    0.000    0.000    0.000    0.000 
#
# Total GULP energy -55972.375521 kJ/mol
# GULP energy per Si atom -5597.237552 kJ/mol
# Density = 2.471611 g / cm^3
# Si number density = 24.772495 Si / 1000 Ang^3
#
#
#
# Elastic Constant Matrix: (Units=GPa)
#
#
# Indices 1 2 3 4 5 6 
#
# 1 130.2613 31.2618 28.1468 0.0000 -11.0744 0.0000
# 2 31.2618 67.7896 14.8675 0.0000 -4.4057 0.0000
# 3 28.1468 14.8675 122.4263 0.0000 -22.5975 0.0000
# 4 0.0000 0.0000 0.0000 26.0082 0.0000 -7.6144
# 5 -11.0744 -4.4057 -22.5975 0.0000 44.3616 0.0000
# 6 0.0000 0.0000 0.0000 -7.6144 0.0000 17.0868
#
#
#
# Elastic Compliance Matrix: (Units=1/GPa)
#
#
# Indices 1 2 3 4 5 6 
#
# 1 0.008979 -0.003760 -0.001394 0.000000 0.001158 0.000000
# 2 -0.003760 0.016745 -0.001143 0.000000 0.000142 0.000000
# 3 -0.001394 -0.001143 0.009429 0.000000 0.004341 0.000000
# 4 0.000000 0.000000 0.000000 0.044219 0.000000 0.019705
# 5 0.001158 0.000142 0.004341 0.000000 0.025057 0.000000
# 6 0.000000 0.000000 0.000000 0.019705 0.000000 0.067306
#
#
# Mechanical properties :
#
#
# Convention : Reuss Voigt Hill
#
# Bulk Modulus (GPa) = 44.32677 52.11439 48.22058
# Shear Modulus (GPa) = 26.06242 33.90474 29.98358
#
# Velocity S-wave (km/s) = 3.24708 3.70353 3.48279
# Velocity P-wave (km/s) = 5.65601 6.27464 5.97334
#
# Compressibility (1/GPa) = 0.02255973
#
# Stress axis : x y z
#
# Youngs Moduli (GPa) = 111.37307 59.71849 106.05782
#
# Poissons Ratio (x) = 0.22452 0.14784
# Poissons Ratio (y) = 0.41873 0.12121
# Poissons Ratio (z) = 0.15525 0.06825
#
# Static dielectric constant tensor:
#      x y z
#    x 1.948280 0.000000 0.025000 
#    y 0.000000 2.019220 0.000000 
#    z 0.025000 0.000000 1.971340 
# 
# From -- ./inp_files/9114.got.cif
#   From: 2010.05.17/outbox.cif.g08.bks.cpg/sg5_5_cif.got.tgz:9114.got - 2010.06.03 18:56:24.
