data_PCOD9130378
_publ_section_title
;
Structure prediction by ZEFSAII (Michael W. Deem and Ramdas Pophale) SiO2 
 PCOD9130378
Probable space group: C 2
;
_chemical_formula_sum "Si O2"
_cell_formula_units_Z 26
_cell_length_a 9.602043
_cell_length_b 18.898453
_cell_length_c 8.397739
_cell_angle_alpha 90.000000
_cell_angle_beta 134.231981
_cell_angle_gamma 90.000000
_cell_volume 1091.896349
_symmetry_space_group_name_H-M "C 2"
_symmetry_group_IT_number 5
_symmetry_cell_setting 'monoclinic'
loop_
_space_group_symop_operation_xyz
x,y,z
-x,y,-z
1/2+x,1/2+y,z
1/2-x,1/2+y,-z
loop_
_atom_site_type_symbol
_atom_site_label
_atom_site_fract_x
_atom_site_fract_y
_atom_site_fract_z
Si Si1 0.486821 0.266710 0.664522
Si Si2 0.223991 0.407541 0.471313
Si Si3 0.500000 0.507610 0.500000
Si Si4 0.221171 0.220160 0.723134
Si Si5 0.813581 0.582141 0.959661
Si Si6 0.704473 0.851493 0.925050
Si Si7 0.788959 0.990288 0.851315
O O1 0.500000 0.235028 0.500000
O O2 0.353230 0.336923 0.569384
O O3 0.371555 0.216589 0.696676
O O4 0.699903 0.300676 0.868623
O O5 0.330558 0.460294 0.438001
O O6 0.214549 0.451595 0.631122
O O7 0.013442 0.380811 0.244108
O O8 0.614374 0.551870 0.724270
O O9 0.280715 0.165766 0.908806
O O10 0.226066 0.300351 0.790161
O O11 0.000000 0.205687 0.500000
O O12 0.838056 0.547121 0.152942
O O13 0.000000 0.563247 0.000000
O O14 0.825016 0.923063 0.997329
O O15 0.000000 0.024465 0.000000
#
# Coordination Sequence:
#
# PCOD9130378 Si02
#       7
#     4   4   2   4   4   4   4
#     4  12  25  45  73 116 156 189 256 324 389 473
#     4  12  24  42  73 115 152 192 256 320 392 461
#     4  12  24  44  68 106 160 200 248 330 382 466
#     4  12  24  51  78 107 155 212 257 324 401 458
#     4  12  27  47  72 105 154 213 262 310 393 471
#     4  12  23  45  79 114 150 200 254 324 400 463
#     4  12  22  45  73 107 151 196 256 321 378 454
#
# _framework density 23.811785
#
# number of rings (size 3 to 8) (size 9 to 14) (size 15 to 20)
#    0.000    0.000    7.692    2.769    0.000    0.615 
#    0.000    6.154    0.000    0.000    0.000    0.000 
#    0.000    0.000    0.000    0.000    0.000    0.000 
#
# Total GULP energy -72629.132404 kJ/mol
# GULP energy per Si atom -5586.856339 kJ/mol
# Density = 2.375759 g / cm^3
# Si number density = 23.811785 Si / 1000 Ang^3
#
#
#
# Elastic Constant Matrix: (Units=GPa)
#
#
# Indices 1 2 3 4 5 6 
#
# 1 126.5520 51.9372 42.1817 0.0000 11.1935 0.0000
# 2 51.9372 98.2234 12.4805 0.0000 -8.9075 0.0000
# 3 42.1817 12.4805 97.7486 0.0000 22.5014 0.0000
# 4 0.0000 0.0000 0.0000 25.8865 0.0000 4.1300
# 5 11.1935 -8.9075 22.5014 0.0000 36.2447 0.0000
# 6 0.0000 0.0000 0.0000 4.1300 0.0000 30.4613
#
#
#
# Elastic Compliance Matrix: (Units=1/GPa)
#
#
# Indices 1 2 3 4 5 6 
#
# 1 0.011877 -0.006072 -0.003690 0.000000 -0.002870 0.000000
# 2 -0.006072 0.013954 -0.000446 0.000000 0.005582 0.000000
# 3 -0.003690 -0.000446 0.013584 0.000000 -0.007403 0.000000
# 4 0.000000 0.000000 0.000000 0.039484 0.000000 -0.005353
# 5 -0.002870 0.005582 -0.007403 0.000000 0.034444 0.000000
# 6 0.000000 0.000000 0.000000 -0.005353 0.000000 0.033554
#
#
# Mechanical properties :
#
#
# Convention : Reuss Voigt Hill
#
# Bulk Modulus (GPa) = 52.63216 59.52478 56.07847
# Shear Modulus (GPa) = 28.79400 32.91347 30.85373
#
# Velocity S-wave (km/s) = 3.48118 3.72187 3.60354
# Velocity P-wave (km/s) = 6.18947 6.59713 6.39655
#
# Compressibility (1/GPa) = 0.01899979
#
# Stress axis : x y z
#
# Youngs Moduli (GPa) = 84.19348 71.66238 73.61753
#
# Poissons Ratio (x) = 0.43512 0.27162
# Poissons Ratio (y) = 0.51121 0.03286
# Poissons Ratio (z) = 0.31064 0.03199
#
# Static dielectric constant tensor:
#      x y z
#    x 1.960170 0.000000 -0.052490 
#    y 0.000000 1.877570 0.000000 
#    z -0.052490 0.000000 2.078570 
# 
# From -- ./inp_files/17085.got.cif
#   From: 2010.05.17/outbox.cif.g08.bks.cpg/sg5_9_cif.got.tgz:17085.got - 2010.06.03 18:56:24.
