data_PCOD9130772
_publ_section_title
;
Structure prediction by ZEFSAII (Michael W. Deem and Ramdas Pophale) SiO2 
 PCOD9130772
Probable space group: P M
;
_chemical_formula_sum "Si O2"
_cell_formula_units_Z 16
_cell_length_a 5.670563
_cell_length_b 17.673490
_cell_length_c 7.888869
_cell_angle_alpha 90.000000
_cell_angle_beta 59.998401
_cell_angle_gamma 90.000000
_cell_volume 684.678793
_symmetry_space_group_name_H-M "P M"
_symmetry_group_IT_number 6
_symmetry_cell_setting 'monoclinic'
loop_
_space_group_symop_operation_xyz
x,y,z
x,-y,z
loop_
_atom_site_type_symbol
_atom_site_label
_atom_site_fract_x
_atom_site_fract_y
_atom_site_fract_z
Si Si1 0.334630 0.681634 0.451340
Si Si2 0.890252 0.708383 0.193794
Si Si3 0.884094 0.116490 0.258400
Si Si4 0.330015 0.413017 0.116557
Si Si5 0.796023 0.679189 0.841210
Si Si6 0.177481 0.085090 0.806004
Si Si7 0.335933 0.146532 0.308006
Si Si8 0.656157 0.839706 0.833647
O O1 0.643950 0.683508 0.403939
O O2 0.338371 0.616547 0.307132
O O3 0.292090 0.766475 0.387342
O O4 0.097553 0.666556 0.667105
O O5 0.952208 0.793871 0.215924
O O6 0.120345 0.646506 0.115372
O O7 0.797540 0.709509 0.032960
O O8 0.558025 0.110272 0.357005
O O9 0.061045 0.100161 0.362413
O O10 0.016236 0.080737 0.044314
O O11 0.254018 0.500000 0.131344
O O12 0.612204 0.394909 0.919753
O O13 0.668919 0.750450 0.788261
O O14 0.465733 0.121854 0.759694
O O15 0.965921 0.131518 0.761736
O O16 0.212578 0.000000 0.730093
O O17 0.498165 0.148054 0.069379
#
# Coordination Sequence:
#
# PCOD9130772 Si02
#       8
#     2   2   2   2   2   2   2   2
#     4  10  21  37  60  88 113 154 207 259 308 374
#     4  10  19  39  58  86 119 155 202 262 309 368
#     4   9  15  29  54  75 117 150 196 247 295 353
#     4  11  23  41  61  84 124 164 197 263 332 377
#     4  11  22  38  63  89 119 159 218 258 307 378
#     4  10  18  29  52  89 124 161 207 256 314 375
#     4   9  15  31  53  79 108 149 190 248 299 341
#     4  10  18  34  55  84 123 162 209 265 303 372
#
# _framework density 23.368622999999999
#
# number of rings (size 3 to 8) (size 9 to 14) (size 15 to 20)
#    0.000    2.000    6.250    1.125    0.000    3.500 
#    0.000    0.000    0.000    0.000    0.000   33.250 
#    0.000    0.000    0.000    0.000    0.000    0.000 
#
# Total GULP energy -89316.577299 kJ/mol
# GULP energy per Si atom -5582.286081 kJ/mol
# Density = 2.331543 g / cm^3
# Si number density = 23.368623 Si / 1000 Ang^3
#
#
#
# Elastic Constant Matrix: (Units=GPa)
#
#
# Indices 1 2 3 4 5 6 
#
# 1 130.5058 22.9852 29.1318 0.0000 -12.1532 0.0000
# 2 22.9852 93.4893 12.7848 0.0000 -5.4755 0.0000
# 3 29.1318 12.7848 99.7364 0.0000 -15.2335 0.0000
# 4 0.0000 0.0000 0.0000 13.4039 0.0000 0.0494
# 5 -12.1532 -5.4755 -15.2335 0.0000 34.9291 0.0000
# 6 0.0000 0.0000 0.0000 0.0494 0.0000 8.0367
#
#
#
# Elastic Compliance Matrix: (Units=1/GPa)
#
#
# Indices 1 2 3 4 5 6 
#
# 1 0.008586 -0.001729 -0.002005 0.000000 0.001842 0.000000
# 2 -0.001729 0.011281 -0.000817 0.000000 0.000810 0.000000
# 3 -0.002005 -0.000817 0.011347 0.000000 0.004123 0.000000
# 4 0.000000 0.000000 0.000000 0.074607 0.000000 -0.000459
# 5 0.001842 0.000810 0.004123 0.000000 0.031195 0.000000
# 6 0.000000 0.000000 0.000000 -0.000459 0.000000 0.124433
#
#
# Mechanical properties :
#
#
# Convention : Reuss Voigt Hill
#
# Bulk Modulus (GPa) = 45.22611 50.39278 47.80945
# Shear Modulus (GPa) = 17.99072 28.52923 23.25998
#
# Velocity S-wave (km/s) = 2.77766 3.49784 3.15834
# Velocity P-wave (km/s) = 5.44817 6.15827 5.81407
#
# Compressibility (1/GPa) = 0.02211112
#
# Stress axis : x y z
#
# Youngs Moduli (GPa) = 116.46762 88.64696 88.13279
#
# Poissons Ratio (x) = 0.15326 0.17670
# Poissons Ratio (y) = 0.20136 0.07203
# Poissons Ratio (z) = 0.23351 0.07245
#
# Static dielectric constant tensor:
#      x y z
#    x 2.043710 0.000000 -0.022250 
#    y 0.000000 1.828470 0.000000 
#    z -0.022250 0.000000 1.898540 
# 
# From -- ./inp_files/2294.got.cif
#   From: 2010.05.17/outbox.cif.g08.bks.cpg/sg6_2_cif.got.tgz:2294.got - 2010.06.03 19:42:10.
