data_PCOD9130519
_publ_section_title
;
Structure prediction by ZEFSAII (Michael W. Deem and Ramdas Pophale) SiO2 
 PCOD9130519
Probable space group: C 2
;
_chemical_formula_sum "Si O2"
_cell_formula_units_Z 32
_cell_length_a 25.383342
_cell_length_b 5.001144
_cell_length_c 24.250741
_cell_angle_alpha 90.000000
_cell_angle_beta 154.344668
_cell_angle_gamma 90.000000
_cell_volume 1332.868818
_symmetry_space_group_name_H-M "C 2"
_symmetry_group_IT_number 5
_symmetry_cell_setting 'monoclinic'
loop_
_space_group_symop_operation_xyz
x,y,z
-x,y,-z
1/2+x,1/2+y,z
1/2-x,1/2+y,-z
loop_
_atom_site_type_symbol
_atom_site_label
_atom_site_fract_x
_atom_site_fract_y
_atom_site_fract_z
Si Si1 0.014700 0.378500 0.184189
Si Si2 0.571320 0.401803 0.703224
Si Si3 0.939367 0.034340 0.019285
Si Si4 0.166655 0.700341 0.912172
Si Si5 0.302721 0.012871 0.847649
Si Si6 0.192187 0.225239 0.441319
Si Si7 0.318767 0.217786 0.742085
Si Si8 0.093436 0.416979 0.458910
O O1 0.089506 0.205836 0.298740
O O2 0.109693 0.520061 0.232300
O O3 0.939216 0.600216 0.146380
O O4 0.929723 0.181645 0.069214
O O5 0.685640 0.416051 0.770502
O O6 0.509321 0.690786 0.643760
O O7 0.472590 0.189967 0.588806
O O8 0.613368 0.306474 0.803853
O O9 0.858915 0.772712 0.931512
O O10 0.921866 0.936660 0.853726
O O11 0.897401 0.271129 0.940270
O O12 0.249675 0.435183 0.984195
O O13 0.280832 0.084094 0.763607
O O14 0.289514 0.443625 0.511742
O O15 0.153033 0.423240 0.454593
O O16 0.201695 0.340072 0.602023
#
# Coordination Sequence:
#
# PCOD9130519 Si02
#       8
#     4   4   4   4   4   4   4   4
#     4  12  28  45  79 118 159 201 269 314 423 467
#     4  12  28  53  78 112 160 220 259 335 396 476
#     4  12  28  50  80 117 159 205 261 350 401 474
#     4  12  29  47  76 115 164 211 262 322 397 491
#     4  12  30  53  82 114 163 208 282 332 404 475
#     4  12  25  45  73 111 154 196 246 325 392 477
#     4  12  30  49  85 120 154 218 266 344 400 476
#     4  12  27  51  79 113 165 204 276 323 400 487
#
# _framework density 24.008362000000002
#
# number of rings (size 3 to 8) (size 9 to 14) (size 15 to 20)
#    0.000    0.000    3.750    4.125    8.750    0.500 
#    0.000    1.250    0.000    0.000    0.000    0.000 
#    0.000    0.000    0.000    0.000    0.000    0.000 
#
# Total GULP energy -89691.204051 kJ/mol
# GULP energy per Si atom -5605.700253 kJ/mol
# Density = 2.395372 g / cm^3
# Si number density = 24.008362 Si / 1000 Ang^3
#
#
#
# Elastic Constant Matrix: (Units=GPa)
#
#
# Indices 1 2 3 4 5 6 
#
# 1 233.3318 56.3408 97.3959 0.0453 6.5225 0.0363
# 2 56.3408 140.0793 24.3409 0.2259 7.2764 0.1758
# 3 97.3959 24.3409 124.7982 0.0624 -2.2025 0.0501
# 4 0.0453 0.2259 0.0624 102.2697 0.0256 45.5464
# 5 6.5225 7.2764 -2.2025 0.0256 33.6122 0.0206
# 6 0.0363 0.1758 0.0501 45.5464 0.0206 67.2597
#
#
#
# Elastic Compliance Matrix: (Units=1/GPa)
#
#
# Indices 1 2 3 4 5 6 
#
# 1 0.006855 -0.001819 -0.005017 0.000003 -0.001265 0.000003
# 2 -0.001819 0.007970 -0.000159 -0.000011 -0.001383 -0.000012
# 3 -0.005017 -0.000159 0.011991 -0.000003 0.001794 -0.000004
# 4 0.000003 -0.000011 -0.000003 0.014000 -0.000003 -0.009481
# 5 -0.001265 -0.001383 0.001794 -0.000003 0.030413 -0.000004
# 6 0.000003 -0.000012 -0.000004 -0.009481 -0.000004 0.021288
#
#
# Mechanical properties :
#
#
# Convention : Reuss Voigt Hill
#
# Bulk Modulus (GPa) = 77.97321 94.92938 86.45130
# Shear Modulus (GPa) = 45.13332 61.97043 53.55187
#
# Velocity S-wave (km/s) = 4.34049 5.08606 4.72799
# Velocity P-wave (km/s) = 7.59393 8.60911 8.11740
#
# Compressibility (1/GPa) = 0.01282492
#
# Stress axis : x y z
#
# Youngs Moduli (GPa) = 145.88776 125.46903 83.39619
#
# Poissons Ratio (x) = 0.22829 0.41839
# Poissons Ratio (y) = 0.26544 0.01325
# Poissons Ratio (z) = 0.73191 0.01994
#
# Static dielectric constant tensor:
#      x y z
#    x 2.280370 -0.000010 0.168790 
#    y -0.000010 1.696630 0.000050 
#    z 0.168790 0.000050 1.783600 
# 
# From -- ./inp_files/67482.got.cif
#   From: 2010.05.17/outbox.cif.g08.bks.cpg/sg5_34_cif.got.tgz:67482.got - 2010.06.03 18:56:24.
