data_PCOD9130962
_publ_section_title
;
Structure prediction by ZEFSAII (Michael W. Deem and Ramdas Pophale) SiO2 
 PCOD9130962
Probable space group: P M
;
_chemical_formula_sum "Si O2"
_cell_formula_units_Z 16
_cell_length_a 12.818562
_cell_length_b 9.061085
_cell_length_c 12.818588
_cell_angle_alpha 90.000000
_cell_angle_beta 34.738208
_cell_angle_gamma 90.000000
_cell_volume 848.405000
_symmetry_space_group_name_H-M "P M"
_symmetry_group_IT_number 6
_symmetry_cell_setting 'monoclinic'
loop_
_space_group_symop_operation_xyz
x,y,z
x,-y,z
loop_
_atom_site_type_symbol
_atom_site_label
_atom_site_fract_x
_atom_site_fract_y
_atom_site_fract_z
Si Si1 0.932120 0.326812 0.044240
Si Si2 0.819901 0.676726 0.532181
Si Si3 0.332140 0.326816 0.644244
Si Si4 0.611531 0.675934 0.915051
Si Si5 0.309079 0.829308 0.444313
Si Si6 0.702215 0.175897 0.414319
Si Si7 0.202770 0.324067 0.323841
Si Si8 0.732109 0.829306 0.021259
O O1 0.886459 0.500000 0.090541
O O2 0.837980 0.238232 0.214469
O O3 0.854990 0.264280 0.998765
O O4 0.150641 0.311120 0.862765
O O5 0.809147 0.500000 0.521440
O O6 0.687361 0.711359 0.738609
O O7 0.763557 0.763122 0.475716
O O8 0.026308 0.711343 0.399703
O O9 0.378474 0.500000 0.598582
O O10 0.286631 0.264315 0.567140
O O11 0.502346 0.238198 0.550109
O O12 0.636467 0.500000 0.910767
O O13 0.720558 0.761473 0.915532
O O14 0.395859 0.708460 0.108161
O O15 0.203296 0.761495 0.432821
O O16 0.259896 0.000000 0.501887
O O17 0.524437 0.823210 0.236627
O O18 0.700879 0.000000 0.412931
O O19 0.198503 0.500000 0.348775
O O20 0.789670 0.000000 0.972060
#
# Coordination Sequence:
#
# PCOD9130962 Si02
#       8
#     2   2   2   2   2   2   2   2
#     4  11  24  41  64  91 120 162 211 256 305 367
#     4  10  22  40  62  86 116 160 213 256 295 360
#     4  11  24  41  64  91 120 162 211 256 305 367
#     4   9  19  36  58  85 118 158 202 250 299 355
#     4  10  20  35  58  90 128 163 196 247 311 367
#     4  12  26  44  64  90 126 164 205 258 319 372
#     4   9  19  36  58  85 118 158 202 250 299 355
#     4  10  20  35  58  90 128 163 196 247 311 367
#
# _framework density 18.858917999999999
#
# number of rings (size 3 to 8) (size 9 to 14) (size 15 to 20)
#    0.000    1.750    1.250    2.625    1.750    5.000 
#    0.000    2.500    0.000    0.000    0.000    0.000 
#    0.000    0.000    0.000    0.000    0.000    0.000 
#
# Total GULP energy -89441.496393 kJ/mol
# GULP energy per Si atom -5590.093525 kJ/mol
# Density = 1.881599 g / cm^3
# Si number density = 18.858918 Si / 1000 Ang^3
#
#
#
# Elastic Constant Matrix: (Units=GPa)
#
#
# Indices 1 2 3 4 5 6 
#
# 1 113.3977 95.1795 110.9738 0.0000 49.7182 0.0000
# 2 95.1795 131.9172 76.6386 0.0000 7.5216 0.0000
# 3 110.9738 76.6386 67.9800 0.0000 -31.2923 0.0000
# 4 0.0000 0.0000 0.0000 32.1291 0.0000 77.9580
# 5 49.7182 7.5216 -31.2923 0.0000 -24.4599 0.0000
# 6 0.0000 0.0000 0.0000 77.9580 0.0000 217.9204
#
#
#
# Elastic Compliance Matrix: (Units=1/GPa)
#
#
# Indices 1 2 3 4 5 6 
#
# 1 0.008148 -0.007130 0.000851 0.000000 0.013281 0.000000
# 2 -0.007130 0.017033 -0.007441 0.000000 0.000264 0.000000
# 3 0.000851 -0.007441 0.013502 0.000000 -0.017832 0.000000
# 4 0.000000 0.000000 0.000000 0.235811 0.000000 -0.084358
# 5 0.013281 0.000264 -0.017832 0.000000 0.009006 0.000000
# 6 0.000000 0.000000 0.000000 -0.084358 0.000000 0.034767
#
#
# Mechanical properties :
#
#
# Convention : Reuss Voigt Hill
#
# Bulk Modulus (GPa) = 88.95625 97.65319 93.30472
# Shear Modulus (GPa) = 14.30801 47.15146 30.72974
#
# Velocity S-wave (km/s) = 2.75741 5.00565 4.04103
# Velocity P-wave (km/s) = 7.57691 9.23591 8.44723
#
# Compressibility (1/GPa) = 0.01124148
#
# Stress axis : x y z
#
# Youngs Moduli (GPa) = 122.73161 58.70959 74.06415
#
# Poissons Ratio (x) = 0.41861 -0.06301
# Poissons Ratio (y) = 0.87511 0.55112
# Poissons Ratio (z) = -0.10442 0.43687
#
# Static dielectric constant tensor:
#      x y z
#    x 1.614700 0.000000 -0.025840 
#    y 0.000000 1.628130 0.000000 
#    z -0.025840 0.000000 1.676330 
# 
# From -- ./inp_files/5022.got.cif
#   From: 2010.05.17/outbox.cif.g08.bks.cpg/sg6_3_cif.got.tgz:5022.got - 2010.06.03 19:42:10.
