data_PCOD9130620
_publ_section_title
;
Structure prediction by ZEFSAII (Michael W. Deem and Ramdas Pophale) SiO2 
 PCOD9130620
Probable space group: C 2
;
_chemical_formula_sum "Si O2"
_cell_formula_units_Z 10
_cell_length_a 6.976919
_cell_length_b 11.960804
_cell_length_c 7.408147
_cell_angle_alpha 90.000000
_cell_angle_beta 39.757408
_cell_angle_gamma 90.000000
_cell_volume 395.366870
_symmetry_space_group_name_H-M "C 2"
_symmetry_group_IT_number 5
_symmetry_cell_setting 'monoclinic'
loop_
_space_group_symop_operation_xyz
x,y,z
-x,y,-z
1/2+x,1/2+y,z
1/2-x,1/2+y,-z
loop_
_atom_site_type_symbol
_atom_site_label
_atom_site_fract_x
_atom_site_fract_y
_atom_site_fract_z
Si Si1 0.500000 0.401950 0.000000
Si Si2 0.667839 0.260720 0.538148
Si Si3 0.253185 0.606749 0.968261
O O1 0.329746 0.328378 0.274083
O O2 0.678826 0.485747 0.000445
O O3 0.500000 0.332301 0.500000
O O4 0.969154 0.187431 0.289275
O O5 0.405701 0.171045 0.755464
O O6 0.000000 0.596651 0.000000
#
# Coordination Sequence:
#
# PCOD9130620 Si02
#       3
#     2   4   4
#     4  12  30  56  92 114 172 230 266 344 434 472
#     4  12  27  54  87 122 166 217 283 341 408 504
#     4  12  28  55  84 121 172 213 278 349 407 497
#
# _framework density 25.292966
#
# number of rings (size 3 to 8) (size 9 to 14) (size 15 to 20)
#    0.000    0.000    6.000    1.200    0.000   12.800 
#    0.000    0.000    0.000    0.000    0.000    0.000 
#    0.000    0.000    0.000    0.000    0.000    0.000 
#
# Total GULP energy -27894.933776 kJ/mol
# GULP energy per Si atom -5578.986755 kJ/mol
# Density = 2.523540 g / cm^3
# Si number density = 25.292966 Si / 1000 Ang^3
#
#
#
# Elastic Constant Matrix: (Units=GPa)
#
#
# Indices 1 2 3 4 5 6 
#
# 1 252.1829 85.8113 81.3333 -0.0044 9.2259 -0.0008
# 2 85.8113 109.3343 66.9316 -0.0015 -7.0625 -0.0003
# 3 81.3333 66.9316 208.3365 -0.0054 -12.3710 0.0010
# 4 -0.0044 -0.0015 -0.0054 -64.6853 0.0046 -12.0846
# 5 9.2259 -7.0625 -12.3710 0.0046 41.0922 -0.0002
# 6 -0.0008 -0.0003 0.0010 -12.0846 -0.0002 0.3695
#
#
#
# Elastic Compliance Matrix: (Units=1/GPa)
#
#
# Indices 1 2 3 4 5 6 
#
# 1 0.005767 -0.004000 -0.001104 0.000000 -0.002315 0.000000
# 2 -0.004000 0.014191 -0.002850 0.000000 0.002479 0.000003
# 3 -0.001104 -0.002850 0.006244 0.000000 0.001638 -0.000004
# 4 0.000000 0.000000 0.000000 -0.002174 0.000000 -0.071110
# 5 -0.002315 0.002479 0.001638 0.000000 0.025774 0.000009
# 6 0.000000 0.000003 -0.000004 -0.071110 0.000009 0.380632
#
#
# Mechanical properties :
#
#
# Convention : Reuss Voigt Hill
#
# Bulk Modulus (GPa) = 97.14968 115.33400 106.24184
# Shear Modulus (GPa) = 11.11671 17.74045 14.42858
#
# Velocity S-wave (km/s) = 2.09874 2.65127 2.39102
# Velocity P-wave (km/s) = 6.66079 7.42095 7.05112
#
# Compressibility (1/GPa) = 0.01029339
#
# Stress axis : x y z
#
# Youngs Moduli (GPa) = 173.39379 70.46835 160.16021
#
# Poissons Ratio (x) = 0.28189 0.17678
# Poissons Ratio (y) = 0.69361 0.45648
# Poissons Ratio (z) = 0.19139 0.20085
#
# Static dielectric constant tensor:
#      x y z
#    x 2.285520 0.000000 0.195690 
#    y 0.000000 1.978930 0.000000 
#    z 0.195690 0.000000 2.216870 
# 
# From -- ./inp_files/1491.got.cif
#   From: 2010.05.17/outbox.cif.g08.bks.cpg/sg5_1_cif.got.tgz:1491.got - 2010.06.03 18:56:24.
