data_PCOD9130516
_publ_section_title
;
Structure prediction by ZEFSAII (Michael W. Deem and Ramdas Pophale) SiO2 
 PCOD9130516
Probable space group: C 2
;
_chemical_formula_sum "Si O2"
_cell_formula_units_Z 16
_cell_length_a 9.179520
_cell_length_b 5.231078
_cell_length_c 13.409895
_cell_angle_alpha 90.000000
_cell_angle_beta 97.742163
_cell_angle_gamma 90.000000
_cell_volume 638.057044
_symmetry_space_group_name_H-M "C 2"
_symmetry_group_IT_number 5
_symmetry_cell_setting 'monoclinic'
loop_
_space_group_symop_operation_xyz
x,y,z
-x,y,-z
1/2+x,1/2+y,z
1/2-x,1/2+y,-z
loop_
_atom_site_type_symbol
_atom_site_label
_atom_site_fract_x
_atom_site_fract_y
_atom_site_fract_z
Si Si1 0.233230 0.136970 0.693241
Si Si2 0.214829 0.322580 0.122463
Si Si3 0.588594 0.924739 0.915760
Si Si4 0.950387 0.637602 0.380624
O O1 0.244725 0.077693 0.813661
O O2 0.136008 0.377005 0.653008
O O3 0.398682 0.165707 0.668157
O O4 0.157020 0.880254 0.644110
O O5 0.339314 0.116057 0.153785
O O6 0.047183 0.261485 0.139571
O O7 0.201253 0.291400 0.001213
O O8 0.500000 0.071626 0.000000
O O9 0.000000 0.626880 0.500000
#
# Coordination Sequence:
#
# PCOD9130516 Si02
#       4
#     4   4   4   4
#     4  12  25  44  73 101 137 176 232 276 333 417
#     4   9  20  40  59  95 126 179 216 270 324 387
#     4   8  20  37  57  85 130 172 210 267 318 382
#     4  12  26  47  71 102 136 177 221 288 349 402
#
# _framework density 25.076125999999999
#
# number of rings (size 3 to 8) (size 9 to 14) (size 15 to 20)
#    1.500    0.000    0.000    5.250    0.000    6.000 
#    9.000    0.000    0.000    0.000    0.000    0.000 
#    0.000    0.000    0.000    0.000    0.000    0.000 
#
# Total GULP energy -44636.542025 kJ/mol
# GULP energy per Si atom -5579.567753 kJ/mol
# Density = 2.501905 g / cm^3
# Si number density = 25.076126 Si / 1000 Ang^3
#
#
#
# Elastic Constant Matrix: (Units=GPa)
#
#
# Indices 1 2 3 4 5 6 
#
# 1 160.5619 54.0868 11.6101 0.0000 2.8562 0.0000
# 2 54.0868 110.3814 4.2116 0.0000 13.1211 0.0000
# 3 11.6101 4.2116 112.6628 0.0000 24.9060 0.0000
# 4 0.0000 0.0000 0.0000 36.4309 0.0000 12.2796
# 5 2.8562 13.1211 24.9060 0.0000 36.6525 0.0000
# 6 0.0000 0.0000 0.0000 12.2796 0.0000 50.3912
#
#
#
# Elastic Compliance Matrix: (Units=1/GPa)
#
#
# Indices 1 2 3 4 5 6 
#
# 1 0.007565 -0.003841 -0.000953 0.000000 0.001433 0.000000
# 2 -0.003841 0.011433 0.000950 0.000000 -0.004439 0.000000
# 3 -0.000953 0.000950 0.010588 0.000000 -0.007460 0.000000
# 4 0.000000 0.000000 0.000000 0.029906 0.000000 -0.007288
# 5 0.001433 -0.004439 -0.007460 0.000000 0.033830 0.000000
# 6 0.000000 0.000000 0.000000 -0.007288 0.000000 0.021621
#
#
# Mechanical properties :
#
#
# Convention : Reuss Voigt Hill
#
# Bulk Modulus (GPa) = 45.66592 58.15811 51.91201
# Shear Modulus (GPa) = 38.48215 45.60811 42.04513
#
# Velocity S-wave (km/s) = 3.92166 4.26935 4.09919
# Velocity P-wave (km/s) = 6.22546 6.89537 6.56896
#
# Compressibility (1/GPa) = 0.02189817
#
# Stress axis : x y z
#
# Youngs Moduli (GPa) = 132.18029 87.46597 94.44673
#
# Poissons Ratio (x) = 0.33596 0.08999
# Poissons Ratio (y) = 0.50771 -0.08970
# Poissons Ratio (z) = 0.12594 -0.08307
#
# Static dielectric constant tensor:
#      x y z
#    x 2.143000 0.000000 0.004330 
#    y 0.000000 2.031440 0.000000 
#    z 0.004330 0.000000 2.018400 
# 
# From -- ./inp_files/34650.got.cif
#   From: 2010.05.17/outbox.cif.g08.bks.cpg/sg5_18_cif.got.tgz:34650.got - 2010.06.03 18:56:24.
