data_PCOD9130664
_publ_section_title
;
Structure prediction by ZEFSAII (Michael W. Deem and Ramdas Pophale) SiO2 
 PCOD9130664
Probable space group: C 2
;
_chemical_formula_sum "Si O2"
_cell_formula_units_Z 14
_cell_length_a 21.000000
_cell_length_b 9.000000
_cell_length_c 15.000000
_cell_angle_alpha 90.000000
_cell_angle_beta 150.000000
_cell_angle_gamma 90.000000
_cell_volume 1417.500000
_symmetry_space_group_name_H-M "C 2"
_symmetry_group_IT_number 5
_symmetry_cell_setting 'monoclinic'
loop_
_space_group_symop_operation_xyz
x,y,z
-x,y,-z
1/2+x,1/2+y,z
1/2-x,1/2+y,-z
loop_
_atom_site_type_symbol
_atom_site_label
_atom_site_fract_x
_atom_site_fract_y
_atom_site_fract_z
Si Si1 0.194138 0.089850 0.270244
Si Si2 0.362945 0.777365 0.971287
Si Si3 0.250489 0.378245 0.816086
Si Si4 0.069735 0.613553 0.988644
Si Si5 0.425990 0.237693 0.647593
Si Si6 0.097966 0.627272 0.698540
Si Si7 0.991362 0.022791 0.801533
O O1 0.137480 0.202227 0.127951
O O2 0.292668 0.175828 0.451939
O O3 0.090844 0.016202 0.208352
O O4 0.261024 0.962631 0.292435
O O5 0.224362 0.728611 0.839836
O O6 0.470344 0.694900 0.161568
O O7 0.392476 0.948583 0.995640
O O8 0.136453 0.452236 0.734935
O O9 0.299794 0.212195 0.858677
O O10 0.373341 0.447089 0.014770
O O11 0.967628 0.681012 0.795132
O O12 0.000000 0.615722 0.000000
O O13 0.531171 0.171735 0.708486
O O14 0.427350 0.417711 0.651024
O O15 0.000000 0.661776 0.500000
#
# Coordination Sequence:
#
# PCOD9130664 Si02
#       7
#     4   4   4   4   4   4   4
#     4  10  18  36  61  85 117 165 204 247 314 362
#     4  10  21  38  65  85 124 169 200 255 314 368
#     4   9  18  36  63  83 117 164 200 251 310 366
#     4  11  23  39  58  95 130 157 208 256 308 373
#     4  11  22  37  63  88 120 162 205 265 305 367
#     4  10  19  41  64  86 119 160 214 252 314 367
#     4   9  19  34  56  88 114 157 206 242 307 371
#
# _framework density 9.8765429999999999
#
# number of rings (size 3 to 8) (size 9 to 14) (size 15 to 20)
#    0.000    2.286    2.857    4.286    0.000    5.714 
#    0.000    2.143    0.000    0.000    0.000    0.000 
#    0.000    0.000    0.000    0.000    0.000    0.000 
#
# Total GULP energy -77956.777776 kJ/mol
# GULP energy per Si atom -5568.341270 kJ/mol
# Density = 0.985406 g / cm^3
# Si number density = 9.876543 Si / 1000 Ang^3
#
#
#
# Elastic Constant Matrix: (Units=GPa)
#
#
# Indices 1 2 3 4 5 6 
#
# 1 32.9241 2.5281 -18.5901 0.0000 1.8716 0.0000
# 2 2.5281 150.0814 13.8755 0.0000 -7.2607 0.0000
# 3 -18.5901 13.8755 44.7116 0.0000 -16.7708 0.0000
# 4 0.0000 0.0000 0.0000 21.9948 0.0000 -4.4437
# 5 1.8716 -7.2607 -16.7708 0.0000 17.7756 0.0000
# 6 0.0000 0.0000 0.0000 -4.4437 0.0000 23.6285
#
#
#
# Elastic Compliance Matrix: (Units=1/GPa)
#
#
# Indices 1 2 3 4 5 6 
#
# 1 0.044338 -0.002252 0.026369 0.000000 0.019291 0.000000
# 2 -0.002252 0.006992 -0.003011 0.000000 0.000252 0.000000
# 3 0.026369 -0.003011 0.050705 0.000000 0.043832 0.000000
# 4 0.000000 0.000000 0.000000 0.047261 0.000000 0.008888
# 5 0.019291 0.000252 0.043832 0.000000 0.095683 0.000000
# 6 0.000000 0.000000 0.000000 0.008888 0.000000 0.043993
#
#
# Mechanical properties :
#
#
# Convention : Reuss Voigt Hill
#
# Bulk Modulus (GPa) = 6.93256 24.81599 15.87427
# Shear Modulus (GPa) = 16.95826 28.00668 22.48247
#
# Velocity S-wave (km/s) = 2.93322 3.76950 3.37735
# Velocity P-wave (km/s) = 3.87155 5.61568 4.82311
#
# Compressibility (1/GPa) = 0.14424695
#
# Stress axis : x y z
#
# Youngs Moduli (GPa) = 22.55393 143.02941 19.72203
#
# Poissons Ratio (x) = 0.32203 -0.52005
# Poissons Ratio (y) = 0.05078 0.05939
# Poissons Ratio (z) = -0.59473 0.43072
#
# Static dielectric constant tensor:
#      x y z
#    x 1.735670 0.000000 0.021540 
#    y 0.000000 1.772880 0.000000 
#    z 0.021540 0.000000 1.713840 
# 
# From -- ./inp_files/56937.got.cif
#   From: 2010.05.17/outbox.ucp.g08.bks.cvg/sg5_29_cif.got.tgz:56937.got - 2010.06.11 12:53:14.
