data_PCOD9130686
_publ_section_title
;
Structure prediction by ZEFSAII (Michael W. Deem and Ramdas Pophale) SiO2 
 PCOD9130686
Probable space group: C 2
;
_chemical_formula_sum "Si O2"
_cell_formula_units_Z 15
_cell_length_a 12.000000
_cell_length_b 18.000000
_cell_length_c 15.000000
_cell_angle_alpha 90.000000
_cell_angle_beta 30.000000
_cell_angle_gamma 90.000000
_cell_volume 1620.000000
_symmetry_space_group_name_H-M "C 2"
_symmetry_group_IT_number 5
_symmetry_cell_setting 'monoclinic'
loop_
_space_group_symop_operation_xyz
x,y,z
-x,y,-z
1/2+x,1/2+y,z
1/2-x,1/2+y,-z
loop_
_atom_site_type_symbol
_atom_site_label
_atom_site_fract_x
_atom_site_fract_y
_atom_site_fract_z
Si Si1 0.358156 0.235540 0.009529
Si Si2 0.753882 0.613804 0.954263
Si Si3 0.089549 0.836695 0.713920
Si Si4 0.416845 0.840512 0.332065
Si Si5 0.500000 0.286908 0.500000
Si Si6 0.257030 0.760396 0.157182
Si Si7 0.848141 0.000822 0.262296
Si Si8 0.499320 0.005517 0.660028
O O1 0.132108 0.287264 0.166045
O O2 0.500000 0.236219 0.000000
O O3 0.304893 0.152587 0.013145
O O4 0.533172 0.271319 0.819579
O O5 0.709456 0.686863 0.924805
O O6 0.945621 0.568777 0.769304
O O7 0.548993 0.557417 0.106890
O O8 0.311229 0.823658 0.502881
O O9 0.084551 0.915287 0.766442
O O10 0.888525 0.826230 0.783897
O O11 0.481120 0.927246 0.300329
O O12 0.211436 0.828539 0.403134
O O13 0.625330 0.239639 0.337878
O O14 0.500000 0.792325 0.000000
O O15 0.710305 0.019799 0.448452
O O16 0.698167 0.001605 0.276846
#
# Coordination Sequence:
#
# PCOD9130686 Si02
#       8
#     4   4   4   4   2   4   4   4
#     4  11  23  39  59  83 113 149 188 232 282 334
#     4  11  23  36  52  81 115 147 185 226 277 335
#     4   9  20  37  58  84 109 140 189 236 278 326
#     4  10  21  38  61  87 113 145 189 235 278 328
#     4  10  20  36  60  86 114 148 186 230 280 330
#     4  10  20  34  54  82 113 147 185 228 277 331
#     4  10  20  36  57  81 110 144 184 233 279 324
#     4  10  21  36  57  83 110 144 186 230 278 328
#
# _framework density 9.2592590000000001
#
# number of rings (size 3 to 8) (size 9 to 14) (size 15 to 20)
#    0.000    1.867    0.000    4.400    0.000    6.933 
#    0.000    4.667    0.000    0.000    0.000    0.000 
#    0.000    0.000    0.000    0.000    0.000    0.000 
#
# Total GULP energy -83544.724588 kJ/mol
# GULP energy per Si atom -5569.648306 kJ/mol
# Density = 0.923818 g / cm^3
# Si number density = 9.259259 Si / 1000 Ang^3
#
#
#
# Elastic Constant Matrix: (Units=GPa)
#
#
# Indices 1 2 3 4 5 6 
#
# 1 59.3114 1.7813 6.6344 -0.0004 -1.8358 0.0090
# 2 1.7813 48.0608 10.1147 0.0018 0.0509 0.0049
# 3 6.6344 10.1147 46.1578 -0.0121 2.1367 0.0200
# 4 -0.0004 0.0018 -0.0121 34.7009 0.0164 11.5180
# 5 -1.8358 0.0509 2.1367 0.0164 16.7030 -0.0102
# 6 0.0090 0.0049 0.0200 11.5180 -0.0102 6.9543
#
#
#
# Elastic Compliance Matrix: (Units=1/GPa)
#
#
# Indices 1 2 3 4 5 6 
#
# 1 0.017218 -0.000103 -0.002555 0.000005 0.002220 -0.000019
# 2 -0.000103 0.021819 -0.004791 -0.000006 0.000535 0.000010
# 3 -0.002555 -0.004791 0.023232 0.000070 -0.003238 -0.000180
# 4 0.000005 -0.000006 0.000070 0.064003 -0.000136 -0.106005
# 5 0.002220 0.000535 -0.003238 -0.000136 0.060526 0.000321
# 6 -0.000019 0.000010 -0.000180 -0.106005 0.000321 0.319365
#
#
# Mechanical properties :
#
#
# Convention : Reuss Voigt Hill
#
# Bulk Modulus (GPa) = 21.11023 21.17675 21.14349
# Shear Modulus (GPa) = 9.31357 20.67162 14.99259
#
# Velocity S-wave (km/s) = 2.24505 3.34468 2.84843
# Velocity P-wave (km/s) = 4.25965 5.13577 4.71809
#
# Compressibility (1/GPa) = 0.04737040
#
# Stress axis : x y z
#
# Youngs Moduli (GPa) = 58.07961 45.83259 43.04414
#
# Poissons Ratio (x) = 0.00471 0.10998
# Poissons Ratio (y) = 0.00597 0.20623
# Poissons Ratio (z) = 0.14839 0.21959
#
# Static dielectric constant tensor:
#      x y z
#    x 1.763990 0.000000 0.035510 
#    y 0.000000 1.603560 0.000010 
#    z 0.035510 0.000010 1.680880 
# 
# From -- ./inp_files/53410.got.cif
#   From: 2010.05.17/outbox.ucp.g08.bks.cvg/sg5_27_cif.got.tgz:53410.got - 2010.06.11 12:53:14.
