data_PCOD9130876
_publ_section_title
;
Structure prediction by ZEFSAII (Michael W. Deem and Ramdas Pophale) SiO2 
 PCOD9130876
Probable space group: P M
;
_chemical_formula_sum "Si O2"
_cell_formula_units_Z 16
_cell_length_a 10.579073
_cell_length_b 8.497020
_cell_length_c 12.632860
_cell_angle_alpha 90.000000
_cell_angle_beta 127.925929
_cell_angle_gamma 90.000000
_cell_volume 895.748623
_symmetry_space_group_name_H-M "P M"
_symmetry_group_IT_number 6
_symmetry_cell_setting 'monoclinic'
loop_
_space_group_symop_operation_xyz
x,y,z
x,-y,z
loop_
_atom_site_type_symbol
_atom_site_label
_atom_site_fract_x
_atom_site_fract_y
_atom_site_fract_z
Si Si1 0.948430 0.689960 0.741000
Si Si2 0.058536 0.308982 0.023539
Si Si3 0.289564 0.688333 0.323052
Si Si4 0.593012 0.813804 0.593714
Si Si5 0.472694 0.690209 0.758367
Si Si6 0.104790 0.309273 0.601826
Si Si7 0.010016 0.813771 0.330500
Si Si8 0.777836 0.689795 0.042477
O O1 0.956459 0.500000 0.745962
O O2 0.763720 0.738055 0.655366
O O3 0.027862 0.743866 0.672648
O O4 0.039118 0.747246 0.893796
O O5 0.063304 0.500000 0.023855
O O6 0.210889 0.258290 0.171496
O O7 0.900668 0.267172 0.010561
O O8 0.307884 0.500000 0.331379
O O9 0.456681 0.765055 0.439998
O O10 0.157375 0.731250 0.344145
O O11 0.531610 0.754984 0.676380
O O12 0.610217 0.000000 0.605156
O O13 0.476454 0.500000 0.753305
O O14 0.291239 0.738589 0.688980
O O15 0.600903 0.736236 0.914235
O O16 0.099188 0.500000 0.594801
O O17 0.014041 0.242967 0.452992
O O18 0.850230 0.765556 0.184933
O O19 0.033551 0.000000 0.336944
O O20 0.783972 0.500000 0.057125
#
# Coordination Sequence:
#
# PCOD9130876 Si02
#       8
#     2   2   2   2   2   2   2   2
#     4  10  20  38  59  82 111 147 188 231 280 332
#     4   8  15  30  54  80 105 138 181 228 275 321
#     4  10  19  34  56  81 109 144 187 233 277 325
#     4  12  23  34  53  85 115 147 186 229 283 335
#     4  10  19  35  58  83 110 144 188 237 277 321
#     4  10  21  36  59  84 110 148 190 230 276 333
#     4  11  21  33  52  81 116 149 182 226 282 333
#     4   9  17  32  55  80 108 143 184 230 278 326
#
# _framework density 17.862154
#
# number of rings (size 3 to 8) (size 9 to 14) (size 15 to 20)
#    0.000    2.000    2.500    3.375    0.000    1.000 
#    0.000    1.875    0.000    4.500    0.000    0.000 
#    0.000    0.000    0.000    0.000    0.000    0.000 
#
# Total GULP energy -89296.630947 kJ/mol
# GULP energy per Si atom -5581.039434 kJ/mol
# Density = 1.782150 g / cm^3
# Si number density = 17.862154 Si / 1000 Ang^3
#
#
#
# Elastic Constant Matrix: (Units=GPa)
#
#
# Indices 1 2 3 4 5 6 
#
# 1 98.3351 12.3272 70.4091 0.0000 -13.2036 0.0000
# 2 12.3272 14.7146 14.2320 0.0000 -3.9205 0.0000
# 3 70.4091 14.2320 171.1320 0.0000 -11.7849 0.0000
# 4 0.0000 0.0000 0.0000 -5.2019 0.0000 7.6813
# 5 -13.2036 -3.9205 -11.7849 0.0000 24.2849 0.0000
# 6 0.0000 0.0000 0.0000 7.6813 0.0000 -3.4906
#
#
#
# Elastic Compliance Matrix: (Units=1/GPa)
#
#
# Indices 1 2 3 4 5 6 
#
# 1 0.015587 -0.006424 -0.005552 0.000000 0.004743 0.000000
# 2 -0.006424 0.078620 -0.003374 0.000000 0.007562 0.000000
# 3 -0.005552 -0.003374 0.008445 0.000000 0.000535 0.000000
# 4 0.000000 0.000000 0.000000 0.085460 0.000000 0.188061
# 5 0.004743 0.007562 0.000535 0.000000 0.045237 0.000000
# 6 0.000000 0.000000 0.000000 0.188061 0.000000 0.127358
#
#
# Mechanical properties :
#
#
# Convention : Reuss Voigt Hill
#
# Bulk Modulus (GPa) = 13.89842 53.12426 33.51134
# Shear Modulus (GPa) = 12.03682 15.59937 13.81810
#
# Velocity S-wave (km/s) = 2.59872 2.95840 2.78438
# Velocity P-wave (km/s) = 4.09906 6.44014 5.39804
#
# Compressibility (1/GPa) = 0.07195063
#
# Stress axis : x y z
#
# Youngs Moduli (GPa) = 64.15679 12.71940 118.41065
#
# Poissons Ratio (x) = 0.08171 0.65742
# Poissons Ratio (y) = 0.41216 0.39957
# Poissons Ratio (z) = 0.35620 0.04292
#
# Static dielectric constant tensor:
#      x y z
#    x 1.580200 0.000000 0.001660 
#    y 0.000000 1.596480 0.000000 
#    z 0.001660 0.000000 1.628560 
# 
# From -- ./inp_files/4649.got.cif
#   From: 2010.05.17/outbox.cif.g08.bks.cpg/sg6_3_cif.got.tgz:4649.got - 2010.06.03 19:42:10.
