data_PCOD9130552
_publ_section_title
;
Structure prediction by ZEFSAII (Michael W. Deem and Ramdas Pophale) SiO2 
 PCOD9130552
Probable space group: C 2
;
_chemical_formula_sum "Si O2"
_cell_formula_units_Z 16
_cell_length_a 7.287475
_cell_length_b 18.366809
_cell_length_c 4.932288
_cell_angle_alpha 90.000000
_cell_angle_beta 111.040209
_cell_angle_gamma 90.000000
_cell_volume 616.160475
_symmetry_space_group_name_H-M "C 2"
_symmetry_group_IT_number 5
_symmetry_cell_setting 'monoclinic'
loop_
_space_group_symop_operation_xyz
x,y,z
-x,y,-z
1/2+x,1/2+y,z
1/2-x,1/2+y,-z
loop_
_atom_site_type_symbol
_atom_site_label
_atom_site_fract_x
_atom_site_fract_y
_atom_site_fract_z
Si Si1 0.631922 0.561300 0.316821
Si Si2 0.711263 0.907552 0.474228
Si Si3 0.500000 0.316023 0.000000
Si Si4 0.210354 0.714633 0.745396
Si Si5 0.500000 0.819662 0.000000
O O1 0.500000 0.587017 0.500000
O O2 0.755313 0.493462 0.491494
O O3 0.746125 0.629833 0.251715
O O4 0.500000 0.532824 0.000000
O O5 0.500000 0.890653 0.500000
O O6 0.675545 0.879367 0.148934
O O7 0.889393 0.866235 0.718491
O O8 0.328844 0.257957 0.995898
O O9 0.000000 0.726607 0.500000
O O10 0.399534 0.759217 0.744698
#
# Coordination Sequence:
#
# PCOD9130552 Si02
#       5
#     4   4   2   4   2
#     4  12  31  53  82 118 171 221 278 337 412 497
#     4  12  27  50  81 120 161 219 272 343 414 490
#     4  12  26  47  87 122 160 210 284 338 412 496
#     4  12  27  49  80 118 162 214 266 341 413 486
#     4  12  26  45  81 116 162 208 280 332 408 496
#
# _framework density 25.967261000000001
#
# number of rings (size 3 to 8) (size 9 to 14) (size 15 to 20)
#    0.000    0.000    7.500    0.750   10.500    1.000 
#    0.000    0.000    0.000    0.000    0.000    0.000 
#    0.000    0.000    0.000    0.000    0.000    0.000 
#
# Total GULP energy -44585.214206 kJ/mol
# GULP energy per Si atom -5573.151776 kJ/mol
# Density = 2.590816 g / cm^3
# Si number density = 25.967261 Si / 1000 Ang^3
#
#
#
# Elastic Constant Matrix: (Units=GPa)
#
#
# Indices 1 2 3 4 5 6 
#
# 1 123.3071 44.8880 35.5320 0.0000 16.5082 0.0000
# 2 44.8880 259.7196 55.4064 0.0000 23.8414 0.0000
# 3 35.5320 55.4064 163.8209 0.0000 47.0056 0.0000
# 4 0.0000 0.0000 0.0000 20.2599 0.0000 1.9167
# 5 16.5082 23.8414 47.0056 0.0000 59.5356 0.0000
# 6 0.0000 0.0000 0.0000 1.9167 0.0000 20.5377
#
#
#
# Elastic Compliance Matrix: (Units=1/GPa)
#
#
# Indices 1 2 3 4 5 6 
#
# 1 0.009048 -0.001200 -0.001260 0.000000 -0.001033 0.000000
# 2 -0.001200 0.004333 -0.001038 0.000000 -0.000583 0.000000
# 3 -0.001260 -0.001038 0.008416 0.000000 -0.005879 0.000000
# 4 0.000000 0.000000 0.000000 0.049798 0.000000 -0.004647
# 5 -0.001033 -0.000583 -0.005879 0.000000 0.021959 0.000000
# 6 0.000000 0.000000 0.000000 -0.004647 0.000000 0.049125
#
#
# Mechanical properties :
#
#
# Convention : Reuss Voigt Hill
#
# Bulk Modulus (GPa) = 67.56634 90.94449 79.25541
# Shear Modulus (GPa) = 32.33995 47.46804 39.90400
#
# Velocity S-wave (km/s) = 3.53287 4.28015 3.92433
# Velocity P-wave (km/s) = 6.53589 7.71524 7.14992
#
# Compressibility (1/GPa) = 0.01480027
#
# Stress axis : x y z
#
# Youngs Moduli (GPa) = 110.51944 230.80670 118.82807
#
# Poissons Ratio (x) = 0.27700 0.14973
# Poissons Ratio (y) = 0.13264 0.12332
# Poissons Ratio (z) = 0.13926 0.23953
#
# Static dielectric constant tensor:
#      x y z
#    x 4.328590 0.000000 -0.663070 
#    y 0.000000 1.977110 0.000000 
#    z -0.663070 0.000000 2.245800 
# 
# From -- ./inp_files/2241.got.cif
#   From: 2010.05.17/outbox.cif.g08.bks.cpg/sg5_2_cif.got.tgz:2241.got - 2010.06.03 18:56:24.
