data_PCOD9130316
_publ_section_title
;
Structure prediction by ZEFSAII (Michael W. Deem and Ramdas Pophale) SiO2 
 PCOD9130316
Probable space group: C 2
;
_chemical_formula_sum "Si O2"
_cell_formula_units_Z 18
_cell_length_a 16.204968
_cell_length_b 5.293062
_cell_length_c 22.400450
_cell_angle_alpha 90.000000
_cell_angle_beta 22.140807
_cell_angle_gamma 90.000000
_cell_volume 724.135215
_symmetry_space_group_name_H-M "C 2"
_symmetry_group_IT_number 5
_symmetry_cell_setting 'monoclinic'
loop_
_space_group_symop_operation_xyz
x,y,z
-x,y,-z
1/2+x,1/2+y,z
1/2-x,1/2+y,-z
loop_
_atom_site_type_symbol
_atom_site_label
_atom_site_fract_x
_atom_site_fract_y
_atom_site_fract_z
Si Si1 0.832032 0.375000 0.411305
Si Si2 0.179791 0.740464 0.676422
Si Si3 0.000000 0.620198 0.500000
Si Si4 0.181664 0.456854 0.791727
Si Si5 0.184416 0.997678 0.162652
O O1 0.782105 0.626683 0.484047
O O2 0.625242 0.934273 0.461414
O O3 0.082057 0.282618 0.231636
O O4 0.973473 0.848493 0.777941
O O5 0.244285 0.478189 0.601491
O O6 0.162394 0.694110 0.758706
O O7 0.814574 0.759391 0.662889
O O8 0.305045 0.458158 0.772700
O O9 0.926621 0.427470 0.978798
#
# Coordination Sequence:
#
# PCOD9130316 Si02
#       5
#     4   4   2   4   4
#     4  12  28  50  88 128 172 233 294 360 449 526
#     4  12  29  47  89 126 180 238 294 371 447 534
#     4  12  30  52  86 134 180 228 306 366 446 548
#     4  11  30  53  83 134 177 239 297 369 447 538
#     4  11  29  54  84 129 185 231 297 371 450 531
#
# _framework density 24.857237000000001
#
# number of rings (size 3 to 8) (size 9 to 14) (size 15 to 20)
#    0.000    0.444    2.222    2.000   18.667    0.000 
#    0.000    4.444    0.000    0.000    0.000    0.000 
#    0.000    0.000    0.000    0.000    0.000    0.000 
#
# Total GULP energy -50196.067062 kJ/mol
# GULP energy per Si atom -5577.340785 kJ/mol
# Density = 2.480066 g / cm^3
# Si number density = 24.857237 Si / 1000 Ang^3
#
#
#
# Elastic Constant Matrix: (Units=GPa)
#
#
# Indices 1 2 3 4 5 6 
#
# 1 201.0395 83.9263 82.7011 -0.0095 1.3888 0.0007
# 2 83.9263 150.3060 71.7741 -0.0480 -8.5637 0.0443
# 3 82.7011 71.7741 158.1581 -0.0346 -11.7919 0.0081
# 4 -0.0095 -0.0480 -0.0346 16.9404 0.0153 -9.7697
# 5 1.3888 -8.5637 -11.7919 0.0153 43.9624 -0.0036
# 6 0.0007 0.0443 0.0081 -9.7697 -0.0036 59.9459
#
#
#
# Elastic Compliance Matrix: (Units=1/GPa)
#
#
# Indices 1 2 3 4 5 6 
#
# 1 0.007262 -0.002902 -0.002591 -0.000007 -0.001490 0.000001
# 2 -0.002902 0.009671 -0.002779 0.000017 0.001230 -0.000004
# 3 -0.002591 -0.002779 0.009087 0.000009 0.001978 0.000002
# 4 -0.000007 0.000017 0.000009 0.065155 -0.000016 0.010619
# 5 -0.001490 0.001230 0.001978 -0.000016 0.023564 -0.000002
# 6 0.000001 -0.000004 0.000002 0.010619 -0.000002 0.018412
#
#
# Mechanical properties :
#
#
# Convention : Reuss Voigt Hill
#
# Bulk Modulus (GPa) = 105.55870 109.58963 107.57417
# Shear Modulus (GPa) = 32.71088 42.24321 37.47704
#
# Velocity S-wave (km/s) = 3.63154 4.12689 3.88711
# Velocity P-wave (km/s) = 7.75514 8.17873 7.96975
#
# Compressibility (1/GPa) = 0.00947340
#
# Stress axis : x y z
#
# Youngs Moduli (GPa) = 137.70231 103.40139 110.05262
#
# Poissons Ratio (x) = 0.30011 0.28517
# Poissons Ratio (y) = 0.39967 0.30589
# Poissons Ratio (z) = 0.35682 0.28740
#
# Static dielectric constant tensor:
#      x y z
#    x 2.047980 -0.000010 -0.012050 
#    y -0.000010 2.058480 0.000010 
#    z -0.012050 0.000010 2.015760 
# 
# From -- ./inp_files/65524.got.cif
#   From: 2010.05.17/outbox.cif.g08.bks.cpg/sg5_33_cif.got.tgz:65524.got - 2010.06.03 18:56:24.
