data_PCOD9130408
_publ_section_title
;
Structure prediction by ZEFSAII (Michael W. Deem and Ramdas Pophale) SiO2 
 PCOD9130408
Probable space group: C 2
;
_chemical_formula_sum "Si O2"
_cell_formula_units_Z 14
_cell_length_a 7.458120
_cell_length_b 17.408745
_cell_length_c 5.115536
_cell_angle_alpha 90.000000
_cell_angle_beta 66.565129
_cell_angle_gamma 90.000000
_cell_volume 609.396678
_symmetry_space_group_name_H-M "C 2"
_symmetry_group_IT_number 5
_symmetry_cell_setting 'monoclinic'
loop_
_space_group_symop_operation_xyz
x,y,z
-x,y,-z
1/2+x,1/2+y,z
1/2-x,1/2+y,-z
loop_
_atom_site_type_symbol
_atom_site_label
_atom_site_fract_x
_atom_site_fract_y
_atom_site_fract_z
Si Si1 0.000000 0.399530 0.000000
Si Si2 0.797377 0.991680 0.198698
Si Si3 0.688998 0.330724 0.556129
Si Si4 0.000000 0.714451 0.000000
Si Si5 0.500000 0.109833 0.500000
O O1 0.846861 0.455241 0.937932
O O2 0.117996 0.345496 0.727350
O O3 0.857334 0.915616 0.317357
O O4 0.679460 0.052126 0.438321
O O5 0.000000 0.029198 0.000000
O O6 0.500000 0.307000 0.500000
O O7 0.677304 0.270441 0.802008
O O8 0.955657 0.659793 0.780820
#
# Coordination Sequence:
#
# PCOD9130408 Si02
#       5
#     2   4   4   2   2
#     4  12  23  44  82 121 148 198 274 326 375 448
#     4  12  25  46  79 119 148 207 268 321 378 476
#     4  12  23  47  81 116 154 205 267 318 382 471
#     4  12  27  52  76 115 170 204 250 332 401 468
#     4  12  28  50  74 116 168 200 250 338 402 448
#
# _framework density 22.973541000000001
#
# number of rings (size 3 to 8) (size 9 to 14) (size 15 to 20)
#    0.000    0.000    8.571    0.857    0.000    0.000 
#    2.571    2.857    0.000    0.000    0.000    0.000 
#    0.000    0.000    0.000    0.000    0.000    0.000 
#
# Total GULP energy -39110.237953 kJ/mol
# GULP energy per Si atom -5587.176850 kJ/mol
# Density = 2.292125 g / cm^3
# Si number density = 22.973541 Si / 1000 Ang^3
#
#
#
# Elastic Constant Matrix: (Units=GPa)
#
#
# Indices 1 2 3 4 5 6 
#
# 1 92.7950 12.5019 38.5511 0.0000 -12.0019 0.0000
# 2 12.5019 113.5061 48.0681 0.0000 -1.0143 0.0000
# 3 38.5511 48.0681 157.4755 0.0000 -25.2513 0.0000
# 4 0.0000 0.0000 0.0000 268.3819 0.0000 46.8079
# 5 -12.0019 -1.0143 -25.2513 0.0000 53.4768 0.0000
# 6 0.0000 0.0000 0.0000 46.8079 0.0000 26.8505
#
#
#
# Elastic Compliance Matrix: (Units=1/GPa)
#
#
# Indices 1 2 3 4 5 6 
#
# 1 0.012099 -0.000188 -0.002672 0.000000 0.001450 0.000000
# 2 -0.000188 0.010215 -0.003297 0.000000 -0.001405 0.000000
# 3 -0.002672 -0.003297 0.008552 0.000000 0.003376 0.000000
# 4 0.000000 0.000000 0.000000 0.005354 0.000000 -0.009333
# 5 0.001450 -0.001405 0.003376 0.000000 0.020593 0.000000
# 6 0.000000 0.000000 0.000000 -0.009333 0.000000 0.053514
#
#
# Mechanical properties :
#
#
# Convention : Reuss Voigt Hill
#
# Bulk Modulus (GPa) = 53.90446 62.44652 58.17549
# Shear Modulus (GPa) = 38.81237 87.38554 63.09896
#
# Velocity S-wave (km/s) = 4.11474 6.17414 5.24648
# Velocity P-wave (km/s) = 6.78892 8.83559 7.87899
#
# Compressibility (1/GPa) = 0.01855134
#
# Stress axis : x y z
#
# Youngs Moduli (GPa) = 82.64835 97.89927 116.93000
#
# Poissons Ratio (x) = 0.01842 0.31244
# Poissons Ratio (y) = 0.01555 0.38554
# Poissons Ratio (z) = 0.22084 0.32279
#
# Static dielectric constant tensor:
#      x y z
#    x 1.885340 0.000000 0.046970 
#    y 0.000000 1.823420 0.000000 
#    z 0.046970 0.000000 1.984280 
# 
# From -- ./inp_files/1797.got.cif
#   From: 2010.05.17/outbox.cif.g08.bks.cpg/sg5_1_cif.got.tgz:1797.got - 2010.06.03 18:56:24.
