data_PCOD9130640
_publ_section_title
;
Structure prediction by ZEFSAII (Michael W. Deem and Ramdas Pophale) SiO2 
 PCOD9130640
Probable space group: C 2
;
_chemical_formula_sum "Si O2"
_cell_formula_units_Z 18
_cell_length_a 13.544297
_cell_length_b 4.735759
_cell_length_c 18.814177
_cell_angle_alpha 90.000000
_cell_angle_beta 32.487517
_cell_angle_gamma 90.000000
_cell_volume 648.185412
_symmetry_space_group_name_H-M "C 2"
_symmetry_group_IT_number 5
_symmetry_cell_setting 'monoclinic'
loop_
_space_group_symop_operation_xyz
x,y,z
-x,y,-z
1/2+x,1/2+y,z
1/2-x,1/2+y,-z
loop_
_atom_site_type_symbol
_atom_site_label
_atom_site_fract_x
_atom_site_fract_y
_atom_site_fract_z
Si Si1 0.889363 0.440030 0.813323
Si Si2 0.500000 0.676140 0.500000
Si Si3 0.989321 0.096847 0.888150
Si Si4 0.704982 0.360763 0.574075
Si Si5 0.272777 0.076415 0.217251
O O1 0.990333 0.241802 0.810184
O O2 0.803376 0.240155 0.804596
O O3 0.020823 0.687888 0.704070
O O4 0.717775 0.579278 0.958784
O O5 0.346444 0.856305 0.553153
O O6 0.609530 0.512035 0.372236
O O7 0.116308 0.291295 0.861079
O O8 0.080666 0.790422 0.836104
O O9 0.698887 0.671313 0.546016
#
# Coordination Sequence:
#
# PCOD9130640 Si02
#       5
#     4   2   4   4   4
#     4  12  29  52  83 114 161 207 264 317 394 463
#     4  12  28  54  82 116 160 204 262 326 392 462
#     4  12  30  51  78 119 158 209 260 322 385 466
#     4  12  30  50  82 116 156 207 263 324 389 464
#     4  12  30  51  82 116 159 205 263 323 392 460
#
# _framework density 27.769832000000001
#
# number of rings (size 3 to 8) (size 9 to 14) (size 15 to 20)
#    0.000    0.000    4.444    2.000    6.222   12.444 
#    0.000    0.000    0.000    0.000    0.000    0.000 
#    0.000    0.000    0.000    0.000    0.000    0.000 
#
# Total GULP energy -50629.541658 kJ/mol
# GULP energy per Si atom -5625.504629 kJ/mol
# Density = 2.770663 g / cm^3
# Si number density = 27.769832 Si / 1000 Ang^3
#
#
#
# Elastic Constant Matrix: (Units=GPa)
#
#
# Indices 1 2 3 4 5 6 
#
# 1 142.2167 10.6776 15.4493 -0.0046 0.1779 0.0031
# 2 10.6776 138.0904 25.2194 -0.0165 -5.1483 0.0129
# 3 15.4493 25.2194 167.7205 -0.0039 -0.6459 0.0031
# 4 -0.0046 -0.0165 -0.0039 44.7639 0.0015 -10.1886
# 5 0.1779 -5.1483 -0.6459 0.0015 52.7017 -0.0014
# 6 0.0031 0.0129 0.0031 -10.1886 -0.0014 37.5062
#
#
#
# Elastic Compliance Matrix: (Units=1/GPa)
#
#
# Indices 1 2 3 4 5 6 
#
# 1 0.007129 -0.000446 -0.000590 0.000000 -0.000075 0.000000
# 2 -0.000446 0.007501 -0.001084 0.000002 0.000721 -0.000002
# 3 -0.000590 -0.001084 0.006180 0.000000 -0.000028 0.000000
# 4 0.000000 0.000002 0.000000 0.023812 0.000000 0.006468
# 5 -0.000075 0.000721 -0.000028 0.000000 0.019045 0.000000
# 6 0.000000 -0.000002 0.000000 0.006468 0.000000 0.028419
#
#
# Mechanical properties :
#
#
# Convention : Reuss Voigt Hill
#
# Bulk Modulus (GPa) = 60.35246 61.19115 60.77181
# Shear Modulus (GPa) = 49.09208 53.43978 51.26593
#
# Velocity S-wave (km/s) = 4.20911 4.39154 4.30129
# Velocity P-wave (km/s) = 6.73813 6.91354 6.82640
#
# Compressibility (1/GPa) = 0.01656933
#
# Stress axis : x y z
#
# Youngs Moduli (GPa) = 140.26809 133.31563 161.82474
#
# Poissons Ratio (x) = 0.05950 0.09546
# Poissons Ratio (y) = 0.06260 0.17542
# Poissons Ratio (z) = 0.08274 0.14451
#
# Static dielectric constant tensor:
#      x y z
#    x 2.149370 0.000000 0.025340 
#    y 0.000000 2.051110 0.000000 
#    z 0.025340 0.000000 2.168750 
# 
# From -- ./inp_files/53735.got.cif
#   From: 2010.05.17/outbox.cif.g08.bks.cpg/sg5_27_cif.got.tgz:53735.got - 2010.06.03 18:56:24.
