data_PCOD9130476
_publ_section_title
;
Structure prediction by ZEFSAII (Michael W. Deem and Ramdas Pophale) SiO2 
 PCOD9130476
Probable space group: C 2
;
_chemical_formula_sum "Si O2"
_cell_formula_units_Z 22
_cell_length_a 22.619756
_cell_length_b 5.232114
_cell_length_c 9.338987
_cell_angle_alpha 90.000000
_cell_angle_beta 115.173035
_cell_angle_gamma 90.000000
_cell_volume 1000.291508
_symmetry_space_group_name_H-M "C 2"
_symmetry_group_IT_number 5
_symmetry_cell_setting 'monoclinic'
loop_
_space_group_symop_operation_xyz
x,y,z
-x,y,-z
1/2+x,1/2+y,z
1/2-x,1/2+y,-z
loop_
_atom_site_type_symbol
_atom_site_label
_atom_site_fract_x
_atom_site_fract_y
_atom_site_fract_z
Si Si1 0.396854 0.953750 0.386915
Si Si2 0.500000 0.039663 0.000000
Si Si3 0.619646 0.414005 0.089532
Si Si4 0.437359 0.717706 0.715921
Si Si5 0.755135 0.383843 0.104389
Si Si6 0.051979 0.959491 0.717061
O O1 0.404113 0.895687 0.563322
O O2 0.322245 0.934387 0.257277
O O3 0.433940 0.714057 0.356216
O O4 0.427925 0.211305 0.353471
O O5 0.433801 0.199256 0.929235
O O6 0.495650 0.868820 0.854959
O O7 0.608586 0.624057 0.201715
O O8 0.694899 0.341912 0.151005
O O9 0.596872 0.476465 0.904580
O O10 0.476264 0.477239 0.687436
O O11 0.741313 0.634378 0.992991
#
# Coordination Sequence:
#
# PCOD9130476 Si02
#       6
#     4   2   4   4   4   4
#     4  12  28  49  75 113 153 195 259 316 375 451
#     4  12  24  46  74 104 158 194 258 312 394 444
#     4  12  25  45  78 104 149 203 255 305 390 452
#     4  12  28  45  76 116 152 202 255 327 379 457
#     4  12  26  50  78 106 148 207 258 310 380 466
#     4  12  24  48  77 108 149 199 246 314 386 451
#
# _framework density 21.993590000000001
#
# number of rings (size 3 to 8) (size 9 to 14) (size 15 to 20)
#    0.000    0.000    7.273    1.636    5.091    2.909 
#    3.273    0.000    0.000    0.000    0.000    0.000 
#    0.000    0.000    0.000    0.000    0.000    0.000 
#
# Total GULP energy -61528.519016 kJ/mol
# GULP energy per Si atom -5593.501729 kJ/mol
# Density = 2.194353 g / cm^3
# Si number density = 21.993590 Si / 1000 Ang^3
#
#
#
# Elastic Constant Matrix: (Units=GPa)
#
#
# Indices 1 2 3 4 5 6 
#
# 1 143.9483 57.4817 54.3761 0.0000 7.3530 0.0000
# 2 57.4817 143.8878 53.0849 0.0000 -11.8259 0.0000
# 3 54.3761 53.0849 170.3232 0.0000 -2.7296 0.0000
# 4 0.0000 0.0000 0.0000 29.9532 0.0000 7.3931
# 5 7.3530 -11.8259 -2.7296 0.0000 37.0487 0.0000
# 6 0.0000 0.0000 0.0000 7.3931 0.0000 -17.4227
#
#
#
# Elastic Compliance Matrix: (Units=1/GPa)
#
#
# Indices 1 2 3 4 5 6 
#
# 1 0.009101 -0.003152 -0.001971 0.000000 -0.002957 0.000000
# 2 -0.003152 0.009150 -0.001791 0.000000 0.003414 0.000000
# 3 -0.001971 -0.001791 0.007064 0.000000 0.000340 0.000000
# 4 0.000000 0.000000 0.000000 0.030220 0.000000 0.012824
# 5 -0.002957 0.003414 0.000340 0.000000 0.028693 0.000000
# 6 0.000000 0.000000 0.000000 0.012824 0.000000 -0.051955
#
#
# Mechanical properties :
#
#
# Convention : Reuss Voigt Hill
#
# Bulk Modulus (GPa) = 87.04306 87.56052 87.30179
# Shear Modulus (GPa) = 100.13940 29.46359 64.80150
#
# Velocity S-wave (km/s) = 6.75500 3.66409 5.43395
# Velocity P-wave (km/s) = 10.02509 7.60256 8.89667
#
# Compressibility (1/GPa) = 0.01148857
#
# Stress axis : x y z
#
# Youngs Moduli (GPa) = 109.87828 109.28558 141.56402
#
# Poissons Ratio (x) = 0.34445 0.27896
# Poissons Ratio (y) = 0.34632 0.25354
# Poissons Ratio (z) = 0.21652 0.19573
#
# Static dielectric constant tensor:
#      x y z
#    x 1.842080 0.000000 -0.061020 
#    y 0.000000 1.855560 0.000000 
#    z -0.061020 0.000000 1.857580 
# 
# From -- ./inp_files/28312.got.cif
#   From: 2010.05.17/outbox.cif.g08.bks.cpg/sg5_15_cif.got.tgz:28312.got - 2010.06.03 18:56:24.
