data_PCOD9130398
_publ_section_title
;
Structure prediction by ZEFSAII (Michael W. Deem and Ramdas Pophale) SiO2 
 PCOD9130398
Probable space group: C 2
;
_chemical_formula_sum "Si O2"
_cell_formula_units_Z 28
_cell_length_a 27.330961
_cell_length_b 7.404035
_cell_length_c 9.845895
_cell_angle_alpha 90.000000
_cell_angle_beta 42.424261
_cell_angle_gamma 90.000000
_cell_volume 1344.109245
_symmetry_space_group_name_H-M "C 2"
_symmetry_group_IT_number 5
_symmetry_cell_setting 'monoclinic'
loop_
_space_group_symop_operation_xyz
x,y,z
-x,y,-z
1/2+x,1/2+y,z
1/2-x,1/2+y,-z
loop_
_atom_site_type_symbol
_atom_site_label
_atom_site_fract_x
_atom_site_fract_y
_atom_site_fract_z
Si Si1 0.192378 0.300260 0.999336
Si Si2 0.920346 0.010185 0.419373
Si Si3 0.920149 0.010185 0.828185
Si Si4 0.873034 0.010185 0.237347
Si Si5 0.192379 0.720111 0.999335
Si Si6 0.814761 0.298197 0.544130
Si Si7 0.685239 0.222175 0.455868
O O1 0.249999 0.260185 0.000001
O O2 0.236852 0.248843 0.772182
O O3 0.120513 0.180985 0.152872
O O4 0.175235 0.510186 0.034685
O O5 0.870082 0.188713 0.531830
O O6 0.993231 0.010184 0.354038
O O7 0.935931 0.010184 0.224273
O O8 0.870081 0.831659 0.531833
O O9 0.879486 0.839388 0.847130
O O10 0.899122 0.010185 0.031715
O O11 0.826882 0.835239 0.380974
O O12 0.669544 0.010187 0.500692
O O13 0.236852 0.771526 0.772181
O O14 0.826883 0.185134 0.380971
#
# Coordination Sequence:
#
# PCOD9130398 Si02
#       7
#     4   4   4   4   4   4   4
#     4  12  23  41  61  86 118 159 202 248 294 347
#     4   8  21  39  59  89 127 150 198 237 305 349
#     4  12  23  38  65  90 119 158 201 247 293 352
#     4   8  21  37  62  86 130 148 199 237 305 346
#     4  12  23  41  61  86 118 159 202 248 294 347
#     4   9  18  39  61  83 125 159 187 243 300 346
#     4   9  18  39  61  83 125 159 187 243 300 346
#
# _framework density 20.831641000000001
#
# number of rings (size 3 to 8) (size 9 to 14) (size 15 to 20)
#    1.714    0.000    5.714    0.429    0.000    3.429 
#    0.000    4.286    0.000    3.429    0.000    0.000 
#    0.000    0.000    0.000    0.000    0.000    0.000 
#
# Total GULP energy -78034.946790 kJ/mol
# GULP energy per Si atom -5573.924771 kJ/mol
# Density = 2.078423 g / cm^3
# Si number density = 20.831641 Si / 1000 Ang^3
#
#
#
# Elastic Constant Matrix: (Units=GPa)
#
#
# Indices 1 2 3 4 5 6 
#
# 1 111.6197 27.0819 19.3393 0.0000 -12.7616 0.0000
# 2 27.0819 223.0484 26.8613 0.0000 -25.2787 0.0000
# 3 19.3393 26.8613 52.9265 0.0000 -20.4031 0.0000
# 4 0.0000 0.0000 0.0000 17.6814 0.0000 -6.5481
# 5 -12.7616 -25.2787 -20.4031 0.0000 49.2198 0.0000
# 6 0.0000 0.0000 0.0000 -6.5481 0.0000 23.3905
#
#
#
# Elastic Compliance Matrix: (Units=1/GPa)
#
#
# Indices 1 2 3 4 5 6 
#
# 1 0.009735 -0.000733 -0.002806 0.000000 0.000985 0.000000
# 2 -0.000733 0.004956 -0.001595 0.000000 0.001695 0.000000
# 3 -0.002806 -0.001595 0.023962 0.000000 0.008386 0.000000
# 4 0.000000 0.000000 0.000000 0.063099 0.000000 0.017664
# 5 0.000985 0.001695 0.008386 0.000000 0.024919 0.000000
# 6 0.000000 0.000000 0.000000 0.017664 0.000000 0.047697
#
#
# Mechanical properties :
#
#
# Convention : Reuss Voigt Hill
#
# Bulk Modulus (GPa) = 35.22673 59.35104 47.28889
# Shear Modulus (GPa) = 25.76032 39.01248 32.38640
#
# Velocity S-wave (km/s) = 3.52034 4.33222 3.94721
# Velocity P-wave (km/s) = 5.78538 7.31962 6.59725
#
# Compressibility (1/GPa) = 0.02838754
#
# Stress axis : x y z
#
# Youngs Moduli (GPa) = 102.71709 201.76120 41.73346
#
# Poissons Ratio (x) = 0.14780 0.11710
# Poissons Ratio (y) = 0.07524 0.06654
# Poissons Ratio (z) = 0.28821 0.32171
#
# Static dielectric constant tensor:
#      x y z
#    x 1.894020 0.000000 -0.234800 
#    y 0.000000 1.733330 0.000000 
#    z -0.234800 0.000000 2.849750 
# 
# From -- ./inp_files/47168.got.cif
#   From: 2010.05.17/outbox.cif.g08.bks.cpg/sg5_24_cif.got.tgz:47168.got - 2010.06.03 18:56:24.
