data_PCOD9130336
_publ_section_title
;
Structure prediction by ZEFSAII (Michael W. Deem and Ramdas Pophale) SiO2 
 PCOD9130336
Probable space group: C 2
;
_chemical_formula_sum "Si O2"
_cell_formula_units_Z 20
_cell_length_a 14.393656
_cell_length_b 4.941274
_cell_length_c 9.619911
_cell_angle_alpha 90.000000
_cell_angle_beta 76.307657
_cell_angle_gamma 90.000000
_cell_volume 664.752558
_symmetry_space_group_name_H-M "C 2"
_symmetry_group_IT_number 5
_symmetry_cell_setting 'monoclinic'
loop_
_space_group_symop_operation_xyz
x,y,z
-x,y,-z
1/2+x,1/2+y,z
1/2-x,1/2+y,-z
loop_
_atom_site_type_symbol
_atom_site_label
_atom_site_fract_x
_atom_site_fract_y
_atom_site_fract_z
Si Si1 0.030064 0.540910 0.742013
Si Si2 0.500000 0.334366 0.000000
Si Si3 0.500000 0.457162 0.500000
Si Si4 0.644495 0.724857 0.082551
Si Si5 0.789151 0.335463 0.252550
Si Si6 0.690708 0.781686 0.357718
O O1 0.100773 0.283656 0.723711
O O2 0.922935 0.459694 0.829918
O O3 0.022513 0.747085 0.617833
O O4 0.068494 0.675622 0.871393
O O5 0.566862 0.504058 0.074383
O O6 0.587043 0.664104 0.432923
O O7 0.706463 0.645047 0.194601
O O8 0.697515 0.764229 0.919437
O O9 0.770436 0.574046 0.381049
O O10 0.718663 0.089875 0.327811
#
# Coordination Sequence:
#
# PCOD9130336 Si02
#       6
#     4   2   2   4   4   4
#     4  12  26  50  88 126 179 225 294 364 444 539
#     4  12  20  46  84 124 170 218 296 352 428 514
#     4  12  30  58  82 130 180 248 296 348 456 548
#     4  12  24  46  83 127 166 224 287 370 435 520
#     4  12  26  50  83 129 165 221 294 373 437 501
#     4  12  29  49  82 120 177 226 289 368 432 529
#
# _framework density 30.086380999999999
#
# number of rings (size 3 to 8) (size 9 to 14) (size 15 to 20)
#    0.000    0.000    6.000    3.600    0.000    3.200 
#    0.000    8.000    0.000    2.400    0.000    0.000 
#    0.000    0.000    0.000    0.000    0.000    0.000 
#
# Total GULP energy -55836.118219 kJ/mol
# GULP energy per Si atom -5583.611822 kJ/mol
# Density = 3.001790 g / cm^3
# Si number density = 30.086381 Si / 1000 Ang^3
#
#
#
# Elastic Constant Matrix: (Units=GPa)
#
#
# Indices 1 2 3 4 5 6 
#
# 1 578.5709 507.3598 308.9854 0.0000 135.7682 0.0000
# 2 507.3598 663.7698 331.4918 0.0000 169.2953 0.0000
# 3 308.9854 331.4918 399.5798 0.0000 93.2585 0.0000
# 4 0.0000 0.0000 0.0000 49.6881 0.0000 -29.7826
# 5 135.7682 169.2953 93.2585 0.0000 109.4433 0.0000
# 6 0.0000 0.0000 0.0000 -29.7826 0.0000 45.2379
#
#
#
# Elastic Compliance Matrix: (Units=1/GPa)
#
#
# Indices 1 2 3 4 5 6 
#
# 1 0.005641 -0.003556 -0.001327 0.000000 -0.000367 0.000000
# 2 -0.003556 0.005661 -0.001164 0.000000 -0.003354 0.000000
# 3 -0.001327 -0.001164 0.004606 0.000000 -0.000478 0.000000
# 4 0.000000 0.000000 0.000000 0.033244 0.000000 0.021886
# 5 -0.000367 -0.003354 -0.000478 0.000000 0.015189 0.000000
# 6 0.000000 0.000000 0.000000 0.021886 0.000000 0.036514
#
#
# Mechanical properties :
#
#
# Convention : Reuss Voigt Hill
#
# Bulk Modulus (GPa) = 262.10039 437.51052 349.80546
# Shear Modulus (GPa) = 43.77499 73.81275 58.79387
#
# Velocity S-wave (km/s) = 3.81855 4.95851 4.42539
# Velocity P-wave (km/s) = 10.33184 13.36100 11.94285
#
# Compressibility (1/GPa) = 0.00381533
#
# Stress axis : x y z
#
# Youngs Moduli (GPa) = 177.27287 176.63960 217.11009
#
# Poissons Ratio (x) = 0.62805 0.28803
# Poissons Ratio (y) = 0.63030 0.25278
# Poissons Ratio (z) = 0.23518 0.20566
#
# Static dielectric constant tensor:
#      x y z
#    x 2.492290 0.000000 0.139970 
#    y 0.000000 -0.012170 0.000000 
#    z 0.139970 0.000000 2.523640 
# 
# From -- ./inp_files/26001.got.cif
#   From: 2010.05.17/outbox.cif.g08.bks.cpg/sg5_14_cif.got.tgz:26001.got - 2010.06.03 18:56:24.
