data_PCOD9130685
_publ_section_title
;
Structure prediction by ZEFSAII (Michael W. Deem and Ramdas Pophale) SiO2 
 PCOD9130685
Probable space group: C 2
;
_chemical_formula_sum "Si O2"
_cell_formula_units_Z 16
_cell_length_a 30.000000
_cell_length_b 12.000000
_cell_length_c 9.000000
_cell_angle_alpha 90.000000
_cell_angle_beta 150.000000
_cell_angle_gamma 90.000000
_cell_volume 1620.000000
_symmetry_space_group_name_H-M "C 2"
_symmetry_group_IT_number 5
_symmetry_cell_setting 'monoclinic'
loop_
_space_group_symop_operation_xyz
x,y,z
-x,y,-z
1/2+x,1/2+y,z
1/2-x,1/2+y,-z
loop_
_atom_site_type_symbol
_atom_site_label
_atom_site_fract_x
_atom_site_fract_y
_atom_site_fract_z
Si Si1 0.766131 0.030360 0.812718
Si Si2 0.064572 0.566324 0.324905
Si Si3 0.779183 0.763471 0.780560
Si Si4 0.175555 0.135738 0.710068
Si Si5 0.024123 0.318831 0.248457
Si Si6 0.374494 0.664158 0.874044
Si Si7 0.020704 0.760655 0.730744
Si Si8 0.980002 0.975926 0.789047
O O1 0.662744 0.060365 0.537775
O O2 0.816591 0.098347 0.828773
O O3 0.774201 0.895601 0.810675
O O4 0.807058 0.079861 0.081722
O O5 0.045421 0.446549 0.345628
O O6 0.036173 0.669681 0.344244
O O7 0.000000 0.572609 0.000000
O O8 0.763292 0.681783 0.877882
O O9 0.695792 0.721167 0.440914
O O10 0.871238 0.748658 0.954550
O O11 0.110456 0.242784 0.526976
O O12 0.114210 0.038408 0.461837
O O13 0.000000 0.310893 0.000000
O O14 0.942264 0.266054 0.104889
O O15 0.445424 0.571945 0.019040
O O16 0.000000 0.746544 0.500000
O O17 0.989552 0.884218 0.689841
O O18 0.000000 0.913528 0.000000
#
# Coordination Sequence:
#
# PCOD9130685 Si02
#       8
#     4   4   4   4   4   4   4   4
#     4  12  25  41  68 105 135 173 229 278 343 390
#     4  11  23  46  67  94 136 184 220 274 340 411
#     4  12  22  45  67  97 137 175 227 279 330 406
#     4  11  22  41  70  97 136 171 220 281 329 407
#     4  10  19  42  74  96 129 179 225 272 340 393
#     4  11  22  41  69 103 125 169 229 280 322 406
#     4  12  26  43  65  98 144 176 216 284 347 396
#     4  11  22  42  69 103 129 178 225 270 342 400
#
# _framework density 9.8765429999999999
#
# number of rings (size 3 to 8) (size 9 to 14) (size 15 to 20)
#    0.000    0.750    5.000    4.125    0.000    1.500 
#    2.250    2.500    0.000    0.000    0.000    0.000 
#    0.000    0.000    0.000    0.000    0.000    0.000 
#
# Total GULP energy -89220.847704 kJ/mol
# GULP energy per Si atom -5576.302981 kJ/mol
# Density = 0.985406 g / cm^3
# Si number density = 9.876543 Si / 1000 Ang^3
#
#
#
# Elastic Constant Matrix: (Units=GPa)
#
#
# Indices 1 2 3 4 5 6 
#
# 1 82.9209 31.4987 5.5813 0.0000 19.6620 0.0000
# 2 31.4987 93.5839 4.8838 0.0000 9.0751 0.0000
# 3 5.5813 4.8838 47.5319 0.0000 8.9315 0.0000
# 4 0.0000 0.0000 0.0000 3.4383 0.0000 1.6483
# 5 19.6620 9.0751 8.9315 0.0000 37.7451 0.0000
# 6 0.0000 0.0000 0.0000 1.6483 0.0000 43.2574
#
#
#
# Elastic Compliance Matrix: (Units=1/GPa)
#
#
# Indices 1 2 3 4 5 6 
#
# 1 0.015423 -0.004516 -0.000043 0.000000 -0.006938 0.000000
# 2 -0.004516 0.012283 -0.000648 0.000000 -0.000447 0.000000
# 3 -0.000043 -0.000648 0.022057 0.000000 -0.005041 0.000000
# 4 0.000000 0.000000 0.000000 0.296255 0.000000 -0.011289
# 5 -0.006938 -0.000447 -0.005041 0.000000 0.031408 0.000000
# 6 0.000000 0.000000 0.000000 -0.011289 0.000000 0.023548
#
#
# Mechanical properties :
#
#
# Convention : Reuss Voigt Hill
#
# Bulk Modulus (GPa) = 25.41341 34.21826 29.81584
# Shear Modulus (GPa) = 11.77842 29.02636 20.40239
#
# Velocity S-wave (km/s) = 2.44454 3.83751 3.21732
# Velocity P-wave (km/s) = 4.56740 6.08243 5.37853
#
# Compressibility (1/GPa) = 0.03934931
#
# Stress axis : x y z
#
# Youngs Moduli (GPa) = 64.83705 81.41440 45.33625
#
# Poissons Ratio (x) = 0.36768 0.00196
# Poissons Ratio (y) = 0.29281 0.02936
# Poissons Ratio (z) = 0.00281 0.05273
#
# Static dielectric constant tensor:
#      x y z
#    x 1.714930 0.000000 -0.007080 
#    y 0.000000 1.672010 0.000000 
#    z -0.007080 0.000000 1.815980 
# 
# From -- ./inp_files/32614.got.cif
#   From: 2010.05.17/outbox.ucp.g08.bks.cvg/sg5_17_cif.got.tgz:32614.got - 2010.06.11 12:53:14.
