data_PCOD9130947
_publ_section_title
;
Structure prediction by ZEFSAII (Michael W. Deem and Ramdas Pophale) SiO2 
 PCOD9130947
Probable space group: P M
;
_chemical_formula_sum "Si O2"
_cell_formula_units_Z 16
_cell_length_a 11.591185
_cell_length_b 7.776999
_cell_length_c 9.568685
_cell_angle_alpha 90.000000
_cell_angle_beta 64.535413
_cell_angle_gamma 90.000000
_cell_volume 778.768394
_symmetry_space_group_name_H-M "P M"
_symmetry_group_IT_number 6
_symmetry_cell_setting 'monoclinic'
loop_
_space_group_symop_operation_xyz
x,y,z
x,-y,z
loop_
_atom_site_type_symbol
_atom_site_label
_atom_site_fract_x
_atom_site_fract_y
_atom_site_fract_z
Si Si1 0.889500 0.293117 0.198950
Si Si2 0.378123 0.297750 0.267509
Si Si3 0.598412 0.795937 0.673216
Si Si4 0.887310 0.206290 0.520222
Si Si5 0.128924 0.203620 0.565784
Si Si6 0.126078 0.708970 0.891671
Si Si7 0.353339 0.701393 0.970388
Si Si8 0.600080 0.708773 0.351758
O O1 0.887587 0.500000 0.192251
O O2 0.922244 0.246130 0.341543
O O3 0.744936 0.231953 0.246370
O O4 0.996236 0.232143 0.035473
O O5 0.407111 0.500000 0.232945
O O6 0.250476 0.282503 0.424880
O O7 0.496760 0.226199 0.294656
O O8 0.357268 0.222328 0.124005
O O9 0.742991 0.728411 0.621157
O O10 0.491009 0.716112 0.826794
O O11 0.567232 0.763055 0.526691
O O12 0.597466 0.000000 0.697934
O O13 0.996917 0.270727 0.566703
O O14 0.880593 0.000000 0.537431
O O15 0.133691 0.234206 0.728151
O O16 0.134416 0.000000 0.536554
O O17 0.127290 0.500000 0.889556
O O18 0.245723 0.772221 0.921923
O O19 0.320152 0.500000 0.003359
O O20 0.599317 0.500000 0.351154
#
# Coordination Sequence:
#
# PCOD9130947 Si02
#       8
#     2   2   2   2   2   2   2   2
#     4   9  18  34  57  82 105 135 175 213 254 309
#     4  10  21  37  56  78 106 138 172 215 264 308
#     4  10  20  35  55  78 106 140 175 211 256 310
#     4   9  20  37  54  76 107 139 172 215 262 305
#     4  11  23  37  54  77 105 138 177 217 259 310
#     4  10  21  36  54  78 108 138 172 216 261 306
#     4  10  21  36  54  78 107 138 173 215 261 307
#     4   9  18  34  56  81 108 136 170 214 259 305
#
# _framework density 20.545261
#
# number of rings (size 3 to 8) (size 9 to 14) (size 15 to 20)
#    0.000    2.250    0.000    2.250    0.000    8.500 
#    0.000    1.250    0.000    0.000    0.000    0.000 
#    0.000    0.000    0.000    0.000    0.000    0.000 
#
# Total GULP energy -89350.898857 kJ/mol
# GULP energy per Si atom -5584.431179 kJ/mol
# Density = 2.049850 g / cm^3
# Si number density = 20.545261 Si / 1000 Ang^3
#
#
#
# Elastic Constant Matrix: (Units=GPa)
#
#
# Indices 1 2 3 4 5 6 
#
# 1 165.0065 -5.7345 85.7387 0.0000 30.7800 0.0000
# 2 -5.7345 23.4492 -23.1624 0.0000 4.0397 0.0000
# 3 85.7387 -23.1624 134.8325 0.0000 6.3484 0.0000
# 4 0.0000 0.0000 0.0000 68.0102 0.0000 2.2921
# 5 30.7800 4.0397 6.3484 0.0000 26.6014 0.0000
# 6 0.0000 0.0000 0.0000 2.2921 0.0000 18.7027
#
#
#
# Elastic Compliance Matrix: (Units=1/GPa)
#
#
# Indices 1 2 3 4 5 6 
#
# 1 0.012118 -0.002479 -0.007574 0.000000 -0.011837 0.000000
# 2 -0.002479 0.054650 0.011348 0.000000 -0.008139 0.000000
# 3 -0.007574 0.011348 0.014008 0.000000 0.003698 0.000000
# 4 0.000000 0.000000 0.000000 0.014765 0.000000 -0.001810
# 5 -0.011837 -0.008139 0.003698 0.000000 0.051643 0.000000
# 6 0.000000 0.000000 0.000000 -0.001810 0.000000 0.053690
#
#
# Mechanical properties :
#
#
# Convention : Reuss Voigt Hill
#
# Bulk Modulus (GPa) = 11.99533 48.55243 30.27388
# Shear Modulus (GPa) = 22.11677 40.42595 31.27136
#
# Velocity S-wave (km/s) = 3.28455 4.44064 3.90561
# Velocity P-wave (km/s) = 4.49839 7.06934 5.92499
#
# Compressibility (1/GPa) = 0.08336576
#
# Stress axis : x y z
#
# Youngs Moduli (GPa) = 82.52223 18.29818 71.38670
#
# Poissons Ratio (x) = 0.04536 0.54069
# Poissons Ratio (y) = 0.20455 -0.81007
# Poissons Ratio (z) = 0.62504 -0.20764
#
# Static dielectric constant tensor:
#      x y z
#    x 1.747560 0.000000 -0.000800 
#    y 0.000000 1.754950 0.000000 
#    z -0.000800 0.000000 1.676980 
# 
# From -- ./inp_files/3472.got.cif
#   From: 2010.05.17/outbox.cif.g08.bks.cpg/sg6_2_cif.got.tgz:3472.got - 2010.06.03 19:42:10.
