data_PCOD9130381
_publ_section_title
;
Structure prediction by ZEFSAII (Michael W. Deem and Ramdas Pophale) SiO2 
 PCOD9130381
Probable space group: C 2
;
_chemical_formula_sum "Si O2"
_cell_formula_units_Z 26
_cell_length_a 24.177413
_cell_length_b 5.320694
_cell_length_c 7.567951
_cell_angle_alpha 90.000000
_cell_angle_beta 84.255857
_cell_angle_gamma 90.000000
_cell_volume 968.657468
_symmetry_space_group_name_H-M "C 2"
_symmetry_group_IT_number 5
_symmetry_cell_setting 'monoclinic'
loop_
_space_group_symop_operation_xyz
x,y,z
-x,y,-z
1/2+x,1/2+y,z
1/2-x,1/2+y,-z
loop_
_atom_site_type_symbol
_atom_site_label
_atom_site_fract_x
_atom_site_fract_y
_atom_site_fract_z
Si Si1 0.780804 0.686270 0.931944
Si Si2 0.500000 0.004867 0.500000
Si Si3 0.113507 0.489876 0.933948
Si Si4 0.259743 0.459111 0.403762
Si Si5 0.624908 0.635879 0.632564
Si Si6 0.528855 0.319341 0.777596
Si Si7 0.924248 0.144860 0.741445
O O1 0.777753 0.589011 0.733115
O O2 0.746073 0.461000 0.038988
O O3 0.842781 0.674599 0.986190
O O4 0.541727 0.181881 0.588552
O O5 0.469136 0.845338 0.654971
O O6 0.138236 0.388973 0.738822
O O7 0.055747 0.629473 0.908454
O O8 0.105636 0.267409 0.080924
O O9 0.240778 0.178674 0.448729
O O10 0.324631 0.454310 0.335199
O O11 0.568338 0.558944 0.750481
O O12 0.613305 0.623981 0.425175
O O13 0.465220 0.415201 0.785360
#
# Coordination Sequence:
#
# PCOD9130381 Si02
#       7
#     4   2   4   4   4   4   4
#     4  12  26  53  83 120 168 211 272 352 413 489
#     4  12  22  46  74 106 154 204 252 334 382 470
#     4  12  29  47  84 118 159 218 272 330 421 487
#     4  12  28  50  83 117 157 212 270 337 415 489
#     4  12  25  50  79 111 163 207 268 332 406 481
#     4  12  25  50  79 109 161 213 261 336 400 482
#     4  12  26  50  75 118 159 205 271 324 398 492
#
# _framework density 26.841273999999999
#
# number of rings (size 3 to 8) (size 9 to 14) (size 15 to 20)
#    0.000    0.000    6.154    2.769    2.154    6.154 
#    0.000    0.000    0.000    0.000    0.000    0.000 
#    0.000    0.000    0.000    0.000    0.000    0.000 
#
# Total GULP energy -72724.371285 kJ/mol
# GULP energy per Si atom -5594.182407 kJ/mol
# Density = 2.678018 g / cm^3
# Si number density = 26.841274 Si / 1000 Ang^3
#
#
#
# Elastic Constant Matrix: (Units=GPa)
#
#
# Indices 1 2 3 4 5 6 
#
# 1 104.1587 16.1963 39.0589 0.0000 29.4294 0.0000
# 2 16.1963 94.7732 40.7789 0.0000 -7.5617 0.0000
# 3 39.0589 40.7789 157.6395 0.0000 22.4189 0.0000
# 4 0.0000 0.0000 0.0000 50.0499 0.0000 -15.6888
# 5 29.4294 -7.5617 22.4189 0.0000 36.6862 0.0000
# 6 0.0000 0.0000 0.0000 -15.6888 0.0000 33.2046
#
#
#
# Elastic Compliance Matrix: (Units=1/GPa)
#
#
# Indices 1 2 3 4 5 6 
#
# 1 0.013445 -0.002661 -0.001129 0.000000 -0.010644 0.000000
# 2 -0.002661 0.013202 -0.003774 0.000000 0.007162 0.000000
# 3 -0.001129 -0.003774 0.008303 0.000000 -0.004946 0.000000
# 4 0.000000 0.000000 0.000000 0.023454 0.000000 0.011082
# 5 -0.010644 0.007162 -0.004946 0.000000 0.040296 0.000000
# 6 0.000000 0.000000 0.000000 0.011082 0.000000 0.035352
#
#
# Mechanical properties :
#
#
# Convention : Reuss Voigt Hill
#
# Bulk Modulus (GPa) = 50.45171 60.95996 55.70584
# Shear Modulus (GPa) = 32.09471 41.35728 36.72600
#
# Velocity S-wave (km/s) = 3.46167 3.92957 3.70302
# Velocity P-wave (km/s) = 5.90040 6.58402 6.25156
#
# Compressibility (1/GPa) = 0.01982093
#
# Stress axis : x y z
#
# Youngs Moduli (GPa) = 74.37446 75.74740 120.43590
#
# Poissons Ratio (x) = 0.20158 0.13600
# Poissons Ratio (y) = 0.19792 0.45457
# Poissons Ratio (z) = 0.08399 0.28590
#
# Static dielectric constant tensor:
#      x y z
#    x 2.307310 0.000000 -0.044520 
#    y 0.000000 2.112420 0.000000 
#    z -0.044520 0.000000 2.159760 
# 
# From -- ./inp_files/32080.got.cif
#   From: 2010.05.17/outbox.cif.g08.bks.cpg/sg5_17_cif.got.tgz:32080.got - 2010.06.03 18:56:24.
