data_PCOD9130345
_publ_section_title
;
Structure prediction by ZEFSAII (Michael W. Deem and Ramdas Pophale) SiO2 
 PCOD9130345
Probable space group: C 2
;
_chemical_formula_sum "Si O2"
_cell_formula_units_Z 14
_cell_length_a 8.572743
_cell_length_b 12.661247
_cell_length_c 9.615765
_cell_angle_alpha 90.000000
_cell_angle_beta 132.697278
_cell_angle_gamma 90.000000
_cell_volume 767.071836
_symmetry_space_group_name_H-M "C 2"
_symmetry_group_IT_number 5
_symmetry_cell_setting 'monoclinic'
loop_
_space_group_symop_operation_xyz
x,y,z
-x,y,-z
1/2+x,1/2+y,z
1/2-x,1/2+y,-z
loop_
_atom_site_type_symbol
_atom_site_label
_atom_site_fract_x
_atom_site_fract_y
_atom_site_fract_z
Si Si1 0.000000 0.368420 0.500000
Si Si2 0.223141 0.352431 0.109694
Si Si3 0.081685 0.000857 0.205712
Si Si4 0.073132 0.238455 0.269557
O O1 0.805634 0.441885 0.336301
O O2 0.925800 0.295921 0.583136
O O3 0.414301 0.424707 0.181046
O O4 0.245312 0.287018 0.265686
O O5 0.000000 0.415851 0.000000
O O6 0.147682 0.271276 0.943061
O O7 0.095803 0.113516 0.289436
O O8 0.000000 0.020405 0.000000
#
# Coordination Sequence:
#
# PCOD9130345 Si02
#       4
#     2   4   4   4
#     4  12  26  38  64 104 116 162 218 254 300 378
#     4   8  19  42  62  86 124 161 203 249 304 370
#     4  12  21  43  68  86 131 168 199 258 316 365
#     4   9  22  42  59  98 122 160 210 250 316 355
#
# _framework density 18.251223
#
# number of rings (size 3 to 8) (size 9 to 14) (size 15 to 20)
#    1.714    0.000    5.714    0.000    0.000    5.714 
#    5.143    0.000    0.000    0.000    0.000    0.000 
#    0.000    0.000    0.000    0.000    0.000    0.000 
#
# Total GULP energy -38971.807515 kJ/mol
# GULP energy per Si atom -5567.401074 kJ/mol
# Density = 1.820968 g / cm^3
# Si number density = 18.251223 Si / 1000 Ang^3
#
#
#
# Elastic Constant Matrix: (Units=GPa)
#
#
# Indices 1 2 3 4 5 6 
#
# 1 27.5786 16.0409 -4.4922 0.0000 13.6687 0.0000
# 2 16.0409 107.1985 16.9851 0.0000 -1.4718 0.0000
# 3 -4.4922 16.9851 66.2014 0.0000 -12.6038 0.0000
# 4 0.0000 0.0000 0.0000 3.8876 0.0000 -10.5221
# 5 13.6687 -1.4718 -12.6038 0.0000 31.1017 0.0000
# 6 0.0000 0.0000 0.0000 -10.5221 0.0000 21.7218
#
#
#
# Elastic Compliance Matrix: (Units=1/GPa)
#
#
# Indices 1 2 3 4 5 6 
#
# 1 0.052817 -0.008435 0.001358 0.000000 -0.023061 0.000000
# 2 -0.008435 0.011081 -0.002828 0.000000 0.003085 0.000000
# 3 0.001358 -0.002828 0.017104 0.000000 0.006201 0.000000
# 4 0.000000 0.000000 0.000000 -0.826916 0.000000 -0.400561
# 5 -0.023061 0.003085 0.006201 0.000000 0.044947 0.000000
# 6 0.000000 0.000000 0.000000 -0.400561 0.000000 -0.147996
#
#
# Mechanical properties :
#
#
# Convention : Reuss Voigt Hill
#
# Bulk Modulus (GPa) = 16.34227 28.67179 22.50703
# Shear Modulus (GPa) = -6.18234 22.83852 8.32809
#
# Velocity S-wave (km/s) = -1.84247 3.54127 2.13844
# Velocity P-wave (km/s) = 2.10884 5.69775 4.29602
#
# Compressibility (1/GPa) = 0.06119101
#
# Stress axis : x y z
#
# Youngs Moduli (GPa) = 18.93316 90.24335 58.46710
#
# Poissons Ratio (x) = 0.76122 -0.07938
# Poissons Ratio (y) = 0.15970 0.16535
# Poissons Ratio (z) = -0.02570 0.25521
#
# Static dielectric constant tensor:
#      x y z
#    x 1.625110 0.000000 0.004050 
#    y 0.000000 1.585190 0.000000 
#    z 0.004050 0.000000 1.653010 
# 
# From -- ./inp_files/1556.got.cif
#   From: 2010.05.17/outbox.cif.g08.bks.cpg/sg5_1_cif.got.tgz:1556.got - 2010.06.03 18:56:24.
