data_PCOD9130191
_publ_section_title
;
Structure prediction by ZEFSAII (Michael W. Deem and Ramdas Pophale) SiO2 
 PCOD9130191
Probable space group: C 2
;
_chemical_formula_sum "Si O2"
_cell_formula_units_Z 24
_cell_length_a 12.564899
_cell_length_b 6.931992
_cell_length_c 13.465598
_cell_angle_alpha 90.000000
_cell_angle_beta 42.604052
_cell_angle_gamma 90.000000
_cell_volume 793.935451
_symmetry_space_group_name_H-M "C 2"
_symmetry_group_IT_number 5
_symmetry_cell_setting 'monoclinic'
loop_
_space_group_symop_operation_xyz
x,y,z
-x,y,-z
1/2+x,1/2+y,z
1/2-x,1/2+y,-z
loop_
_atom_site_type_symbol
_atom_site_label
_atom_site_fract_x
_atom_site_fract_y
_atom_site_fract_z
Si Si1 0.125082 0.504540 0.536905
Si Si2 0.043691 0.886179 0.139630
Si Si3 0.141660 0.346491 0.174072
Si Si4 0.540653 0.447060 0.588789
Si Si5 0.290978 0.621305 0.224073
Si Si6 0.920498 0.512308 0.160147
O O1 0.468617 0.555060 0.125345
O O2 0.002917 0.329244 0.642693
O O3 0.276423 0.494110 0.506568
O O4 0.193983 0.526236 0.380371
O O5 0.059723 0.988744 0.237903
O O6 0.199260 0.776844 0.992851
O O7 0.906847 0.723236 0.217368
O O8 0.958486 0.712729 0.399120
O O9 0.230868 0.523729 0.167020
O O10 0.033166 0.411455 0.159960
O O11 0.500000 0.494397 0.500000
O O12 0.286027 0.853324 0.232985
O O13 0.000000 0.541849 0.000000
#
# Coordination Sequence:
#
# PCOD9130191 Si02
#       6
#     4   4   4   4   4   4
#     4  11  25  47  82 115 160 210 277 339 416 493
#     4  11  27  50  75 118 165 214 283 337 413 511
#     4  12  25  46  79 117 161 213 273 343 420 483
#     4  11  25  52  80 115 161 214 273 341 416 504
#     4  11  26  51  80 111 163 220 271 350 410 491
#     4  12  27  46  77 118 158 213 277 336 416 500
#
# _framework density 30.229158999999999
#
# number of rings (size 3 to 8) (size 9 to 14) (size 15 to 20)
#    0.000    0.667    1.667    5.000    4.667    1.333 
#    0.000    9.167    0.000    0.000    0.000    0.000 
#    0.000    0.000    0.000    0.000    0.000    0.000 
#
# Total GULP energy -66975.832636 kJ/mol
# GULP energy per Si atom -5581.319386 kJ/mol
# Density = 3.016036 g / cm^3
# Si number density = 30.229159 Si / 1000 Ang^3
#
#
#
# Elastic Constant Matrix: (Units=GPa)
#
#
# Indices 1 2 3 4 5 6 
#
# 1 62.5133 -162.4620 5.2427 0.0000 46.4075 0.0000
# 2 -162.4620 -316.4507 -117.6249 0.0000 49.7840 0.0000
# 3 5.2427 -117.6249 155.6729 0.0000 22.4531 0.0000
# 4 0.0000 0.0000 0.0000 35.7565 0.0000 19.1383
# 5 46.4075 49.7840 22.4531 0.0000 95.5302 0.0000
# 6 0.0000 0.0000 0.0000 19.1383 0.0000 29.8905
#
#
#
# Elastic Compliance Matrix: (Units=1/GPa)
#
#
# Indices 1 2 3 4 5 6 
#
# 1 0.008291 -0.003500 -0.002698 0.000000 -0.001569 0.000000
# 2 -0.003500 -0.000727 -0.000757 0.000000 0.002257 0.000000
# 3 -0.002698 -0.000757 0.005897 0.000000 0.000319 0.000000
# 4 0.000000 0.000000 0.000000 0.042549 0.000000 -0.027243
# 5 -0.001569 0.002257 0.000319 0.000000 0.009979 0.000000
# 6 0.000000 0.000000 0.000000 -0.027243 0.000000 0.050899
#
#
# Mechanical properties :
#
#
# Convention : Reuss Voigt Hill
#
# Bulk Modulus (GPa) = -2227.56538 -71.99478 -1149.78008
# Shear Modulus (GPa) = 38.27096 44.00742 41.13919
#
# Velocity S-wave (km/s) = 3.56199 3.81963 3.69305
# Velocity P-wave (km/s) = 26.86216 2.10126 19.05244
#
# Compressibility (1/GPa) = -0.00044892
#
# Stress axis : x y z
#
# Youngs Moduli (GPa) = 120.61730 -1376.21275 169.58237
#
# Poissons Ratio (x) = -4.81736 0.45750
# Poissons Ratio (y) = 0.42221 0.12832
# Poissons Ratio (z) = 0.32540 -1.04136
#
# Static dielectric constant tensor:
#      x y z
#    x 2.592610 0.000000 -0.562940 
#    y 0.000000 3.012260 0.000000 
#    z -0.562940 0.000000 3.270750 
# 
# From -- ./inp_files/38587.got.cif
#   From: 2010.05.17/outbox.cif.g08.bks.cpg/sg5_20_cif.got.tgz:38587.got - 2010.06.03 18:56:24.
