data_PCOD9130543
_publ_section_title
;
Structure prediction by ZEFSAII (Michael W. Deem and Ramdas Pophale) SiO2 
 PCOD9130543
Probable space group: C 2
;
_chemical_formula_sum "Si O2"
_cell_formula_units_Z 16
_cell_length_a 21.789315
_cell_length_b 5.122904
_cell_length_c 9.422886
_cell_angle_alpha 90.000000
_cell_angle_beta 139.494013
_cell_angle_gamma 90.000000
_cell_volume 683.189647
_symmetry_space_group_name_H-M "C 2"
_symmetry_group_IT_number 5
_symmetry_cell_setting 'monoclinic'
loop_
_space_group_symop_operation_xyz
x,y,z
-x,y,-z
1/2+x,1/2+y,z
1/2-x,1/2+y,-z
loop_
_atom_site_type_symbol
_atom_site_label
_atom_site_fract_x
_atom_site_fract_y
_atom_site_fract_z
Si Si1 0.812680 0.944730 0.627175
Si Si2 0.634995 0.505654 0.961112
Si Si3 0.426498 0.330615 0.550451
Si Si4 0.658186 0.833715 0.755147
O O1 0.740939 0.702845 0.522751
O O2 0.886178 0.845327 0.639113
O O3 0.856781 0.021796 0.855457
O O4 0.538385 0.364423 0.751323
O O5 0.636387 0.783736 0.882368
O O6 0.730085 0.367389 0.072120
O O7 0.380454 0.574476 0.388158
O O8 0.392442 0.072826 0.410824
#
# Coordination Sequence:
#
# PCOD9130543 Si02
#       4
#     4   4   4   4
#     4  12  25  51  80 112 155 203 264 320 379 462
#     4  12  28  49  82 111 159 207 252 318 402 440
#     4  12  27  52  77 115 154 204 259 320 381 471
#     4  12  28  48  75 117 158 196 259 319 383 467
#
# _framework density 23.419559
#
# number of rings (size 3 to 8) (size 9 to 14) (size 15 to 20)
#    0.000    0.000    5.000    3.000    0.000   14.000 
#    0.000    5.000    0.000    0.000    0.000    0.000 
#    0.000    0.000    0.000    0.000    0.000    0.000 
#
# Total GULP energy -44890.424034 kJ/mol
# GULP energy per Si atom -5611.303004 kJ/mol
# Density = 2.336626 g / cm^3
# Si number density = 23.419559 Si / 1000 Ang^3
#
#
#
# Elastic Constant Matrix: (Units=GPa)
#
#
# Indices 1 2 3 4 5 6 
#
# 1 172.6079 54.6710 100.7340 0.0000 -19.8144 0.0000
# 2 54.6710 161.2789 79.1769 0.0000 -11.6067 0.0000
# 3 100.7340 79.1769 187.6477 0.0000 8.9114 0.0000
# 4 0.0000 0.0000 0.0000 41.7990 0.0000 -9.6266
# 5 -19.8144 -11.6067 8.9114 0.0000 58.5644 0.0000
# 6 0.0000 0.0000 0.0000 -9.6266 0.0000 29.3864
#
#
#
# Elastic Compliance Matrix: (Units=1/GPa)
#
#
# Indices 1 2 3 4 5 6 
#
# 1 0.009271 -0.000424 -0.004979 0.000000 0.003810 0.000000
# 2 -0.000424 0.008096 -0.003282 0.000000 0.001960 0.000000
# 3 -0.004979 -0.003282 0.009567 0.000000 -0.003791 0.000000
# 4 0.000000 0.000000 0.000000 0.025876 0.000000 0.008477
# 5 0.003810 0.001960 -0.003791 0.000000 0.019330 0.000000
# 6 0.000000 0.000000 0.000000 0.008477 0.000000 0.036806
#
#
# Mechanical properties :
#
#
# Convention : Reuss Voigt Hill
#
# Bulk Modulus (GPa) = 104.55251 110.07761 107.31506
# Shear Modulus (GPa) = 38.60910 45.08014 41.84462
#
# Velocity S-wave (km/s) = 4.06468 4.39212 4.23157
# Velocity P-wave (km/s) = 8.17123 8.53378 8.35447
#
# Compressibility (1/GPa) = 0.00956457
#
# Stress axis : x y z
#
# Youngs Moduli (GPa) = 107.86512 123.51231 104.53125
#
# Poissons Ratio (x) = 0.05240 0.52044
# Poissons Ratio (y) = 0.04576 0.34303
# Poissons Ratio (z) = 0.53703 0.40531
#
# Static dielectric constant tensor:
#      x y z
#    x 1.918670 0.000000 -0.038080 
#    y 0.000000 1.863690 0.000000 
#    z -0.038080 0.000000 1.856970 
# 
# From -- ./inp_files/28237.got.cif
#   From: 2010.05.17/outbox.cif.g08.bks.cpg/sg5_15_cif.got.tgz:28237.got - 2010.06.03 18:56:24.
