data_PCOD9130805
_publ_section_title
;
Structure prediction by ZEFSAII (Michael W. Deem and Ramdas Pophale) SiO2 
 PCOD9130805
Probable space group: P M
;
_chemical_formula_sum "Si O2"
_cell_formula_units_Z 16
_cell_length_a 7.151902
_cell_length_b 8.871515
_cell_length_c 11.893937
_cell_angle_alpha 90.000000
_cell_angle_beta 87.005833
_cell_angle_gamma 90.000000
_cell_volume 753.618760
_symmetry_space_group_name_H-M "P M"
_symmetry_group_IT_number 6
_symmetry_cell_setting 'monoclinic'
loop_
_space_group_symop_operation_xyz
x,y,z
x,-y,z
loop_
_atom_site_type_symbol
_atom_site_label
_atom_site_fract_x
_atom_site_fract_y
_atom_site_fract_z
Si Si1 0.230760 0.821632 0.927630
Si Si2 0.922692 0.671955 0.688687
Si Si3 0.477007 0.325805 0.098211
Si Si4 0.761112 0.821959 0.240737
Si Si5 0.980747 0.670131 0.432877
Si Si6 0.885410 0.674621 0.020521
Si Si7 0.260109 0.177047 0.576196
Si Si8 0.512781 0.319464 0.739609
O O1 0.317414 0.771295 0.045361
O O2 0.378038 0.756102 0.834568
O O3 0.027479 0.743367 0.926904
O O4 0.216259 0.000000 0.919014
O O5 0.976693 0.500000 0.722460
O O6 0.876430 0.659736 0.556218
O O7 0.729989 0.720273 0.750140
O O8 0.096020 0.785516 0.673543
O O9 0.421957 0.500000 0.112793
O O10 0.661080 0.322364 0.010014
O O11 0.567007 0.258792 0.209391
O O12 0.855772 0.760206 0.349569
O O13 0.735978 0.000000 0.244589
O O14 0.897605 0.773005 0.133816
O O15 0.015936 0.500000 0.391039
O O16 0.173365 0.752146 0.465153
O O17 0.934073 0.500000 0.038311
O O18 0.438635 0.260749 0.621323
O O19 0.289106 0.000000 0.565187
O O20 0.496772 0.500000 0.745433
#
# Coordination Sequence:
#
# PCOD9130805 Si02
#       8
#     2   2   2   2   2   2   2   2
#     4  12  24  37  57  85 115 146 186 238 284 327
#     4   8  19  37  58  80 109 147 189 228 270 329
#     4   9  20  38  59  81 111 150 189 227 275 337
#     4  10  18  33  58  87 114 144 183 231 283 327
#     4   9  17  35  58  82 110 148 189 223 275 336
#     4   9  20  38  59  81 112 151 188 227 275 337
#     4  10  20  35  56  84 115 144 182 233 283 328
#     4  11  22  39  59  80 110 150 192 229 275 337
#
# _framework density 21.230893999999999
#
# number of rings (size 3 to 8) (size 9 to 14) (size 15 to 20)
#    1.500    0.750    0.000    4.125    0.000    2.000 
#    0.000    2.500    0.000    1.500    0.000    0.000 
#    0.000    0.000    0.000    0.000    0.000    0.000 
#
# Total GULP energy -89169.982394 kJ/mol
# GULP energy per Si atom -5573.123900 kJ/mol
# Density = 2.118257 g / cm^3
# Si number density = 21.230894 Si / 1000 Ang^3
#
#
#
# Elastic Constant Matrix: (Units=GPa)
#
#
# Indices 1 2 3 4 5 6 
#
# 1 82.0861 34.1578 -1.9002 0.0000 17.3191 0.0000
# 2 34.1578 126.2852 0.3889 0.0000 11.8288 0.0000
# 3 -1.9002 0.3889 31.5046 0.0000 21.2363 0.0000
# 4 0.0000 0.0000 0.0000 27.1041 0.0000 9.1386
# 5 17.3191 11.8288 21.2363 0.0000 35.6101 0.0000
# 6 0.0000 0.0000 0.0000 9.1386 0.0000 18.4177
#
#
#
# Elastic Compliance Matrix: (Units=1/GPa)
#
#
# Indices 1 2 3 4 5 6 
#
# 1 0.016422 -0.003295 0.009493 0.000000 -0.012554 0.000000
# 2 -0.003295 0.008995 0.001043 0.000000 -0.002007 0.000000
# 3 0.009493 0.001043 0.059609 0.000000 -0.040512 0.000000
# 4 0.000000 0.000000 0.000000 0.044307 0.000000 -0.021985
# 5 -0.012554 -0.002007 -0.040512 0.000000 0.059014 0.000000
# 6 0.000000 0.000000 0.000000 -0.021985 0.000000 0.065204
#
#
# Mechanical properties :
#
#
# Convention : Reuss Voigt Hill
#
# Bulk Modulus (GPa) = 10.04943 33.90766 21.97855
# Shear Modulus (GPa) = 18.36630 30.04166 24.20398
#
# Velocity S-wave (km/s) = 2.94441 3.76573 3.38010
# Velocity P-wave (km/s) = 4.03770 5.90874 5.06044
#
# Compressibility (1/GPa) = 0.09950811
#
# Stress axis : x y z
#
# Youngs Moduli (GPa) = 60.89421 111.17682 16.77602
#
# Poissons Ratio (x) = 0.36635 -0.15926
# Poissons Ratio (y) = 0.20066 -0.01750
# Poissons Ratio (z) = -0.57808 -0.11599
#
# Static dielectric constant tensor:
#      x y z
#    x 1.785900 0.000000 0.010190 
#    y 0.000000 1.710100 0.000000 
#    z 0.010190 0.000000 1.857400 
# 
# From -- ./inp_files/4554.got.cif
#   From: 2010.05.17/outbox.cif.g08.bks.cpg/sg6_3_cif.got.tgz:4554.got - 2010.06.03 19:42:10.
