data_PCOD9130394
_publ_section_title
;
Structure prediction by ZEFSAII (Michael W. Deem and Ramdas Pophale) SiO2 
 PCOD9130394
Probable space group: C 2
;
_chemical_formula_sum "Si O2"
_cell_formula_units_Z 20
_cell_length_a 21.637392
_cell_length_b 5.101361
_cell_length_c 15.190527
_cell_angle_alpha 90.000000
_cell_angle_beta 27.667033
_cell_angle_gamma 90.000000
_cell_volume 778.561494
_symmetry_space_group_name_H-M "C 2"
_symmetry_group_IT_number 5
_symmetry_cell_setting 'monoclinic'
loop_
_space_group_symop_operation_xyz
x,y,z
-x,y,-z
1/2+x,1/2+y,z
1/2-x,1/2+y,-z
loop_
_atom_site_type_symbol
_atom_site_label
_atom_site_fract_x
_atom_site_fract_y
_atom_site_fract_z
Si Si1 0.337812 0.096220 0.375609
Si Si2 0.761930 0.210548 0.213975
Si Si3 0.500000 0.023689 0.000000
Si Si4 0.500000 0.552417 0.500000
Si Si5 0.210495 0.681122 0.098464
Si Si6 0.049838 0.458172 0.588506
O O1 0.275263 0.367585 0.493096
O O2 0.431372 0.956906 0.330998
O O3 0.419016 0.156514 0.183353
O O4 0.641630 0.408131 0.338721
O O5 0.783714 0.074172 0.093011
O O6 0.695883 0.015058 0.366283
O O7 0.888572 0.349221 0.092877
O O8 0.490551 0.738693 0.598935
O O9 0.050947 0.694481 0.305128
O O10 0.230938 0.457356 0.000856
#
# Coordination Sequence:
#
# PCOD9130394 Si02
#       6
#     4   4   2   2   4   4
#     4  12  29  54  80 117 168 217 270 337 410 488
#     4  12  25  49  77 112 159 212 268 333 405 485
#     4  12  28  54  80 118 164 220 274 328 412 494
#     4  12  22  48  86 110 162 208 270 334 414 468
#     4  12  26  45  74 116 156 201 268 335 401 479
#     4  12  25  47  79 112 158 212 266 341 401 477
#
# _framework density 25.688399
#
# number of rings (size 3 to 8) (size 9 to 14) (size 15 to 20)
#    0.000    0.000    6.000    3.600    0.000    2.400 
#    7.200    0.000    0.000    0.000    0.000    0.000 
#    0.000    0.000    0.000    0.000    0.000    0.000 
#
# Total GULP energy -55897.437712 kJ/mol
# GULP energy per Si atom -5589.743771 kJ/mol
# Density = 2.562993 g / cm^3
# Si number density = 25.688399 Si / 1000 Ang^3
#
#
#
# Elastic Constant Matrix: (Units=GPa)
#
#
# Indices 1 2 3 4 5 6 
#
# 1 155.3162 0.4712 32.2557 -0.0106 -7.7128 0.0067
# 2 0.4712 79.0371 24.8744 -0.0393 -7.2666 0.0316
# 3 32.2557 24.8744 105.1674 -0.0477 2.5683 0.0222
# 4 -0.0106 -0.0393 -0.0477 24.9409 -0.0013 -4.5950
# 5 -7.7128 -7.2666 2.5683 -0.0013 62.1373 0.0070
# 6 0.0067 0.0316 0.0222 -4.5950 0.0070 32.2945
#
#
#
# Elastic Compliance Matrix: (Units=1/GPa)
#
#
# Indices 1 2 3 4 5 6 
#
# 1 0.006977 0.000796 -0.002354 0.000000 0.001057 -0.000001
# 2 0.000796 0.013950 -0.003590 0.000014 0.001879 -0.000010
# 3 -0.002354 -0.003590 0.011108 0.000014 -0.001171 -0.000001
# 4 0.000000 0.000014 0.000014 0.041174 0.000001 0.005858
# 5 0.001057 0.001879 -0.001171 0.000001 0.016493 -0.000005
# 6 -0.000001 -0.000010 -0.000001 0.005858 -0.000005 0.031799
#
#
# Mechanical properties :
#
#
# Convention : Reuss Voigt Hill
#
# Bulk Modulus (GPa) = 45.99605 50.52479 48.26042
# Shear Modulus (GPa) = 35.96013 42.66917 39.31465
#
# Velocity S-wave (km/s) = 3.74553 4.07999 3.91633
# Velocity P-wave (km/s) = 6.05389 6.47350 6.26720
#
# Compressibility (1/GPa) = 0.02174100
#
# Stress axis : x y z
#
# Youngs Moduli (GPa) = 143.31888 71.68463 90.02245
#
# Poissons Ratio (x) = -0.05709 0.21193
# Poissons Ratio (y) = -0.11415 0.32315
# Poissons Ratio (z) = 0.33740 0.25732
#
# Static dielectric constant tensor:
#      x y z
#    x 2.070600 -0.000100 0.165020 
#    y -0.000100 2.080650 0.000000 
#    z 0.165020 0.000000 2.236430 
# 
# From -- ./inp_files/41155.got.cif
#   From: 2010.05.17/outbox.cif.g08.bks.cpg/sg5_21_cif.got.tgz:41155.got - 2010.06.03 18:56:24.
