data_PCOD9130279
_publ_section_title
;
Structure prediction by ZEFSAII (Michael W. Deem and Ramdas Pophale) SiO2 
 PCOD9130279
Probable space group: C 2
;
_chemical_formula_sum "Si O2"
_cell_formula_units_Z 20
_cell_length_a 6.827745
_cell_length_b 7.176311
_cell_length_c 16.324129
_cell_angle_alpha 90.000000
_cell_angle_beta 74.254304
_cell_angle_gamma 90.000000
_cell_volume 769.836151
_symmetry_space_group_name_H-M "C 2"
_symmetry_group_IT_number 5
_symmetry_cell_setting 'monoclinic'
loop_
_space_group_symop_operation_xyz
x,y,z
-x,y,-z
1/2+x,1/2+y,z
1/2-x,1/2+y,-z
loop_
_atom_site_type_symbol
_atom_site_label
_atom_site_fract_x
_atom_site_fract_y
_atom_site_fract_z
Si Si1 0.235873 0.542710 0.236859
Si Si2 0.000000 0.439606 0.000000
Si Si3 0.235871 0.489652 0.736861
Si Si4 0.000000 0.592760 0.500000
Si Si5 0.603984 0.408736 0.610807
Si Si6 0.603985 0.623627 0.110805
O O1 0.311274 0.423445 0.306175
O O2 0.395089 0.504194 0.144790
O O3 0.000001 0.516181 0.249999
O O4 0.250001 0.766181 0.249999
O O5 0.968675 0.311169 0.924024
O O6 0.208179 0.551259 0.964027
O O7 0.395088 0.528168 0.644792
O O8 0.311272 0.608915 0.806178
O O9 0.208180 0.481107 0.464024
O O10 0.031327 0.721194 0.575976
#
# Coordination Sequence:
#
# PCOD9130279 Si02
#       6
#     4   2   4   2   4   4
#     4  11  26  50  77 107 145 200 246 300 359 449
#     4  12  28  46  76 108 154 192 240 314 368 428
#     4  11  26  50  77 107 145 200 246 300 359 449
#     4  12  28  46  76 108 154 192 240 314 368 428
#     4  11  28  50  74 111 150 194 248 301 372 434
#     4  11  28  50  74 111 150 194 248 301 372 434
#
# _framework density 25.979552999999999
#
# number of rings (size 3 to 8) (size 9 to 14) (size 15 to 20)
#    0.000    0.800    4.000    0.000    5.600   14.400 
#    0.000    0.000    0.000    0.000    0.000    0.000 
#    0.000    0.000    0.000    0.000    0.000    0.000 
#
# Total GULP energy -56008.153524 kJ/mol
# GULP energy per Si atom -5600.815352 kJ/mol
# Density = 2.592042 g / cm^3
# Si number density = 25.979553 Si / 1000 Ang^3
#
#
#
# Elastic Constant Matrix: (Units=GPa)
#
#
# Indices 1 2 3 4 5 6 
#
# 1 205.0330 33.9543 33.7196 0.0000 -40.2199 0.0000
# 2 33.9543 71.5000 -4.1842 0.0000 -3.9776 0.0000
# 3 33.7196 -4.1842 114.9880 0.0000 -40.1006 0.0000
# 4 0.0000 0.0000 0.0000 45.2201 0.0000 -2.4525
# 5 -40.2199 -3.9776 -40.1006 0.0000 76.7228 0.0000
# 6 0.0000 0.0000 0.0000 -2.4525 0.0000 51.2322
#
#
#
# Elastic Compliance Matrix: (Units=1/GPa)
#
#
# Indices 1 2 3 4 5 6 
#
# 1 0.005983 -0.002762 -0.000992 0.000000 0.002475 0.000000
# 2 -0.002762 0.015384 0.001398 0.000000 0.000080 0.000000
# 3 -0.000992 0.001398 0.010862 0.000000 0.005230 0.000000
# 4 0.000000 0.000000 0.000000 0.022172 0.000000 0.001061
# 5 0.002475 0.000080 0.005230 0.000000 0.017069 0.000000
# 6 0.000000 0.000000 0.000000 0.001061 0.000000 0.019570
#
#
# Mechanical properties :
#
#
# Convention : Reuss Voigt Hill
#
# Bulk Modulus (GPa) = 36.34109 57.61117 46.97613
# Shear Modulus (GPa) = 47.65361 56.50378 52.07869
#
# Velocity S-wave (km/s) = 4.28749 4.66868 4.48214
# Velocity P-wave (km/s) = 6.20716 7.16141 6.70129
#
# Compressibility (1/GPa) = 0.02751706
#
# Stress axis : x y z
#
# Youngs Moduli (GPa) = 167.13363 65.00358 92.06321
#
# Poissons Ratio (x) = 0.17952 0.09132
# Poissons Ratio (y) = 0.46158 -0.12867
# Poissons Ratio (z) = 0.16579 -0.09085
#
# Static dielectric constant tensor:
#      x y z
#    x 2.020110 0.000000 0.002390 
#    y 0.000000 2.080620 0.000000 
#    z 0.002390 0.000000 2.110030 
# 
# From -- ./inp_files/64144.got.cif
#   From: 2010.05.17/outbox.cif.g08.bks.cpg/sg5_33_cif.got.tgz:64144.got - 2010.06.03 18:56:24.
