data_PCOD9130974
_publ_section_title
;
Structure prediction by ZEFSAII (Michael W. Deem and Ramdas Pophale) SiO2 
 PCOD9130974
Probable space group: P M
;
_chemical_formula_sum "Si O2"
_cell_formula_units_Z 16
_cell_length_a 11.514328
_cell_length_b 8.608038
_cell_length_c 9.505512
_cell_angle_alpha 90.000000
_cell_angle_beta 114.556712
_cell_angle_gamma 90.000000
_cell_volume 856.929385
_symmetry_space_group_name_H-M "P M"
_symmetry_group_IT_number 6
_symmetry_cell_setting 'monoclinic'
loop_
_space_group_symop_operation_xyz
x,y,z
x,-y,z
loop_
_atom_site_type_symbol
_atom_site_label
_atom_site_fract_x
_atom_site_fract_y
_atom_site_fract_z
Si Si1 0.717070 0.686594 0.348410
Si Si2 0.194201 0.186167 0.589900
Si Si3 0.427102 0.688507 0.206646
Si Si4 0.428373 0.313605 0.884159
Si Si5 0.954280 0.812292 0.975134
Si Si6 0.708538 0.186250 0.032173
Si Si7 0.947753 0.812270 0.646574
Si Si8 0.189831 0.686483 0.273214
O O1 0.720164 0.500000 0.343419
O O2 0.572175 0.735693 0.314520
O O3 0.742178 0.752131 0.204824
O O4 0.822037 0.746882 0.508875
O O5 0.322581 0.247370 0.727245
O O6 0.181919 0.247263 0.425708
O O7 0.072422 0.237048 0.621511
O O8 0.196126 0.000000 0.589333
O O9 0.425096 0.500000 0.206883
O O10 0.318696 0.742040 0.258992
O O11 0.400144 0.736119 0.031694
O O12 0.426767 0.500000 0.878528
O O13 0.570971 0.255404 0.923264
O O14 0.820190 0.770034 0.980462
O O15 0.069539 0.739853 0.120886
O O16 0.965880 0.000000 0.986791
O O17 0.957944 0.763968 0.814169
O O18 0.699450 0.000000 0.032360
O O19 0.941569 0.000000 0.639876
O O20 0.192538 0.500000 0.281647
#
# Coordination Sequence:
#
# PCOD9130974 Si02
#       8
#     2   2   2   2   2   2   2   2
#     4  10  20  36  58  83 112 145 184 226 269 321
#     4  11  23  38  56  80 112 147 183 224 273 327
#     4   8  18  36  56  81 111 142 177 223 274 321
#     4  10  20  37  60  84 111 142 182 227 270 322
#     4  10  22  39  57  80 111 145 183 227 274 326
#     4  10  20  36  58  83 113 146 180 221 273 329
#     4  10  22  39  57  79 110 147 185 226 273 325
#     4  11  22  37  58  82 110 144 184 228 274 323
#
# _framework density 18.671316999999998
#
# number of rings (size 3 to 8) (size 9 to 14) (size 15 to 20)
#    0.000    2.000    0.000    4.125    0.000    6.500 
#    0.000    9.375    0.000    0.000    0.000    0.000 
#    0.000    0.000    0.000    0.000    0.000    0.000 
#
# Total GULP energy -89384.802378 kJ/mol
# GULP energy per Si atom -5586.550149 kJ/mol
# Density = 1.862882 g / cm^3
# Si number density = 18.671317 Si / 1000 Ang^3
#
#
#
# Elastic Constant Matrix: (Units=GPa)
#
#
# Indices 1 2 3 4 5 6 
#
# 1 178.4828 47.3036 120.9776 0.0000 -17.7782 0.0000
# 2 47.3036 38.3157 47.4783 0.0000 -1.5589 0.0000
# 3 120.9776 47.4783 194.9288 0.0000 8.3995 0.0000
# 4 0.0000 0.0000 0.0000 32.9721 0.0000 8.3784
# 5 -17.7782 -1.5589 8.3995 0.0000 26.4735 0.0000
# 6 0.0000 0.0000 0.0000 8.3784 0.0000 25.3346
#
#
#
# Elastic Compliance Matrix: (Units=1/GPa)
#
#
# Indices 1 2 3 4 5 6 
#
# 1 0.013339 -0.007450 -0.006926 0.000000 0.010717 0.000000
# 2 -0.007450 0.042251 -0.005636 0.000000 -0.000727 0.000000
# 3 -0.006926 -0.005636 0.011168 0.000000 -0.008526 0.000000
# 4 0.000000 0.000000 0.000000 0.033111 0.000000 -0.010950
# 5 0.010717 -0.000727 -0.008526 0.000000 0.047633 0.000000
# 6 0.000000 0.000000 0.000000 -0.010950 0.000000 0.043093
#
#
# Mechanical properties :
#
#
# Convention : Reuss Voigt Hill
#
# Bulk Modulus (GPa) = 37.40441 93.69403 65.54922
# Shear Modulus (GPa) = 20.87421 30.02058 25.44740
#
# Velocity S-wave (km/s) = 3.34725 4.01414 3.69577
# Velocity P-wave (km/s) = 5.91738 8.47196 7.30717
#
# Compressibility (1/GPa) = 0.02673482
#
# Stress axis : x y z
#
# Youngs Moduli (GPa) = 74.96760 23.66827 89.53800
#
# Poissons Ratio (x) = 0.17633 0.62012
# Poissons Ratio (y) = 0.55852 0.50462
# Poissons Ratio (z) = 0.51920 0.13339
#
# Static dielectric constant tensor:
#      x y z
#    x 1.642520 0.000000 -0.008920 
#    y 0.000000 1.637610 0.000000 
#    z -0.008920 0.000000 1.602460 
# 
# From -- ./inp_files/3519.got.cif
#   From: 2010.05.17/outbox.cif.g08.bks.cpg/sg6_2_cif.got.tgz:3519.got - 2010.06.03 19:42:10.
