data_PCOD9130060
_publ_section_title
;
Structure prediction by ZEFSAII (Michael W. Deem and Ramdas Pophale) SiO2 
 PCOD9130060
Probable space group: C 2
;
_chemical_formula_sum "Si O2"
_cell_formula_units_Z 24
_cell_length_a 17.462308
_cell_length_b 7.745413
_cell_length_c 14.007890
_cell_angle_alpha 90.000000
_cell_angle_beta 146.246905
_cell_angle_gamma 90.000000
_cell_volume 1052.671884
_symmetry_space_group_name_H-M "C 2"
_symmetry_group_IT_number 5
_symmetry_cell_setting 'monoclinic'
loop_
_space_group_symop_operation_xyz
x,y,z
-x,y,-z
1/2+x,1/2+y,z
1/2-x,1/2+y,-z
loop_
_atom_site_type_symbol
_atom_site_label
_atom_site_fract_x
_atom_site_fract_y
_atom_site_fract_z
Si Si1 0.643289 0.308860 0.409709
Si Si2 0.853375 0.174322 0.480664
Si Si3 0.633889 0.152306 0.918985
Si Si4 0.845985 0.652605 0.376730
Si Si5 0.159121 0.467452 0.133783
Si Si6 0.134500 0.388710 0.755197
O O1 0.769060 0.292813 0.467412
O O2 0.621290 0.494883 0.435012
O O3 0.508550 0.251544 0.213259
O O4 0.661786 0.176305 0.517555
O O5 0.756640 0.104170 0.292857
O O6 0.997579 0.270484 0.608935
O O7 0.623899 0.064840 0.805841
O O8 0.654909 0.004312 0.018020
O O9 0.754538 0.281829 0.070756
O O10 0.000000 0.706821 0.500000
O O11 0.174878 0.465304 0.693073
O O12 0.729570 0.783555 0.221569
O O13 0.000000 0.474779 0.000000
#
# Coordination Sequence:
#
# PCOD9130060 Si02
#       6
#     4   4   4   4   4   4
#     4  11  24  47  70 108 140 196 243 298 360 438
#     4  11  26  46  76 101 150 194 241 296 371 436
#     4  12  25  43  71 105 144 185 250 297 365 420
#     4  11  26  47  72 103 144 195 243 292 368 434
#     4  11  26  47  70 107 147 192 240 306 359 431
#     4  12  27  46  72 109 144 194 241 306 361 439
#
# _framework density 22.799128
#
# number of rings (size 3 to 8) (size 9 to 14) (size 15 to 20)
#    0.000    0.667    3.333    3.000    9.333    0.000 
#    0.000    0.000    0.000    0.000    0.000    0.000 
#    0.000    0.000    0.000    0.000    0.000    0.000 
#
# Total GULP energy -67079.412033 kJ/mol
# GULP energy per Si atom -5589.951003 kJ/mol
# Density = 2.274724 g / cm^3
# Si number density = 22.799128 Si / 1000 Ang^3
#
#
#
# Elastic Constant Matrix: (Units=GPa)
#
#
# Indices 1 2 3 4 5 6 
#
# 1 87.9896 36.5166 36.8841 0.0000 -5.8605 0.0000
# 2 36.5166 137.0742 69.9120 0.0000 7.8021 0.0000
# 3 36.8841 69.9120 146.9341 0.0000 -0.1831 0.0000
# 4 0.0000 0.0000 0.0000 57.6306 0.0000 2.2935
# 5 -5.8605 7.8021 -0.1831 0.0000 34.6815 0.0000
# 6 0.0000 0.0000 0.0000 2.2935 0.0000 42.1304
#
#
#
# Elastic Compliance Matrix: (Units=1/GPa)
#
#
# Indices 1 2 3 4 5 6 
#
# 1 0.013565 -0.002698 -0.002118 0.000000 0.002888 0.000000
# 2 -0.002698 0.010339 -0.004246 0.000000 -0.002804 0.000000
# 3 -0.002118 -0.004246 0.009358 0.000000 0.000647 0.000000
# 4 0.000000 0.000000 0.000000 0.017390 0.000000 -0.000947
# 5 0.002888 -0.002804 0.000647 0.000000 0.029956 0.000000
# 6 0.000000 0.000000 0.000000 -0.000947 0.000000 0.023787
#
#
# Mechanical properties :
#
#
# Convention : Reuss Voigt Hill
#
# Bulk Modulus (GPa) = 66.05270 73.18034 69.61652
# Shear Modulus (GPa) = 39.19595 42.13418 40.66507
#
# Velocity S-wave (km/s) = 4.15081 4.30357 4.22788
# Velocity P-wave (km/s) = 7.21157 7.54068 7.37796
#
# Compressibility (1/GPa) = 0.01513943
#
# Stress axis : x y z
#
# Youngs Moduli (GPa) = 73.72062 96.72081 106.85703
#
# Poissons Ratio (x) = 0.26094 0.22630
# Poissons Ratio (y) = 0.19889 0.45368
# Poissons Ratio (z) = 0.15613 0.41064
#
# Static dielectric constant tensor:
#      x y z
#    x 1.779230 0.000000 -0.015000 
#    y 0.000000 1.895210 0.000000 
#    z -0.015000 0.000000 1.801620 
# 
# From -- ./inp_files/63318.got.cif
#   From: 2010.05.17/outbox.cif.g08.bks.cpg/sg5_32_cif.got.tgz:63318.got - 2010.06.03 18:56:24.
