data_PCOD9130504
_publ_section_title
;
Structure prediction by ZEFSAII (Michael W. Deem and Ramdas Pophale) SiO2 
 PCOD9130504
Probable space group: C 2
;
_chemical_formula_sum "Si O2"
_cell_formula_units_Z 28
_cell_length_a 19.396058
_cell_length_b 6.810037
_cell_length_c 13.879719
_cell_angle_alpha 90.000000
_cell_angle_beta 134.324560
_cell_angle_gamma 90.000000
_cell_volume 1311.560963
_symmetry_space_group_name_H-M "C 2"
_symmetry_group_IT_number 5
_symmetry_cell_setting 'monoclinic'
loop_
_space_group_symop_operation_xyz
x,y,z
-x,y,-z
1/2+x,1/2+y,z
1/2-x,1/2+y,-z
loop_
_atom_site_type_symbol
_atom_site_label
_atom_site_fract_x
_atom_site_fract_y
_atom_site_fract_z
Si Si1 0.666129 0.049810 0.582264
Si Si2 0.756530 0.420799 0.775826
Si Si3 0.019295 0.670809 0.275813
Si Si4 0.500000 0.813233 0.500000
Si Si5 0.649531 0.292378 0.228513
Si Si6 0.421005 0.542357 0.271467
Si Si7 0.416156 0.799794 0.082279
Si Si8 0.500000 0.563244 0.000000
O O1 0.711464 0.251880 0.665122
O O2 0.599714 0.081845 0.424756
O O3 0.594118 0.950619 0.589720
O O4 0.753953 0.904509 0.647781
O O5 0.819512 0.580068 0.779933
O O6 0.668215 0.524737 0.743592
O O7 0.825070 0.331812 0.924766
O O8 0.075352 0.774748 0.243540
O O9 0.953661 0.501868 0.165129
O O10 0.960415 0.830045 0.279930
O O11 0.498791 0.672883 0.405540
O O12 0.593255 0.422900 0.094442
O O13 0.393841 0.654479 0.147779
O O14 0.495637 0.700629 0.089756
#
# Coordination Sequence:
#
# PCOD9130504 Si02
#       8
#     4   4   4   2   4   4   4   2
#     4  12  27  47  76 108 149 198 253 313 382 455
#     4  12  28  46  74 110 150 198 254 316 382 454
#     4  12  28  46  74 110 150 198 254 316 382 454
#     4  12  24  54  76 108 158 196 252 322 388 448
#     4  12  27  47  76 108 149 198 253 313 382 455
#     4  12  27  47  76 108 149 198 253 313 382 455
#     4  12  27  47  76 108 149 198 253 313 382 455
#     4  12  24  54  76 108 158 196 252 322 388 448
#
# _framework density 21.348607000000001
#
# number of rings (size 3 to 8) (size 9 to 14) (size 15 to 20)
#    0.000    0.000    5.714    3.429    4.000    0.000 
#    0.000    0.000    0.000    0.000    0.000    0.000 
#    0.000    0.000    0.000    0.000    0.000    0.000 
#
# Total GULP energy -78398.578713 kJ/mol
# GULP energy per Si atom -5599.898479 kJ/mol
# Density = 2.130002 g / cm^3
# Si number density = 21.348607 Si / 1000 Ang^3
#
#
#
# Elastic Constant Matrix: (Units=GPa)
#
#
# Indices 1 2 3 4 5 6 
#
# 1 23.1117 -1.5397 0.2596 0.0000 1.9799 0.0000
# 2 -1.5397 90.6538 29.2182 0.0000 1.1909 0.0000
# 3 0.2596 29.2182 81.6929 0.0000 0.2856 0.0000
# 4 0.0000 0.0000 0.0000 43.2983 0.0000 -0.2047
# 5 1.9799 1.1909 0.2856 0.0000 36.9036 0.0000
# 6 0.0000 0.0000 0.0000 -0.2047 0.0000 48.5285
#
#
#
# Elastic Compliance Matrix: (Units=1/GPa)
#
#
# Indices 1 2 3 4 5 6 
#
# 1 0.043537 0.000918 -0.000459 0.000000 -0.002362 0.000000
# 2 0.000918 0.012493 -0.004470 0.000000 -0.000418 0.000000
# 3 -0.000459 -0.004470 0.013841 0.000000 0.000062 0.000000
# 4 0.000000 0.000000 0.000000 0.023096 0.000000 0.000097
# 5 -0.002362 -0.000418 0.000062 0.000000 0.027237 0.000000
# 6 0.000000 0.000000 0.000000 0.000097 0.000000 0.020607
#
#
# Mechanical properties :
#
#
# Convention : Reuss Voigt Hill
#
# Bulk Modulus (GPa) = 16.16799 27.92607 22.04703
# Shear Modulus (GPa) = 29.50775 36.91411 33.21093
#
# Velocity S-wave (km/s) = 3.72181 4.16277 3.94845
# Velocity P-wave (km/s) = 5.10479 6.01783 5.58002
#
# Compressibility (1/GPa) = 0.06185061
#
# Stress axis : x y z
#
# Youngs Moduli (GPa) = 22.96905 80.04718 72.25021
#
# Poissons Ratio (x) = -0.07350 0.03313
# Poissons Ratio (y) = -0.02109 0.32293
# Poissons Ratio (z) = 0.01053 0.35778
#
# Static dielectric constant tensor:
#      x y z
#    x 1.764910 0.000000 -0.000530 
#    y 0.000000 1.792690 0.000000 
#    z -0.000530 0.000000 1.751090 
# 
# From -- ./inp_files/56584.got.cif
#   From: 2010.05.17/outbox.cif.g08.bks.cpg/sg5_29_cif.got.tgz:56584.got - 2010.06.03 18:56:24.
