data_PCOD9130498
_publ_section_title
;
Structure prediction by ZEFSAII (Michael W. Deem and Ramdas Pophale) SiO2 
 PCOD9130498
Probable space group: C 2
;
_chemical_formula_sum "Si O2"
_cell_formula_units_Z 20
_cell_length_a 8.796352
_cell_length_b 19.354400
_cell_length_c 5.599500
_cell_angle_alpha 90.000000
_cell_angle_beta 66.302824
_cell_angle_gamma 90.000000
_cell_volume 872.923992
_symmetry_space_group_name_H-M "C 2"
_symmetry_group_IT_number 5
_symmetry_cell_setting 'monoclinic'
loop_
_space_group_symop_operation_xyz
x,y,z
-x,y,-z
1/2+x,1/2+y,z
1/2-x,1/2+y,-z
loop_
_atom_site_type_symbol
_atom_site_label
_atom_site_fract_x
_atom_site_fract_y
_atom_site_fract_z
Si Si1 0.861583 0.132190 0.268496
Si Si2 0.500000 0.748950 0.500000
Si Si3 0.790079 0.371562 0.757206
Si Si4 0.500000 0.943068 0.000000
Si Si5 0.316167 0.488900 0.542615
Si Si6 0.500000 0.284493 0.000000
Si Si7 0.500000 0.199730 0.500000
O O1 0.965262 0.197019 0.306368
O O2 0.673520 0.158519 0.333207
O O3 0.828522 0.068646 0.464995
O O4 0.000000 0.101948 0.000000
O O5 0.347663 0.801489 0.593501
O O6 0.735565 0.436446 0.635380
O O7 0.640011 0.339164 0.999808
O O8 0.943286 0.395663 0.818854
O O9 0.333349 0.983464 0.172891
O O10 0.500000 0.466658 0.500000
O O11 0.471427 0.239600 0.261687
#
# Coordination Sequence:
#
# PCOD9130498 Si02
#       7
#     4   2   4   2   4   2   2
#     4  12  30  50  78 113 164 210 268 338 412 491
#     4  12  24  51  73 112 154 202 262 326 410 475
#     4  12  27  47  78 114 157 206 273 338 406 486
#     4  12  28  49  82 109 162 206 276 344 410 491
#     4  12  29  50  77 115 157 215 270 337 415 492
#     4  12  28  49  82 121 160 212 278 344 410 493
#     4  12  30  51  83 118 162 216 276 338 416 495
#
# _framework density 22.911501000000001
#
# number of rings (size 3 to 8) (size 9 to 14) (size 15 to 20)
#    0.000    0.000    5.000    2.400   15.400    0.800 
#    0.000    0.000    0.000    0.000    0.000    0.000 
#    0.000    0.000    0.000    0.000    0.000    0.000 
#
# Total GULP energy -55714.425316 kJ/mol
# GULP energy per Si atom -5571.442532 kJ/mol
# Density = 2.285935 g / cm^3
# Si number density = 22.911501 Si / 1000 Ang^3
#
#
#
# Elastic Constant Matrix: (Units=GPa)
#
#
# Indices 1 2 3 4 5 6 
#
# 1 155.3021 26.5918 34.8062 0.0000 -12.4701 0.0000
# 2 26.5918 99.5501 29.7938 0.0000 3.2403 0.0000
# 3 34.8062 29.7938 88.2851 0.0000 -18.5046 0.0000
# 4 0.0000 0.0000 0.0000 48.9273 0.0000 14.9984
# 5 -12.4701 3.2403 -18.5046 0.0000 48.2338 0.0000
# 6 0.0000 0.0000 0.0000 14.9984 0.0000 5.9501
#
#
#
# Elastic Compliance Matrix: (Units=1/GPa)
#
#
# Indices 1 2 3 4 5 6 
#
# 1 0.007243 -0.001321 -0.002173 0.000000 0.001127 0.000000
# 2 -0.001321 0.011674 -0.003974 0.000000 -0.002650 0.000000
# 3 -0.002173 -0.003974 0.014640 0.000000 0.005322 0.000000
# 4 0.000000 0.000000 0.000000 0.089918 0.000000 -0.226654
# 5 0.001127 -0.002650 0.005322 0.000000 0.023244 0.000000
# 6 0.000000 0.000000 0.000000 -0.226654 0.000000 0.739384
#
#
# Mechanical properties :
#
#
# Convention : Reuss Voigt Hill
#
# Bulk Modulus (GPa) = 53.70634 58.39122 56.04878
# Shear Modulus (GPa) = 5.51118 37.41861 21.46490
#
# Velocity S-wave (km/s) = 1.55262 4.04565 3.06414
# Velocity P-wave (km/s) = 5.16777 6.88214 6.08563
#
# Compressibility (1/GPa) = 0.01861978
#
# Stress axis : x y z
#
# Youngs Moduli (GPa) = 138.06670 85.66207 68.30379
#
# Poissons Ratio (x) = 0.11316 0.14845
# Poissons Ratio (y) = 0.18238 0.27146
# Poissons Ratio (z) = 0.30007 0.34045
#
# Static dielectric constant tensor:
#      x y z
#    x 1.557170 0.000000 0.290520 
#    y 0.000000 1.791530 0.000000 
#    z 0.290520 0.000000 1.695370 
# 
# From -- ./inp_files/2473.got.cif
#   From: 2010.05.17/outbox.cif.g08.bks.cpg/sg5_2_cif.got.tgz:2473.got - 2010.06.03 18:56:24.
