data_PCOD9130473
_publ_section_title
;
Structure prediction by ZEFSAII (Michael W. Deem and Ramdas Pophale) SiO2 
 PCOD9130473
Probable space group: C 2
;
_chemical_formula_sum "Si O2"
_cell_formula_units_Z 16
_cell_length_a 18.284185
_cell_length_b 5.325007
_cell_length_c 10.634227
_cell_angle_alpha 90.000000
_cell_angle_beta 141.567972
_cell_angle_gamma 90.000000
_cell_volume 643.580350
_symmetry_space_group_name_H-M "C 2"
_symmetry_group_IT_number 5
_symmetry_cell_setting 'monoclinic'
loop_
_space_group_symop_operation_xyz
x,y,z
-x,y,-z
1/2+x,1/2+y,z
1/2-x,1/2+y,-z
loop_
_atom_site_type_symbol
_atom_site_label
_atom_site_fract_x
_atom_site_fract_y
_atom_site_fract_z
Si Si1 0.536329 0.534080 0.675929
Si Si2 0.308772 0.007559 0.524790
Si Si3 0.551838 0.837527 0.941063
Si Si4 0.305561 0.304991 0.302051
O O1 0.500000 0.694128 0.500000
O O2 0.409092 0.416595 0.528607
O O3 0.632021 0.338612 0.749014
O O4 0.577997 0.660386 0.857567
O O5 0.257801 0.744425 0.504534
O O6 0.318817 0.944609 0.857919
O O7 0.289867 0.037784 0.348576
O O8 0.554285 0.009070 0.250055
O O9 0.500000 0.720395 0.000000
#
# Coordination Sequence:
#
# PCOD9130473 Si02
#       4
#     4   4   4   4
#     4   8  23  51  71 113 161 202 259 325 388 474
#     4  12  26  51  75 120 165 204 264 335 393 469
#     4  12  24  45  82 120 153 216 262 332 402 474
#     4   9  23  48  75 114 159 213 254 334 389 481
#
# _framework density 24.86092
#
# number of rings (size 3 to 8) (size 9 to 14) (size 15 to 20)
#    1.500    0.000    2.500    1.500    0.000    4.000 
#   18.000    0.000    0.000    0.000    0.000    0.000 
#    0.000    0.000    0.000    0.000    0.000    0.000 
#
# Total GULP energy -44554.218515 kJ/mol
# GULP energy per Si atom -5569.277314 kJ/mol
# Density = 2.480434 g / cm^3
# Si number density = 24.860920 Si / 1000 Ang^3
#
#
#
# Elastic Constant Matrix: (Units=GPa)
#
#
# Indices 1 2 3 4 5 6 
#
# 1 208.8141 59.8643 70.7564 0.0000 18.1253 0.0000
# 2 59.8643 87.9280 45.5334 0.0000 -7.4285 0.0000
# 3 70.7564 45.5334 126.7088 0.0000 -17.9949 0.0000
# 4 0.0000 0.0000 0.0000 41.2529 0.0000 -13.9266
# 5 18.1253 -7.4285 -17.9949 0.0000 74.1765 0.0000
# 6 0.0000 0.0000 0.0000 -13.9266 0.0000 29.2606
#
#
#
# Elastic Compliance Matrix: (Units=1/GPa)
#
#
# Indices 1 2 3 4 5 6 
#
# 1 0.007078 -0.003444 -0.003117 0.000000 -0.002831 0.000000
# 2 -0.003444 0.015652 -0.003479 0.000000 0.001565 0.000000
# 3 -0.003117 -0.003479 0.011332 0.000000 0.003162 0.000000
# 4 0.000000 0.000000 0.000000 0.028881 0.000000 0.013746
# 5 -0.002831 0.001565 0.003162 0.000000 0.015097 0.000000
# 6 0.000000 0.000000 0.000000 0.013746 0.000000 0.040718
#
#
# Mechanical properties :
#
#
# Convention : Reuss Voigt Hill
#
# Bulk Modulus (GPa) = 71.52188 86.19543 78.85866
# Shear Modulus (GPa) = 34.84352 45.42444 40.13398
#
# Velocity S-wave (km/s) = 3.74777 4.27915 4.02224
# Velocity P-wave (km/s) = 6.89630 7.69163 7.30480
#
# Compressibility (1/GPa) = 0.01398174
#
# Stress axis : x y z
#
# Youngs Moduli (GPa) = 141.27871 63.89119 88.24605
#
# Poissons Ratio (x) = 0.22005 0.27506
# Poissons Ratio (y) = 0.48658 0.30700
# Poissons Ratio (z) = 0.44036 0.22228
#
# Static dielectric constant tensor:
#      x y z
#    x 2.019220 0.000000 -0.061320 
#    y 0.000000 1.999460 0.000000 
#    z -0.061320 0.000000 1.954270 
# 
# From -- ./inp_files/31231.got.cif
#   From: 2010.05.17/outbox.cif.g08.bks.cpg/sg5_16_cif.got.tgz:31231.got - 2010.06.03 18:56:24.
