data_PCOD9130320
_publ_section_title
;
Structure prediction by ZEFSAII (Michael W. Deem and Ramdas Pophale) SiO2 
 PCOD9130320
Probable space group: C 2
;
_chemical_formula_sum "Si O2"
_cell_formula_units_Z 22
_cell_length_a 11.005283
_cell_length_b 17.893876
_cell_length_c 5.024845
_cell_angle_alpha 90.000000
_cell_angle_beta 105.877485
_cell_angle_gamma 90.000000
_cell_volume 951.776892
_symmetry_space_group_name_H-M "C 2"
_symmetry_group_IT_number 5
_symmetry_cell_setting 'monoclinic'
loop_
_space_group_symop_operation_xyz
x,y,z
-x,y,-z
1/2+x,1/2+y,z
1/2-x,1/2+y,-z
loop_
_atom_site_type_symbol
_atom_site_label
_atom_site_fract_x
_atom_site_fract_y
_atom_site_fract_z
Si Si1 0.872463 0.267130 0.874463
Si Si2 0.767205 0.478825 0.317765
Si Si3 0.737164 0.706665 0.673721
Si Si4 0.500000 0.596104 0.500000
Si Si5 0.000000 0.987453 0.000000
Si Si6 0.500000 0.872932 0.500000
Si Si7 0.354577 0.062463 0.889590
O O1 0.759319 0.244032 0.610568
O O2 0.943841 0.327651 0.721374
O O3 0.804906 0.264521 0.121682
O O4 0.000000 0.216787 0.000000
O O5 0.630891 0.445912 0.153924
O O6 0.882924 0.423215 0.335661
O O7 0.786275 0.510529 0.626889
O O8 0.788863 0.548448 0.132627
O O9 0.620345 0.649417 0.565381
O O10 0.847056 0.649670 0.811886
O O11 0.485674 0.541645 0.242303
O O12 0.500000 0.039455 0.000000
#
# Coordination Sequence:
#
# PCOD9130320 Si02
#       7
#     4   4   4   2   2   2   4
#     4  12  23  39  64  95 122 179 237 281 319 387
#     4  12  25  40  72  97 145 176 226 285 340 419
#     4  12  22  37  66  96 133 166 225 291 338 394
#     4  12  19  34  64  94 136 157 210 272 346 408
#     4  12  22  40  60 108 128 180 216 276 360 396
#     4  12  27  44  68 100 138 189 242 270 334 406
#     4  12  24  42  65 105 136 182 215 285 369 405
#
# _framework density 23.114660000000001
#
# number of rings (size 3 to 8) (size 9 to 14) (size 15 to 20)
#    0.000    0.000    9.091    2.182    2.545    0.000 
#    0.000    0.000    2.000    2.182    0.000    0.000 
#    0.000    0.000    0.000    0.000    0.000    0.000 
#
# Total GULP energy -61336.404954 kJ/mol
# GULP energy per Si atom -5576.036814 kJ/mol
# Density = 2.306205 g / cm^3
# Si number density = 23.114660 Si / 1000 Ang^3
#
#
#
# Elastic Constant Matrix: (Units=GPa)
#
#
# Indices 1 2 3 4 5 6 
#
# 1 84.5707 17.0734 36.7385 0.0000 35.4814 0.0000
# 2 17.0734 61.2118 24.8315 0.0000 7.6474 0.0000
# 3 36.7385 24.8315 168.9471 0.0000 -0.5146 0.0000
# 4 0.0000 0.0000 0.0000 11.5401 0.0000 1.8025
# 5 35.4814 7.6474 -0.5146 0.0000 44.0531 0.0000
# 6 0.0000 0.0000 0.0000 1.8025 0.0000 28.3737
#
#
#
# Elastic Compliance Matrix: (Units=1/GPa)
#
#
# Indices 1 2 3 4 5 6 
#
# 1 0.021143 -0.002044 -0.004348 0.000000 -0.016725 0.000000
# 2 -0.002044 0.017989 -0.002204 0.000000 -0.001502 0.000000
# 3 -0.004348 -0.002204 0.007201 0.000000 0.003969 0.000000
# 4 0.000000 0.000000 0.000000 0.087523 0.000000 -0.005560
# 5 -0.016725 -0.001502 0.003969 0.000000 0.036478 0.000000
# 6 0.000000 0.000000 0.000000 -0.005560 0.000000 0.035597
#
#
# Mechanical properties :
#
#
# Convention : Reuss Voigt Hill
#
# Bulk Modulus (GPa) = 34.31724 52.44625 43.38175
# Shear Modulus (GPa) = 21.47446 32.53248 27.00347
#
# Velocity S-wave (km/s) = 3.05132 3.75566 3.42166
# Velocity P-wave (km/s) = 5.22426 6.44558 5.86678
#
# Compressibility (1/GPa) = 0.02913987
#
# Stress axis : x y z
#
# Youngs Moduli (GPa) = 47.29746 55.59081 138.87763
#
# Poissons Ratio (x) = 0.11362 0.60386
# Poissons Ratio (y) = 0.09667 0.30609
# Poissons Ratio (z) = 0.20566 0.12253
#
# Static dielectric constant tensor:
#      x y z
#    x 1.893340 0.000000 0.046930 
#    y 0.000000 1.985990 0.000000 
#    z 0.046930 0.000000 2.051500 
# 
# From -- ./inp_files/5228.got.cif
#   From: 2010.05.17/outbox.cif.g08.bks.cpg/sg5_3_cif.got.tgz:5228.got - 2010.06.03 18:56:24.
