data_PCOD9130728
_publ_section_title
;
Structure prediction by ZEFSAII (Michael W. Deem and Ramdas Pophale) SiO2 
 PCOD9130728
Probable space group: C 2
;
_chemical_formula_sum "Si O2"
_cell_formula_units_Z 14
_cell_length_a 21.000000
_cell_length_b 9.000000
_cell_length_c 15.000000
_cell_angle_alpha 90.000000
_cell_angle_beta 150.000000
_cell_angle_gamma 90.000000
_cell_volume 1417.500000
_symmetry_space_group_name_H-M "C 2"
_symmetry_group_IT_number 5
_symmetry_cell_setting 'monoclinic'
loop_
_space_group_symop_operation_xyz
x,y,z
-x,y,-z
1/2+x,1/2+y,z
1/2-x,1/2+y,-z
loop_
_atom_site_type_symbol
_atom_site_label
_atom_site_fract_x
_atom_site_fract_y
_atom_site_fract_z
Si Si1 0.766124 0.551340 0.489476
Si Si2 0.719008 0.227151 0.082343
Si Si3 0.993372 0.519116 0.097244
Si Si4 0.792160 0.276853 0.833075
Si Si5 0.346998 0.414273 0.170478
Si Si6 0.858295 0.871087 0.522803
Si Si7 0.655284 0.443295 0.168807
O O1 0.809785 0.718949 0.514548
O O2 0.653970 0.510334 0.423562
O O3 0.728345 0.461522 0.353192
O O4 0.880424 0.498009 0.692250
O O5 0.810873 0.086082 0.159549
O O6 0.720452 0.322449 0.179168
O O7 0.589767 0.135677 0.946338
O O8 0.714064 0.349705 0.996586
O O9 0.923067 0.361846 0.009478
O O10 0.000000 0.566352 0.000000
O O11 0.704487 0.309000 0.812362
O O12 0.728077 0.362234 0.671127
O O13 0.821337 0.105769 0.847097
O O14 0.496592 0.382036 0.336036
O O15 0.500000 0.422239 0.000000
#
# Coordination Sequence:
#
# PCOD9130728 Si02
#       7
#     4   4   4   4   4   4   4
#     4  11  25  41  72 100 143 176 230 285 351 402
#     4  11  24  42  70  97 135 183 229 287 340 414
#     4  11  21  42  69 100 139 181 225 285 341 406
#     4  10  23  40  70  95 138 180 229 272 346 408
#     4  11  23  43  69  95 140 185 232 276 349 408
#     4  11  23  44  65 103 134 183 224 287 339 415
#     4  11  24  43  68 107 137 178 229 290 344 408
#
# _framework density 9.8765429999999999
#
# number of rings (size 3 to 8) (size 9 to 14) (size 15 to 20)
#    0.000    1.143    2.857    3.000    4.000    0.000 
#    2.571    0.000    6.286    0.000    0.000    0.000 
#    0.000    0.000    0.000    0.000    0.000    0.000 
#
# Total GULP energy -77944.606121 kJ/mol
# GULP energy per Si atom -5567.471866 kJ/mol
# Density = 0.985406 g / cm^3
# Si number density = 9.876543 Si / 1000 Ang^3
#
#
#
# Elastic Constant Matrix: (Units=GPa)
#
#
# Indices 1 2 3 4 5 6 
#
# 1 162.8854 43.9936 43.0547 0.0000 -7.3689 0.0000
# 2 43.9936 92.8774 21.8491 0.0000 1.7728 0.0000
# 3 43.0547 21.8491 102.3602 0.0000 -14.5024 0.0000
# 4 0.0000 0.0000 0.0000 21.7607 0.0000 -6.1745
# 5 -7.3689 1.7728 -14.5024 0.0000 34.9643 0.0000
# 6 0.0000 0.0000 0.0000 -6.1745 0.0000 48.5404
#
#
#
# Elastic Compliance Matrix: (Units=1/GPa)
#
#
# Indices 1 2 3 4 5 6 
#
# 1 0.007649 -0.003059 -0.002459 0.000000 0.000747 0.000000
# 2 -0.003059 0.012653 -0.001696 0.000000 -0.001990 0.000000
# 3 -0.002459 -0.001696 0.011798 0.000000 0.004461 0.000000
# 4 0.000000 0.000000 0.000000 0.047675 0.000000 0.006064
# 5 0.000747 -0.001990 0.004461 0.000000 0.030709 0.000000
# 6 0.000000 0.000000 0.000000 0.006064 0.000000 0.021373
#
#
# Mechanical properties :
#
#
# Convention : Reuss Voigt Hill
#
# Bulk Modulus (GPa) = 56.58530 63.99085 60.28808
# Shear Modulus (GPa) = 32.85692 37.66814 35.26253
#
# Velocity S-wave (km/s) = 4.08288 4.37160 4.22971
# Velocity P-wave (km/s) = 7.13688 7.61229 7.37841
#
# Compressibility (1/GPa) = 0.01767243
#
# Stress axis : x y z
#
# Youngs Moduli (GPa) = 130.73282 79.03354 84.76304
#
# Poissons Ratio (x) = 0.24177 0.20839
# Poissons Ratio (y) = 0.39993 0.14375
# Poissons Ratio (z) = 0.32141 0.13404
#
# Static dielectric constant tensor:
#      x y z
#    x 1.717510 0.000000 0.003440 
#    y 0.000000 1.724810 0.000000 
#    z 0.003440 0.000000 1.748090 
# 
# From -- ./inp_files/56882.got.cif
#   From: 2010.05.17/outbox.ucp.g08.bks.cvg/sg5_29_cif.got.tgz:56882.got - 2010.06.11 12:53:14.
