data_PCOD9130727
_publ_section_title
;
Structure prediction by ZEFSAII (Michael W. Deem and Ramdas Pophale) SiO2 
 PCOD9130727
Probable space group: C 2
;
_chemical_formula_sum "Si O2"
_cell_formula_units_Z 16
_cell_length_a 15.000000
_cell_length_b 12.000000
_cell_length_c 18.000000
_cell_angle_alpha 90.000000
_cell_angle_beta 30.000000
_cell_angle_gamma 90.000000
_cell_volume 1620.000000
_symmetry_space_group_name_H-M "C 2"
_symmetry_group_IT_number 5
_symmetry_cell_setting 'monoclinic'
loop_
_space_group_symop_operation_xyz
x,y,z
-x,y,-z
1/2+x,1/2+y,z
1/2-x,1/2+y,-z
loop_
_atom_site_type_symbol
_atom_site_label
_atom_site_fract_x
_atom_site_fract_y
_atom_site_fract_z
Si Si1 0.189949 0.922290 0.824964
Si Si2 0.501213 0.366177 0.352188
Si Si3 0.089147 0.619495 0.268587
Si Si4 0.078559 0.176822 0.076490
Si Si5 0.879261 0.396097 0.156532
Si Si6 0.181922 0.316532 0.129661
Si Si7 0.361406 0.965131 0.330408
Si Si8 0.001225 0.936272 0.820239
O O1 0.252290 0.821805 0.833745
O O2 0.146814 0.884989 0.772296
O O3 0.333489 0.022408 0.732651
O O4 0.000000 0.959219 0.000000
O O5 0.497371 0.231686 0.364479
O O6 0.683040 0.394440 0.263701
O O7 0.339250 0.432790 0.505702
O O8 0.497509 0.398968 0.266450
O O9 0.947324 0.565329 0.314473
O O10 0.267120 0.656140 0.095288
O O11 0.181133 0.210234 0.078320
O O12 0.953156 0.275125 0.133611
O O13 0.975224 0.066533 0.176486
O O14 0.887796 0.473100 0.223060
O O15 0.000000 0.429741 0.000000
O O16 0.981981 0.361495 0.270979
O O17 0.308397 0.402575 0.993060
#
# Coordination Sequence:
#
# PCOD9130727 Si02
#       8
#     4   4   4   4   4   4   4   4
#     4   9  17  32  60  87 119 151 200 262 312 342
#     4  12  24  38  62  93 128 165 207 255 315 385
#     4  11  20  38  64  88 123 167 203 259 316 367
#     4  11  19  34  64  92 118 151 208 267 306 355
#     4  11  22  39  67  96 118 158 213 261 311 363
#     4   9  18  35  55  83 118 157 200 252 305 359
#     4  10  23  40  57  88 134 164 195 256 321 379
#     4  11  20  34  60  92 117 158 210 258 304 364
#
# _framework density 9.8765429999999999
#
# number of rings (size 3 to 8) (size 9 to 14) (size 15 to 20)
#    0.000    1.500    6.250    1.875    0.000    2.000 
#    0.000    5.000    0.000    3.000    0.000    0.000 
#    0.000    0.000    0.000    0.000    0.000    0.000 
#
# Total GULP energy -89155.643770 kJ/mol
# GULP energy per Si atom -5572.227736 kJ/mol
# Density = 0.985406 g / cm^3
# Si number density = 9.876543 Si / 1000 Ang^3
#
#
#
# Elastic Constant Matrix: (Units=GPa)
#
#
# Indices 1 2 3 4 5 6 
#
# 1 147.5430 15.6947 32.6473 0.0000 -17.1894 0.0000
# 2 15.6947 -0.4813 4.9151 0.0002 -3.0443 -0.0001
# 3 32.6473 4.9151 63.4266 0.0001 -22.5428 -0.0001
# 4 0.0000 0.0002 0.0001 10.1407 -0.0001 -5.9215
# 5 -17.1894 -3.0443 -22.5428 -0.0001 24.1831 0.0000
# 6 0.0000 -0.0001 -0.0001 -5.9215 0.0000 33.3477
#
#
#
# Elastic Compliance Matrix: (Units=1/GPa)
#
#
# Indices 1 2 3 4 5 6 
#
# 1 0.003376 0.044436 -0.003500 -0.000001 0.004731 0.000000
# 2 0.044436 -0.450104 0.004628 0.000008 -0.020761 0.000001
# 3 -0.003500 0.004628 0.024723 0.000000 0.021141 0.000000
# 4 -0.000001 0.000008 0.000000 0.110020 0.000001 0.019536
# 5 0.004731 -0.020761 0.021141 0.000001 0.061808 0.000000
# 6 0.000000 0.000001 0.000000 0.019536 0.000000 0.033456
#
#
# Mechanical properties :
#
#
# Convention : Reuss Voigt Hill
#
# Bulk Modulus (GPa) = -3.02229 35.22248 16.10010
# Shear Modulus (GPa) = -11.95767 24.01638 6.02935
#
# Velocity S-wave (km/s) = -2.46307 3.49066 1.74900
# Velocity P-wave (km/s) = 3.10198 5.84092 3.49957
#
# Compressibility (1/GPa) = -0.33087514
#
# Stress axis : x y z
#
# Youngs Moduli (GPa) = 296.16644 -2.22171 40.44840
#
# Poissons Ratio (x) = 0.09872 0.14156
# Poissons Ratio (y) = -13.16055 -0.18721
# Poissons Ratio (z) = 1.03653 0.01028
#
# Static dielectric constant tensor:
#      x y z
#    x 1.740380 0.000000 0.009070 
#    y 0.000000 1.742630 0.000000 
#    z 0.009070 0.000000 1.699920 
# 
# From -- ./inp_files/61692.got.cif
#   From: 2010.05.17/outbox.ucp.g08.bks.cvg/sg5_31_cif.got.tgz:61692.got - 2010.06.11 12:53:14.
