data_PCOD9130587
_publ_section_title
;
Structure prediction by ZEFSAII (Michael W. Deem and Ramdas Pophale) SiO2 
 PCOD9130587
Probable space group: C 2
;
_chemical_formula_sum "Si O2"
_cell_formula_units_Z 20
_cell_length_a 14.725237
_cell_length_b 4.984187
_cell_length_c 10.847149
_cell_angle_alpha 90.000000
_cell_angle_beta 95.481190
_cell_angle_gamma 90.000000
_cell_volume 792.468321
_symmetry_space_group_name_H-M "C 2"
_symmetry_group_IT_number 5
_symmetry_cell_setting 'monoclinic'
loop_
_space_group_symop_operation_xyz
x,y,z
-x,y,-z
1/2+x,1/2+y,z
1/2-x,1/2+y,-z
loop_
_atom_site_type_symbol
_atom_site_label
_atom_site_fract_x
_atom_site_fract_y
_atom_site_fract_z
Si Si1 0.316757 0.225020 0.768992
Si Si2 0.463638 0.921208 0.616481
Si Si3 0.098725 0.630260 0.960764
Si Si4 0.700952 0.578897 0.440261
Si Si5 0.379517 0.640728 0.201274
O O1 0.345424 0.228262 0.913945
O O2 0.301164 0.514626 0.705514
O O3 0.216880 0.092265 0.744836
O O4 0.397915 0.087700 0.700059
O O5 0.500000 0.076502 0.500000
O O6 0.397727 0.698211 0.547374
O O7 0.542762 0.777640 0.705083
O O8 0.140068 0.367127 0.904341
O O9 0.000000 0.553717 0.000000
O O10 0.089342 0.868222 0.860225
O O11 0.726752 0.298681 0.506565
#
# Coordination Sequence:
#
# PCOD9130587 Si02
#       5
#     4   4   4   4   4
#     4  12  28  51  85 118 167 214 279 335 412 490
#     4  12  29  52  82 122 167 219 275 335 414 490
#     4  12  26  51  82 120 162 212 276 337 410 488
#     4  12  27  50  79 112 161 216 267 333 402 481
#     4  12  29  49  82 121 164 216 271 342 410 484
#
# _framework density 25.237603
#
# number of rings (size 3 to 8) (size 9 to 14) (size 15 to 20)
#    0.000    0.000    4.000    4.200    5.600    0.800 
#    0.000    0.000    0.000    0.000    0.000    0.000 
#    0.000    0.000    0.000    0.000    0.000    0.000 
#
# Total GULP energy -56044.142702 kJ/mol
# GULP energy per Si atom -5604.414270 kJ/mol
# Density = 2.518016 g / cm^3
# Si number density = 25.237603 Si / 1000 Ang^3
#
#
#
# Elastic Constant Matrix: (Units=GPa)
#
#
# Indices 1 2 3 4 5 6 
#
# 1 157.8385 15.0143 54.9120 0.0000 0.7744 0.0000
# 2 15.0143 111.6899 32.3367 0.0000 -13.0419 0.0000
# 3 54.9120 32.3367 95.6777 0.0000 -11.7272 0.0000
# 4 0.0000 0.0000 0.0000 43.6834 0.0000 -11.5372
# 5 0.7744 -13.0419 -11.7272 0.0000 53.8201 0.0000
# 6 0.0000 0.0000 0.0000 -11.5372 0.0000 24.2662
#
#
#
# Elastic Compliance Matrix: (Units=1/GPa)
#
#
# Indices 1 2 3 4 5 6 
#
# 1 0.007987 0.000181 -0.004782 0.000000 -0.001113 0.000000
# 2 0.000181 0.010086 -0.003301 0.000000 0.001722 0.000000
# 3 -0.004782 -0.003301 0.014613 0.000000 0.002453 0.000000
# 4 0.000000 0.000000 0.000000 0.026179 0.000000 0.012447
# 5 -0.001113 0.001722 0.002453 0.000000 0.019548 0.000000
# 6 0.000000 0.000000 0.000000 0.012447 0.000000 0.047127
#
#
# Mechanical properties :
#
#
# Convention : Reuss Voigt Hill
#
# Bulk Modulus (GPa) = 59.23792 63.30357 61.27075
# Shear Modulus (GPa) = 34.01996 41.88350 37.95173
#
# Velocity S-wave (km/s) = 3.67548 4.07820 3.88206
# Velocity P-wave (km/s) = 6.44478 6.87845 6.66514
#
# Compressibility (1/GPa) = 0.01688108
#
# Stress axis : x y z
#
# Youngs Moduli (GPa) = 125.19695 99.14734 68.43435
#
# Poissons Ratio (x) = -0.01792 0.32723
# Poissons Ratio (y) = -0.02262 0.22593
# Poissons Ratio (z) = 0.59865 0.32733
#
# Static dielectric constant tensor:
#      x y z
#    x 1.989660 0.000000 -0.048590 
#    y 0.000000 1.971400 0.000000 
#    z -0.048590 0.000000 2.106210 
# 
# From -- ./inp_files/41005.got.cif
#   From: 2010.05.17/outbox.cif.g08.bks.cpg/sg5_21_cif.got.tgz:41005.got - 2010.06.03 18:56:24.
