data_PCOD9130637
_publ_section_title
;
Structure prediction by ZEFSAII (Michael W. Deem and Ramdas Pophale) SiO2 
 PCOD9130637
Probable space group: C 2
;
_chemical_formula_sum "Si O2"
_cell_formula_units_Z 16
_cell_length_a 18.571650
_cell_length_b 5.148880
_cell_length_c 7.647780
_cell_angle_alpha 90.000000
_cell_angle_beta 65.982088
_cell_angle_gamma 90.000000
_cell_volume 667.987499
_symmetry_space_group_name_H-M "C 2"
_symmetry_group_IT_number 5
_symmetry_cell_setting 'monoclinic'
loop_
_space_group_symop_operation_xyz
x,y,z
-x,y,-z
1/2+x,1/2+y,z
1/2-x,1/2+y,-z
loop_
_atom_site_type_symbol
_atom_site_label
_atom_site_fract_x
_atom_site_fract_y
_atom_site_fract_z
Si Si1 0.087934 0.687580 0.980127
Si Si2 0.088214 0.983387 0.352098
Si Si3 0.805724 0.821534 0.441542
Si Si4 0.304401 0.834618 0.942062
O O1 0.139655 0.832853 0.784144
O O2 0.135184 0.420957 0.967750
O O3 0.085304 0.835897 0.168643
O O4 0.000000 0.645350 0.000000
O O5 0.135279 0.825515 0.452112
O O6 0.140357 0.240590 0.269678
O O7 0.000000 0.040239 0.500000
O O8 0.752570 0.565251 0.490363
O O9 0.249003 0.588353 0.036917
#
# Coordination Sequence:
#
# PCOD9130637 Si02
#       4
#     4   4   4   4
#     4  12  29  55  84 123 173 222 276 347 421 499
#     4  12  29  55  84 123 173 222 276 347 421 499
#     4  12  32  50  84 126 164 218 286 340 418 504
#     4  12  28  52  88 118 164 226 274 344 418 486
#
# _framework density 23.952545000000001
#
# number of rings (size 3 to 8) (size 9 to 14) (size 15 to 20)
#    0.000    0.000    5.000    1.500   14.000    4.000 
#    0.000    0.000    0.000    0.000    0.000    0.000 
#    0.000    0.000    0.000    0.000    0.000    0.000 
#
# Total GULP energy -44871.851059 kJ/mol
# GULP energy per Si atom -5608.981382 kJ/mol
# Density = 2.389803 g / cm^3
# Si number density = 23.952545 Si / 1000 Ang^3
#
#
#
# Elastic Constant Matrix: (Units=GPa)
#
#
# Indices 1 2 3 4 5 6 
#
# 1 99.8139 36.3605 99.4300 0.0000 -33.0754 0.0000
# 2 36.3605 148.6649 70.0744 0.0000 -26.0070 0.0000
# 3 99.4300 70.0744 205.0041 0.0000 -20.1725 0.0000
# 4 0.0000 0.0000 0.0000 160.0925 0.0000 -164.1901
# 5 -33.0754 -26.0070 -20.1725 0.0000 61.0563 0.0000
# 6 0.0000 0.0000 0.0000 -164.1901 0.0000 256.0470
#
#
#
# Elastic Compliance Matrix: (Units=1/GPa)
#
#
# Indices 1 2 3 4 5 6 
#
# 1 0.023708 0.001033 -0.010899 0.000000 0.009682 0.000000
# 2 0.001033 0.008482 -0.003090 0.000000 0.003151 0.000000
# 3 -0.010899 -0.003090 0.010863 0.000000 -0.003631 0.000000
# 4 0.000000 0.000000 0.000000 0.018246 0.000000 0.011700
# 5 0.009682 0.003151 -0.003631 0.000000 0.021766 0.000000
# 6 0.000000 0.000000 0.000000 0.011700 0.000000 0.011408
#
#
# Mechanical properties :
#
#
# Convention : Reuss Voigt Hill
#
# Bulk Modulus (GPa) = 58.34344 96.13475 77.23909
# Shear Modulus (GPa) = 39.65156 111.94705 75.79930
#
# Velocity S-wave (km/s) = 4.07310 6.84386 5.63155
# Velocity P-wave (km/s) = 6.82136 10.13282 8.63727
#
# Compressibility (1/GPa) = 0.01713989
#
# Stress axis : x y z
#
# Youngs Moduli (GPa) = 42.18044 117.90048 92.05633
#
# Poissons Ratio (x) = -0.12173 1.00330
# Poissons Ratio (y) = -0.04355 0.28445
# Poissons Ratio (z) = 0.45972 0.36430
#
# Static dielectric constant tensor:
#      x y z
#    x 1.890020 0.000000 0.027860 
#    y 0.000000 1.967310 0.000000 
#    z 0.027860 0.000000 1.883110 
# 
# From -- ./inp_files/25802.got.cif
#   From: 2010.05.17/outbox.cif.g08.bks.cpg/sg5_13_cif.got.tgz:25802.got - 2010.06.03 18:56:24.
