data_PCOD9130467
_publ_section_title
;
Structure prediction by ZEFSAII (Michael W. Deem and Ramdas Pophale) SiO2 
 PCOD9130467
Probable space group: C 2
;
_chemical_formula_sum "Si O2"
_cell_formula_units_Z 30
_cell_length_a 24.316509
_cell_length_b 9.038563
_cell_length_c 13.907293
_cell_angle_alpha 90.000000
_cell_angle_beta 156.285292
_cell_angle_gamma 90.000000
_cell_volume 1229.325049
_symmetry_space_group_name_H-M "C 2"
_symmetry_group_IT_number 5
_symmetry_cell_setting 'monoclinic'
loop_
_space_group_symop_operation_xyz
x,y,z
-x,y,-z
1/2+x,1/2+y,z
1/2-x,1/2+y,-z
loop_
_atom_site_type_symbol
_atom_site_label
_atom_site_fract_x
_atom_site_fract_y
_atom_site_fract_z
Si Si1 0.131720 0.532350 0.142468
Si Si2 0.119704 0.088701 0.997833
Si Si3 0.470505 0.058602 0.707153
Si Si4 0.500000 0.491132 0.000000
Si Si5 0.412760 0.339100 0.201013
Si Si6 0.296089 0.307589 0.535637
Si Si7 0.857271 0.258266 0.522870
Si Si8 0.638200 0.284689 0.684424
O O1 0.128731 0.669514 0.392454
O O2 0.229474 0.417685 0.352647
O O3 0.223442 0.676548 0.268940
O O4 0.070649 0.480123 0.944206
O O5 0.129069 0.931995 0.958038
O O6 0.086188 0.078679 0.057500
O O7 0.995032 0.165376 0.740664
O O8 0.253677 0.183529 0.192655
O O9 0.559674 0.170353 0.787031
O O10 0.384134 0.922927 0.526813
O O11 0.500000 0.061248 0.000000
O O12 0.401965 0.394096 0.774372
O O13 0.500000 0.199719 0.500000
O O14 0.561079 0.389190 0.484047
O O15 0.315327 0.352372 0.138997
O O16 0.177461 0.262432 0.418638
#
# Coordination Sequence:
#
# PCOD9130467 Si02
#       8
#     4   4   4   2   4   4   4   4
#     4  12  24  45  63  98 151 205 257 303 376 460
#     4  12  25  47  79 112 151 202 261 311 397 472
#     4  12  25  43  70 101 152 194 254 327 367 455
#     4  12  26  44  78 108 162 212 248 320 390 476
#     4   9  23  48  76 104 146 194 255 326 379 452
#     4  12  24  47  63 100 156 212 251 297 388 460
#     4  12  26  40  64 108 146 201 257 300 378 464
#     4   8  24  50  79 109 140 202 259 328 390 435
#
# _framework density 24.403635999999999
#
# number of rings (size 3 to 8) (size 9 to 14) (size 15 to 20)
#    0.800    0.000    5.333    0.800    1.867    4.267 
#    0.000    0.667    0.000    3.200    0.000    0.000 
#    0.000    0.000    0.000    0.000    0.000    0.000 
#
# Total GULP energy -83867.034882 kJ/mol
# GULP energy per Si atom -5591.135659 kJ/mol
# Density = 2.434809 g / cm^3
# Si number density = 24.403636 Si / 1000 Ang^3
#
#
#
# Elastic Constant Matrix: (Units=GPa)
#
#
# Indices 1 2 3 4 5 6 
#
# 1 102.8763 28.1795 32.4849 0.0000 -11.0050 0.0000
# 2 28.1795 102.0178 45.6309 0.0000 3.7967 0.0000
# 3 32.4849 45.6309 116.5993 0.0000 -3.7262 0.0000
# 4 0.0000 0.0000 0.0000 37.0338 0.0000 0.9112
# 5 -11.0050 3.7967 -3.7262 0.0000 36.2445 0.0000
# 6 0.0000 0.0000 0.0000 0.9112 0.0000 12.5836
#
#
#
# Elastic Compliance Matrix: (Units=1/GPa)
#
#
# Indices 1 2 3 4 5 6 
#
# 1 0.011410 -0.002314 -0.002162 0.000000 0.003485 0.000000
# 2 -0.002314 0.012460 -0.004310 0.000000 -0.002451 0.000000
# 3 -0.002162 -0.004310 0.010895 0.000000 0.000915 0.000000
# 4 0.000000 0.000000 0.000000 0.027051 0.000000 -0.001959
# 5 0.003485 -0.002451 0.000915 0.000000 0.028999 0.000000
# 6 0.000000 0.000000 0.000000 -0.001959 0.000000 0.079610
#
#
# Mechanical properties :
#
#
# Convention : Reuss Voigt Hill
#
# Bulk Modulus (GPa) = 58.16409 59.34267 58.75338
# Shear Modulus (GPa) = 25.80941 31.51892 28.66416
#
# Velocity S-wave (km/s) = 3.25561 3.59774 3.43094
# Velocity P-wave (km/s) = 6.16587 6.45199 6.31055
#
# Compressibility (1/GPa) = 0.01719274
#
# Stress axis : x y z
#
# Youngs Moduli (GPa) = 87.64470 80.25378 91.78904
#
# Poissons Ratio (x) = 0.18574 0.19842
# Poissons Ratio (y) = 0.20285 0.39560
# Poissons Ratio (z) = 0.18946 0.34589
#
# Static dielectric constant tensor:
#      x y z
#    x 1.982450 0.000000 -0.019210 
#    y 0.000000 1.986790 0.000000 
#    z -0.019210 0.000000 2.020230 
# 
# From -- ./inp_files/58087.got.cif
#   From: 2010.05.17/outbox.cif.g08.bks.cpg/sg5_30_cif.got.tgz:58087.got - 2010.06.03 18:56:24.
