data_PCOD9130095
_publ_section_title
;
Structure prediction by ZEFSAII (Michael W. Deem and Ramdas Pophale) SiO2 
 PCOD9130095
Probable space group: C 2
;
_chemical_formula_sum "Si O2"
_cell_formula_units_Z 26
_cell_length_a 4.878508
_cell_length_b 18.630464
_cell_length_c 11.163399
_cell_angle_alpha 90.000000
_cell_angle_beta 102.019026
_cell_angle_gamma 90.000000
_cell_volume 992.386518
_symmetry_space_group_name_H-M "C 2"
_symmetry_group_IT_number 5
_symmetry_cell_setting 'monoclinic'
loop_
_space_group_symop_operation_xyz
x,y,z
-x,y,-z
1/2+x,1/2+y,z
1/2-x,1/2+y,-z
loop_
_atom_site_type_symbol
_atom_site_label
_atom_site_fract_x
_atom_site_fract_y
_atom_site_fract_z
Si Si1 0.500000 0.441000 0.000000
Si Si2 0.661680 0.051547 0.126521
Si Si3 0.771878 0.692509 0.748191
Si Si4 0.361707 0.390514 0.366278
Si Si5 0.566378 0.824455 0.870145
Si Si6 0.641145 0.991642 0.668713
Si Si7 0.728646 0.153187 0.616870
O O1 0.347521 0.490194 0.084065
O O2 0.733743 0.391507 0.082193
O O3 0.457478 0.019397 0.208471
O O4 0.111588 0.934365 0.325445
O O5 0.820148 0.118717 0.195201
O O6 0.743571 0.762797 0.822666
O O7 0.523116 0.692034 0.629328
O O8 0.079880 0.679270 0.726264
O O9 0.000000 0.583869 0.000000
O O10 0.500000 0.355362 0.500000
O O11 0.183208 0.347211 0.247060
O O12 0.141729 0.450000 0.395450
O O13 0.500000 0.799200 0.000000
O O14 0.500000 0.175496 0.500000
O O15 0.731335 0.066064 0.613441
#
# Coordination Sequence:
#
# PCOD9130095 Si02
#       7
#     2   4   4   4   4   4   4
#     4  12  28  52  80 118 162 208 274 340 410 482
#     4  11  27  45  84 116 157 205 274 342 406 485
#     4  11  29  48  78 113 160 208 267 327 409 482
#     4  12  27  49  80 118 165 213 272 334 408 488
#     4  12  32  50  83 115 171 216 267 337 412 493
#     4  11  25  46  79 122 160 204 269 344 411 475
#     4  11  24  48  79 113 153 208 269 334 399 477
#
# _framework density 26.199470999999999
#
# number of rings (size 3 to 8) (size 9 to 14) (size 15 to 20)
#    0.000    0.615    0.000    6.000   19.385    0.615 
#    0.000    1.538    0.000    0.000    0.000    0.000 
#    0.000    0.000    0.000    0.000    0.000    0.000 
#
# Total GULP energy -72775.891116 kJ/mol
# GULP energy per Si atom -5598.145470 kJ/mol
# Density = 2.613984 g / cm^3
# Si number density = 26.199471 Si / 1000 Ang^3
#
#
#
# Elastic Constant Matrix: (Units=GPa)
#
#
# Indices 1 2 3 4 5 6 
#
# 1 137.2428 28.2827 17.9479 0.0000 -1.7920 0.0000
# 2 28.2827 118.9023 24.3781 0.0000 -9.1669 0.0000
# 3 17.9479 24.3781 151.9578 0.0000 5.9388 0.0000
# 4 0.0000 0.0000 0.0000 -4.5312 0.0000 6.3812
# 5 -1.7920 -9.1669 5.9388 0.0000 44.2688 0.0000
# 6 0.0000 0.0000 0.0000 6.3812 0.0000 38.6048
#
#
#
# Elastic Compliance Matrix: (Units=1/GPa)
#
#
# Indices 1 2 3 4 5 6 
#
# 1 0.007721 -0.001702 -0.000641 0.000000 0.000046 0.000000
# 2 -0.001702 0.009251 -0.001362 0.000000 0.002030 0.000000
# 3 -0.000641 -0.001362 0.006923 0.000000 -0.001237 0.000000
# 4 0.000000 0.000000 0.000000 -0.179018 0.000000 0.029591
# 5 0.000046 0.002030 -0.001237 0.000000 0.023177 0.000000
# 6 0.000000 0.000000 0.000000 0.029591 0.000000 0.021012
#
#
# Mechanical properties :
#
#
# Convention : Reuss Voigt Hill
#
# Bulk Modulus (GPa) = 60.65823 61.03559 60.84691
# Shear Modulus (GPa) = -51.00604 38.16808 -6.41898
#
# Velocity S-wave (km/s) = -4.41708 3.82098 -1.56696
# Velocity P-wave (km/s) = 1.67673 6.54321 4.47226
#
# Compressibility (1/GPa) = 0.01648581
#
# Stress axis : x y z
#
# Youngs Moduli (GPa) = 129.50946 108.09827 144.43848
#
# Poissons Ratio (x) = 0.18395 0.09255
# Poissons Ratio (y) = 0.22039 0.19678
# Poissons Ratio (z) = 0.08299 0.14727
#
# Static dielectric constant tensor:
#      x y z
#    x 2.156660 0.000000 0.062340 
#    y 0.000000 2.016030 0.000000 
#    z 0.062340 0.000000 2.296120 
# 
# From -- ./inp_files/34015.got.cif
#   From: 2010.05.17/outbox.cif.g08.bks.cpg/sg5_18_cif.got.tgz:34015.got - 2010.06.03 18:56:24.
