data_PCOD9130703
_publ_section_title
;
Structure prediction by ZEFSAII (Michael W. Deem and Ramdas Pophale) SiO2 
 PCOD9130703
Probable space group: C 2
;
_chemical_formula_sum "Si O2"
_cell_formula_units_Z 16
_cell_length_a 15.000000
_cell_length_b 15.000000
_cell_length_c 21.000000
_cell_angle_alpha 90.000000
_cell_angle_beta 20.000000
_cell_angle_gamma 90.000000
_cell_volume 1616.045177
_symmetry_space_group_name_H-M "C 2"
_symmetry_group_IT_number 5
_symmetry_cell_setting 'monoclinic'
loop_
_space_group_symop_operation_xyz
x,y,z
-x,y,-z
1/2+x,1/2+y,z
1/2-x,1/2+y,-z
loop_
_atom_site_type_symbol
_atom_site_label
_atom_site_fract_x
_atom_site_fract_y
_atom_site_fract_z
Si Si1 0.588628 0.529570 0.542811
Si Si2 0.701160 0.180810 0.192173
Si Si3 0.910081 0.542908 0.458037
Si Si4 0.671271 0.186152 0.820705
Si Si5 0.529020 0.468543 0.170202
Si Si6 0.173712 0.885901 0.819501
Si Si7 0.530883 0.103646 0.169264
Si Si8 0.201110 0.891581 0.191938
O O1 0.746802 0.537205 0.502477
O O2 0.385342 0.609942 0.679479
O O3 0.448026 0.436319 0.648755
O O4 0.776443 0.545020 0.357402
O O5 0.553412 0.135753 0.350599
O O6 0.605285 0.149838 0.186406
O O7 0.679114 0.286195 0.209813
O O8 0.000000 0.152683 0.000000
O O9 0.726104 0.526954 0.641458
O O10 0.110959 0.461701 0.321582
O O11 0.784789 0.285872 0.743643
O O12 0.520240 0.169274 0.855670
O O13 0.500000 0.178573 0.000000
O O14 0.476305 0.403294 0.146264
O O15 0.604731 0.422378 0.186449
O O16 0.748992 0.536125 0.000536
O O17 0.000000 0.893244 0.000000
O O18 0.500000 0.919771 0.000000
#
# Coordination Sequence:
#
# PCOD9130703 Si02
#       8
#     4   4   4   4   4   4   4   4
#     4  10  21  37  59  84 116 156 195 244 298 354
#     4  10  21  39  62  88 120 157 198 245 299 362
#     4  10  21  37  59  84 116 156 195 244 298 354
#     4  11  23  39  61  90 123 158 201 252 303 359
#     4  11  22  38  61  88 122 161 200 245 302 360
#     4  11  23  39  61  90 123 158 201 252 303 359
#     4  11  22  38  61  88 122 161 200 245 302 360
#     4  10  21  39  62  88 120 157 198 245 299 362
#
# _framework density 9.9007129999999997
#
# number of rings (size 3 to 8) (size 9 to 14) (size 15 to 20)
#    0.000    1.500    0.000    6.750    0.000    6.000 
#    0.000    2.500    0.000    6.000    0.000    0.000 
#    0.000    0.000    0.000    0.000    0.000    0.000 
#
# Total GULP energy -89263.670644 kJ/mol
# GULP energy per Si atom -5578.979415 kJ/mol
# Density = 0.987818 g / cm^3
# Si number density = 9.900713 Si / 1000 Ang^3
#
#
#
# Elastic Constant Matrix: (Units=GPa)
#
#
# Indices 1 2 3 4 5 6 
#
# 1 106.3013 29.6409 24.5623 0.1138 6.1989 -0.0043
# 2 29.6409 25.5807 24.6788 0.0409 2.1189 0.0557
# 3 24.5623 24.6788 85.1775 0.1319 17.1121 0.0123
# 4 0.1138 0.0409 0.1319 -10.1207 -0.0963 3.5077
# 5 6.1989 2.1189 17.1121 -0.0963 35.6052 0.0232
# 6 -0.0043 0.0557 0.0123 3.5077 0.0232 32.4850
#
#
#
# Elastic Compliance Matrix: (Units=1/GPa)
#
#
# Indices 1 2 3 4 5 6 
#
# 1 0.014087 -0.017541 0.001442 0.000133 -0.002101 0.000019
# 2 -0.017541 0.076846 -0.018707 -0.000238 0.007471 -0.000107
# 3 0.001442 -0.018707 0.018342 0.000256 -0.007952 0.000003
# 4 0.000133 -0.000238 0.000256 -0.095235 -0.000396 0.010284
# 5 -0.002101 0.007471 -0.007952 -0.000396 0.031828 0.000010
# 6 0.000019 -0.000107 0.000003 0.010284 0.000010 0.029673
#
#
# Mechanical properties :
#
#
# Convention : Reuss Voigt Hill
#
# Bulk Modulus (GPa) = 25.21239 41.64706 33.42972
# Shear Modulus (GPa) = 31.57065 20.80574 26.18819
#
# Velocity S-wave (km/s) = 3.99728 3.24500 3.64062
# Velocity P-wave (km/s) = 5.83649 5.92605 5.88144
#
# Compressibility (1/GPa) = 0.03966304
#
# Stress axis : x y z
#
# Youngs Moduli (GPa) = 70.98501 13.01299 54.52015
#
# Poissons Ratio (x) = 0.22825 -0.07860
# Poissons Ratio (y) = 1.24512 1.01993
# Poissons Ratio (z) = -0.10234 0.24344
#
# Static dielectric constant tensor:
#      x y z
#    x 1.818820 -0.000140 0.007640 
#    y -0.000140 1.682460 -0.000150 
#    z 0.007640 -0.000150 1.766960 
# 
# From -- ./inp_files/66222.got.cif
#   From: 2010.05.17/outbox.ucp.g08.bks.cvg/sg5_34_cif.got.tgz:66222.got - 2010.06.11 12:53:14.
