data_PCOD9130953
_publ_section_title
;
Structure prediction by ZEFSAII (Michael W. Deem and Ramdas Pophale) SiO2 
 PCOD9130953
Probable space group: P M
;
_chemical_formula_sum "Si O2"
_cell_formula_units_Z 16
_cell_length_a 11.528079
_cell_length_b 7.781279
_cell_length_c 9.548292
_cell_angle_alpha 90.000000
_cell_angle_beta 65.029827
_cell_angle_gamma 90.000000
_cell_volume 776.452134
_symmetry_space_group_name_H-M "P M"
_symmetry_group_IT_number 6
_symmetry_cell_setting 'monoclinic'
loop_
_space_group_symop_operation_xyz
x,y,z
x,-y,z
loop_
_atom_site_type_symbol
_atom_site_label
_atom_site_fract_x
_atom_site_fract_y
_atom_site_fract_z
Si Si1 0.043480 0.698658 0.261530
Si Si2 0.825207 0.208984 0.866151
Si Si3 0.581502 0.208233 0.495938
Si Si4 0.579380 0.790347 0.817215
Si Si5 0.810690 0.798503 0.188944
Si Si6 0.071795 0.296468 0.559663
Si Si7 0.291347 0.295616 0.652047
Si Si8 0.291845 0.200875 0.973457
O O1 0.004073 0.500000 0.293698
O O2 0.054744 0.774714 0.411857
O O3 0.936162 0.784342 0.220153
O O4 0.179707 0.709376 0.115332
O O5 0.691690 0.262987 0.863367
O O6 0.943541 0.271927 0.713896
O O7 0.830394 0.000000 0.861143
O O8 0.832951 0.272010 0.022124
O O9 0.606993 0.264311 0.643262
O O10 0.689379 0.273969 0.335319
O O11 0.437291 0.261280 0.533411
O O12 0.585448 0.000000 0.494921
O O13 0.435774 0.733101 0.928374
O O14 0.576021 0.000000 0.818737
O O15 0.782549 0.000000 0.182688
O O16 0.096697 0.500000 0.529352
O O17 0.190104 0.227274 0.590720
O O18 0.272922 0.500000 0.676877
O O19 0.271846 0.217543 0.816409
O O20 0.286753 0.000000 0.013016
#
# Coordination Sequence:
#
# PCOD9130953 Si02
#       8
#     2   2   2   2   2   2   2   2
#     4  11  23  38  55  77 108 144 183 225 269 319
#     4  10  20  35  57  82 107 138 178 222 268 319
#     4   9  18  34  55  79 110 144 180 221 264 315
#     4   8  16  32  53  77 106 139 172 212 261 312
#     4  10  21  36  56  83 111 140 178 224 271 320
#     4  10  23  39  53  75 108 144 181 222 267 318
#     4  10  20  36  57  80 110 145 180 219 266 319
#     4  10  20  36  58  83 110 140 178 221 268 322
#
# _framework density 20.606549999999999
#
# number of rings (size 3 to 8) (size 9 to 14) (size 15 to 20)
#    0.000    2.250    0.000    3.375    0.000    7.000 
#    0.000    5.625    0.000    0.000    0.000    0.000 
#    0.000    0.000    0.000    0.000    0.000    0.000 
#
# Total GULP energy -89355.239746 kJ/mol
# GULP energy per Si atom -5584.702484 kJ/mol
# Density = 2.055965 g / cm^3
# Si number density = 20.606550 Si / 1000 Ang^3
#
#
#
# Elastic Constant Matrix: (Units=GPa)
#
#
# Indices 1 2 3 4 5 6 
#
# 1 158.8497 -17.4264 90.2571 0.0000 18.1383 0.0000
# 2 -17.4264 24.3417 -15.7745 0.0000 3.7161 0.0000
# 3 90.2571 -15.7745 147.0235 0.0000 -4.8933 0.0000
# 4 0.0000 0.0000 0.0000 24.4886 0.0000 -9.4713
# 5 18.1383 3.7161 -4.8933 0.0000 27.4263 0.0000
# 6 0.0000 0.0000 0.0000 -9.4713 0.0000 28.4965
#
#
#
# Elastic Compliance Matrix: (Units=1/GPa)
#
#
# Indices 1 2 3 4 5 6 
#
# 1 0.012142 0.005569 -0.007191 0.000000 -0.010068 0.000000
# 2 0.005569 0.047446 0.001343 0.000000 -0.009872 0.000000
# 3 -0.007191 0.001343 0.011582 0.000000 0.006640 0.000000
# 4 0.000000 0.000000 0.000000 0.046859 0.000000 0.015574
# 5 -0.010068 -0.009872 0.006640 0.000000 0.045642 0.000000
# 6 0.000000 0.000000 0.000000 0.015574 0.000000 0.040268
#
#
# Mechanical properties :
#
#
# Convention : Reuss Voigt Hill
#
# Bulk Modulus (GPa) = 14.16199 49.36969 31.76584
# Shear Modulus (GPa) = 21.92652 34.29285 28.10968
#
# Velocity S-wave (km/s) = 3.26553 4.08385 3.69740
# Velocity P-wave (km/s) = 4.59409 6.80054 5.80315
#
# Compressibility (1/GPa) = 0.07061154
#
# Stress axis : x y z
#
# Youngs Moduli (GPa) = 82.35948 21.07646 86.34430
#
# Poissons Ratio (x) = -0.11738 0.62094
# Poissons Ratio (y) = -0.45867 -0.11598
# Poissons Ratio (z) = 0.59228 -0.02831
#
# Static dielectric constant tensor:
#      x y z
#    x 1.711130 0.000000 0.015200 
#    y 0.000000 1.756450 0.000000 
#    z 0.015200 0.000000 1.713800 
# 
# From -- ./inp_files/3520.got.cif
#   From: 2010.05.17/outbox.cif.g08.bks.cpg/sg6_2_cif.got.tgz:3520.got - 2010.06.03 19:42:10.
