data_PCOD9130828
_publ_section_title
;
Structure prediction by ZEFSAII (Michael W. Deem and Ramdas Pophale) SiO2 
 PCOD9130828
Probable space group: P M
;
_chemical_formula_sum "Si O2"
_cell_formula_units_Z 16
_cell_length_a 18.275462
_cell_length_b 8.117101
_cell_length_c 5.085684
_cell_angle_alpha 90.000000
_cell_angle_beta 106.037406
_cell_angle_gamma 90.000000
_cell_volume 725.068305
_symmetry_space_group_name_H-M "P M"
_symmetry_group_IT_number 6
_symmetry_cell_setting 'monoclinic'
loop_
_space_group_symop_operation_xyz
x,y,z
x,-y,z
loop_
_atom_site_type_symbol
_atom_site_label
_atom_site_fract_x
_atom_site_fract_y
_atom_site_fract_z
Si Si1 0.079010 0.811465 0.716020
Si Si2 0.328118 0.301748 0.690187
Si Si3 0.836648 0.199245 0.197078
Si Si4 0.240031 0.699384 0.102727
Si Si5 0.493180 0.801648 0.656078
Si Si6 0.997824 0.311811 0.133988
Si Si7 0.581627 0.201609 0.244900
Si Si8 0.746560 0.799132 0.606489
O O1 0.056773 0.711703 0.433256
O O2 0.080253 0.000000 0.633231
O O3 0.159370 0.760615 0.919926
O O4 0.019270 0.790023 0.895792
O O5 0.326601 0.500000 0.690383
O O6 0.265301 0.244163 0.415985
O O7 0.410635 0.249924 0.673020
O O8 0.304030 0.246183 0.955954
O O9 0.810421 0.252903 0.459518
O O10 0.916627 0.265287 0.175397
O O11 0.841446 0.000000 0.202880
O O12 0.771895 0.248760 0.922641
O O13 0.237239 0.500000 0.102663
O O14 0.518025 0.744914 0.392449
O O15 0.494652 0.000000 0.653249
O O16 0.556014 0.745689 0.930910
O O17 0.998929 0.500000 0.048839
O O18 0.664087 0.256959 0.426425
O O19 0.583595 0.000000 0.244063
O O20 0.744399 0.000000 0.602068
#
# Coordination Sequence:
#
# PCOD9130828 Si02
#       8
#     2   2   2   2   2   2   2   2
#     4  12  25  42  65  93 121 152 197 252 296 344
#     4  10  21  36  55  78 109 146 185 226 276 342
#     4  10  19  33  55  82 109 143 189 240 284 334
#     4  10  21  38  58  81 110 148 187 228 284 350
#     4  10  19  31  51  76 105 139 181 230 278 330
#     4  12  25  42  63  88 123 164 197 236 296 364
#     4   9  17  30  49  77 107 139 180 229 282 334
#     4   9  17  30  52  79 108 141 182 233 288 338
#
# _framework density 22.066886
#
# number of rings (size 3 to 8) (size 9 to 14) (size 15 to 20)
#    0.000    1.750    0.000    5.250    0.000    6.000 
#    0.000    0.000    0.000    4.500    0.000    0.000 
#    0.000    0.000    0.000    0.000    0.000    0.000 
#
# Total GULP energy -89470.964972 kJ/mol
# GULP energy per Si atom -5591.935311 kJ/mol
# Density = 2.201666 g / cm^3
# Si number density = 22.066886 Si / 1000 Ang^3
#
#
#
# Elastic Constant Matrix: (Units=GPa)
#
#
# Indices 1 2 3 4 5 6 
#
# 1 48.8208 -4.4164 -25.7205 0.0000 1.0629 0.0000
# 2 -4.4164 19.5797 1.8150 0.0000 -0.2225 0.0000
# 3 -25.7205 1.8150 55.9583 0.0000 -3.7058 0.0000
# 4 0.0000 0.0000 0.0000 10.0151 0.0000 -5.2520
# 5 1.0629 -0.2225 -3.7058 0.0000 40.3716 0.0000
# 6 0.0000 0.0000 0.0000 -5.2520 0.0000 21.0178
#
#
#
# Elastic Compliance Matrix: (Units=1/GPa)
#
#
# Indices 1 2 3 4 5 6 
#
# 1 0.027525 0.005053 0.012518 0.000000 0.000452 0.000000
# 2 0.005053 0.052156 0.000645 0.000000 0.000214 0.000000
# 3 0.012518 0.000645 0.023726 0.000000 0.001852 0.000000
# 4 0.000000 0.000000 0.000000 0.114907 0.000000 0.028713
# 5 0.000452 0.000214 0.001852 0.000000 0.024929 0.000000
# 6 0.000000 0.000000 0.000000 0.028713 0.000000 0.054754
#
#
# Mechanical properties :
#
#
# Convention : Reuss Voigt Hill
#
# Bulk Modulus (GPa) = 7.15109 7.52388 7.33748
# Shear Modulus (GPa) = 16.22442 24.45959 20.34200
#
# Velocity S-wave (km/s) = 2.71447 3.33292 3.03947
# Velocity P-wave (km/s) = 3.61554 4.26944 3.95602
#
# Compressibility (1/GPa) = 0.13983888
#
# Stress axis : x y z
#
# Youngs Moduli (GPa) = 36.33051 19.17329 42.14838
#
# Poissons Ratio (x) = -0.09689 -0.52760
# Poissons Ratio (y) = -0.18359 -0.02719
# Poissons Ratio (z) = -0.45477 -0.01237
#
# Static dielectric constant tensor:
#      x y z
#    x 1.791570 0.000000 0.001990 
#    y 0.000000 1.780080 0.000000 
#    z 0.001990 0.000000 1.788580 
# 
# From -- ./inp_files/1892.got.cif
#   From: 2010.05.17/outbox.cif.g08.bks.cpg/sg6_1_cif.got.tgz:1892.got - 2010.06.03 19:42:10.
