data_PCOD9130540
_publ_section_title
;
Structure prediction by ZEFSAII (Michael W. Deem and Ramdas Pophale) SiO2 
 PCOD9130540
Probable space group: C 2
;
_chemical_formula_sum "Si O2"
_cell_formula_units_Z 24
_cell_length_a 20.732928
_cell_length_b 5.828307
_cell_length_c 20.814129
_cell_angle_alpha 90.000000
_cell_angle_beta 156.346723
_cell_angle_gamma 90.000000
_cell_volume 1009.074546
_symmetry_space_group_name_H-M "C 2"
_symmetry_group_IT_number 5
_symmetry_cell_setting 'monoclinic'
loop_
_space_group_symop_operation_xyz
x,y,z
-x,y,-z
1/2+x,1/2+y,z
1/2-x,1/2+y,-z
loop_
_atom_site_type_symbol
_atom_site_label
_atom_site_fract_x
_atom_site_fract_y
_atom_site_fract_z
Si Si1 0.818490 0.016440 0.229896
Si Si2 0.673064 0.491387 0.258839
Si Si3 0.116288 0.801387 0.949519
Si Si4 0.500000 0.819244 0.000000
Si Si5 0.000000 0.305550 0.500000
Si Si6 0.123849 0.646245 0.811059
Si Si7 0.707864 0.989376 0.491297
O O1 0.940400 0.154973 0.385378
O O2 0.658051 0.957976 0.123417
O O3 0.904800 0.798266 0.277858
O O4 0.745417 0.139306 0.100782
O O5 0.549626 0.283073 0.162620
O O6 0.568742 0.661500 0.120240
O O7 0.718981 0.559282 0.373108
O O8 0.839605 0.439964 0.374712
O O9 0.107035 0.759461 0.865527
O O10 0.196483 0.050795 0.030254
O O11 0.984002 0.459143 0.681656
O O12 0.733619 0.231404 0.475345
#
# Coordination Sequence:
#
# PCOD9130540 Si02
#       7
#     4   4   4   2   2   4   4
#     4  12  28  48  79 110 153 205 268 327 397 484
#     4  12  28  51  78 113 159 207 266 326 402 485
#     4  12  25  50  78 113 151 201 265 333 403 474
#     4  12  28  48  76 110 154 212 262 324 390 488
#     4  12  30  50  78 110 166 214 262 328 404 488
#     4  12  27  45  80 114 154 201 263 337 409 472
#     4  12  31  50  82 118 161 207 266 341 413 474
#
# _framework density 23.784168000000001
#
# number of rings (size 3 to 8) (size 9 to 14) (size 15 to 20)
#    0.000    0.000    5.000    3.000   14.000    0.000 
#    0.000    0.000    0.000    0.000    0.000    0.000 
#    0.000    0.000    0.000    0.000    0.000    0.000 
#
# Total GULP energy -67028.465037 kJ/mol
# GULP energy per Si atom -5585.705420 kJ/mol
# Density = 2.373003 g / cm^3
# Si number density = 23.784168 Si / 1000 Ang^3
#
#
#
# Elastic Constant Matrix: (Units=GPa)
#
#
# Indices 1 2 3 4 5 6 
#
# 1 72.6087 16.2277 14.0570 -0.0009 14.7816 -0.0008
# 2 16.2277 42.8068 9.9494 0.0027 13.3339 0.0028
# 3 14.0570 9.9494 115.5050 -0.0010 12.3451 -0.0008
# 4 -0.0009 0.0027 -0.0010 106.5295 0.0003 66.4265
# 5 14.7816 13.3339 12.3451 0.0003 57.9441 0.0004
# 6 -0.0008 0.0028 -0.0008 66.4265 0.0004 77.8872
#
#
#
# Elastic Compliance Matrix: (Units=1/GPa)
#
#
# Indices 1 2 3 4 5 6 
#
# 1 0.015617 -0.004825 -0.001205 0.000000 -0.002617 0.000000
# 2 -0.004825 0.026942 -0.001230 0.000000 -0.004707 -0.000001
# 3 -0.001205 -0.001230 0.009053 0.000000 -0.001338 0.000000
# 4 0.000000 0.000000 0.000000 0.020049 0.000000 -0.017099
# 5 -0.002617 -0.004707 -0.001338 0.000000 0.019294 0.000000
# 6 0.000000 -0.000001 0.000000 -0.017099 0.000000 0.027422
#
#
# Mechanical properties :
#
#
# Convention : Reuss Voigt Hill
#
# Bulk Modulus (GPa) = 26.96094 34.59876 30.77985
# Shear Modulus (GPa) = 34.42047 61.18458 47.80252
#
# Velocity S-wave (km/s) = 3.80834 5.07748 4.48799
# Velocity P-wave (km/s) = 5.54059 6.99663 6.31075
#
# Compressibility (1/GPa) = 0.03709070
#
# Stress axis : x y z
#
# Youngs Moduli (GPa) = 64.03325 37.11677 110.45653
#
# Poissons Ratio (x) = 0.17909 0.13313
# Poissons Ratio (y) = 0.30896 0.13591
# Poissons Ratio (z) = 0.07718 0.04567
#
# Static dielectric constant tensor:
#      x y z
#    x 1.900370 0.000000 0.000530 
#    y 0.000000 2.022040 0.000000 
#    z 0.000530 0.000000 1.246570 
# 
# From -- ./inp_files/69600.got.cif
#   From: 2010.05.17/outbox.cif.g08.bks.cpg/sg5_35_cif.got.tgz:69600.got - 2010.06.03 18:56:24.
