data_PCOD9130857
_publ_section_title
;
Structure prediction by ZEFSAII (Michael W. Deem and Ramdas Pophale) SiO2 
 PCOD9130857
Probable space group: P M
;
_chemical_formula_sum "Si O2"
_cell_formula_units_Z 16
_cell_length_a 9.481457
_cell_length_b 8.586498
_cell_length_c 21.838164
_cell_angle_alpha 90.000000
_cell_angle_beta 29.733676
_cell_angle_gamma 90.000000
_cell_volume 881.783402
_symmetry_space_group_name_H-M "P M"
_symmetry_group_IT_number 6
_symmetry_cell_setting 'monoclinic'
loop_
_space_group_symop_operation_xyz
x,y,z
x,-y,z
loop_
_atom_site_type_symbol
_atom_site_label
_atom_site_fract_x
_atom_site_fract_y
_atom_site_fract_z
Si Si1 0.364120 0.320200 0.257820
Si Si2 0.878450 0.811957 0.757818
Si Si3 0.707421 0.320915 0.257817
Si Si4 0.913064 0.689471 0.991148
Si Si5 0.169644 0.186537 0.521409
Si Si6 0.224005 0.813463 0.994227
Si Si7 0.846380 0.310529 0.524492
Si Si8 0.194101 0.688112 0.757820
O O1 0.316402 0.500000 0.257820
O O2 0.535520 0.319032 0.257819
O O3 0.058901 0.252201 0.390722
O O4 0.590506 0.252201 0.124919
O O5 0.548568 0.761368 0.881263
O O6 0.042355 0.761368 0.634371
O O7 0.036784 0.751143 0.757819
O O8 0.879876 0.000000 0.757818
O O9 0.752758 0.500000 0.257817
O O10 0.491668 0.241760 0.386603
O O11 0.006808 0.241759 0.129032
O O12 0.908927 0.500000 0.995638
O O13 0.106293 0.747562 0.974335
O O14 0.038156 0.737734 0.879064
O O15 0.972361 0.252438 0.541302
O O16 0.162036 0.000000 0.521478
O O17 0.216677 0.000000 0.994156
O O18 0.860201 0.500000 0.520002
O O19 0.523134 0.262266 0.636577
O O20 0.189973 0.500000 0.757820
#
# Coordination Sequence:
#
# PCOD9130857 Si02
#       8
#     2   2   2   2   2   2   2   2
#     4   7  12  25  46  69  96 122 148 192 250 297
#     4  10  23  38  50  70 106 144 177 214 256 302
#     4   9  17  31  52  79 106 132 164 212 264 305
#     4   9  17  31  51  76 101 128 165 212 258 302
#     4  10  19  33  54  79 104 136 174 211 254 309
#     4  10  19  33  54  79 104 136 174 211 254 309
#     4   9  17  31  51  76 101 128 165 212 258 302
#     4  10  21  34  50  72 100 136 177 214 254 302
#
# _framework density 18.145047000000002
#
# number of rings (size 3 to 8) (size 9 to 14) (size 15 to 20)
#    0.000    2.750    0.000    3.375    0.000    3.000 
#    0.000    1.250    0.000    1.500    0.000    0.000 
#    0.000    0.000    0.000    0.000    0.000    0.000 
#
# Total GULP energy -89170.908484 kJ/mol
# GULP energy per Si atom -5573.181780 kJ/mol
# Density = 1.810375 g / cm^3
# Si number density = 18.145047 Si / 1000 Ang^3
#
#
#
# Elastic Constant Matrix: (Units=GPa)
#
#
# Indices 1 2 3 4 5 6 
#
# 1 89.4097 17.3327 99.0077 0.0000 0.0185 0.0000
# 2 17.3327 24.0761 35.2296 0.0000 0.1615 0.0000
# 3 99.0077 35.2296 231.8152 0.0000 1.2678 0.0000
# 4 0.0000 0.0000 0.0000 19.2799 0.0000 -0.1048
# 5 0.0185 0.1615 1.2678 0.0000 -3.9280 0.0000
# 6 0.0000 0.0000 0.0000 -0.1048 0.0000 30.9980
#
#
#
# Elastic Compliance Matrix: (Units=1/GPa)
#
#
# Indices 1 2 3 4 5 6 
#
# 1 0.021316 -0.002608 -0.008692 0.000000 -0.002812 0.000000
# 2 -0.002608 0.053731 -0.007051 0.000000 -0.000079 0.000000
# 3 -0.008692 -0.007051 0.009084 0.000000 0.002601 0.000000
# 4 0.000000 0.000000 0.000000 0.051868 0.000000 0.000175
# 5 -0.002812 -0.000079 0.002601 0.000000 -0.253757 0.000000
# 6 0.000000 0.000000 0.000000 0.000175 0.000000 0.032261
#
#
# Mechanical properties :
#
#
# Convention : Reuss Voigt Hill
#
# Bulk Modulus (GPa) = 21.08476 72.04900 46.56688
# Shear Modulus (GPa) = -151.58292 22.18537 -64.69877
#
# Velocity S-wave (km/s) = -9.14991 3.50046 -5.97778
# Velocity P-wave (km/s) = 9.99913 7.49207 4.68249
#
# Compressibility (1/GPa) = 0.04742762
#
# Stress axis : x y z
#
# Youngs Moduli (GPa) = 46.91305 18.61129 110.08751
#
# Poissons Ratio (x) = 0.04853 0.95692
# Poissons Ratio (y) = 0.12233 0.77628
# Poissons Ratio (z) = 0.40779 0.13124
#
# Static dielectric constant tensor:
#      x y z
#    x 1.571590 0.000000 0.000870 
#    y 0.000000 1.615280 0.000000 
#    z 0.000870 0.000000 1.668970 
# 
# From -- ./inp_files/4278.got.cif
#   From: 2010.05.17/outbox.cif.g08.bks.cpg/sg6_3_cif.got.tgz:4278.got - 2010.06.03 19:42:10.
