data_PCOD9130525
_publ_section_title
;
Structure prediction by ZEFSAII (Michael W. Deem and Ramdas Pophale) SiO2 
 PCOD9130525
Probable space group: C 2
;
_chemical_formula_sum "Si O2"
_cell_formula_units_Z 20
_cell_length_a 14.800607
_cell_length_b 5.021403
_cell_length_c 22.019116
_cell_angle_alpha 90.000000
_cell_angle_beta 150.249174
_cell_angle_gamma 90.000000
_cell_volume 812.057240
_symmetry_space_group_name_H-M "C 2"
_symmetry_group_IT_number 5
_symmetry_cell_setting 'monoclinic'
loop_
_space_group_symop_operation_xyz
x,y,z
-x,y,-z
1/2+x,1/2+y,z
1/2-x,1/2+y,-z
loop_
_atom_site_type_symbol
_atom_site_label
_atom_site_fract_x
_atom_site_fract_y
_atom_site_fract_z
Si Si1 0.375349 0.880850 0.803923
Si Si2 0.557709 0.368997 0.964967
Si Si3 0.625637 0.194480 0.380360
Si Si4 0.038957 0.894901 0.453816
Si Si5 0.465813 0.714777 0.226705
O O1 0.490454 0.668461 0.911119
O O2 0.399047 0.777114 0.749633
O O3 0.457534 0.172573 0.860245
O O4 0.161969 0.912339 0.692499
O O5 0.500000 0.306202 0.000000
O O6 0.767918 0.283470 0.084488
O O7 0.644205 0.226819 0.463664
O O8 0.514447 0.429735 0.282411
O O9 0.824483 0.148550 0.465750
O O10 0.502360 0.935402 0.298466
O O11 0.000000 0.806937 0.500000
#
# Coordination Sequence:
#
# PCOD9130525 Si02
#       5
#     4   4   4   4   4
#     4  12  26  47  74 114 149 210 260 320 400 469
#     4  12  25  46  76 111 153 200 261 327 394 473
#     4  12  27  51  76 116 153 209 261 326 392 476
#     4  12  28  53  78 116 160 214 266 330 395 476
#     4  12  25  50  77 112 156 201 264 327 397 473
#
# _framework density 24.628803999999999
#
# number of rings (size 3 to 8) (size 9 to 14) (size 15 to 20)
#    0.000    0.000    2.000    7.800    0.000    3.200 
#    0.000    0.000    0.000    0.000    0.000    0.000 
#    0.000    0.000    0.000    0.000    0.000    0.000 
#
# Total GULP energy -55941.551437 kJ/mol
# GULP energy per Si atom -5594.155144 kJ/mol
# Density = 2.457275 g / cm^3
# Si number density = 24.628804 Si / 1000 Ang^3
#
#
#
# Elastic Constant Matrix: (Units=GPa)
#
#
# Indices 1 2 3 4 5 6 
#
# 1 126.2317 -10.6499 5.9106 -0.0006 -4.6071 0.0009
# 2 -10.6499 91.2650 20.5066 -0.0029 0.2505 0.0063
# 3 5.9106 20.5066 134.4165 0.0006 32.1915 0.0007
# 4 -0.0006 -0.0029 0.0006 41.4257 0.0001 -10.8790
# 5 -4.6071 0.2505 32.1915 0.0001 52.0213 -0.0003
# 6 0.0009 0.0063 0.0007 -10.8790 -0.0003 25.9222
#
#
#
# Elastic Compliance Matrix: (Units=1/GPa)
#
#
# Indices 1 2 3 4 5 6 
#
# 1 0.008100 0.001126 -0.000820 0.000000 0.001219 -0.000001
# 2 0.001126 0.011566 -0.002142 0.000000 0.001370 -0.000003
# 3 -0.000820 -0.002142 0.009177 0.000000 -0.005741 0.000000
# 4 0.000000 0.000000 0.000000 0.027130 0.000000 0.011386
# 5 0.001219 0.001370 -0.005741 0.000000 0.022877 0.000000
# 6 -0.000001 -0.000003 0.000000 0.011386 0.000000 0.043355
#
#
# Mechanical properties :
#
#
# Convention : Reuss Voigt Hill
#
# Bulk Modulus (GPa) = 39.72754 42.60532 41.16643
# Shear Modulus (GPa) = 37.23902 46.28358 41.76130
#
# Velocity S-wave (km/s) = 3.89268 4.33973 4.12227
# Velocity P-wave (km/s) = 6.03071 6.51518 6.27762
#
# Compressibility (1/GPa) = 0.02517146
#
# Stress axis : x y z
#
# Youngs Moduli (GPa) = 123.45922 86.45993 108.96302
#
# Poissons Ratio (x) = -0.09736 0.08935
# Poissons Ratio (y) = -0.13903 0.23340
# Poissons Ratio (z) = 0.10123 0.18520
#
# Static dielectric constant tensor:
#      x y z
#    x 1.955820 0.000000 -0.006740 
#    y 0.000000 1.991930 0.000000 
#    z -0.006740 0.000000 2.071550 
# 
# From -- ./inp_files/45556.got.cif
#   From: 2010.05.17/outbox.cif.g08.bks.cpg/sg5_23_cif.got.tgz:45556.got - 2010.06.03 18:56:24.
