data_PCOD9130157
_publ_section_title
;
Structure prediction by ZEFSAII (Michael W. Deem and Ramdas Pophale) SiO2 
 PCOD9130157
Probable space group: C 2
;
_chemical_formula_sum "Si O2"
_cell_formula_units_Z 32
_cell_length_a 11.169191
_cell_length_b 9.011626
_cell_length_c 28.542308
_cell_angle_alpha 90.000000
_cell_angle_beta 148.642607
_cell_angle_gamma 90.000000
_cell_volume 1494.962121
_symmetry_space_group_name_H-M "C 2"
_symmetry_group_IT_number 5
_symmetry_cell_setting 'monoclinic'
loop_
_space_group_symop_operation_xyz
x,y,z
-x,y,-z
1/2+x,1/2+y,z
1/2-x,1/2+y,-z
loop_
_atom_site_type_symbol
_atom_site_label
_atom_site_fract_x
_atom_site_fract_y
_atom_site_fract_z
Si Si1 0.690094 0.990330 0.601476
Si Si2 0.885593 0.605820 0.911269
Si Si3 0.644705 0.700987 0.261746
Si Si4 0.114407 0.159385 0.588731
Si Si5 0.114209 0.002430 0.678048
Si Si6 0.114208 0.762775 0.178048
Si Si7 0.809906 0.274875 0.898524
Si Si8 0.144706 0.564219 0.761746
O O1 0.500000 0.035928 0.500000
O O2 0.614380 0.835285 0.599621
O O3 0.920001 0.949482 0.649113
O O4 0.743556 0.117848 0.656444
O O5 0.625054 0.665388 0.826638
O O6 0.999951 0.693839 0.906740
O O7 0.885621 0.429920 0.900380
O O8 0.000000 0.625833 0.000000
O O9 0.715488 0.872538 0.281352
O O10 0.749999 0.632602 0.250000
O O11 0.374947 0.099818 0.673362
O O12 0.000000 0.139373 0.500000
O O13 0.000050 0.071366 0.593260
O O14 0.250000 0.132602 0.750000
O O15 0.920001 0.815724 0.149113
O O16 0.284512 0.892667 0.218648
O O17 0.756444 0.147358 0.843556
O O18 0.000000 0.229277 0.000000
#
# Coordination Sequence:
#
# PCOD9130157 Si02
#       8
#     4   4   4   4   4   4   4   4
#     4  11  26  45  68 102 136 177 225 278 337 401
#     4  11  25  46  68 102 136 173 226 280 337 402
#     4  12  24  45  70  98 136 179 221 278 339 395
#     4  11  25  46  68 102 136 173 226 280 337 402
#     4  12  25  45  69  96 136 181 226 277 334 400
#     4  12  25  45  69  96 136 181 226 277 334 400
#     4  11  26  45  68 102 136 177 225 278 337 401
#     4  12  24  45  70  98 136 179 221 278 339 395
#
# _framework density 21.405224
#
# number of rings (size 3 to 8) (size 9 to 14) (size 15 to 20)
#    0.000    0.500    5.000    3.000    3.500    1.000 
#    0.000    0.000    0.000    0.000    0.000    0.000 
#    0.000    0.000    0.000    0.000    0.000    0.000 
#
# Total GULP energy -89543.963970 kJ/mol
# GULP energy per Si atom -5596.497748 kJ/mol
# Density = 2.135650 g / cm^3
# Si number density = 21.405224 Si / 1000 Ang^3
#
#
#
# Elastic Constant Matrix: (Units=GPa)
#
#
# Indices 1 2 3 4 5 6 
#
# 1 66.4320 33.8161 8.8080 0.0000 -15.2546 0.0000
# 2 33.8161 146.1624 61.3811 0.0000 -32.0424 0.0000
# 3 8.8080 61.3811 116.3096 0.0000 -17.3155 0.0000
# 4 0.0000 0.0000 0.0000 19.8181 0.0000 -14.7889
# 5 -15.2546 -32.0424 -17.3155 0.0000 25.9095 0.0000
# 6 0.0000 0.0000 0.0000 -14.7889 0.0000 35.8899
#
#
#
# Elastic Compliance Matrix: (Units=1/GPa)
#
#
# Indices 1 2 3 4 5 6 
#
# 1 0.018246 -0.003094 0.001422 0.000000 0.007867 0.000000
# 2 -0.003094 0.011479 -0.004421 0.000000 0.009420 0.000000
# 3 0.001422 -0.004421 0.011254 0.000000 0.002890 0.000000
# 4 0.000000 0.000000 0.000000 0.072864 0.000000 0.030024
# 5 0.007867 0.009420 0.002890 0.000000 0.056809 0.000000
# 6 0.000000 0.000000 0.000000 0.030024 0.000000 0.040235
#
#
# Mechanical properties :
#
#
# Convention : Reuss Voigt Hill
#
# Bulk Modulus (GPa) = 34.73136 59.65713 47.19425
# Shear Modulus (GPa) = 21.48959 31.31676 26.40317
#
# Velocity S-wave (km/s) = 3.17194 3.82912 3.51592
# Velocity P-wave (km/s) = 5.44755 6.89061 6.21113
#
# Compressibility (1/GPa) = 0.02879242
#
# Stress axis : x y z
#
# Youngs Moduli (GPa) = 54.80717 87.11206 88.85983
#
# Poissons Ratio (x) = 0.26953 -0.12638
# Poissons Ratio (y) = 0.16958 0.39289
# Poissons Ratio (z) = -0.07795 0.38516
#
# Static dielectric constant tensor:
#      x y z
#    x 1.795790 0.000000 0.006830 
#    y 0.000000 1.785490 0.000000 
#    z 0.006830 0.000000 1.754700 
# 
# From -- ./inp_files/65116.got.cif
#   From: 2010.05.17/outbox.cif.g08.bks.cpg/sg5_33_cif.got.tgz:65116.got - 2010.06.03 18:56:24.
