data_PCOD9130250
_publ_section_title
;
Structure prediction by ZEFSAII (Michael W. Deem and Ramdas Pophale) SiO2 
 PCOD9130250
Probable space group: C 2
;
_chemical_formula_sum "Si O2"
_cell_formula_units_Z 20
_cell_length_a 11.760142
_cell_length_b 9.477366
_cell_length_c 8.180020
_cell_angle_alpha 90.000000
_cell_angle_beta 61.459250
_cell_angle_gamma 90.000000
_cell_volume 800.912808
_symmetry_space_group_name_H-M "C 2"
_symmetry_group_IT_number 5
_symmetry_cell_setting 'monoclinic'
loop_
_space_group_symop_operation_xyz
x,y,z
-x,y,-z
1/2+x,1/2+y,z
1/2-x,1/2+y,-z
loop_
_atom_site_type_symbol
_atom_site_label
_atom_site_fract_x
_atom_site_fract_y
_atom_site_fract_z
Si Si1 0.231322 0.873380 0.118090
Si Si2 0.827929 0.578127 0.323543
Si Si3 0.844514 0.129974 0.262105
Si Si4 0.965717 0.354582 0.716484
Si Si5 0.950574 0.849014 0.185885
O O1 0.261610 0.733418 0.206009
O O2 0.076866 0.880024 0.204483
O O3 0.278069 0.009368 0.190197
O O4 0.321682 0.860574 0.893132
O O5 0.722173 0.556591 0.536062
O O6 0.958697 0.496040 0.280924
O O7 0.846844 0.745251 0.331586
O O8 0.963321 0.225239 0.241250
O O9 0.890068 0.987409 0.147072
O O10 0.000000 0.338958 0.500000
O O11 0.000000 0.754504 0.000000
#
# Coordination Sequence:
#
# PCOD9130250 Si02
#       5
#     4   4   4   4   4
#     4  11  27  51  72 103 158 188 239 311 354 434
#     4  11  26  47  73 108 144 189 245 298 364 436
#     4  11  26  47  73 108 144 189 245 298 364 436
#     4  11  26  47  72 103 145 198 240 296 372 428
#     4  12  27  44  77 109 140 192 245 294 371 429
#
# _framework density 24.971508
#
# number of rings (size 3 to 8) (size 9 to 14) (size 15 to 20)
#    0.000    0.800    0.000    7.200   11.200    4.800 
#    0.000    0.000    0.000    0.000    0.000    0.000 
#    0.000    0.000    0.000    0.000    0.000    0.000 
#
# Total GULP energy -55887.757829 kJ/mol
# GULP energy per Si atom -5588.775783 kJ/mol
# Density = 2.491467 g / cm^3
# Si number density = 24.971508 Si / 1000 Ang^3
#
#
#
# Elastic Constant Matrix: (Units=GPa)
#
#
# Indices 1 2 3 4 5 6 
#
# 1 94.9964 48.9948 -20.2371 0.0000 22.9084 0.0000
# 2 48.9948 166.9844 -6.3652 0.0000 4.8350 0.0000
# 3 -20.2371 -6.3652 82.0832 0.0000 12.3001 0.0000
# 4 0.0000 0.0000 0.0000 39.0564 0.0000 1.9271
# 5 22.9084 4.8350 12.3001 0.0000 23.4369 0.0000
# 6 0.0000 0.0000 0.0000 1.9271 0.0000 18.1141
#
#
#
# Elastic Compliance Matrix: (Units=1/GPa)
#
#
# Indices 1 2 3 4 5 6 
#
# 1 0.020444 -0.005016 0.008130 0.000000 -0.023215 0.000000
# 2 -0.005016 0.007294 -0.001281 0.000000 0.004071 0.000000
# 3 0.008130 -0.001281 0.016540 0.000000 -0.016363 0.000000
# 4 0.000000 0.000000 0.000000 0.025739 0.000000 -0.002738
# 5 -0.023215 0.004071 -0.016363 0.000000 0.073108 0.000000
# 6 0.000000 0.000000 0.000000 -0.002738 0.000000 0.055497
#
#
# Mechanical properties :
#
#
# Convention : Reuss Voigt Hill
#
# Bulk Modulus (GPa) = 20.85805 43.20545 32.03175
# Shear Modulus (GPa) = 23.70368 37.56623 30.63496
#
# Velocity S-wave (km/s) = 3.08430 3.88282 3.50637
# Velocity P-wave (km/s) = 4.58854 6.11892 5.40814
#
# Compressibility (1/GPa) = 0.04794313
#
# Stress axis : x y z
#
# Youngs Moduli (GPa) = 48.91318 137.10375 60.45997
#
# Poissons Ratio (x) = 0.68778 -0.49156
# Poissons Ratio (y) = 0.24537 0.07746
# Poissons Ratio (z) = -0.39768 0.17566
#
# Static dielectric constant tensor:
#      x y z
#    x 2.000430 0.000000 0.051150 
#    y 0.000000 1.889640 0.000000 
#    z 0.051150 0.000000 1.943100 
# 
# From -- ./inp_files/18951.got.cif
#   From: 2010.05.17/outbox.cif.g08.bks.cpg/sg5_10_cif.got.tgz:18951.got - 2010.06.03 18:56:24.
