data_PCOD9130365
_publ_section_title
;
Structure prediction by ZEFSAII (Michael W. Deem and Ramdas Pophale) SiO2 
 PCOD9130365
Probable space group: C 2
;
_chemical_formula_sum "Si O2"
_cell_formula_units_Z 14
_cell_length_a 7.471038
_cell_length_b 12.305923
_cell_length_c 9.508758
_cell_angle_alpha 90.000000
_cell_angle_beta 121.402547
_cell_angle_gamma 90.000000
_cell_volume 746.167829
_symmetry_space_group_name_H-M "C 2"
_symmetry_group_IT_number 5
_symmetry_cell_setting 'monoclinic'
loop_
_space_group_symop_operation_xyz
x,y,z
-x,y,-z
1/2+x,1/2+y,z
1/2-x,1/2+y,-z
loop_
_atom_site_type_symbol
_atom_site_label
_atom_site_fract_x
_atom_site_fract_y
_atom_site_fract_z
Si Si1 0.274375 0.462380 0.400654
Si Si2 0.048023 0.623817 0.856239
Si Si3 0.024818 0.866192 0.268175
Si Si4 0.000000 0.032967 0.000000
O O1 0.500000 0.526693 0.500000
O O2 0.323107 0.384137 0.288125
O O3 0.282511 0.394196 0.547678
O O4 0.082672 0.539290 0.291975
O O5 0.292567 0.604866 0.929089
O O6 0.977088 0.745514 0.791164
O O7 0.000000 0.601387 0.000000
O O8 0.016955 0.954147 0.141788
#
# Coordination Sequence:
#
# PCOD9130365 Si02
#       4
#     4   4   4   2
#     4   8  21  45  59  93 133 154 212 266 295 380
#     4  12  22  42  69  91 131 164 208 264 312 371
#     4   9  22  42  61  98 125 165 211 251 326 358
#     4  12  24  38  68 100 120 170 212 254 318 376
#
# _framework density 18.762535
#
# number of rings (size 3 to 8) (size 9 to 14) (size 15 to 20)
#    1.714    0.000    4.286    0.000    0.000    8.000 
#    5.143    0.000    0.000    0.000    0.000    0.000 
#    0.000    0.000    0.000    0.000    0.000    0.000 
#
# Total GULP energy -38968.930517 kJ/mol
# GULP energy per Si atom -5566.990074 kJ/mol
# Density = 1.871983 g / cm^3
# Si number density = 18.762535 Si / 1000 Ang^3
#
#
#
# Elastic Constant Matrix: (Units=GPa)
#
#
# Indices 1 2 3 4 5 6 
#
# 1 72.9119 16.5378 41.4501 0.0000 25.1831 0.0000
# 2 16.5378 73.2582 43.9391 0.0000 10.6646 0.0000
# 3 41.4501 43.9391 113.2501 0.0000 -8.6225 0.0000
# 4 0.0000 0.0000 0.0000 35.0321 0.0000 -0.9643
# 5 25.1831 10.6646 -8.6225 0.0000 31.7371 0.0000
# 6 0.0000 0.0000 0.0000 -0.9643 0.0000 13.4738
#
#
#
# Elastic Compliance Matrix: (Units=1/GPa)
#
#
# Indices 1 2 3 4 5 6 
#
# 1 0.034649 0.008554 -0.018700 0.000000 -0.035449 0.000000
# 2 0.008554 0.022154 -0.013080 0.000000 -0.017786 0.000000
# 3 -0.018700 -0.013080 0.022683 0.000000 0.025396 0.000000
# 4 0.000000 0.000000 0.000000 0.028602 0.000000 0.002047
# 5 -0.035449 -0.017786 0.025396 0.000000 0.072514 0.000000
# 6 0.000000 0.000000 0.000000 0.002047 0.000000 0.074365
#
#
# Mechanical properties :
#
#
# Convention : Reuss Voigt Hill
#
# Bulk Modulus (GPa) = 30.27158 51.47491 40.87325
# Shear Modulus (GPa) = 16.00365 26.54814 21.27589
#
# Velocity S-wave (km/s) = 2.92371 3.76567 3.37108
# Velocity P-wave (km/s) = 5.25038 6.81187 6.08145
#
# Compressibility (1/GPa) = 0.03303429
#
# Stress axis : x y z
#
# Youngs Moduli (GPa) = 28.86057 45.13896 44.08639
#
# Poissons Ratio (x) = -0.38613 0.82440
# Poissons Ratio (y) = -0.24688 0.57667
# Poissons Ratio (z) = 0.53968 0.59043
#
# Static dielectric constant tensor:
#      x y z
#    x 1.658990 0.000000 -0.004010 
#    y 0.000000 1.597770 0.000000 
#    z -0.004010 0.000000 1.668420 
# 
# From -- ./inp_files/11519.got.cif
#   From: 2010.05.17/outbox.cif.g08.bks.cpg/sg5_6_cif.got.tgz:11519.got - 2010.06.03 18:56:24.
