data_PCOD9130532
_publ_section_title
;
Structure prediction by ZEFSAII (Michael W. Deem and Ramdas Pophale) SiO2 
 PCOD9130532
Probable space group: C 2
;
_chemical_formula_sum "Si O2"
_cell_formula_units_Z 18
_cell_length_a 14.144857
_cell_length_b 4.598522
_cell_length_c 14.950809
_cell_angle_alpha 90.000000
_cell_angle_beta 135.862634
_cell_angle_gamma 90.000000
_cell_volume 677.217894
_symmetry_space_group_name_H-M "C 2"
_symmetry_group_IT_number 5
_symmetry_cell_setting 'monoclinic'
loop_
_space_group_symop_operation_xyz
x,y,z
-x,y,-z
1/2+x,1/2+y,z
1/2-x,1/2+y,-z
loop_
_atom_site_type_symbol
_atom_site_label
_atom_site_fract_x
_atom_site_fract_y
_atom_site_fract_z
Si Si1 0.348426 0.419920 0.066492
Si Si2 0.500000 0.408750 0.000000
Si Si3 0.573050 0.134385 0.700951
Si Si4 0.803146 0.963180 0.483956
Si Si5 0.765175 0.122869 0.259021
O O1 0.435479 0.552683 0.044604
O O2 0.427987 0.239234 0.196359
O O3 0.258426 0.682125 0.043609
O O4 0.621721 0.222652 0.124755
O O5 0.438676 0.271809 0.567630
O O6 0.704569 0.296051 0.750085
O O7 0.608432 0.809588 0.695177
O O8 0.807110 0.221641 0.559889
O O9 0.768515 0.119031 0.368152
#
# Coordination Sequence:
#
# PCOD9130532 Si02
#       5
#     4   2   4   4   4
#     4  12  25  47  73 113 153 198 260 319 389 465
#     4  12  26  48  80 114 158 202 266 312 406 470
#     4  12  25  50  75 112 162 204 266 329 396 473
#     4  12  27  49  76 114 157 210 272 328 397 484
#     4  12  27  47  79 115 154 214 262 326 399 478
#
# _framework density 26.579333999999999
#
# number of rings (size 3 to 8) (size 9 to 14) (size 15 to 20)
#    0.000    0.000    4.444    4.667    0.000    7.111 
#    0.000    0.000    0.000    0.000    0.000    0.000 
#    0.000    0.000    0.000    0.000    0.000    0.000 
#
# Total GULP energy -50424.286861 kJ/mol
# GULP energy per Si atom -5602.698540 kJ/mol
# Density = 2.651884 g / cm^3
# Si number density = 26.579334 Si / 1000 Ang^3
#
#
#
# Elastic Constant Matrix: (Units=GPa)
#
#
# Indices 1 2 3 4 5 6 
#
# 1 147.7195 20.6413 51.4034 0.0002 -16.3501 0.0003
# 2 20.6413 101.5858 9.1640 0.0008 4.4968 0.0028
# 3 51.4034 9.1640 142.7310 0.0000 -5.2094 0.0002
# 4 0.0002 0.0008 0.0000 30.9761 0.0000 -5.9437
# 5 -16.3501 4.4968 -5.2094 0.0000 52.2435 0.0002
# 6 0.0003 0.0028 0.0002 -5.9437 0.0002 31.3984
#
#
#
# Elastic Compliance Matrix: (Units=1/GPa)
#
#
# Indices 1 2 3 4 5 6 
#
# 1 0.008216 -0.001527 -0.002772 0.000000 0.002426 0.000000
# 2 -0.001527 0.010229 -0.000157 0.000000 -0.001374 -0.000001
# 3 -0.002772 -0.000157 0.008013 0.000000 -0.000055 0.000000
# 4 0.000000 0.000000 0.000000 0.033500 0.000000 0.006342
# 5 0.002426 -0.001374 -0.000055 0.000000 0.020013 0.000000
# 6 0.000000 -0.000001 0.000000 0.006342 0.000000 0.033049
#
#
# Mechanical properties :
#
#
# Convention : Reuss Voigt Hill
#
# Bulk Modulus (GPa) = 56.99443 61.60595 59.30019
# Shear Modulus (GPa) = 39.12936 43.64544 41.38740
#
# Velocity S-wave (km/s) = 3.84105 4.05666 3.95033
# Velocity P-wave (km/s) = 6.41570 6.72089 6.57007
#
# Compressibility (1/GPa) = 0.01754557
#
# Stress axis : x y z
#
# Youngs Moduli (GPa) = 121.71036 97.76026 124.80147
#
# Poissons Ratio (x) = 0.14926 0.34600
# Poissons Ratio (y) = 0.18582 0.01960
# Poissons Ratio (z) = 0.33743 0.01535
#
# Static dielectric constant tensor:
#      x y z
#    x 2.099460 0.000000 -0.008920 
#    y 0.000000 2.004140 0.000000 
#    z -0.008920 0.000000 2.087720 
# 
# From -- ./inp_files/46727.got.cif
#   From: 2010.05.17/outbox.cif.g08.bks.cpg/sg5_24_cif.got.tgz:46727.got - 2010.06.03 18:56:24.
