data_PCOD9130230
_publ_section_title
;
Structure prediction by ZEFSAII (Michael W. Deem and Ramdas Pophale) SiO2 
 PCOD9130230
Probable space group: C 2
;
_chemical_formula_sum "Si O2"
_cell_formula_units_Z 16
_cell_length_a 21.171577
_cell_length_b 4.995924
_cell_length_c 9.159200
_cell_angle_alpha 90.000000
_cell_angle_beta 144.067103
_cell_angle_gamma 90.000000
_cell_volume 568.518137
_symmetry_space_group_name_H-M "C 2"
_symmetry_group_IT_number 5
_symmetry_cell_setting 'monoclinic'
loop_
_space_group_symop_operation_xyz
x,y,z
-x,y,-z
1/2+x,1/2+y,z
1/2-x,1/2+y,-z
loop_
_atom_site_type_symbol
_atom_site_label
_atom_site_fract_x
_atom_site_fract_y
_atom_site_fract_z
Si Si1 0.905293 0.801010 0.401999
Si Si2 0.009640 0.080180 0.189282
Si Si3 0.839655 0.482201 0.007093
Si Si4 0.736231 0.819508 0.574115
O O1 0.000000 0.975266 0.500000
O O2 0.955891 0.814624 0.657560
O O3 0.782286 0.891400 0.186708
O O4 0.891485 0.566243 0.257877
O O5 0.116818 0.263010 0.407977
O O6 0.000000 0.023192 0.000000
O O7 0.911063 0.256005 0.064258
O O8 0.818741 0.727713 0.854627
O O9 0.753444 0.612579 0.472626
#
# Coordination Sequence:
#
# PCOD9130230 Si02
#       4
#     4   4   4   4
#     4  11  27  48  81 113 161 215 278 332 425 492
#     4  11  25  51  83 121 162 218 282 346 420 499
#     4  11  26  50  80 118 169 218 278 350 418 509
#     4  11  26  50  83 122 167 219 278 347 424 493
#
# _framework density 28.143343999999999
#
# number of rings (size 3 to 8) (size 9 to 14) (size 15 to 20)
#    0.000    1.000    2.500    1.500    3.500   13.000 
#    0.000    0.000    0.000    0.000    0.000    0.000 
#    0.000    0.000    0.000    0.000    0.000    0.000 
#
# Total GULP energy -44830.658820 kJ/mol
# GULP energy per Si atom -5603.832352 kJ/mol
# Density = 2.807929 g / cm^3
# Si number density = 28.143344 Si / 1000 Ang^3
#
#
#
# Elastic Constant Matrix: (Units=GPa)
#
#
# Indices 1 2 3 4 5 6 
#
# 1 196.1300 71.0282 102.9990 0.0000 9.6399 0.0000
# 2 71.0282 100.4720 62.6887 0.0000 -24.2826 0.0000
# 3 102.9990 62.6887 290.0873 0.0000 -16.0977 0.0000
# 4 0.0000 0.0000 0.0000 30.7199 0.0000 -15.1368
# 5 9.6399 -24.2826 -16.0977 0.0000 69.1473 0.0000
# 6 0.0000 0.0000 0.0000 -15.1368 0.0000 42.4776
#
#
#
# Elastic Compliance Matrix: (Units=1/GPa)
#
#
# Indices 1 2 3 4 5 6 
#
# 1 0.008288 -0.005498 -0.001951 0.000000 -0.003540 0.000000
# 2 -0.005498 0.016056 -0.001178 0.000000 0.006131 0.000000
# 3 -0.001951 -0.001178 0.004444 0.000000 0.000893 0.000000
# 4 0.000000 0.000000 0.000000 0.039485 0.000000 0.014070
# 5 -0.003540 0.006131 0.000893 0.000000 0.017316 0.000000
# 6 0.000000 0.000000 0.000000 0.014070 0.000000 0.028556
#
#
# Mechanical properties :
#
#
# Convention : Reuss Voigt Hill
#
# Bulk Modulus (GPa) = 86.68855 117.79123 102.23989
# Shear Modulus (GPa) = 36.97033 51.80052 44.38542
#
# Velocity S-wave (km/s) = 3.62835 4.29487 3.97560
# Velocity P-wave (km/s) = 6.95864 8.15717 7.58163
#
# Compressibility (1/GPa) = 0.01153555
#
# Stress axis : x y z
#
# Youngs Moduli (GPa) = 120.65138 62.28234 225.01727
#
# Poissons Ratio (x) = 0.34240 0.43908
# Poissons Ratio (y) = 0.66329 0.26497
# Poissons Ratio (z) = 0.23543 0.07334
#
# Static dielectric constant tensor:
#      x y z
#    x 2.236610 0.000000 0.037110 
#    y 0.000000 2.179320 0.000000 
#    z 0.037110 0.000000 2.183750 
# 
# From -- ./inp_files/28418.got.cif
#   From: 2010.05.17/outbox.cif.g08.bks.cpg/sg5_15_cif.got.tgz:28418.got - 2010.06.03 18:56:24.
