data_PCOD9130838
_publ_section_title
;
Structure prediction by ZEFSAII (Michael W. Deem and Ramdas Pophale) SiO2 
 PCOD9130838
Probable space group: P M
;
_chemical_formula_sum "Si O2"
_cell_formula_units_Z 16
_cell_length_a 10.495041
_cell_length_b 9.151389
_cell_length_c 12.447594
_cell_angle_alpha 90.000000
_cell_angle_beta 52.540854
_cell_angle_gamma 90.000000
_cell_volume 948.987881
_symmetry_space_group_name_H-M "P M"
_symmetry_group_IT_number 6
_symmetry_cell_setting 'monoclinic'
loop_
_space_group_symop_operation_xyz
x,y,z
x,-y,z
loop_
_atom_site_type_symbol
_atom_site_label
_atom_site_fract_x
_atom_site_fract_y
_atom_site_fract_z
Si Si1 0.212920 0.325361 0.559610
Si Si2 0.871278 0.174936 0.707138
Si Si3 0.538411 0.674693 0.281707
Si Si4 0.807482 0.174683 0.288302
Si Si5 0.349236 0.675591 0.726291
Si Si6 0.756434 0.672994 0.976118
Si Si7 0.691378 0.175570 0.580949
Si Si8 0.032705 0.674152 0.011468
O O1 0.182026 0.500000 0.575301
O O2 0.354157 0.292937 0.402232
O O3 0.283703 0.287912 0.640876
O O4 0.049173 0.241797 0.621826
O O5 0.775037 0.236065 0.858945
O O6 0.784360 0.218375 0.641112
O O7 0.879624 0.000000 0.707598
O O8 0.562803 0.500000 0.286195
O O9 0.653563 0.758969 0.305199
O O10 0.602838 0.707385 0.129372
O O11 0.789557 0.213339 0.422571
O O12 0.961193 0.241946 0.149718
O O13 0.807863 0.000000 0.277141
O O14 0.368827 0.500000 0.719345
O O15 0.517351 0.751417 0.662616
O O16 0.209914 0.716023 0.882155
O O17 0.755875 0.500000 0.951515
O O18 0.910103 0.700442 0.974838
O O19 0.671778 0.000000 0.591743
O O20 0.028602 0.500000 0.033646
#
# Coordination Sequence:
#
# PCOD9130838 Si02
#       8
#     2   2   2   2   2   2   2   2
#     4  10  19  35  57  82 107 135 177 225 268 312
#     4  11  23  37  53  76 110 149 181 214 261 318
#     4   9  18  33  55  80 107 134 169 222 273 311
#     4  10  19  32  52  78 107 140 177 215 260 315
#     4  10  19  34  58  83 105 135 179 224 266 314
#     4   9  17  33  54  78 108 139 171 218 268 313
#     4  10  23  39  52  75 112 146 179 219 263 313
#     4   9  18  33  53  80 110 134 167 221 271 312
#
# _framework density 16.860067000000001
#
# number of rings (size 3 to 8) (size 9 to 14) (size 15 to 20)
#    0.000    2.250    2.500    1.500    0.000    5.000 
#    0.000    1.250    0.000    6.000    0.000    0.000 
#    0.000    0.000    0.000    0.000    0.000    0.000 
#
# Total GULP energy -89260.568978 kJ/mol
# GULP energy per Si atom -5578.785561 kJ/mol
# Density = 1.682169 g / cm^3
# Si number density = 16.860067 Si / 1000 Ang^3
#
#
#
# Elastic Constant Matrix: (Units=GPa)
#
#
# Indices 1 2 3 4 5 6 
#
# 1 110.1718 47.3063 86.3093 0.0000 4.1043 0.0000
# 2 47.3063 37.0759 63.3706 0.0000 5.1483 0.0000
# 3 86.3093 63.3706 179.2900 0.0000 1.2036 0.0000
# 4 0.0000 0.0000 0.0000 19.3530 0.0000 -1.7353
# 5 4.1043 5.1483 1.2036 0.0000 21.5864 0.0000
# 6 0.0000 0.0000 0.0000 -1.7353 0.0000 19.0758
#
#
#
# Elastic Compliance Matrix: (Units=1/GPa)
#
#
# Indices 1 2 3 4 5 6 
#
# 1 0.020318 -0.023870 -0.001357 0.000000 0.001905 0.000000
# 2 -0.023870 0.101337 -0.024204 0.000000 -0.018281 0.000000
# 3 -0.001357 -0.024204 0.014751 0.000000 0.005208 0.000000
# 4 0.000000 0.000000 0.000000 0.052097 0.000000 0.004739
# 5 0.001905 -0.018281 0.005208 0.000000 0.050033 0.000000
# 6 0.000000 0.000000 0.000000 0.004739 0.000000 0.052854
#
#
# Mechanical properties :
#
#
# Convention : Reuss Voigt Hill
#
# Bulk Modulus (GPa) = 26.63564 80.05668 53.34616
# Shear Modulus (GPa) = 12.41417 20.63980 16.52699
#
# Velocity S-wave (km/s) = 2.71644 3.50263 3.13428
# Velocity P-wave (km/s) = 5.06666 7.99650 6.69384
#
# Compressibility (1/GPa) = 0.03754368
#
# Stress axis : x y z
#
# Youngs Moduli (GPa) = 49.21688 9.86809 67.79250
#
# Poissons Ratio (x) = 0.23555 0.09200
# Poissons Ratio (y) = 1.17480 1.64086
# Poissons Ratio (z) = 0.06679 0.23885
#
# Static dielectric constant tensor:
#      x y z
#    x 1.532750 0.000000 -0.002150 
#    y 0.000000 1.560010 0.000000 
#    z -0.002150 0.000000 1.587710 
# 
# From -- ./inp_files/3461.got.cif
#   From: 2010.05.17/outbox.cif.g08.bks.cpg/sg6_2_cif.got.tgz:3461.got - 2010.06.03 19:42:10.
