data_PCOD9130892
_publ_section_title
;
Structure prediction by ZEFSAII (Michael W. Deem and Ramdas Pophale) SiO2 
 PCOD9130892
Probable space group: P M
;
_chemical_formula_sum "Si O2"
_cell_formula_units_Z 16
_cell_length_a 12.979149
_cell_length_b 8.697582
_cell_length_c 13.009732
_cell_angle_alpha 90.000000
_cell_angle_beta 35.141665
_cell_angle_gamma 90.000000
_cell_volume 845.344876
_symmetry_space_group_name_H-M "P M"
_symmetry_group_IT_number 6
_symmetry_cell_setting 'monoclinic'
loop_
_space_group_symop_operation_xyz
x,y,z
x,-y,z
loop_
_atom_site_type_symbol
_atom_site_label
_atom_site_fract_x
_atom_site_fract_y
_atom_site_fract_z
Si Si1 0.330930 0.816001 0.355300
Si Si2 0.082771 0.314014 0.063923
Si Si3 0.973295 0.180005 0.940929
Si Si4 0.974942 0.316629 0.715589
Si Si5 0.575911 0.314010 0.975860
Si Si6 0.465764 0.687617 0.837746
Si Si7 0.692793 0.315191 0.457843
Si Si8 0.566629 0.819380 0.353279
O O1 0.424941 0.762147 0.385121
O O2 0.128359 0.759448 0.522295
O O3 0.340553 0.000000 0.346495
O O4 0.440586 0.750785 0.170424
O O5 0.079894 0.500000 0.060991
O O6 0.897708 0.263253 0.270187
O O7 0.263337 0.266322 0.974399
O O8 0.078201 0.249055 0.952164
O O9 0.004461 0.265534 0.808985
O O10 0.014885 0.000000 0.894652
O O11 0.763122 0.195436 0.141528
O O12 0.986618 0.500000 0.698003
O O13 0.777052 0.267502 0.842076
O O14 0.568282 0.500000 0.985249
O O15 0.524725 0.263021 0.902864
O O16 0.468785 0.500000 0.834878
O O17 0.601007 0.739694 0.637644
O O18 0.696579 0.500000 0.457909
O O19 0.577450 0.265212 0.453044
O O20 0.534226 0.000000 0.398734
#
# Coordination Sequence:
#
# PCOD9130892 Si02
#       8
#     2   2   2   2   2   2   2   2
#     4  11  23  39  59  85 118 156 196 239 295 351
#     4   9  18  33  54  82 113 147 186 233 286 342
#     4  10  19  35  57  82 118 155 188 235 293 348
#     4  11  23  37  58  88 117 152 198 243 290 347
#     4  10  22  41  62  85 117 155 199 246 289 342
#     4   9  19  36  58  83 110 146 191 238 286 338
#     4   9  18  32  53  81 111 144 181 228 282 337
#     4   9  19  35  55  80 114 151 185 230 285 343
#
# _framework density 18.927188000000001
#
# number of rings (size 3 to 8) (size 9 to 14) (size 15 to 20)
#    0.000    2.250    1.250    1.125    1.750    3.000 
#    0.000    5.000    0.000    3.000    0.000    0.000 
#    0.000    0.000    0.000    0.000    0.000    0.000 
#
# Total GULP energy -89336.120021 kJ/mol
# GULP energy per Si atom -5583.507501 kJ/mol
# Density = 1.888411 g / cm^3
# Si number density = 18.927188 Si / 1000 Ang^3
#
#
#
# Elastic Constant Matrix: (Units=GPa)
#
#
# Indices 1 2 3 4 5 6 
#
# 1 139.2639 24.6726 104.7375 0.0000 17.3371 0.0000
# 2 24.6726 13.9717 26.7851 0.0000 -0.5465 0.0000
# 3 104.7375 26.7851 142.5658 0.0000 3.4218 0.0000
# 4 0.0000 0.0000 0.0000 -15.7224 0.0000 -26.4033
# 5 17.3371 -0.5465 3.4218 0.0000 16.6571 0.0000
# 6 0.0000 0.0000 0.0000 -26.4033 0.0000 -2.6334
#
#
#
# Elastic Compliance Matrix: (Units=1/GPa)
#
#
# Indices 1 2 3 4 5 6 
#
# 1 0.022264 -0.015234 -0.012990 0.000000 -0.021004 0.000000
# 2 -0.015234 0.123367 -0.012526 0.000000 0.022477 0.000000
# 3 -0.012990 -0.012526 0.018689 0.000000 0.009271 0.000000
# 4 0.000000 0.000000 0.000000 0.004016 0.000000 -0.040265
# 5 -0.021004 0.022477 0.009271 0.000000 0.080730 0.000000
# 6 0.000000 0.000000 0.000000 -0.040265 0.000000 0.023977
#
#
# Mechanical properties :
#
#
# Convention : Reuss Voigt Hill
#
# Bulk Modulus (GPa) = 12.07439 67.57685 39.82562
# Shear Modulus (GPa) = 13.08389 8.96733 11.02561
#
# Velocity S-wave (km/s) = 2.63206 2.17901 2.41618
# Velocity P-wave (km/s) = 3.95351 6.48937 5.37318
#
# Compressibility (1/GPa) = 0.08281993
#
# Stress axis : x y z
#
# Youngs Moduli (GPa) = 44.91526 8.10587 53.50871
#
# Poissons Ratio (x) = 0.12349 0.69509
# Poissons Ratio (y) = 0.68425 0.67023
# Poissons Ratio (z) = 0.58346 0.10153
#
# Static dielectric constant tensor:
#      x y z
#    x 1.639770 0.000000 -0.018190 
#    y 0.000000 1.635690 0.000000 
#    z -0.018190 0.000000 1.657380 
# 
# From -- ./inp_files/5020.got.cif
#   From: 2010.05.17/outbox.cif.g08.bks.cpg/sg6_3_cif.got.tgz:5020.got - 2010.06.03 19:42:10.
