data_PCOD9130965
_publ_section_title
;
Structure prediction by ZEFSAII (Michael W. Deem and Ramdas Pophale) SiO2 
 PCOD9130965
Probable space group: P M
;
_chemical_formula_sum "Si O2"
_cell_formula_units_Z 13
_cell_length_a 7.080977
_cell_length_b 12.076054
_cell_length_c 10.702360
_cell_angle_alpha 90.000000
_cell_angle_beta 43.238074
_cell_angle_gamma 90.000000
_cell_volume 626.914397
_symmetry_space_group_name_H-M "P M"
_symmetry_group_IT_number 6
_symmetry_cell_setting 'monoclinic'
loop_
_space_group_symop_operation_xyz
x,y,z
x,-y,z
loop_
_atom_site_type_symbol
_atom_site_label
_atom_site_fract_x
_atom_site_fract_y
_atom_site_fract_z
Si Si1 0.465961 0.500000 0.361890
Si Si2 0.973207 0.121693 0.618925
Si Si3 0.659866 0.300648 0.449171
Si Si4 0.580821 0.875103 0.042555
Si Si5 0.204291 0.700301 0.338167
Si Si6 0.912685 0.122884 0.141722
Si Si7 0.423359 0.122965 0.726923
O O1 0.546166 0.403247 0.426939
O O2 0.378161 0.597058 0.301813
O O3 0.731181 0.116647 0.632078
O O4 0.161782 0.219019 0.478265
O O5 0.108156 0.000000 0.556859
O O6 0.811793 0.142422 0.825347
O O7 0.805699 0.215108 0.284945
O O8 0.428882 0.226523 0.631510
O O9 0.904343 0.333809 0.428672
O O10 0.359616 0.777568 0.161677
O O11 0.734366 0.875412 0.101199
O O12 0.465759 0.000000 0.077870
O O13 0.890191 0.000000 0.208971
O O14 0.221103 0.140715 0.941346
O O15 0.351729 0.000000 0.709904
#
# Coordination Sequence:
#
# PCOD9130965 Si02
#       7
#     1   2   2   2   2   2   2
#     4  12  26  44  60  86 116 158 218 258 286 342
#     4   9  19  36  61  93 123 153 191 238 300 369
#     4  11  23  42  64  86 119 161 202 249 300 348
#     4  10  20  35  61  96 127 155 190 239 303 368
#     4  11  23  42  64  86 119 161 202 249 300 348
#     4  10  20  35  61  96 127 155 190 239 303 368
#     4   9  19  36  61  93 123 153 191 238 300 369
#
# _framework density 20.736484000000001
#
# number of rings (size 3 to 8) (size 9 to 14) (size 15 to 20)
#    0.000    1.846    1.538    2.308    2.154    3.077 
#    0.000    3.077    0.000    3.692    0.000    0.000 
#    0.000    0.000    0.000    0.000    0.000    0.000 
#
# Total GULP energy -72367.383131 kJ/mol
# GULP energy per Si atom -5566.721779 kJ/mol
# Density = 2.068929 g / cm^3
# Si number density = 20.736484 Si / 1000 Ang^3
#
#
#
# Elastic Constant Matrix: (Units=GPa)
#
#
# Indices 1 2 3 4 5 6 
#
# 1 64.7203 26.0228 2.7128 0.0000 14.8352 0.0000
# 2 26.0228 183.8864 72.5938 0.0000 8.6694 0.0000
# 3 2.7128 72.5938 72.6610 0.0000 9.9980 0.0000
# 4 0.0000 0.0000 0.0000 6.2650 0.0000 14.9550
# 5 14.8352 8.6694 9.9980 0.0000 27.3451 0.0000
# 6 0.0000 0.0000 0.0000 14.9550 0.0000 35.8535
#
#
#
# Elastic Compliance Matrix: (Units=1/GPa)
#
#
# Indices 1 2 3 4 5 6 
#
# 1 0.019467 -0.004206 0.004997 0.000000 -0.011054 0.000000
# 2 -0.004206 0.009894 -0.010119 0.000000 0.002845 0.000000
# 3 0.004997 -0.010119 0.024869 0.000000 -0.008595 0.000000
# 4 0.000000 0.000000 0.000000 36.969216 0.000000-15.420411
# 5 -0.011054 0.002845 -0.008595 0.000000 0.044807 0.000000
# 6 0.000000 0.000000 0.000000-15.420411 0.000000 6.459975
#
#
# Mechanical properties :
#
#
# Convention : Reuss Voigt Hill
#
# Bulk Modulus (GPa) = 28.11226 58.21406 43.16316
# Shear Modulus (GPa) = 0.11479 28.55527 14.33503
#
# Velocity S-wave (km/s) = 0.23553 3.71489 2.63210
# Velocity P-wave (km/s) = 3.69599 6.82164 5.48612
#
# Compressibility (1/GPa) = 0.03557167
#
# Stress axis : x y z
#
# Youngs Moduli (GPa) = 51.36943 101.06956 40.21102
#
# Poissons Ratio (x) = 0.42512 -0.20092
# Poissons Ratio (y) = 0.21607 0.40691
# Poissons Ratio (z) = -0.25668 1.02277
#
# Static dielectric constant tensor:
#      x y z
#    x 1.846740 0.000000 -0.020190 
#    y 0.000000 1.695390 0.000000 
#    z -0.020190 0.000000 1.741640 
# 
# From -- ./inp_files/4747.got.cif
#   From: 2010.05.17/outbox.cif.g08.bks.cpg/sg6_3_cif.got.tgz:4747.got - 2010.06.03 19:42:10.
