data_PCOD9130554
_publ_section_title
;
Structure prediction by ZEFSAII (Michael W. Deem and Ramdas Pophale) SiO2 
 PCOD9130554
Probable space group: C 2
;
_chemical_formula_sum "Si O2"
_cell_formula_units_Z 20
_cell_length_a 24.171761
_cell_length_b 5.547663
_cell_length_c 11.438466
_cell_angle_alpha 90.000000
_cell_angle_beta 147.801661
_cell_angle_gamma 90.000000
_cell_volume 817.320780
_symmetry_space_group_name_H-M "C 2"
_symmetry_group_IT_number 5
_symmetry_cell_setting 'monoclinic'
loop_
_space_group_symop_operation_xyz
x,y,z
-x,y,-z
1/2+x,1/2+y,z
1/2-x,1/2+y,-z
loop_
_atom_site_type_symbol
_atom_site_label
_atom_site_fract_x
_atom_site_fract_y
_atom_site_fract_z
Si Si1 0.607105 0.746750 0.691692
Si Si2 0.755132 0.955406 0.578582
Si Si3 0.105932 0.603337 0.484711
Si Si4 0.060233 0.738320 0.988714
Si Si5 0.713306 0.943058 0.107948
O O1 0.500000 0.591637 0.500000
O O2 0.711596 0.632540 0.824380
O O3 0.577219 0.964315 0.550640
O O4 0.640173 0.824482 0.879825
O O5 0.761533 0.713636 0.511997
O O6 0.654373 0.913727 0.479514
O O7 0.865437 0.960215 0.843988
O O8 0.204733 0.760856 0.693108
O O9 0.020787 0.757653 0.262885
O O10 0.143203 0.551788 0.084387
O O11 0.000000 0.668907 0.000000
#
# Coordination Sequence:
#
# PCOD9130554 Si02
#       5
#     4   4   4   4   4
#     4  12  26  46  78 113 152 210 272 337 403 482
#     4  12  27  54  77 116 165 214 272 338 397 484
#     4  12  27  48  78 113 161 209 268 338 406 481
#     4  12  27  48  78 119 155 219 263 335 403 494
#     4  12  27  50  74 116 160 208 274 336 403 477
#
# _framework density 24.470196000000001
#
# number of rings (size 3 to 8) (size 9 to 14) (size 15 to 20)
#    0.000    0.000    8.000    1.200    0.000    4.000 
#   10.800    0.000    0.000    0.000    0.000    0.000 
#    0.000    0.000    0.000    0.000    0.000    0.000 
#
# Total GULP energy -55929.472285 kJ/mol
# GULP energy per Si atom -5592.947228 kJ/mol
# Density = 2.441450 g / cm^3
# Si number density = 24.470196 Si / 1000 Ang^3
#
#
#
# Elastic Constant Matrix: (Units=GPa)
#
#
# Indices 1 2 3 4 5 6 
#
# 1 88.3448 8.2784 -7.9396 0.0000 12.8769 0.0000
# 2 8.2784 48.0602 21.8725 0.0000 -0.1476 0.0000
# 3 -7.9396 21.8725 192.0164 0.0000 5.6791 0.0000
# 4 0.0000 0.0000 0.0000 26.0617 0.0000 -6.6167
# 5 12.8769 -0.1476 5.6791 0.0000 45.9010 0.0000
# 6 0.0000 0.0000 0.0000 -6.6167 0.0000 13.4597
#
#
#
# Elastic Compliance Matrix: (Units=1/GPa)
#
#
# Indices 1 2 3 4 5 6 
#
# 1 0.012149 -0.002510 0.000893 0.000000 -0.003527 0.000000
# 2 -0.002510 0.022470 -0.002696 0.000000 0.001110 0.000000
# 3 0.000893 -0.002696 0.005580 0.000000 -0.000949 0.000000
# 4 0.000000 0.000000 0.000000 0.043842 0.000000 0.021553
# 5 -0.003527 0.001110 -0.000949 0.000000 0.022896 0.000000
# 6 0.000000 0.000000 0.000000 0.021553 0.000000 0.084891
#
#
# Mechanical properties :
#
#
# Convention : Reuss Voigt Hill
#
# Bulk Modulus (GPa) = 31.67355 41.42713 36.55034
# Shear Modulus (GPa) = 23.69901 37.49848 30.59875
#
# Velocity S-wave (km/s) = 3.11542 3.91885 3.54001
# Velocity P-wave (km/s) = 5.09048 6.11906 5.62832
#
# Compressibility (1/GPa) = 0.03157209
#
# Stress axis : x y z
#
# Youngs Moduli (GPa) = 82.31333 44.50390 179.21185
#
# Poissons Ratio (x) = 0.11169 -0.15995
# Poissons Ratio (y) = 0.20658 0.48318
# Poissons Ratio (z) = -0.07347 0.11999
#
# Static dielectric constant tensor:
#      x y z
#    x 2.117470 0.000000 -0.008990 
#    y 0.000000 1.971150 0.000000 
#    z -0.008990 0.000000 1.958170 
# 
# From -- ./inp_files/47781.got.cif
#   From: 2010.05.17/outbox.cif.g08.bks.cpg/sg5_24_cif.got.tgz:47781.got - 2010.06.03 18:56:24.
