data_PCOD9130120
_publ_section_title
;
Structure prediction by ZEFSAII (Michael W. Deem and Ramdas Pophale) SiO2 
 PCOD9130120
Probable space group: C 2
;
_chemical_formula_sum "Si O2"
_cell_formula_units_Z 16
_cell_length_a 18.891835
_cell_length_b 5.045650
_cell_length_c 13.118426
_cell_angle_alpha 90.000000
_cell_angle_beta 150.470071
_cell_angle_gamma 90.000000
_cell_volume 616.328917
_symmetry_space_group_name_H-M "C 2"
_symmetry_group_IT_number 5
_symmetry_cell_setting 'monoclinic'
loop_
_space_group_symop_operation_xyz
x,y,z
-x,y,-z
1/2+x,1/2+y,z
1/2-x,1/2+y,-z
loop_
_atom_site_type_symbol
_atom_site_label
_atom_site_fract_x
_atom_site_fract_y
_atom_site_fract_z
Si Si1 0.973266 0.005380 0.855313
Si Si2 0.322396 0.629717 0.052014
Si Si3 0.585417 0.854609 0.501345
Si Si4 0.776241 0.866800 0.416827
O O1 0.866164 0.874941 0.636744
O O2 0.038546 0.280707 0.733565
O O3 0.113572 0.279909 0.234056
O O4 0.000000 0.885953 0.000000
O O5 0.371027 0.539499 0.001607
O O6 0.295124 0.360443 0.081975
O O7 0.500000 0.844891 0.500000
O O8 0.701480 0.629110 0.621649
O O9 0.650143 0.135378 0.555903
#
# Coordination Sequence:
#
# PCOD9130120 Si02
#       4
#     4   4   4   4
#     4  11  26  48  81 108 150 202 241 313 377 430
#     4  11  25  44  67 107 148 183 247 300 359 454
#     4  11  25  45  76 101 151 196 235 311 375 423
#     4  11  25  49  71 115 144 189 260 304 354 462
#
# _framework density 25.960165
#
# number of rings (size 3 to 8) (size 9 to 14) (size 15 to 20)
#    0.000    1.000    0.000    6.750    7.000    2.000 
#    0.000   21.250    0.000    0.000    0.000    0.000 
#    0.000    0.000    0.000    0.000    0.000    0.000 
#
# Total GULP energy -44798.855236 kJ/mol
# GULP energy per Si atom -5599.856905 kJ/mol
# Density = 2.590108 g / cm^3
# Si number density = 25.960165 Si / 1000 Ang^3
#
#
#
# Elastic Constant Matrix: (Units=GPa)
#
#
# Indices 1 2 3 4 5 6 
#
# 1 193.5032 51.5782 38.2168 0.0000 -14.6460 0.0000
# 2 51.5782 124.1792 31.6366 0.0000 5.1538 0.0000
# 3 38.2168 31.6366 99.8024 0.0000 -17.7874 0.0000
# 4 0.0000 0.0000 0.0000 27.3169 0.0000 9.6105
# 5 -14.6460 5.1538 -17.7874 0.0000 40.7967 0.0000
# 6 0.0000 0.0000 0.0000 9.6105 0.0000 47.1364
#
#
#
# Elastic Compliance Matrix: (Units=1/GPa)
#
#
# Indices 1 2 3 4 5 6 
#
# 1 0.006189 -0.002325 -0.001285 0.000000 0.001956 0.000000
# 2 -0.002325 0.009878 -0.002832 0.000000 -0.003317 0.000000
# 3 -0.001285 -0.002832 0.012351 0.000000 0.005282 0.000000
# 4 0.000000 0.000000 0.000000 0.039436 0.000000 -0.008041
# 5 0.001956 -0.003317 0.005282 0.000000 0.027936 0.000000
# 6 0.000000 0.000000 0.000000 -0.008041 0.000000 0.022854
#
#
# Mechanical properties :
#
#
# Convention : Reuss Voigt Hill
#
# Bulk Modulus (GPa) = 64.37140 73.37200 68.87170
# Shear Modulus (GPa) = 36.57514 42.78688 39.68101
#
# Velocity S-wave (km/s) = 3.75760 4.06418 3.91389
# Velocity P-wave (km/s) = 6.60879 7.09563 6.85653
#
# Compressibility (1/GPa) = 0.01553485
#
# Stress axis : x y z
#
# Youngs Moduli (GPa) = 161.57145 101.23887 80.96646
#
# Poissons Ratio (x) = 0.23534 0.10401
# Poissons Ratio (y) = 0.37559 0.22931
# Poissons Ratio (z) = 0.20755 0.28673
#
# Static dielectric constant tensor:
#      x y z
#    x 2.369770 0.000000 -0.054290 
#    y 0.000000 2.041620 0.000000 
#    z -0.054290 0.000000 2.099890 
# 
# From -- ./inp_files/45267.got.cif
#   From: 2010.05.17/outbox.cif.g08.bks.cpg/sg5_23_cif.got.tgz:45267.got - 2010.06.03 18:56:24.
