data_PCOD9130655
_publ_section_title
;
Structure prediction by ZEFSAII (Michael W. Deem and Ramdas Pophale) SiO2 
 PCOD9130655
Probable space group: C 2
;
_chemical_formula_sum "Si O2"
_cell_formula_units_Z 20
_cell_length_a 6.639308
_cell_length_b 20.557535
_cell_length_c 7.055816
_cell_angle_alpha 90.000000
_cell_angle_beta 58.342490
_cell_angle_gamma 90.000000
_cell_volume 819.734101
_symmetry_space_group_name_H-M "C 2"
_symmetry_group_IT_number 5
_symmetry_cell_setting 'monoclinic'
loop_
_space_group_symop_operation_xyz
x,y,z
-x,y,-z
1/2+x,1/2+y,z
1/2-x,1/2+y,-z
loop_
_atom_site_type_symbol
_atom_site_label
_atom_site_fract_x
_atom_site_fract_y
_atom_site_fract_z
Si Si1 0.865262 0.387170 0.384940
Si Si2 0.000000 0.707785 0.000000
Si Si3 0.779029 0.524239 0.466338
Si Si4 0.500000 0.974566 0.000000
Si Si5 0.748111 0.262788 0.228734
Si Si6 0.493751 0.641391 0.226205
O O1 0.050007 0.422795 0.146575
O O2 0.734915 0.329647 0.345375
O O3 0.000000 0.360772 0.500000
O O4 0.294020 0.448475 0.468674
O O5 0.943712 0.749294 0.838742
O O6 0.244447 0.667476 0.851461
O O7 0.605634 0.579850 0.616542
O O8 0.000000 0.532290 0.500000
O O9 0.150986 0.522521 0.791022
O O10 0.798845 0.199777 0.334982
O O11 0.000000 0.267432 0.000000
O O12 0.500000 0.623916 0.000000
#
# Coordination Sequence:
#
# PCOD9130655 Si02
#       6
#     4   2   4   2   4   4
#     4   9  17  33  71 118 150 193 246 318 384 460
#     4   8  18  34  69 112 162 201 248 316 358 461
#     4   9  18  36  70 116 151 196 247 314 377 456
#     4   8  16  34  67 116 148 197 240 316 382 441
#     4   9  16  35  69 110 151 201 243 310 388 447
#     4   9  19  37  72 111 154 204 248 304 383 448
#
# _framework density 24.398157999999999
#
# number of rings (size 3 to 8) (size 9 to 14) (size 15 to 20)
#    1.200    2.400    1.000    0.000    0.000    0.000 
#    0.000    4.000   30.800   14.400   67.600    0.000 
#    0.000    0.000    0.000    0.000    0.000    0.000 
#
# Total GULP energy -55695.508121 kJ/mol
# GULP energy per Si atom -5569.550812 kJ/mol
# Density = 2.434263 g / cm^3
# Si number density = 24.398158 Si / 1000 Ang^3
#
#
#
# Elastic Constant Matrix: (Units=GPa)
#
#
# Indices 1 2 3 4 5 6 
#
# 1 213.1954 94.5664 73.3231 0.0000 19.6333 0.0000
# 2 94.5664 222.9336 86.9956 0.0000 14.7431 0.0000
# 3 73.3231 86.9956 137.5647 0.0000 19.2582 0.0000
# 4 0.0000 0.0000 0.0000 48.4543 0.0000 0.5586
# 5 19.6333 14.7431 19.2582 0.0000 24.1386 0.0000
# 6 0.0000 0.0000 0.0000 0.5586 0.0000 19.2988
#
#
#
# Elastic Compliance Matrix: (Units=1/GPa)
#
#
# Indices 1 2 3 4 5 6 
#
# 1 0.006378 -0.001791 -0.001906 0.000000 -0.002572 0.000000
# 2 -0.001791 0.006469 -0.003138 0.000000 0.000009 0.000000
# 3 -0.001906 -0.003138 0.011015 0.000000 -0.005321 0.000000
# 4 0.000000 0.000000 0.000000 0.020645 0.000000 -0.000598
# 5 -0.002572 0.000009 -0.005321 0.000000 0.047759 0.000000
# 6 0.000000 0.000000 0.000000 -0.000598 0.000000 0.051834
#
#
# Mechanical properties :
#
#
# Convention : Reuss Voigt Hill
#
# Bulk Modulus (GPa) = 98.12829 120.38488 109.25658
# Shear Modulus (GPa) = 31.02372 39.63225 35.32799
#
# Velocity S-wave (km/s) = 3.56976 4.03475 3.80936
# Velocity P-wave (km/s) = 7.56953 8.43531 8.01412
#
# Compressibility (1/GPa) = 0.01019074
#
# Stress axis : x y z
#
# Youngs Moduli (GPa) = 156.79802 154.57610 90.78890
#
# Poissons Ratio (x) = 0.27689 0.17308
# Poissons Ratio (y) = 0.28087 0.28487
# Poissons Ratio (z) = 0.29893 0.48501
#
# Static dielectric constant tensor:
#      x y z
#    x 1.979410 0.000000 -0.011560 
#    y 0.000000 2.002560 0.000000 
#    z -0.011560 0.000000 0.882510 
# 
# From -- ./inp_files/12458.got.cif
#   From: 2010.05.17/outbox.cif.g08.bks.cpg/sg5_7_cif.got.tgz:12458.got - 2010.06.03 18:56:24.
