data_PCOD9130784
_publ_section_title
;
Structure prediction by ZEFSAII (Michael W. Deem and Ramdas Pophale) SiO2 
 PCOD9130784
Probable space group: P M
;
_chemical_formula_sum "Si O2"
_cell_formula_units_Z 16
_cell_length_a 10.486052
_cell_length_b 7.776196
_cell_length_c 12.623383
_cell_angle_alpha 90.000000
_cell_angle_beta 127.106574
_cell_angle_gamma 90.000000
_cell_volume 820.906451
_symmetry_space_group_name_H-M "P M"
_symmetry_group_IT_number 6
_symmetry_cell_setting 'monoclinic'
loop_
_space_group_symop_operation_xyz
x,y,z
x,-y,z
loop_
_atom_site_type_symbol
_atom_site_label
_atom_site_fract_x
_atom_site_fract_y
_atom_site_fract_z
Si Si1 0.410620 0.791922 0.085460
Si Si2 0.367944 0.299019 0.385567
Si Si3 0.442529 0.199812 0.655820
Si Si4 0.120092 0.705887 0.094697
Si Si5 0.301108 0.210473 0.805570
Si Si6 0.934949 0.209243 0.658322
Si Si7 0.807945 0.296446 0.827483
Si Si8 0.649696 0.800697 0.377662
O O1 0.247864 0.746071 0.066215
O O2 0.558590 0.725095 0.230089
O O3 0.419130 0.000000 0.089914
O O4 0.397633 0.732630 0.958271
O O5 0.386337 0.500000 0.367539
O O6 0.375435 0.281250 0.514711
O O7 0.207163 0.235416 0.246263
O O8 0.518530 0.206974 0.406210
O O9 0.372634 0.271109 0.730382
O O10 0.634248 0.214944 0.752104
O O11 0.398304 0.000000 0.627892
O O12 0.103179 0.500000 0.091968
O O13 0.946152 0.773387 0.974961
O O14 0.116647 0.261274 0.728040
O O15 0.305918 0.000000 0.807726
O O16 0.873504 0.269927 0.741565
O O17 0.812284 0.273412 0.506821
O O18 0.929523 0.000000 0.657273
O O19 0.787287 0.500000 0.834477
O O20 0.682798 0.000000 0.369480
#
# Coordination Sequence:
#
# PCOD9130784 Si02
#       8
#     2   2   2   2   2   2   2   2
#     4   9  16  30  51  76 103 133 168 208 256 311
#     4  10  19  33  52  75 105 138 173 216 264 310
#     4  11  22  36  52  75 109 145 179 215 257 308
#     4   9  19  33  51  77 106 133 168 219 266 307
#     4   9  19  34  52  74 105 141 174 214 260 307
#     4  10  18  32  53  78 105 133 169 215 261 307
#     4  11  21  34  53  79 106 136 176 220 262 309
#     4   9  17  28  50  80 105 129 165 211 260 313
#
# _framework density 19.490648
#
# number of rings (size 3 to 8) (size 9 to 14) (size 15 to 20)
#    0.000    2.250    2.500    1.125    0.000    1.000 
#    0.000    3.750    0.000    3.000    0.000    0.000 
#    0.000    0.000    0.000    0.000    0.000    0.000 
#
# Total GULP energy -89253.136879 kJ/mol
# GULP energy per Si atom -5578.321055 kJ/mol
# Density = 1.944629 g / cm^3
# Si number density = 19.490648 Si / 1000 Ang^3
#
#
#
# Elastic Constant Matrix: (Units=GPa)
#
#
# Indices 1 2 3 4 5 6 
#
# 1 77.7996 -8.7808 56.4603 0.0000 -11.0684 0.0000
# 2 -8.7808 28.5343 -1.7102 0.0000 3.0313 0.0000
# 3 56.4603 -1.7102 179.1575 0.0000 -3.5676 0.0000
# 4 0.0000 0.0000 0.0000 10.9968 0.0000 25.8900
# 5 -11.0684 3.0313 -3.5676 0.0000 25.1605 0.0000
# 6 0.0000 0.0000 0.0000 25.8900 0.0000 -195.5292
#
#
#
# Elastic Compliance Matrix: (Units=1/GPa)
#
#
# Indices 1 2 3 4 5 6 
#
# 1 0.018417 0.004613 -0.005626 0.000000 0.006748 0.000000
# 2 0.004613 0.036667 -0.001155 0.000000 -0.002552 0.000000
# 3 -0.005626 -0.001155 0.007318 0.000000 -0.001298 0.000000
# 4 0.000000 0.000000 0.000000 0.069325 0.000000 0.009179
# 5 0.006748 -0.002552 -0.001298 0.000000 0.042837 0.000000
# 6 0.000000 0.000000 0.000000 0.009179 0.000000 -0.003899
#
#
# Mechanical properties :
#
#
# Convention : Reuss Voigt Hill
#
# Bulk Modulus (GPa) = 17.22126 41.93666 29.57896
# Shear Modulus (GPa) = 25.72629 -15.90623 4.91003
#
# Velocity S-wave (km/s) = 3.63703 -2.85984 1.58891
# Velocity P-wave (km/s) = 5.14705 3.26468 4.30989
#
# Compressibility (1/GPa) = 0.05806776
#
# Stress axis : x y z
#
# Youngs Moduli (GPa) = 54.29830 27.27244 136.65591
#
# Poissons Ratio (x) = -0.12582 0.76876
# Poissons Ratio (y) = -0.25049 0.15779
# Poissons Ratio (z) = 0.30546 0.03149
#
# Static dielectric constant tensor:
#      x y z
#    x 1.631530 0.000000 0.011280 
#    y 0.000000 1.708980 0.000000 
#    z 0.011280 0.000000 1.728960 
# 
# From -- ./inp_files/3748.got.cif
#   From: 2010.05.17/outbox.cif.g08.bks.cpg/sg6_2_cif.got.tgz:3748.got - 2010.06.03 19:42:10.
