data_PCOD9130323
_publ_section_title
;
Structure prediction by ZEFSAII (Michael W. Deem and Ramdas Pophale) SiO2 
 PCOD9130323
Probable space group: C 2
;
_chemical_formula_sum "Si O2"
_cell_formula_units_Z 24
_cell_length_a 20.769331
_cell_length_b 5.771723
_cell_length_c 9.057311
_cell_angle_alpha 90.000000
_cell_angle_beta 108.529524
_cell_angle_gamma 90.000000
_cell_volume 1029.458655
_symmetry_space_group_name_H-M "C 2"
_symmetry_group_IT_number 5
_symmetry_cell_setting 'monoclinic'
loop_
_space_group_symop_operation_xyz
x,y,z
-x,y,-z
1/2+x,1/2+y,z
1/2-x,1/2+y,-z
loop_
_atom_site_type_symbol
_atom_site_label
_atom_site_fract_x
_atom_site_fract_y
_atom_site_fract_z
Si Si1 0.616120 0.159520 0.665297
Si Si2 0.500000 0.840788 0.500000
Si Si3 0.117580 0.255620 0.143871
Si Si4 0.590223 0.483899 0.385400
Si Si5 0.444372 0.409560 0.138233
Si Si6 0.713294 0.958175 0.974482
Si Si7 0.000000 0.524139 0.000000
O O1 0.619484 0.269827 0.503250
O O2 0.604542 0.383716 0.759757
O O3 0.546284 0.014744 0.627736
O O4 0.671429 0.008003 0.791674
O O5 0.556709 0.677996 0.466960
O O6 0.139310 0.098488 0.298402
O O7 0.049789 0.390621 0.147103
O O8 0.173912 0.402555 0.100129
O O9 0.083549 0.106638 0.987084
O O10 0.522352 0.419710 0.244491
O O11 0.445265 0.176618 0.045157
O O12 0.751439 0.711067 0.977751
#
# Coordination Sequence:
#
# PCOD9130323 Si02
#       7
#     4   2   4   4   4   4   2
#     4  12  25  43  73 111 154 205 251 320 399 472
#     4  12  22  38  72 112 166 188 232 314 440 472
#     4  12  25  42  74 114 156 200 263 323 392 474
#     4  12  23  38  68 118 162 191 236 325 419 485
#     4  12  20  39  64 110 164 192 234 307 410 494
#     4  12  30  54  82 105 153 224 286 320 368 468
#     4  12  20  34  70 110 154 194 246 320 406 464
#
# _framework density 23.313224999999999
#
# number of rings (size 3 to 8) (size 9 to 14) (size 15 to 20)
#    0.000    0.000    8.333    3.000    2.333    0.000 
#    0.000    0.000    3.667    0.000    0.000    0.000 
#    0.000    0.000    0.000    0.000    0.000    0.000 
#
# Total GULP energy -66866.948655 kJ/mol
# GULP energy per Si atom -5572.245721 kJ/mol
# Density = 2.326016 g / cm^3
# Si number density = 23.313225 Si / 1000 Ang^3
#
#
#
# Elastic Constant Matrix: (Units=GPa)
#
#
# Indices 1 2 3 4 5 6 
#
# 1 69.6744 54.3742 40.3243 0.0000 -5.1585 0.0000
# 2 54.3742 123.7217 59.9187 0.0000 6.3743 0.0000
# 3 40.3243 59.9187 106.8110 0.0000 2.6128 0.0000
# 4 0.0000 0.0000 0.0000 33.8542 0.0000 -8.1508
# 5 -5.1585 6.3743 2.6128 0.0000 31.2680 0.0000
# 6 0.0000 0.0000 0.0000 -8.1508 0.0000 46.2506
#
#
#
# Elastic Compliance Matrix: (Units=1/GPa)
#
#
# Indices 1 2 3 4 5 6 
#
# 1 0.024238 -0.008877 -0.004322 0.000000 0.006170 0.000000
# 2 -0.008877 0.014445 -0.004654 0.000000 -0.004020 0.000000
# 3 -0.004322 -0.004654 0.013626 0.000000 -0.000903 0.000000
# 4 0.000000 0.000000 0.000000 0.030847 0.000000 0.005436
# 5 0.006170 -0.004020 -0.000903 0.000000 0.033894 0.000000
# 6 0.000000 0.000000 0.000000 0.005436 0.000000 0.022579
#
#
# Mechanical properties :
#
#
# Convention : Reuss Voigt Hill
#
# Bulk Modulus (GPa) = 60.22338 67.71572 63.96955
# Shear Modulus (GPa) = 27.64405 31.98056 29.81230
#
# Velocity S-wave (km/s) = 3.44723 3.70777 3.57987
# Velocity P-wave (km/s) = 6.46010 6.88761 6.67728
#
# Compressibility (1/GPa) = 0.01660485
#
# Stress axis : x y z
#
# Youngs Moduli (GPa) = 41.25700 69.22804 73.38659
#
# Poissons Ratio (x) = 0.61456 0.31715
# Poissons Ratio (y) = 0.36625 0.34151
# Poissons Ratio (z) = 0.17830 0.32216
#
# Static dielectric constant tensor:
#      x y z
#    x 1.928810 0.000000 -0.059040 
#    y 0.000000 2.054840 0.000000 
#    z -0.059040 0.000000 2.024320 
# 
# From -- ./inp_files/30347.got.cif
#   From: 2010.05.17/outbox.cif.g08.bks.cpg/sg5_16_cif.got.tgz:30347.got - 2010.06.03 18:56:24.
