data_PCOD9130148
_publ_section_title
;
Structure prediction by ZEFSAII (Michael W. Deem and Ramdas Pophale) SiO2 
 PCOD9130148
Probable space group: C 2
;
_chemical_formula_sum "Si O2"
_cell_formula_units_Z 22
_cell_length_a 25.509047
_cell_length_b 6.993046
_cell_length_c 10.467389
_cell_angle_alpha 90.000000
_cell_angle_beta 150.836481
_cell_angle_gamma 90.000000
_cell_volume 909.910642
_symmetry_space_group_name_H-M "C 2"
_symmetry_group_IT_number 5
_symmetry_cell_setting 'monoclinic'
loop_
_space_group_symop_operation_xyz
x,y,z
-x,y,-z
1/2+x,1/2+y,z
1/2-x,1/2+y,-z
loop_
_atom_site_type_symbol
_atom_site_label
_atom_site_fract_x
_atom_site_fract_y
_atom_site_fract_z
Si Si1 0.500000 0.076150 0.500000
Si Si2 0.855662 0.720591 0.750580
Si Si3 0.859607 0.287558 0.090883
Si Si4 0.127992 0.284710 0.170879
Si Si5 0.474817 0.455238 0.778754
Si Si6 0.856828 0.927926 0.263244
O O1 0.406556 0.222906 0.335714
O O2 0.462197 0.928231 0.310921
O O3 0.891779 0.502477 0.833812
O O4 0.726064 0.717921 0.471091
O O5 0.901759 0.839305 0.726171
O O6 0.914976 0.828992 0.993633
O O7 0.877614 0.085603 0.198929
O O8 0.822942 0.269463 0.867791
O O9 0.768170 0.393667 0.977461
O O10 0.021445 0.157651 0.925241
O O11 0.412952 0.483699 0.516102
#
# Coordination Sequence:
#
# PCOD9130148 Si02
#       6
#     2   4   4   4   4   4
#     4  12  24  46  72 106 154 198 250 302 386 446
#     4  11  25  45  74 111 145 199 253 305 379 449
#     4  12  26  47  76 111 153 200 252 313 381 454
#     4  12  24  49  75 106 156 196 248 317 377 446
#     4  11  25  47  73 109 147 196 255 310 375 447
#     4  12  25  48  76 111 150 202 257 309 381 456
#
# _framework density 24.178201000000001
#
# number of rings (size 3 to 8) (size 9 to 14) (size 15 to 20)
#    0.000    0.364    5.455    3.818    0.000    2.909 
#    0.000    5.455    0.000    0.000    0.000    0.000 
#    0.000    0.000    0.000    0.000    0.000    0.000 
#
# Total GULP energy -61511.849418 kJ/mol
# GULP energy per Si atom -5591.986311 kJ/mol
# Density = 2.412317 g / cm^3
# Si number density = 24.178201 Si / 1000 Ang^3
#
#
#
# Elastic Constant Matrix: (Units=GPa)
#
#
# Indices 1 2 3 4 5 6 
#
# 1 63.6712 33.9655 0.1469 0.0000 6.0830 0.0000
# 2 33.9655 186.7933 52.5064 0.0000 -0.5930 0.0000
# 3 0.1469 52.5064 108.4946 0.0000 -2.8771 0.0000
# 4 0.0000 0.0000 0.0000 40.6789 0.0000 13.7994
# 5 6.0830 -0.5930 -2.8771 0.0000 19.0961 0.0000
# 6 0.0000 0.0000 0.0000 13.7994 0.0000 36.9703
#
#
#
# Elastic Compliance Matrix: (Units=1/GPa)
#
#
# Indices 1 2 3 4 5 6 
#
# 1 0.018278 -0.003811 0.001669 0.000000 -0.005689 0.000000
# 2 -0.003811 0.006992 -0.003354 0.000000 0.000926 0.000000
# 3 0.001669 -0.003354 0.010865 0.000000 0.001001 0.000000
# 4 0.000000 0.000000 0.000000 0.028147 0.000000 -0.010506
# 5 -0.005689 0.000926 0.001001 0.000000 0.054359 0.000000
# 6 0.000000 0.000000 0.000000 -0.010506 0.000000 0.030970
#
#
# Mechanical properties :
#
#
# Convention : Reuss Voigt Hill
#
# Bulk Modulus (GPa) = 39.77345 59.13296 49.45320
# Shear Modulus (GPa) = 29.58864 37.50510 33.54687
#
# Velocity S-wave (km/s) = 3.50204 3.94279 3.72894
# Velocity P-wave (km/s) = 5.73047 6.72590 6.24804
#
# Compressibility (1/GPa) = 0.02514240
#
# Stress axis : x y z
#
# Youngs Moduli (GPa) = 54.70998 143.01628 92.04187
#
# Poissons Ratio (x) = 0.54499 -0.15358
# Poissons Ratio (y) = 0.20848 0.30873
# Poissons Ratio (z) = -0.09129 0.47971
#
# Static dielectric constant tensor:
#      x y z
#    x 2.025520 0.000000 0.023050 
#    y 0.000000 1.916440 0.000000 
#    z 0.023050 0.000000 1.884890 
# 
# From -- ./inp_files/47007.got.cif
#   From: 2010.05.17/outbox.cif.g08.bks.cpg/sg5_24_cif.got.tgz:47007.got - 2010.06.03 18:56:24.
