data_PCOD9130351
_publ_section_title
;
Structure prediction by ZEFSAII (Michael W. Deem and Ramdas Pophale) SiO2 
 PCOD9130351
Probable space group: C 2
;
_chemical_formula_sum "Si O2"
_cell_formula_units_Z 32
_cell_length_a 9.109395
_cell_length_b 22.192352
_cell_length_c 10.627697
_cell_angle_alpha 90.000000
_cell_angle_beta 44.565797
_cell_angle_gamma 90.000000
_cell_volume 1507.650800
_symmetry_space_group_name_H-M "C 2"
_symmetry_group_IT_number 5
_symmetry_cell_setting 'monoclinic'
loop_
_space_group_symop_operation_xyz
x,y,z
-x,y,-z
1/2+x,1/2+y,z
1/2-x,1/2+y,-z
loop_
_atom_site_type_symbol
_atom_site_label
_atom_site_fract_x
_atom_site_fract_y
_atom_site_fract_z
Si Si1 0.254868 0.690420 0.652826
Si Si2 0.866640 0.054370 0.211897
Si Si3 0.271820 0.426282 0.206247
Si Si4 0.880410 0.249195 0.206600
Si Si5 0.966128 0.813648 0.168304
Si Si6 0.334983 0.646410 0.866602
Si Si7 0.414110 0.156383 0.716892
Si Si8 0.576735 0.870059 0.089672
O O1 0.500000 0.700826 0.500000
O O2 0.128351 0.752879 0.719703
O O3 0.220027 0.656172 0.805838
O O4 0.157457 0.652650 0.598271
O O5 0.684561 0.102014 0.299272
O O6 0.031824 0.084506 0.206850
O O7 0.768458 0.988114 0.285447
O O8 0.000000 0.052906 0.000000
O O9 0.294291 0.366995 0.278506
O O10 0.500000 0.426736 0.000000
O O11 0.115633 0.414917 0.183874
O O12 0.664050 0.217081 0.304431
O O13 0.912740 0.317617 0.230368
O O14 0.009420 0.203595 0.214446
O O15 0.000000 0.248577 0.000000
O O16 0.194385 0.837645 0.072302
O O17 0.000000 0.799136 0.000000
O O18 0.194730 0.651864 0.078012
O O19 0.500000 0.894207 0.000000
#
# Coordination Sequence:
#
# PCOD9130351 Si02
#       8
#     4   4   4   4   4   4   4   4
#     4  12  22  30  43  70 102 125 159 206 243 281
#     4   8  15  30  50  72  94 120 159 201 234 280
#     4   8  15  27  45  72 101 123 152 196 237 278
#     4   8  13  24  45  69  89 117 158 190 222 280
#     4   9  17  30  49  68  96 132 159 190 238 287
#     4   9  16  29  50  68  89 124 159 194 240 286
#     4   9  17  30  49  69  92 122 158 199 243 285
#     4   9  14  22  42  72 100 125 151 188 237 289
#
# _framework density 21.225073999999999
#
# number of rings (size 3 to 8) (size 9 to 14) (size 15 to 20)
#    0.000    3.250    0.000    6.375    0.000    0.000 
#    0.000    7.500    0.000    1.500    0.000    0.000 
#    0.000    0.000    0.000    0.000    0.000    0.000 
#
# Total GULP energy -89129.838423 kJ/mol
# GULP energy per Si atom -5570.614901 kJ/mol
# Density = 2.117676 g / cm^3
# Si number density = 21.225074 Si / 1000 Ang^3
#
#
#
# Elastic Constant Matrix: (Units=GPa)
#
#
# Indices 1 2 3 4 5 6 
#
# 1 138.2155 39.6845 11.6483 0.0000 -7.7569 0.0000
# 2 39.6845 110.3601 3.0764 0.0000 1.2288 0.0000
# 3 11.6483 3.0764 54.7468 0.0000 -1.9475 0.0000
# 4 0.0000 0.0000 0.0000 -3.8417 0.0000 2.4108
# 5 -7.7569 1.2288 -1.9475 0.0000 22.4657 0.0000
# 6 0.0000 0.0000 0.0000 2.4108 0.0000 12.9237
#
#
#
# Elastic Compliance Matrix: (Units=1/GPa)
#
#
# Indices 1 2 3 4 5 6 
#
# 1 0.008391 -0.003008 -0.001512 0.000000 0.002931 0.000000
# 2 -0.003008 0.010160 0.000012 0.000000 -0.001593 0.000000
# 3 -0.001512 0.000012 0.018626 0.000000 0.001092 0.000000
# 4 0.000000 0.000000 0.000000 -0.233025 0.000000 0.043470
# 5 0.002931 -0.001593 0.001092 0.000000 0.045706 0.000000
# 6 0.000000 0.000000 0.000000 0.043470 0.000000 0.069268
#
#
# Mechanical properties :
#
#
# Convention : Reuss Voigt Hill
#
# Bulk Modulus (GPa) = 35.50900 45.79344 40.65122
# Shear Modulus (GPa) = -80.03533 22.90375 -28.56579
#
# Velocity S-wave (km/s) = -6.14734 3.28851 -3.67256
# Velocity P-wave (km/s) = 5.79830 6.00342 1.10018
#
# Compressibility (1/GPa) = 0.02816187
#
# Stress axis : x y z
#
# Youngs Moduli (GPa) = 119.18212 98.42368 53.68905
#
# Poissons Ratio (x) = 0.29602 0.08118
# Poissons Ratio (y) = 0.35846 -0.00066
# Poissons Ratio (z) = 0.18020 -0.00121
#
# Static dielectric constant tensor:
#      x y z
#    x 1.784140 0.000000 -0.008390 
#    y 0.000000 1.846720 0.000000 
#    z -0.008390 0.000000 1.846730 
# 
# From -- ./inp_files/37476.got.cif
#   From: 2010.05.17/outbox.cif.g08.bks.cpg/sg5_19_cif.got.tgz:37476.got - 2010.06.03 18:56:24.
