data_PCOD9130633
_publ_section_title
;
Structure prediction by ZEFSAII (Michael W. Deem and Ramdas Pophale) SiO2 
 PCOD9130633
Probable space group: C 2
;
_chemical_formula_sum "Si O2"
_cell_formula_units_Z 20
_cell_length_a 18.897550
_cell_length_b 5.064339
_cell_length_c 8.993085
_cell_angle_alpha 90.000000
_cell_angle_beta 109.718392
_cell_angle_gamma 90.000000
_cell_volume 810.202850
_symmetry_space_group_name_H-M "C 2"
_symmetry_group_IT_number 5
_symmetry_cell_setting 'monoclinic'
loop_
_space_group_symop_operation_xyz
x,y,z
-x,y,-z
1/2+x,1/2+y,z
1/2-x,1/2+y,-z
loop_
_atom_site_type_symbol
_atom_site_label
_atom_site_fract_x
_atom_site_fract_y
_atom_site_fract_z
Si Si1 0.160096 0.914610 0.052511
Si Si2 0.182487 0.192654 0.778074
Si Si3 0.921177 0.530356 0.522287
Si Si4 0.580687 0.895910 0.133423
Si Si5 0.715662 0.348759 0.549084
O O1 0.250649 0.878038 0.113736
O O2 0.131256 0.141342 0.140420
O O3 0.246260 0.071054 0.460379
O O4 0.139860 0.032085 0.875781
O O5 0.228395 0.976869 0.716449
O O6 0.127882 0.351979 0.627915
O O7 0.928177 0.424361 0.695103
O O8 0.872697 0.794218 0.514804
O O9 0.000000 0.577672 0.500000
O O10 0.618748 0.148849 0.077977
O O11 0.500000 0.857571 0.000000
#
# Coordination Sequence:
#
# PCOD9130633 Si02
#       5
#     4   4   4   4   4
#     4  12  30  50  84 118 167 220 275 348 412 498
#     4  12  30  50  87 122 169 216 285 346 416 502
#     4  12  31  52  87 122 173 220 281 348 419 497
#     4  12  30  54  83 118 170 220 277 340 427 497
#     4  12  28  50  83 121 163 211 283 343 406 495
#
# _framework density 24.685175999999998
#
# number of rings (size 3 to 8) (size 9 to 14) (size 15 to 20)
#    0.000    0.000    2.000    4.200   19.600    0.800 
#    0.000    0.000    0.000    0.000    0.000    0.000 
#    0.000    0.000    0.000    0.000    0.000    0.000 
#
# Total GULP energy -56037.465161 kJ/mol
# GULP energy per Si atom -5603.746516 kJ/mol
# Density = 2.462899 g / cm^3
# Si number density = 24.685176 Si / 1000 Ang^3
#
#
#
# Elastic Constant Matrix: (Units=GPa)
#
#
# Indices 1 2 3 4 5 6 
#
# 1 156.4663 61.7343 44.3038 0.0000 -5.5468 0.0000
# 2 61.7343 135.6216 13.3486 0.0000 4.1779 0.0000
# 3 44.3038 13.3486 133.1959 0.0000 -5.8577 0.0000
# 4 0.0000 0.0000 0.0000 34.0596 0.0000 -9.2893
# 5 -5.5468 4.1779 -5.8577 0.0000 51.7320 0.0000
# 6 0.0000 0.0000 0.0000 -9.2893 0.0000 27.8503
#
#
#
# Elastic Compliance Matrix: (Units=1/GPa)
#
#
# Indices 1 2 3 4 5 6 
#
# 1 0.008571 -0.003691 -0.002440 0.000000 0.000941 0.000000
# 2 -0.003691 0.009060 0.000271 0.000000 -0.001097 0.000000
# 3 -0.002440 0.000271 0.008321 0.000000 0.000659 0.000000
# 4 0.000000 0.000000 0.000000 0.032299 0.000000 0.010773
# 5 0.000941 -0.001097 0.000659 0.000000 0.019594 0.000000
# 6 0.000000 0.000000 0.000000 0.010773 0.000000 0.039500
#
#
# Mechanical properties :
#
#
# Convention : Reuss Voigt Hill
#
# Bulk Modulus (GPa) = 70.25005 73.78413 72.01709
# Shear Modulus (GPa) = 37.36683 43.12150 40.24417
#
# Velocity S-wave (km/s) = 3.89490 4.18408 4.04207
# Velocity P-wave (km/s) = 6.98191 7.30048 7.14297
#
# Compressibility (1/GPa) = 0.01423487
#
# Stress axis : x y z
#
# Youngs Moduli (GPa) = 116.66627 110.36973 120.17708
#
# Poissons Ratio (x) = 0.40732 0.29321
# Poissons Ratio (y) = 0.43056 -0.03260
# Poissons Ratio (z) = 0.28464 -0.02994
#
# Static dielectric constant tensor:
#      x y z
#    x 1.940500 0.000000 0.003890 
#    y 0.000000 1.974310 0.000000 
#    z 0.003890 0.000000 2.002090 
# 
# From -- ./inp_files/28395.got.cif
#   From: 2010.05.17/outbox.cif.g08.bks.cpg/sg5_15_cif.got.tgz:28395.got - 2010.06.03 18:56:24.
