data_PCOD9130480
_publ_section_title
;
Structure prediction by ZEFSAII (Michael W. Deem and Ramdas Pophale) SiO2 
 PCOD9130480
Probable space group: C 2
;
_chemical_formula_sum "Si O2"
_cell_formula_units_Z 24
_cell_length_a 17.015874
_cell_length_b 5.743036
_cell_length_c 24.451300
_cell_angle_alpha 90.000000
_cell_angle_beta 156.586307
_cell_angle_gamma 90.000000
_cell_volume 949.488661
_symmetry_space_group_name_H-M "C 2"
_symmetry_group_IT_number 5
_symmetry_cell_setting 'monoclinic'
loop_
_space_group_symop_operation_xyz
x,y,z
-x,y,-z
1/2+x,1/2+y,z
1/2-x,1/2+y,-z
loop_
_atom_site_type_symbol
_atom_site_label
_atom_site_fract_x
_atom_site_fract_y
_atom_site_fract_z
Si Si1 0.327939 0.372520 0.268635
Si Si2 0.000000 0.222026 0.500000
Si Si3 0.701509 0.714159 0.991484
Si Si4 0.740286 0.622984 0.314884
Si Si5 0.731952 0.410325 0.564200
Si Si6 0.181507 0.523368 0.826493
Si Si7 0.000000 0.679371 0.000000
O O1 0.317656 0.335690 0.326990
O O2 0.562278 0.417946 0.409110
O O3 0.284414 0.129801 0.211150
O O4 0.157095 0.538118 0.137210
O O5 0.859261 0.394743 0.375695
O O6 0.845112 0.105126 0.442730
O O7 0.484855 0.610585 0.844535
O O8 0.816207 0.482076 0.041293
O O9 0.775531 0.722025 0.101107
O O10 0.765925 0.682451 0.395186
O O11 0.955903 0.443408 0.687967
O O12 0.350392 0.330336 0.941860
#
# Coordination Sequence:
#
# PCOD9130480 Si02
#       7
#     4   2   4   4   4   4   2
#     4  12  28  49  75 115 160 208 273 344 422 499
#     4  12  24  46  78 112 154 208 276 346 412 498
#     4  12  28  49  80 116 162 211 280 346 414 504
#     4  12  25  47  79 112 154 212 274 340 414 497
#     4  12  27  49  79 118 157 209 279 340 422 502
#     4  12  30  50  77 119 157 218 272 345 425 503
#     4  12  30  50  78 108 166 212 274 338 432 496
#
# _framework density 25.276761
#
# number of rings (size 3 to 8) (size 9 to 14) (size 15 to 20)
#    0.000    0.000    5.000    3.500   11.667    1.333 
#    0.000    0.000    0.000    0.000    0.000    0.000 
#    0.000    0.000    0.000    0.000    0.000    0.000 
#
# Total GULP energy -67030.791701 kJ/mol
# GULP energy per Si atom -5585.899308 kJ/mol
# Density = 2.521923 g / cm^3
# Si number density = 25.276761 Si / 1000 Ang^3
#
#
#
# Elastic Constant Matrix: (Units=GPa)
#
#
# Indices 1 2 3 4 5 6 
#
# 1 52.2120 24.9169 17.5076 -0.0010 5.9883 0.0002
# 2 24.9169 71.4114 14.5543 0.0016 14.1076 0.0043
# 3 17.5076 14.5543 186.5409 0.0128 23.7269 0.0004
# 4 -0.0010 0.0016 0.0128 47.6411 0.0020 -3.5120
# 5 5.9883 14.1076 23.7269 0.0020 45.3667 -0.0012
# 6 0.0002 0.0043 0.0004 -3.5120 -0.0012 22.9981
#
#
#
# Elastic Compliance Matrix: (Units=1/GPa)
#
#
# Indices 1 2 3 4 5 6 
#
# 1 0.023434 -0.007888 -0.001610 0.000001 0.000202 0.000002
# 2 -0.007888 0.017641 -0.000076 -0.000001 -0.004405 -0.000004
# 3 -0.001610 -0.000076 0.005879 -0.000002 -0.002839 0.000000
# 4 0.000001 -0.000001 -0.000002 0.021229 0.000000 0.003242
# 5 0.000202 -0.004405 -0.002839 0.000000 0.024870 0.000002
# 6 0.000002 -0.000004 0.000000 0.003242 0.000002 0.043977
#
#
# Mechanical properties :
#
#
# Convention : Reuss Voigt Hill
#
# Bulk Modulus (GPa) = 35.96250 47.12468 41.54359
# Shear Modulus (GPa) = 30.22121 40.08023 35.15072
#
# Velocity S-wave (km/s) = 3.46151 3.98635 3.73317
# Velocity P-wave (km/s) = 5.49859 6.31442 5.92057
#
# Compressibility (1/GPa) = 0.02780674
#
# Stress axis : x y z
#
# Youngs Moduli (GPa) = 42.67341 56.68470 170.10328
#
# Poissons Ratio (x) = 0.44715 0.27379
# Poissons Ratio (y) = 0.33662 0.01289
# Poissons Ratio (z) = 0.06868 0.00429
#
# Static dielectric constant tensor:
#      x y z
#    x 2.047270 0.000000 0.001210 
#    y 0.000000 2.172490 0.000010 
#    z 0.001210 0.000010 2.033630 
# 
# From -- ./inp_files/72200.got.cif
#   From: 2010.05.17/outbox.cif.g08.bks.cpg/sg5_37_cif.got.tgz:72200.got - 2010.06.03 18:56:24.
