data_PCOD9130499
_publ_section_title
;
Structure prediction by ZEFSAII (Michael W. Deem and Ramdas Pophale) SiO2 
 PCOD9130499
Probable space group: C 2
;
_chemical_formula_sum "Si O2"
_cell_formula_units_Z 18
_cell_length_a 5.964046
_cell_length_b 17.388556
_cell_length_c 8.358609
_cell_angle_alpha 90.000000
_cell_angle_beta 58.336894
_cell_angle_gamma 90.000000
_cell_volume 737.809524
_symmetry_space_group_name_H-M "C 2"
_symmetry_group_IT_number 5
_symmetry_cell_setting 'monoclinic'
loop_
_space_group_symop_operation_xyz
x,y,z
-x,y,-z
1/2+x,1/2+y,z
1/2-x,1/2+y,-z
loop_
_atom_site_type_symbol
_atom_site_label
_atom_site_fract_x
_atom_site_fract_y
_atom_site_fract_z
Si Si1 0.000000 0.539990 0.000000
Si Si2 0.313953 0.064256 0.725351
Si Si3 0.000000 0.790491 0.000000
Si Si4 0.521153 0.717267 0.802273
Si Si5 0.970570 0.925572 0.794975
Si Si6 0.500000 0.322287 0.500000
O O1 0.233151 0.483602 0.853193
O O2 0.921621 0.583807 0.863921
O O3 0.500000 0.062366 0.500000
O O4 0.098407 0.128127 0.757435
O O5 0.189826 0.979768 0.792043
O O6 0.763110 0.740940 0.161286
O O7 0.130330 0.852505 0.068720
O O8 0.757882 0.768430 0.643637
O O9 0.500000 0.729113 0.000000
O O10 0.094063 0.881959 0.599065
#
# Coordination Sequence:
#
# PCOD9130499 Si02
#       6
#     2   4   2   4   4   2
#     4  12  24  51  84 117 160 208 284 340 407 470
#     4  12  28  50  82 119 163 214 277 337 409 491
#     4  12  26  47  82 113 162 218 250 336 421 466
#     4  12  27  52  74 118 170 211 269 335 415 491
#     4  12  25  48  79 116 156 210 271 338 403 486
#     4  12  26  50  80 116 166 216 274 332 410 500
#
# _framework density 24.396543000000001
#
# number of rings (size 3 to 8) (size 9 to 14) (size 15 to 20)
#    0.000    0.000    5.556    4.000    3.111    3.556 
#    0.000    4.444    0.000    0.000    0.000    0.000 
#    0.000    0.000    0.000    0.000    0.000    0.000 
#
# Total GULP energy -50298.507967 kJ/mol
# GULP energy per Si atom -5588.723107 kJ/mol
# Density = 2.434102 g / cm^3
# Si number density = 24.396543 Si / 1000 Ang^3
#
#
#
# Elastic Constant Matrix: (Units=GPa)
#
#
# Indices 1 2 3 4 5 6 
#
# 1 69.7667 61.6463 26.1093 0.0000 -26.7508 0.0000
# 2 61.6463 154.3118 56.6385 0.0000 -10.6371 0.0000
# 3 26.1093 56.6385 140.3966 0.0000 -24.6722 0.0000
# 4 0.0000 0.0000 0.0000 28.9984 0.0000 -11.4028
# 5 -26.7508 -10.6371 -24.6722 0.0000 38.7011 0.0000
# 6 0.0000 0.0000 0.0000 -11.4028 0.0000 41.6462
#
#
#
# Elastic Compliance Matrix: (Units=1/GPa)
#
#
# Indices 1 2 3 4 5 6 
#
# 1 0.032170 -0.012401 0.002623 0.000000 0.020500 0.000000
# 2 -0.012401 0.012388 -0.004053 0.000000 -0.007751 0.000000
# 3 0.002623 -0.004053 0.009452 0.000000 0.006724 0.000000
# 4 0.000000 0.000000 0.000000 0.038645 0.000000 0.010581
# 5 0.020500 -0.007751 0.006724 0.000000 0.042165 0.000000
# 6 0.000000 0.000000 0.000000 0.010581 0.000000 0.026909
#
#
# Mechanical properties :
#
#
# Convention : Reuss Voigt Hill
#
# Bulk Modulus (GPa) = 37.95611 72.58482 55.27046
# Shear Modulus (GPa) = 25.23010 36.54121 30.88566
#
# Velocity S-wave (km/s) = 3.21934 3.87434 3.56193
# Velocity P-wave (km/s) = 5.42315 7.05909 6.29449
#
# Compressibility (1/GPa) = 0.02634622
#
# Stress axis : x y z
#
# Youngs Moduli (GPa) = 31.08464 80.72274 105.79931
#
# Poissons Ratio (x) = 1.00107 -0.27749
# Poissons Ratio (y) = 0.38549 0.42885
# Poissons Ratio (z) = -0.08153 0.32721
#
# Static dielectric constant tensor:
#      x y z
#    x 2.132350 0.000000 0.140050 
#    y 0.000000 1.861790 0.000000 
#    z 0.140050 0.000000 2.049590 
# 
# From -- ./inp_files/11983.got.cif
#   From: 2010.05.17/outbox.cif.g08.bks.cpg/sg5_6_cif.got.tgz:11983.got - 2010.06.03 18:56:24.
