data_PCOD9130143
_publ_section_title
;
Structure prediction by ZEFSAII (Michael W. Deem and Ramdas Pophale) SiO2 
 PCOD9130143
Probable space group: C 2
;
_chemical_formula_sum "Si O2"
_cell_formula_units_Z 28
_cell_length_a 13.899386
_cell_length_b 5.106007
_cell_length_c 16.452914
_cell_angle_alpha 90.000000
_cell_angle_beta 118.833751
_cell_angle_gamma 90.000000
_cell_volume 1022.904834
_symmetry_space_group_name_H-M "C 2"
_symmetry_group_IT_number 5
_symmetry_cell_setting 'monoclinic'
loop_
_space_group_symop_operation_xyz
x,y,z
-x,y,-z
1/2+x,1/2+y,z
1/2-x,1/2+y,-z
loop_
_atom_site_type_symbol
_atom_site_label
_atom_site_fract_x
_atom_site_fract_y
_atom_site_fract_z
Si Si1 0.125025 0.625000 0.277670
Si Si2 0.000000 0.140795 0.500000
Si Si3 0.851620 0.317593 0.296245
Si Si4 0.515420 0.626882 0.805830
Si Si5 0.000000 0.882456 0.000000
Si Si6 0.141237 0.470356 0.972896
Si Si7 0.774471 0.156545 0.870315
Si Si8 0.817331 0.835650 0.527523
O O1 0.242011 0.676934 0.284117
O O2 0.081408 0.340444 0.239068
O O3 0.136463 0.671793 0.378222
O O4 0.035798 0.843567 0.219947
O O5 0.062457 0.313303 0.594001
O O6 0.091443 0.956134 0.494655
O O7 0.802887 0.585127 0.236244
O O8 0.911732 0.177276 0.245233
O O9 0.582909 0.710919 0.913430
O O10 0.103973 0.032635 0.082592
O O11 0.948495 0.682622 0.043744
O O12 0.216075 0.547941 0.928200
O O13 0.202104 0.443838 0.084686
O O14 0.741622 0.600214 0.460437
#
# Coordination Sequence:
#
# PCOD9130143 Si02
#       8
#     4   2   4   4   2   4   4   4
#     4  12  26  49  77 112 156 201 264 321 387 467
#     4  12  26  50  78 114 160 210 264 330 392 460
#     4  11  27  48  77 112 157 207 267 319 395 459
#     4  11  28  48  76 114 155 205 253 328 387 468
#     4  12  24  44  74 100 152 196 244 318 398 446
#     4  11  25  45  73 109 153 197 259 313 388 462
#     4  11  25  48  72 110 149 201 255 322 381 471
#     4  12  27  49  78 112 155 206 265 324 394 461
#
# _framework density 27.373024000000001
#
# number of rings (size 3 to 8) (size 9 to 14) (size 15 to 20)
#    0.000    0.571    4.286    2.143    6.000    2.857 
#    0.000    0.000    0.000    0.000    0.000    0.000 
#    0.000    0.000    0.000    0.000    0.000    0.000 
#
# Total GULP energy -78493.988746 kJ/mol
# GULP energy per Si atom -5606.713482 kJ/mol
# Density = 2.731072 g / cm^3
# Si number density = 27.373024 Si / 1000 Ang^3
#
#
#
# Elastic Constant Matrix: (Units=GPa)
#
#
# Indices 1 2 3 4 5 6 
#
# 1 162.6590 27.2839 19.9301 0.0000 2.8857 0.0000
# 2 27.2839 97.2623 44.6276 0.0000 7.3876 0.0000
# 3 19.9301 44.6276 201.6671 0.0000 4.9840 0.0000
# 4 0.0000 0.0000 0.0000 39.9961 0.0000 3.4639
# 5 2.8857 7.3876 4.9840 0.0000 29.6746 0.0000
# 6 0.0000 0.0000 0.0000 3.4639 0.0000 47.5507
#
#
#
# Elastic Compliance Matrix: (Units=1/GPa)
#
#
# Indices 1 2 3 4 5 6 
#
# 1 0.006465 -0.001680 -0.000263 0.000000 -0.000166 0.000000
# 2 -0.001680 0.012058 -0.002442 0.000000 -0.002428 0.000000
# 3 -0.000263 -0.002442 0.005532 0.000000 -0.000296 0.000000
# 4 0.000000 0.000000 0.000000 0.025161 0.000000 -0.001833
# 5 -0.000166 -0.002428 -0.000296 0.000000 0.034369 0.000000
# 6 0.000000 0.000000 0.000000 -0.001833 0.000000 0.021164
#
#
# Mechanical properties :
#
#
# Convention : Reuss Voigt Hill
#
# Bulk Modulus (GPa) = 65.42704 71.69685 68.56194
# Shear Modulus (GPa) = 42.15328 48.09408 45.12368
#
# Velocity S-wave (km/s) = 3.92849 4.19619 4.06454
# Velocity P-wave (km/s) = 6.67317 7.05172 6.86506
#
# Compressibility (1/GPa) = 0.01528420
#
# Stress axis : x y z
#
# Youngs Moduli (GPa) = 154.68298 82.93351 180.75282
#
# Poissons Ratio (x) = 0.13935 0.04753
# Poissons Ratio (y) = 0.25990 0.44145
# Poissons Ratio (z) = 0.04068 0.20255
#
# Static dielectric constant tensor:
#      x y z
#    x 2.232110 0.000000 0.157570 
#    y 0.000000 2.201590 0.000000 
#    z 0.157570 0.000000 2.460200 
# 
# From -- ./inp_files/61263.got.cif
#   From: 2010.05.17/outbox.cif.g08.bks.cpg/sg5_31_cif.got.tgz:61263.got - 2010.06.03 18:56:24.
