data_PCOD9130112
_publ_section_title
;
Structure prediction by ZEFSAII (Michael W. Deem and Ramdas Pophale) SiO2 
 PCOD9130112
Probable space group: C 2
;
_chemical_formula_sum "Si O2"
_cell_formula_units_Z 24
_cell_length_a 13.639828
_cell_length_b 4.924095
_cell_length_c 21.344512
_cell_angle_alpha 90.000000
_cell_angle_beta 43.603239
_cell_angle_gamma 90.000000
_cell_volume 988.682592
_symmetry_space_group_name_H-M "C 2"
_symmetry_group_IT_number 5
_symmetry_cell_setting 'monoclinic'
loop_
_space_group_symop_operation_xyz
x,y,z
-x,y,-z
1/2+x,1/2+y,z
1/2-x,1/2+y,-z
loop_
_atom_site_type_symbol
_atom_site_label
_atom_site_fract_x
_atom_site_fract_y
_atom_site_fract_z
Si Si1 0.716868 0.991180 0.474108
Si Si2 0.056713 0.437049 0.085757
Si Si3 0.001450 0.847158 0.300261
Si Si4 0.565215 0.846944 0.350566
Si Si5 0.137055 0.929886 0.828937
Si Si6 0.269219 0.637016 0.888324
O O1 0.761720 0.796538 0.512099
O O2 0.550917 0.925257 0.543826
O O3 0.835388 0.917117 0.368177
O O4 0.988576 0.727350 0.131884
O O5 0.155016 0.328094 0.095852
O O6 0.151397 0.466846 0.980040
O O7 0.927591 0.227511 0.136022
O O8 0.019598 0.536472 0.311974
O O9 0.111015 0.947057 0.197978
O O10 0.046136 0.035099 0.339425
O O11 0.730350 0.913243 0.279683
O O12 0.195164 0.813181 0.868072
#
# Coordination Sequence:
#
# PCOD9130112 Si02
#       6
#     4   4   4   4   4   4
#     4   8  14  27  50  84 115 146 194 240 289 355
#     4  12  27  42  63  92 122 163 208 252 301 358
#     4   9  18  32  56  84 117 157 196 244 298 354
#     4   9  17  32  56  87 119 152 195 245 296 356
#     4  11  25  43  64  91 123 162 203 250 306 361
#     4  11  26  44  63  90 125 161 207 253 302 358
#
# _framework density 24.274726000000001
#
# number of rings (size 3 to 8) (size 9 to 14) (size 15 to 20)
#    0.000    2.000    0.000    3.500    0.000   16.000 
#    0.000    0.000    0.000    1.000    0.000   14.000 
#    0.000    0.000    0.000    0.000    0.000    0.000 
#
# Total GULP energy -67154.406511 kJ/mol
# GULP energy per Si atom -5596.200543 kJ/mol
# Density = 2.421948 g / cm^3
# Si number density = 24.274726 Si / 1000 Ang^3
#
#
#
# Elastic Constant Matrix: (Units=GPa)
#
#
# Indices 1 2 3 4 5 6 
#
# 1 87.5351 -5.5768 17.0005 -0.0008 13.2947 0.0077
# 2 -5.5768 64.4079 5.6619 0.0019 5.0874 0.0182
# 3 17.0005 5.6619 146.2838 -0.0009 -64.4116 0.0011
# 4 -0.0008 0.0019 -0.0009 45.7080 -0.0003 -12.7677
# 5 13.2947 5.0874 -64.4116 -0.0003 2.5004 -0.0019
# 6 0.0077 0.0182 0.0011 -12.7677 -0.0019 32.4004
#
#
#
# Elastic Compliance Matrix: (Units=1/GPa)
#
#
# Indices 1 2 3 4 5 6 
#
# 1 0.009779 0.000021 0.002325 0.000000 0.007864 -0.000002
# 2 0.000021 0.015058 0.001366 -0.000003 0.004431 -0.000010
# 3 0.002325 0.001366 0.000015 -0.000001 -0.014757 -0.000002
# 4 0.000000 -0.000003 -0.000001 0.024584 -0.000002 0.009688
# 5 0.007864 0.004431 -0.014757 -0.000002 -0.031050 -0.000007
# 6 -0.000002 -0.000010 -0.000002 0.009688 -0.000007 0.034681
#
#
# Mechanical properties :
#
#
# Convention : Reuss Voigt Hill
#
# Bulk Modulus (GPa) = 30.98213 36.93311 33.95762
# Shear Modulus (GPa) = 88.64939 34.86450 61.75694
#
# Velocity S-wave (km/s) = 6.04967 3.79390 5.04936
# Velocity P-wave (km/s) = 7.84785 5.86849 6.92921
#
# Compressibility (1/GPa) = 0.03227667
#
# Stress axis : x y z
#
# Youngs Moduli (GPa) = 102.25671 66.41049 66801.92706
#
# Poissons Ratio (x) = -0.00141 -155.34284
# Poissons Ratio (y) = -0.00216 -91.23000
# Poissons Ratio (z) = -0.23779 -0.09070
#
# Static dielectric constant tensor:
#      x y z
#    x 1.913670 0.000000 -0.031590 
#    y 0.000000 1.850640 0.000000 
#    z -0.031590 0.000000 1.971060 
# 
# From -- ./inp_files/70441.got.cif
#   From: 2010.05.17/outbox.cif.g08.bks.cpg/sg5_36_cif.got.tgz:70441.got - 2010.06.03 18:56:24.
