data_PCOD9130526
_publ_section_title
;
Structure prediction by ZEFSAII (Michael W. Deem and Ramdas Pophale) SiO2 
 PCOD9130526
Probable space group: C 2
;
_chemical_formula_sum "Si O2"
_cell_formula_units_Z 16
_cell_length_a 12.256758
_cell_length_b 7.878639
_cell_length_c 10.867685
_cell_angle_alpha 90.000000
_cell_angle_beta 143.721393
_cell_angle_gamma 90.000000
_cell_volume 620.975398
_symmetry_space_group_name_H-M "C 2"
_symmetry_group_IT_number 5
_symmetry_cell_setting 'monoclinic'
loop_
_space_group_symop_operation_xyz
x,y,z
-x,y,-z
1/2+x,1/2+y,z
1/2-x,1/2+y,-z
loop_
_atom_site_type_symbol
_atom_site_label
_atom_site_fract_x
_atom_site_fract_y
_atom_site_fract_z
Si Si1 0.410508 0.419370 0.040564
Si Si2 0.870982 0.124704 0.233333
Si Si3 0.316166 0.867987 0.754849
Si Si4 0.707666 0.177156 0.435641
O O1 0.332591 0.560614 0.059780
O O2 0.569629 0.320416 0.260870
O O3 0.500000 0.489513 0.000000
O O4 0.261566 0.281568 0.863498
O O5 0.083532 0.180764 0.427845
O O6 0.817969 0.968336 0.273613
O O7 0.229482 0.710103 0.601627
O O8 0.363497 0.000146 0.686075
O O9 0.500000 0.841592 0.000000
#
# Coordination Sequence:
#
# PCOD9130526 Si02
#       4
#     4   4   4   4
#     4  12  27  46  73 111 147 195 253 304 368 450
#     4  12  26  47  76 103 154 199 237 315 374 429
#     4  12  25  51  76 109 154 194 251 308 367 449
#     4  12  25  46  77 105 147 200 240 307 376 430
#
# _framework density 25.765916000000001
#
# number of rings (size 3 to 8) (size 9 to 14) (size 15 to 20)
#    0.000    0.000    7.500    2.250    0.000    3.000 
#    0.000    0.000    0.000    0.000    0.000    0.000 
#    0.000    0.000    0.000    0.000    0.000    0.000 
#
# Total GULP energy -44846.684007 kJ/mol
# GULP energy per Si atom -5605.835501 kJ/mol
# Density = 2.570727 g / cm^3
# Si number density = 25.765916 Si / 1000 Ang^3
#
#
#
# Elastic Constant Matrix: (Units=GPa)
#
#
# Indices 1 2 3 4 5 6 
#
# 1 123.0633 37.0726 15.5531 0.0000 -9.8408 0.0000
# 2 37.0726 94.4880 30.5267 0.0000 -7.0022 0.0000
# 3 15.5531 30.5267 155.0446 0.0000 -4.3055 0.0000
# 4 0.0000 0.0000 0.0000 41.9523 0.0000 -25.2476
# 5 -9.8408 -7.0022 -4.3055 0.0000 54.4793 0.0000
# 6 0.0000 0.0000 0.0000 -25.2476 0.0000 39.4379
#
#
#
# Elastic Compliance Matrix: (Units=1/GPa)
#
#
# Indices 1 2 3 4 5 6 
#
# 1 0.009301 -0.003491 -0.000212 0.000000 0.001215 0.000000
# 2 -0.003491 0.012702 -0.002128 0.000000 0.000834 0.000000
# 3 -0.000212 -0.002128 0.006896 0.000000 0.000233 0.000000
# 4 0.000000 0.000000 0.000000 0.038776 0.000000 0.024824
# 5 0.001215 0.000834 0.000233 0.000000 0.018701 0.000000
# 6 0.000000 0.000000 0.000000 0.024824 0.000000 0.041248
#
#
# Mechanical properties :
#
#
# Convention : Reuss Voigt Hill
#
# Bulk Modulus (GPa) = 58.00799 59.87785 58.94292
# Shear Modulus (GPa) = 34.47503 46.47012 40.47258
#
# Velocity S-wave (km/s) = 3.66185 4.25143 3.96761
# Velocity P-wave (km/s) = 6.35934 6.88398 6.62685
#
# Compressibility (1/GPa) = 0.01723901
#
# Stress axis : x y z
#
# Youngs Moduli (GPa) = 107.50992 78.72655 145.00310
#
# Poissons Ratio (x) = 0.27483 0.03074
# Poissons Ratio (y) = 0.37531 0.30851
# Poissons Ratio (z) = 0.02279 0.16750
#
# Static dielectric constant tensor:
#      x y z
#    x 2.018320 0.000000 -0.037400 
#    y 0.000000 2.030590 0.000000 
#    z -0.037400 0.000000 2.029480 
# 
# From -- ./inp_files/18172.got.cif
#   From: 2010.05.17/outbox.cif.g08.bks.cpg/sg5_10_cif.got.tgz:18172.got - 2010.06.03 18:56:24.
