data_PCOD9130528
_publ_section_title
;
Structure prediction by ZEFSAII (Michael W. Deem and Ramdas Pophale) SiO2 
 PCOD9130528
Probable space group: C 2
;
_chemical_formula_sum "Si O2"
_cell_formula_units_Z 16
_cell_length_a 23.619886
_cell_length_b 4.853092
_cell_length_c 10.082154
_cell_angle_alpha 90.000000
_cell_angle_beta 145.452203
_cell_angle_gamma 90.000000
_cell_volume 655.396846
_symmetry_space_group_name_H-M "C 2"
_symmetry_group_IT_number 5
_symmetry_cell_setting 'monoclinic'
loop_
_space_group_symop_operation_xyz
x,y,z
-x,y,-z
1/2+x,1/2+y,z
1/2-x,1/2+y,-z
loop_
_atom_site_type_symbol
_atom_site_label
_atom_site_fract_x
_atom_site_fract_y
_atom_site_fract_z
Si Si1 0.088902 0.228550 0.945804
Si Si2 0.456207 0.251407 0.647092
Si Si3 0.773259 0.611009 0.125757
Si Si4 0.820432 0.960345 0.626427
O O1 0.032648 0.516779 0.841311
O O2 0.196284 0.231092 0.084565
O O3 0.107927 0.094944 0.125838
O O4 0.019121 0.018874 0.729677
O O5 0.384759 0.140275 0.394098
O O6 0.384421 0.344230 0.628895
O O7 0.745293 0.298962 0.038672
O O8 0.744641 0.207074 0.441016
#
# Coordination Sequence:
#
# PCOD9130528 Si02
#       4
#     4   4   4   4
#     4  12  27  48  76 111 148 195 246 304 375 441
#     4  12  27  48  76 111 148 195 246 304 375 441
#     4  12  28  50  76 104 148 198 254 306 360 432
#     4  12  25  46  79 108 158 196 237 306 383 446
#
# _framework density 24.412690000000001
#
# number of rings (size 3 to 8) (size 9 to 14) (size 15 to 20)
#    0.000    0.000    2.500    6.750    3.500    8.000 
#    0.000    0.000    0.000    0.000    0.000    0.000 
#    0.000    0.000    0.000    0.000    0.000    0.000 
#
# Total GULP energy -44895.737066 kJ/mol
# GULP energy per Si atom -5611.967133 kJ/mol
# Density = 2.435713 g / cm^3
# Si number density = 24.412690 Si / 1000 Ang^3
#
#
#
# Elastic Constant Matrix: (Units=GPa)
#
#
# Indices 1 2 3 4 5 6 
#
# 1 48.8367 12.5005 6.3086 0.0000 20.1917 0.0000
# 2 12.5005 133.4905 3.5571 0.0000 16.2285 0.0004
# 3 6.3086 3.5571 83.4726 0.0000 13.9840 0.0000
# 4 0.0000 0.0000 0.0000 44.2880 0.0000 13.0595
# 5 20.1917 16.2285 13.9840 0.0000 33.6186 0.0000
# 6 0.0000 0.0004 0.0000 13.0595 0.0000 43.3053
#
#
#
# Elastic Compliance Matrix: (Units=1/GPa)
#
#
# Indices 1 2 3 4 5 6 
#
# 1 0.027325 -0.000581 0.000712 0.000000 -0.016427 0.000000
# 2 -0.000581 0.007979 0.000312 0.000000 -0.003633 0.000000
# 3 0.000712 0.000312 0.012909 0.000000 -0.005948 0.000000
# 4 0.000000 0.000000 0.000000 0.024783 0.000000 -0.007474
# 5 -0.016427 -0.003633 -0.005948 0.000000 0.043840 0.000000
# 6 0.000000 0.000000 0.000000 -0.007474 0.000000 0.025346
#
#
# Mechanical properties :
#
#
# Convention : Reuss Voigt Hill
#
# Bulk Modulus (GPa) = 20.36652 34.50357 27.43504
# Shear Modulus (GPa) = 31.71342 40.47127 36.09235
#
# Velocity S-wave (km/s) = 3.60815 4.07602 3.84920
# Velocity P-wave (km/s) = 5.07139 6.02628 5.56934
#
# Compressibility (1/GPa) = 0.04910019
#
# Stress axis : x y z
#
# Youngs Moduli (GPa) = 36.59643 125.33116 77.46327
#
# Poissons Ratio (x) = 0.07278 -0.05513
# Poissons Ratio (y) = 0.02125 -0.02421
# Poissons Ratio (z) = -0.02604 -0.03916
#
# Static dielectric constant tensor:
#      x y z
#    x 1.954150 0.000000 -0.033010 
#    y 0.000000 1.880780 0.000000 
#    z -0.033010 0.000000 1.948730 
# 
# From -- ./inp_files/30214.got.cif
#   From: 2010.05.17/outbox.cif.g08.bks.cpg/sg5_16_cif.got.tgz:30214.got - 2010.06.03 18:56:24.
