data_PCOD9130162
_publ_section_title
;
Structure prediction by ZEFSAII (Michael W. Deem and Ramdas Pophale) SiO2 
 PCOD9130162
Probable space group: C 2
;
_chemical_formula_sum "Si O2"
_cell_formula_units_Z 26
_cell_length_a 9.206529
_cell_length_b 11.807254
_cell_length_c 11.491449
_cell_angle_alpha 90.000000
_cell_angle_beta 95.027100
_cell_angle_gamma 90.000000
_cell_volume 1244.359395
_symmetry_space_group_name_H-M "C 2"
_symmetry_group_IT_number 5
_symmetry_cell_setting 'monoclinic'
loop_
_space_group_symop_operation_xyz
x,y,z
-x,y,-z
1/2+x,1/2+y,z
1/2-x,1/2+y,-z
loop_
_atom_site_type_symbol
_atom_site_label
_atom_site_fract_x
_atom_site_fract_y
_atom_site_fract_z
Si Si1 0.143327 0.840550 0.292721
Si Si2 0.562547 0.504100 0.873537
Si Si3 0.000000 0.187467 0.500000
Si Si4 0.479649 0.094593 0.673757
Si Si5 0.445485 0.753265 0.240516
Si Si6 0.099541 0.445362 0.119873
Si Si7 0.733655 0.024965 0.536160
O O1 0.069406 0.724445 0.329343
O O2 0.284290 0.808246 0.224535
O O3 0.199361 0.910086 0.408995
O O4 0.033939 0.918164 0.210692
O O5 0.558620 0.626067 0.809010
O O6 0.729651 0.462343 0.890092
O O7 0.500000 0.512883 0.000000
O O8 0.982910 0.254895 0.379794
O O9 0.861048 0.107473 0.505521
O O10 0.641195 0.078578 0.635711
O O11 0.375766 0.021981 0.580232
O O12 0.456283 0.043575 0.798288
O O13 0.562042 0.827180 0.179732
O O14 0.000000 0.449745 0.000000
#
# Coordination Sequence:
#
# PCOD9130162 Si02
#       7
#     4   4   2   4   4   4   4
#     4  12  25  47  73 108 149 188 243 298 369 438
#     4  12  28  49  76 109 146 193 254 305 366 443
#     4  12  24  44  76 106 150 194 238 306 364 434
#     4  11  26  47  73 111 147 195 244 303 375 438
#     4  12  26  50  73 109 149 194 246 303 372 444
#     4  12  27  50  75 105 149 198 248 308 369 434
#     4  11  25  46  71 110 150 190 240 303 368 441
#
# _framework density 20.894285
#
# number of rings (size 3 to 8) (size 9 to 14) (size 15 to 20)
#    0.000    0.308    6.154    1.385    4.308    1.846 
#    2.769    0.000    0.000    0.000    0.000    0.000 
#    0.000    0.000    0.000    0.000    0.000    0.000 
#
# Total GULP energy -72787.138169 kJ/mol
# GULP energy per Si atom -5599.010628 kJ/mol
# Density = 2.084673 g / cm^3
# Si number density = 20.894285 Si / 1000 Ang^3
#
#
#
# Elastic Constant Matrix: (Units=GPa)
#
#
# Indices 1 2 3 4 5 6 
#
# 1 111.3064 62.0178 62.8051 0.0000 -15.5641 0.0000
# 2 62.0178 147.4504 74.0043 0.0000 14.7524 0.0000
# 3 62.8051 74.0043 159.9880 0.0000 5.2822 0.0000
# 4 0.0000 0.0000 0.0000 35.4721 0.0000 -9.5208
# 5 -15.5641 14.7524 5.2822 0.0000 29.6005 0.0000
# 6 0.0000 0.0000 0.0000 -9.5208 0.0000 -48.4429
#
#
#
# Elastic Compliance Matrix: (Units=1/GPa)
#
#
# Indices 1 2 3 4 5 6 
#
# 1 0.016388 -0.006118 -0.004012 0.000000 0.012382 0.000000
# 2 -0.006118 0.011537 -0.002655 0.000000 -0.008493 0.000000
# 3 -0.004012 -0.002655 0.009133 0.000000 -0.002417 0.000000
# 4 0.000000 0.000000 0.000000 0.026779 0.000000 -0.005263
# 5 0.012382 -0.008493 -0.002417 0.000000 0.044958 0.000000
# 6 0.000000 0.000000 0.000000 -0.005263 0.000000 -0.019609
#
#
# Mechanical properties :
#
#
# Convention : Reuss Voigt Hill
#
# Bulk Modulus (GPa) = 87.03940 90.71103 88.87522
# Shear Modulus (GPa) = 42.16327 17.98712 30.07520
#
# Velocity S-wave (km/s) = 4.49701 2.93723 3.79806
# Velocity P-wave (km/s) = 8.28925 7.41698 7.86522
#
# Compressibility (1/GPa) = 0.01148905
#
# Stress axis : x y z
#
# Youngs Moduli (GPa) = 61.01843 86.67557 109.49041
#
# Poissons Ratio (x) = 0.53029 0.43931
# Poissons Ratio (y) = 0.37332 0.29065
# Poissons Ratio (z) = 0.24482 0.23008
#
# Static dielectric constant tensor:
#      x y z
#    x 1.800370 0.000000 0.041150 
#    y 0.000000 1.734540 0.000000 
#    z 0.041150 0.000000 1.754570 
# 
# From -- ./inp_files/35450.got.cif
#   From: 2010.05.17/outbox.cif.g08.bks.cpg/sg5_18_cif.got.tgz:35450.got - 2010.06.03 18:56:24.
