data_PCOD9130743
_publ_section_title
;
Structure prediction by ZEFSAII (Michael W. Deem and Ramdas Pophale) SiO2 
 PCOD9130743
Probable space group: C 2
;
_chemical_formula_sum "Si O2"
_cell_formula_units_Z 15
_cell_length_a 12.000000
_cell_length_b 15.000000
_cell_length_c 9.000000
_cell_angle_alpha 90.000000
_cell_angle_beta 70.000000
_cell_angle_gamma 90.000000
_cell_volume 1522.302046
_symmetry_space_group_name_H-M "C 2"
_symmetry_group_IT_number 5
_symmetry_cell_setting 'monoclinic'
loop_
_space_group_symop_operation_xyz
x,y,z
-x,y,-z
1/2+x,1/2+y,z
1/2-x,1/2+y,-z
loop_
_atom_site_type_symbol
_atom_site_label
_atom_site_fract_x
_atom_site_fract_y
_atom_site_fract_z
Si Si1 0.771418 0.566370 0.644141
Si Si2 0.406847 0.459053 0.778168
Si Si3 0.524136 0.642372 0.811195
Si Si4 0.027489 0.340976 0.162427
Si Si5 0.000000 0.667183 0.500000
Si Si6 0.793347 0.435273 0.369538
Si Si7 0.613803 0.321593 0.633674
Si Si8 0.209874 0.896436 0.872699
O O1 0.663286 0.634374 0.710237
O O2 0.785552 0.522467 0.475843
O O3 0.731702 0.485299 0.766871
O O4 0.897617 0.609112 0.623151
O O5 0.457005 0.558985 0.767615
O O6 0.286645 0.452624 0.738544
O O7 0.509890 0.395780 0.667050
O O8 0.376150 0.421090 0.954225
O O9 0.483535 0.739322 0.777874
O O10 0.500000 0.635608 0.000000
O O11 0.927418 0.404217 0.279770
O O12 0.161419 0.369725 0.128248
O O13 0.000000 0.340577 0.000000
O O14 0.064184 0.730595 0.590462
O O15 0.725088 0.356336 0.487848
O O16 0.654519 0.324012 0.786176
#
# Coordination Sequence:
#
# PCOD9130743 Si02
#       8
#     4   4   4   4   2   4   4   4
#     4  11  24  41  66  93 132 174 213 259 334 384
#     4  12  20  42  68  93 127 169 221 267 313 395
#     4  11  22  39  64  95 126 165 216 269 318 375
#     4  11  24  41  64  99 130 166 214 273 330 378
#     4  12  24  42  64  96 138 168 220 276 322 382
#     4  11  22  41  67  94 127 173 215 260 325 394
#     4  11  23  39  68  94 123 171 219 259 321 377
#     4  11  23  43  68  94 129 173 216 262 329 398
#
# _framework density 9.8534980000000001
#
# number of rings (size 3 to 8) (size 9 to 14) (size 15 to 20)
#    0.000    0.800    6.667    2.000    0.000    2.667 
#    0.000    2.667    2.933    0.000    0.000    0.000 
#    0.000    0.000    0.000    0.000    0.000    0.000 
#
# Total GULP energy -83820.263335 kJ/mol
# GULP energy per Si atom -5588.017556 kJ/mol
# Density = 0.983107 g / cm^3
# Si number density = 9.853498 Si / 1000 Ang^3
#
#
#
# Elastic Constant Matrix: (Units=GPa)
#
#
# Indices 1 2 3 4 5 6 
#
# 1 86.7195 1.3779 16.4347 0.0000 -8.7914 0.0000
# 2 1.3779 22.6632 9.6270 0.0000 -9.5500 0.0000
# 3 16.4347 9.6270 78.1337 0.0000 -8.1324 0.0000
# 4 0.0000 0.0000 0.0000 -0.0664 0.0000 -10.3070
# 5 -8.7914 -9.5500 -8.1324 0.0000 41.0661 0.0000
# 6 0.0000 0.0000 0.0000 -10.3070 0.0000 35.0439
#
#
#
# Elastic Compliance Matrix: (Units=1/GPa)
#
#
# Indices 1 2 3 4 5 6 
#
# 1 0.012228 0.001338 -0.002483 0.000000 0.002437 0.000000
# 2 0.001338 0.051010 -0.005414 0.000000 0.011077 0.000000
# 3 -0.002483 -0.005414 0.014092 0.000000 0.001000 0.000000
# 4 0.000000 0.000000 0.000000 -0.322806 0.000000 -0.094943
# 5 0.002437 0.011077 0.001000 0.000000 0.027647 0.000000
# 6 0.000000 0.000000 0.000000 -0.094943 0.000000 0.000611
#
#
# Mechanical properties :
#
#
# Convention : Reuss Voigt Hill
#
# Bulk Modulus (GPa) = 15.57311 26.93285 21.25298
# Shear Modulus (GPa) = -27.36780 25.88051 -0.74365
#
# Velocity S-wave (km/s) = -3.73062 3.62783 -0.61496
# Velocity P-wave (km/s) = 3.26147 5.58968 3.20993
#
# Compressibility (1/GPa) = 0.06421325
#
# Stress axis : x y z
#
# Youngs Moduli (GPa) = 81.78044 19.60385 70.96209
#
# Poissons Ratio (x) = -0.02624 0.17622
# Poissons Ratio (y) = -0.10946 0.38416
# Poissons Ratio (z) = 0.20308 0.10613
#
# Static dielectric constant tensor:
#      x y z
#    x 1.699010 0.000000 0.014830 
#    y 0.000000 1.680570 0.000000 
#    z 0.014830 0.000000 1.705140 
# 
# From -- ./inp_files/20587.got.cif
#   From: 2010.05.17/outbox.ucp.g08.bks.cvg/sg5_11_cif.got.tgz:20587.got - 2010.06.11 12:53:14.
