data_PCOD9130848
_publ_section_title
;
Structure prediction by ZEFSAII (Michael W. Deem and Ramdas Pophale) SiO2 
 PCOD9130848
Probable space group: P M
;
_chemical_formula_sum "Si O2"
_cell_formula_units_Z 16
_cell_length_a 12.940368
_cell_length_b 7.579755
_cell_length_c 13.000542
_cell_angle_alpha 90.000000
_cell_angle_beta 144.077460
_cell_angle_gamma 90.000000
_cell_volume 748.122411
_symmetry_space_group_name_H-M "P M"
_symmetry_group_IT_number 6
_symmetry_cell_setting 'monoclinic'
loop_
_space_group_symop_operation_xyz
x,y,z
x,-y,z
loop_
_atom_site_type_symbol
_atom_site_label
_atom_site_fract_x
_atom_site_fract_y
_atom_site_fract_z
Si Si1 0.723120 0.210207 0.586500
Si Si2 0.838084 0.794188 0.459391
Si Si3 0.334418 0.709541 0.351747
Si Si4 0.485608 0.283440 0.887737
Si Si5 0.109694 0.288772 0.979075
Si Si6 0.224051 0.286013 0.850915
Si Si7 0.851822 0.703106 0.239857
Si Si8 0.239341 0.716904 0.502456
O O1 0.743348 0.279449 0.485320
O O2 0.538535 0.265644 0.486322
O O3 0.901336 0.256183 0.793025
O O4 0.722918 0.000000 0.578507
O O5 0.807554 0.706194 0.325337
O O6 0.044890 0.774461 0.651618
O O7 0.794162 0.000000 0.412657
O O8 0.302609 0.500000 0.330956
O O9 0.293467 0.777335 0.432692
O O10 0.203903 0.780594 0.157656
O O11 0.488299 0.500000 0.891011
O O12 0.386964 0.228581 0.912889
O O13 0.373842 0.227568 0.699445
O O14 0.684937 0.218050 0.047671
O O15 0.129763 0.500000 0.996586
O O16 0.210295 0.223751 0.957406
O O17 0.222052 0.500000 0.849850
O O18 0.864678 0.500000 0.216714
O O19 0.043566 0.779549 0.373615
O O20 0.241087 0.500000 0.506181
#
# Coordination Sequence:
#
# PCOD9130848 Si02
#       8
#     2   2   2   2   2   2   2   2
#     4  10  22  38  55  79 113 151 186 222 273 333
#     4  10  20  34  52  78 111 143 177 220 270 321
#     4  10  21  36  59  85 110 143 186 233 274 320
#     4   9  17  29  52  83 107 135 174 216 264 320
#     4   9  19  34  55  85 114 141 179 230 278 321
#     4   9  16  31  53  78 110 141 174 216 265 320
#     4  10  19  32  55  80 106 141 177 219 269 320
#     4   9  18  34  53  80 111 139 177 222 269 317
#
# _framework density 21.386875
#
# number of rings (size 3 to 8) (size 9 to 14) (size 15 to 20)
#    0.000    2.500    1.250    0.750    1.750    3.000 
#    0.000    5.000    0.000    1.500    0.000    0.000 
#    0.000    0.000    0.000    0.000    0.000    0.000 
#
# Total GULP energy -89310.680232 kJ/mol
# GULP energy per Si atom -5581.917515 kJ/mol
# Density = 2.133820 g / cm^3
# Si number density = 21.386875 Si / 1000 Ang^3
#
#
#
# Elastic Constant Matrix: (Units=GPa)
#
#
# Indices 1 2 3 4 5 6 
#
# 1 139.3642 -4.7212 108.4738 0.0000 -1.2972 0.0000
# 2 -4.7212 47.9308 -4.7488 0.0000 -2.2903 0.0000
# 3 108.4738 -4.7488 169.2904 0.0000 6.5521 0.0000
# 4 0.0000 0.0000 0.0000 -39.2815 0.0000 -5.5879
# 5 -1.2972 -2.2903 6.5521 0.0000 14.8209 0.0000
# 6 0.0000 0.0000 0.0000 -5.5879 0.0000 9.1367
#
#
#
# Elastic Compliance Matrix: (Units=1/GPa)
#
#
# Indices 1 2 3 4 5 6 
#
# 1 0.014780 0.000770 -0.009669 0.000000 0.005687 0.000000
# 2 0.000770 0.021096 -0.000031 0.000000 0.003341 0.000000
# 3 -0.009669 -0.000031 0.012346 0.000000 -0.006309 0.000000
# 4 0.000000 0.000000 0.000000 -0.023420 0.000000 -0.014323
# 5 0.005687 0.003341 -0.006309 0.000000 0.071275 0.000000
# 6 0.000000 0.000000 0.000000 -0.014323 0.000000 0.100689
#
#
# Mechanical properties :
#
#
# Convention : Reuss Voigt Hill
#
# Bulk Modulus (GPa) = 32.93622 61.62145 47.27884
# Shear Modulus (GPa) = 22.24715 14.10732 18.17724
#
# Velocity S-wave (km/s) = 3.22875 2.57110 2.91851
# Velocity P-wave (km/s) = 5.41603 6.13917 5.78890
#
# Compressibility (1/GPa) = 0.03036171
#
# Stress axis : x y z
#
# Youngs Moduli (GPa) = 67.65713 47.40276 80.99861
#
# Poissons Ratio (x) = -0.03648 0.78319
# Poissons Ratio (y) = -0.05207 0.00249
# Poissons Ratio (z) = 0.65419 0.00146
#
# Static dielectric constant tensor:
#      x y z
#    x 1.765310 0.000000 -0.005050 
#    y 0.000000 1.799390 0.000000 
#    z -0.005050 0.000000 1.764060 
# 
# From -- ./inp_files/4169.got.cif
#   From: 2010.05.17/outbox.cif.g08.bks.cpg/sg6_3_cif.got.tgz:4169.got - 2010.06.03 19:42:10.
