data_PCOD9130061
_publ_section_title
;
Structure prediction by ZEFSAII (Michael W. Deem and Ramdas Pophale) SiO2 
 PCOD9130061
Probable space group: C 2
;
_chemical_formula_sum "Si O2"
_cell_formula_units_Z 20
_cell_length_a 20.158562
_cell_length_b 5.059599
_cell_length_c 7.347788
_cell_angle_alpha 90.000000
_cell_angle_beta 80.498077
_cell_angle_gamma 90.000000
_cell_volume 739.149892
_symmetry_space_group_name_H-M "C 2"
_symmetry_group_IT_number 5
_symmetry_cell_setting 'monoclinic'
loop_
_space_group_symop_operation_xyz
x,y,z
-x,y,-z
1/2+x,1/2+y,z
1/2-x,1/2+y,-z
loop_
_atom_site_type_symbol
_atom_site_label
_atom_site_fract_x
_atom_site_fract_y
_atom_site_fract_z
Si Si1 0.356737 0.920590 0.581137
Si Si2 0.074067 0.695681 0.944151
Si Si3 0.667990 0.548294 0.096808
Si Si4 0.932579 0.923694 0.435166
Si Si5 0.798914 0.343352 0.241729
O O1 0.345816 0.825206 0.792544
O O2 0.416224 0.723163 0.493176
O O3 0.299540 0.840898 0.459288
O O4 0.375348 0.221608 0.531980
O O5 0.061886 0.894520 0.782159
O O6 0.134137 0.504944 0.848986
O O7 0.000000 0.566275 0.000000
O O8 0.102493 0.865095 0.101323
O O9 0.730534 0.445184 0.184316
O O10 0.691799 0.574256 0.876244
O O11 0.000000 0.834264 0.500000
#
# Coordination Sequence:
#
# PCOD9130061 Si02
#       5
#     4   4   4   4   4
#     4  11  27  45  74 109 147 194 251 306 377 441
#     4  11  25  45  74 107 150 195 249 308 377 443
#     4  12  25  46  78 103 148 199 249 311 380 443
#     4  11  24  47  70 111 153 193 247 310 368 455
#     4  11  26  47  71 111 146 192 257 313 368 453
#
# _framework density 27.058114
#
# number of rings (size 3 to 8) (size 9 to 14) (size 15 to 20)
#    0.000    0.800    4.000    1.800    5.600    5.600 
#    0.000    0.000    0.000    0.000    0.000    0.000 
#    0.000    0.000    0.000    0.000    0.000    0.000 
#
# Total GULP energy -55974.062427 kJ/mol
# GULP energy per Si atom -5597.406243 kJ/mol
# Density = 2.699653 g / cm^3
# Si number density = 27.058114 Si / 1000 Ang^3
#
#
#
# Elastic Constant Matrix: (Units=GPa)
#
#
# Indices 1 2 3 4 5 6 
#
# 1 170.6349 45.3505 33.1803 0.0000 25.4753 0.0000
# 2 45.3505 63.7790 12.3846 0.0000 -1.1472 0.0000
# 3 33.1803 12.3846 144.1324 0.0000 40.3188 0.0000
# 4 0.0000 0.0000 0.0000 47.1723 0.0000 -0.5715
# 5 25.4753 -1.1472 40.3188 0.0000 52.5174 0.0000
# 6 0.0000 0.0000 0.0000 -0.5715 0.0000 43.9152
#
#
#
# Elastic Compliance Matrix: (Units=1/GPa)
#
#
# Indices 1 2 3 4 5 6 
#
# 1 0.007995 -0.005696 -0.000295 0.000000 -0.003777 0.000000
# 2 -0.005696 0.020135 -0.001674 0.000000 0.004488 0.000000
# 3 -0.000295 -0.001674 0.009067 0.000000 -0.006855 0.000000
# 4 0.000000 0.000000 0.000000 0.021202 0.000000 0.000276
# 5 -0.003777 0.004488 -0.006855 0.000000 0.026234 0.000000
# 6 0.000000 0.000000 0.000000 0.000276 0.000000 0.022775
#
#
# Mechanical properties :
#
#
# Convention : Reuss Voigt Hill
#
# Bulk Modulus (GPa) = 45.72942 62.26409 53.99676
# Shear Modulus (GPa) = 38.45321 47.89638 43.17479
#
# Velocity S-wave (km/s) = 3.77388 4.21186 3.99887
# Velocity P-wave (km/s) = 5.99389 6.83478 6.42810
#
# Compressibility (1/GPa) = 0.02186776
#
# Stress axis : x y z
#
# Youngs Moduli (GPa) = 125.07117 49.66444 110.28621
#
# Poissons Ratio (x) = 0.28288 0.03251
# Poissons Ratio (y) = 0.71239 0.18466
# Poissons Ratio (z) = 0.03686 0.08316
#
# Static dielectric constant tensor:
#      x y z
#    x 2.096770 0.000000 -0.058740 
#    y 0.000000 2.176930 0.000000 
#    z -0.058740 0.000000 2.142960 
# 
# From -- ./inp_files/25986.got.cif
#   From: 2010.05.17/outbox.cif.g08.bks.cpg/sg5_13_cif.got.tgz:25986.got - 2010.06.03 18:56:24.
