data_PCOD9130996
_publ_section_title
;
Structure prediction by ZEFSAII (Michael W. Deem and Ramdas Pophale) SiO2 
 PCOD9130996
Probable space group: P M
;
_chemical_formula_sum "Si O2"
_cell_formula_units_Z 16
_cell_length_a 10.292524
_cell_length_b 8.745927
_cell_length_c 12.593806
_cell_angle_alpha 90.000000
_cell_angle_beta 126.026670
_cell_angle_gamma 90.000000
_cell_volume 916.843972
_symmetry_space_group_name_H-M "P M"
_symmetry_group_IT_number 6
_symmetry_cell_setting 'monoclinic'
loop_
_space_group_symop_operation_xyz
x,y,z
x,-y,z
loop_
_atom_site_type_symbol
_atom_site_label
_atom_site_fract_x
_atom_site_fract_y
_atom_site_fract_z
Si Si1 0.588030 0.816944 0.745820
Si Si2 0.989095 0.681307 0.421807
Si Si3 0.805276 0.318639 0.674763
Si Si4 0.283274 0.818035 0.446802
Si Si5 0.531327 0.183975 0.391924
Si Si6 0.099798 0.183600 0.701027
Si Si7 0.638487 0.815346 0.212127
Si Si8 0.466790 0.186290 0.914208
O O1 0.728620 0.735379 0.748772
O O2 0.421399 0.789400 0.601828
O O3 0.562747 0.766932 0.854599
O O4 0.614930 0.000000 0.755184
O O5 0.980537 0.500000 0.428281
O O6 0.124023 0.729133 0.401495
O O7 0.043958 0.752516 0.560500
O O8 0.815738 0.746924 0.307771
O O9 0.819482 0.500000 0.677594
O O10 0.678123 0.262510 0.524381
O O11 0.973932 0.241703 0.727566
O O12 0.368175 0.777012 0.376230
O O13 0.249711 0.000000 0.431790
O O14 0.541442 0.222773 0.273134
O O15 0.552172 0.000000 0.413590
O O16 0.281426 0.233499 0.813501
O O17 0.095823 0.000000 0.693949
O O18 0.652165 0.000000 0.215093
O O19 0.548790 0.763225 0.062602
O O20 0.466411 0.000000 0.913917
#
# Coordination Sequence:
#
# PCOD9130996 Si02
#       8
#     2   2   2   2   2   2   2   2
#     4   9  17  34  56  80 109 142 182 227 276 323
#     4  12  23  34  52  83 114 144 184 227 275 331
#     4  11  21  32  51  83 115 142 181 226 274 330
#     4   9  17  32  54  79 107 141 182 229 273 319
#     4   9  18  33  55  80 108 143 183 224 276 325
#     4  11  20  36  58  81 109 143 185 234 274 317
#     4  10  20  37  60  83 109 144 183 230 280 326
#     4   9  19  36  60  85 107 139 188 233 274 325
#
# _framework density 17.451169
#
# number of rings (size 3 to 8) (size 9 to 14) (size 15 to 20)
#    0.000    2.000    2.500    3.375    0.000    2.000 
#    0.000    3.125    0.000    4.500    0.000    0.000 
#    0.000    0.000    0.000    0.000    0.000    0.000 
#
# Total GULP energy -89305.141456 kJ/mol
# GULP energy per Si atom -5581.571341 kJ/mol
# Density = 1.741145 g / cm^3
# Si number density = 17.451169 Si / 1000 Ang^3
#
#
#
# Elastic Constant Matrix: (Units=GPa)
#
#
# Indices 1 2 3 4 5 6 
#
# 1 155.4744 45.2454 87.1220 0.0000 -15.2246 0.0000
# 2 45.2454 41.8527 37.1844 0.0000 -4.5915 0.0000
# 3 87.1220 37.1844 129.4795 0.0000 -11.6233 0.0000
# 4 0.0000 0.0000 0.0000 -3.0436 0.0000 -8.0765
# 5 -15.2246 -4.5915 -11.6233 0.0000 26.2113 0.0000
# 6 0.0000 0.0000 0.0000 -8.0765 0.0000 -8.7196
#
#
#
# Elastic Compliance Matrix: (Units=1/GPa)
#
#
# Indices 1 2 3 4 5 6 
#
# 1 0.012195 -0.007783 -0.005683 0.000000 0.003200 0.000000
# 2 -0.007783 0.037110 -0.005460 0.000000 -0.000441 0.000000
# 3 -0.005683 -0.005460 0.013261 0.000000 0.001623 0.000000
# 4 0.000000 0.000000 0.000000 0.225358 0.000000 -0.208739
# 5 0.003200 -0.000441 0.001623 0.000000 0.040653 0.000000
# 6 0.000000 0.000000 0.000000 -0.208739 0.000000 0.078661
#
#
# Mechanical properties :
#
#
# Convention : Reuss Voigt Hill
#
# Bulk Modulus (GPa) = 40.46408 73.99004 57.22706
# Shear Modulus (GPa) = 11.02955 13.37328 12.20142
#
# Velocity S-wave (km/s) = 2.51674 2.77126 2.64706
# Velocity P-wave (km/s) = 5.62873 7.26156 6.49665
#
# Compressibility (1/GPa) = 0.02471328
#
# Stress axis : x y z
#
# Youngs Moduli (GPa) = 82.00181 26.94692 75.41010
#
# Poissons Ratio (x) = 0.20973 0.42856
# Poissons Ratio (y) = 0.63824 0.41173
# Poissons Ratio (z) = 0.46602 0.14713
#
# Static dielectric constant tensor:
#      x y z
#    x 1.601320 0.000000 -0.021530 
#    y 0.000000 1.577950 0.000000 
#    z -0.021530 0.000000 1.572300 
# 
# From -- ./inp_files/4654.got.cif
#   From: 2010.05.17/outbox.cif.g08.bks.cpg/sg6_3_cif.got.tgz:4654.got - 2010.06.03 19:42:10.
