data_PCOD9130257
_publ_section_title
;
Structure prediction by ZEFSAII (Michael W. Deem and Ramdas Pophale) SiO2 
 PCOD9130257
Probable space group: C 2
;
_chemical_formula_sum "Si O2"
_cell_formula_units_Z 20
_cell_length_a 9.927266
_cell_length_b 7.711165
_cell_length_c 11.340647
_cell_angle_alpha 90.000000
_cell_angle_beta 110.430247
_cell_angle_gamma 90.000000
_cell_volume 813.527852
_symmetry_space_group_name_H-M "C 2"
_symmetry_group_IT_number 5
_symmetry_cell_setting 'monoclinic'
loop_
_space_group_symop_operation_xyz
x,y,z
-x,y,-z
1/2+x,1/2+y,z
1/2-x,1/2+y,-z
loop_
_atom_site_type_symbol
_atom_site_label
_atom_site_fract_x
_atom_site_fract_y
_atom_site_fract_z
Si Si1 0.174476 0.396350 0.061614
Si Si2 0.773089 0.166736 0.280260
Si Si3 0.291982 0.518158 0.848400
Si Si4 0.918300 0.047191 0.664854
Si Si5 0.639733 0.182664 0.475966
O O1 0.205309 0.563539 0.150821
O O2 0.240345 0.220833 0.139044
O O3 0.746981 0.431972 0.038686
O O4 0.000000 0.374161 0.000000
O O5 0.775829 0.374186 0.260264
O O6 0.684587 0.099337 0.365572
O O7 0.937750 0.122562 0.342342
O O8 0.438968 0.527503 0.814171
O O9 0.894222 0.873513 0.582887
O O10 0.779437 0.166852 0.600400
O O11 0.500000 0.114357 0.500000
#
# Coordination Sequence:
#
# PCOD9130257 Si02
#       5
#     4   4   4   4   4
#     4  12  27  46  76 111 155 200 261 316 375 455
#     4  11  26  51  78 111 155 205 252 317 382 448
#     4  11  26  47  76 108 152 201 253 308 382 446
#     4  11  27  48  76 113 156 197 256 315 378 461
#     4  11  26  47  76 112 152 201 253 315 380 454
#
# _framework density 24.584285999999999
#
# number of rings (size 3 to 8) (size 9 to 14) (size 15 to 20)
#    0.000    0.800    2.000    3.000    8.400    5.600 
#    0.000    0.000    0.000    0.000    0.000    0.000 
#    0.000    0.000    0.000    0.000    0.000    0.000 
#
# Total GULP energy -55775.194016 kJ/mol
# GULP energy per Si atom -5577.519402 kJ/mol
# Density = 2.452833 g / cm^3
# Si number density = 24.584286 Si / 1000 Ang^3
#
#
#
# Elastic Constant Matrix: (Units=GPa)
#
#
# Indices 1 2 3 4 5 6 
#
# 1 166.8697 30.7963 76.7828 0.0000 -27.7021 0.0000
# 2 30.7963 110.2284 19.9080 0.0000 -0.5694 0.0000
# 3 76.7828 19.9080 120.8896 0.0000 -48.9044 0.0000
# 4 0.0000 0.0000 0.0000 45.4152 0.0000 -0.0410
# 5 -27.7021 -0.5694 -48.9044 0.0000 59.0437 0.0000
# 6 0.0000 0.0000 0.0000 -0.0410 0.0000 21.2064
#
#
#
# Elastic Compliance Matrix: (Units=1/GPa)
#
#
# Indices 1 2 3 4 5 6 
#
# 1 0.008703 -0.001444 -0.005480 0.000000 -0.000469 0.000000
# 2 -0.001444 0.009716 -0.001382 0.000000 -0.001729 0.000000
# 3 -0.005480 -0.001382 0.016445 0.000000 0.011036 0.000000
# 4 0.000000 0.000000 0.000000 0.022019 0.000000 0.000043
# 5 -0.000469 -0.001729 0.011036 0.000000 0.025841 0.000000
# 6 0.000000 0.000000 0.000000 0.000043 0.000000 0.047156
#
#
# Mechanical properties :
#
#
# Convention : Reuss Voigt Hill
#
# Bulk Modulus (GPa) = 54.78891 72.55132 63.67012
# Shear Modulus (GPa) = 32.77083 43.16643 37.96863
#
# Velocity S-wave (km/s) = 3.65499 4.19484 3.93418
# Velocity P-wave (km/s) = 6.33612 7.28269 6.82583
#
# Compressibility (1/GPa) = 0.01825187
#
# Stress axis : x y z
#
# Youngs Moduli (GPa) = 114.90781 102.92046 60.81039
#
# Poissons Ratio (x) = 0.14864 0.33321
# Poissons Ratio (y) = 0.16595 0.08404
# Poissons Ratio (z) = 0.62964 0.14224
#
# Static dielectric constant tensor:
#      x y z
#    x 1.992020 0.000000 -0.045340 
#    y 0.000000 1.959080 0.000000 
#    z -0.045340 0.000000 2.032190 
# 
# From -- ./inp_files/34803.got.cif
#   From: 2010.05.17/outbox.cif.g08.bks.cpg/sg5_18_cif.got.tgz:34803.got - 2010.06.03 18:56:24.
