data_PCOD9130723
_publ_section_title
;
Structure prediction by ZEFSAII (Michael W. Deem and Ramdas Pophale) SiO2 
 PCOD9130723
Probable space group: C 2
;
_chemical_formula_sum "Si O2"
_cell_formula_units_Z 16
_cell_length_a 12.000000
_cell_length_b 9.000000
_cell_length_c 30.000000
_cell_angle_alpha 90.000000
_cell_angle_beta 150.000000
_cell_angle_gamma 90.000000
_cell_volume 1620.000000
_symmetry_space_group_name_H-M "C 2"
_symmetry_group_IT_number 5
_symmetry_cell_setting 'monoclinic'
loop_
_space_group_symop_operation_xyz
x,y,z
-x,y,-z
1/2+x,1/2+y,z
1/2-x,1/2+y,-z
loop_
_atom_site_type_symbol
_atom_site_label
_atom_site_fract_x
_atom_site_fract_y
_atom_site_fract_z
Si Si1 0.809638 0.515330 0.811421
Si Si2 0.910199 0.741974 0.150676
Si Si3 0.714432 0.868246 0.997013
Si Si4 0.082796 0.533734 0.479195
Si Si5 0.902375 0.012499 0.731561
Si Si6 0.204522 0.681828 0.743415
Si Si7 0.433306 0.578521 0.906733
Si Si8 0.291615 0.692489 0.463312
O O1 0.588761 0.565616 0.761047
O O2 0.751453 0.356509 0.768506
O O3 0.913241 0.636039 0.813515
O O4 0.004773 0.473905 0.914260
O O5 0.801674 0.855584 0.077573
O O6 0.713493 0.639700 0.103156
O O7 0.020662 0.848291 0.225767
O O8 0.615934 0.703499 0.955829
O O9 0.923165 0.928226 0.040367
O O10 0.242694 0.620317 0.497235
O O11 0.187223 0.370720 0.523482
O O12 0.000000 0.596985 0.500000
O O13 0.843498 0.505356 0.373805
O O14 0.866447 0.122952 0.760567
O O15 0.263520 0.582314 0.806755
O O16 0.944770 0.661424 0.642202
O O17 0.500000 0.651388 0.500000
#
# Coordination Sequence:
#
# PCOD9130723 Si02
#       8
#     4   4   4   4   4   4   4   4
#     4  11  24  39  61  93 122 169 210 256 310 365
#     4  12  24  39  64  89 125 163 212 258 311 367
#     4  11  22  38  61  90 120 166 210 250 305 364
#     4  10  23  41  66  95 129 166 210 265 324 390
#     4  11  23  42  64  88 127 166 205 261 316 372
#     4  10  22  43  60  92 128 160 206 260 313 370
#     4  11  23  40  64  88 125 164 208 258 308 365
#     4  10  22  42  68  94 125 167 212 263 326 384
#
# _framework density 9.8765429999999999
#
# number of rings (size 3 to 8) (size 9 to 14) (size 15 to 20)
#    0.000    1.250    5.000    1.875    0.000    3.500 
#    0.000    3.750    0.000    0.000    0.000    0.000 
#    0.000    0.000    0.000    0.000    0.000    0.000 
#
# Total GULP energy -89163.998603 kJ/mol
# GULP energy per Si atom -5572.749913 kJ/mol
# Density = 0.985406 g / cm^3
# Si number density = 9.876543 Si / 1000 Ang^3
#
#
#
# Elastic Constant Matrix: (Units=GPa)
#
#
# Indices 1 2 3 4 5 6 
#
# 1 164.1991 47.8650 25.2300 0.0000 32.7572 0.0000
# 2 47.8650 44.8762 7.4734 0.0000 15.1861 0.0000
# 3 25.2300 7.4734 64.7591 0.0000 13.2123 0.0000
# 4 0.0000 0.0000 0.0000 20.0921 0.0000 0.7570
# 5 32.7572 15.1861 13.2123 0.0000 37.0686 0.0000
# 6 0.0000 0.0000 0.0000 0.7570 0.0000 47.3200
#
#
#
# Elastic Compliance Matrix: (Units=1/GPa)
#
#
# Indices 1 2 3 4 5 6 
#
# 1 0.009778 -0.008612 -0.001912 0.000000 -0.004432 0.000000
# 2 -0.008612 0.033501 0.000794 0.000000 -0.006398 0.000000
# 3 -0.001912 0.000794 0.017057 0.000000 -0.004716 0.000000
# 4 0.000000 0.000000 0.000000 0.049801 0.000000 -0.000797
# 5 -0.004432 -0.006398 -0.004716 0.000000 0.035195 0.000000
# 6 0.000000 0.000000 0.000000 -0.000797 0.000000 0.021145
#
#
# Mechanical properties :
#
#
# Convention : Reuss Voigt Hill
#
# Bulk Modulus (GPa) = 24.46257 48.33014 36.39635
# Shear Modulus (GPa) = 25.05482 33.78054 29.41768
#
# Velocity S-wave (km/s) = 3.56532 4.13987 3.86329
# Velocity P-wave (km/s) = 5.41847 6.88270 6.19400
#
# Compressibility (1/GPa) = 0.04087878
#
# Stress axis : x y z
#
# Youngs Moduli (GPa) = 102.26696 29.84950 58.62669
#
# Poissons Ratio (x) = 0.25705 0.11207
# Poissons Ratio (y) = 0.88068 -0.04656
# Poissons Ratio (z) = 0.19550 -0.02371
#
# Static dielectric constant tensor:
#      x y z
#    x 1.736970 0.000000 -0.051000 
#    y 0.000000 1.713800 0.000000 
#    z -0.051000 0.000000 1.745760 
# 
# From -- ./inp_files/71777.got.cif
#   From: 2010.05.17/outbox.ucp.g08.bks.cvg/sg5_36_cif.got.tgz:71777.got - 2010.06.11 12:53:14.
