data_PCOD9130862
_publ_section_title
;
Structure prediction by ZEFSAII (Michael W. Deem and Ramdas Pophale) SiO2 
 PCOD9130862
Probable space group: P M
;
_chemical_formula_sum "Si O2"
_cell_formula_units_Z 16
_cell_length_a 12.595394
_cell_length_b 8.600354
_cell_length_c 10.359715
_cell_angle_alpha 90.000000
_cell_angle_beta 53.757464
_cell_angle_gamma 90.000000
_cell_volume 905.090301
_symmetry_space_group_name_H-M "P M"
_symmetry_group_IT_number 6
_symmetry_cell_setting 'monoclinic'
loop_
_space_group_symop_operation_xyz
x,y,z
x,-y,z
loop_
_atom_site_type_symbol
_atom_site_label
_atom_site_fract_x
_atom_site_fract_y
_atom_site_fract_z
Si Si1 0.160440 0.686302 0.582570
Si Si2 0.663344 0.312440 0.101126
Si Si3 0.196340 0.813265 0.277989
Si Si4 0.127166 0.188606 0.047883
Si Si5 0.451669 0.687728 0.468843
Si Si6 0.953787 0.186431 0.937174
Si Si7 0.426049 0.186310 0.766256
Si Si8 0.482866 0.686618 0.996467
O O1 0.155446 0.500000 0.591119
O O2 0.144183 0.741842 0.447490
O O3 0.306173 0.736526 0.525616
O O4 0.050841 0.755227 0.755340
O O5 0.670699 0.500000 0.098688
O O6 0.561039 0.263595 0.286456
O O7 0.599508 0.267901 0.009604
O O8 0.807001 0.245424 0.020792
O O9 0.119899 0.762974 0.202545
O O10 0.346743 0.758709 0.147514
O O11 0.193665 0.000000 0.287687
O O12 0.125466 0.000000 0.048965
O O13 0.271988 0.234646 0.891864
O O14 0.016157 0.242414 0.028585
O O15 0.452062 0.500000 0.474359
O O16 0.476081 0.754385 0.593192
O O17 0.954496 0.000000 0.937015
O O18 0.431394 0.000000 0.768184
O O19 0.498474 0.255638 0.838984
O O20 0.470026 0.500000 0.008104
#
# Coordination Sequence:
#
# PCOD9130862 Si02
#       8
#     2   2   2   2   2   2   2   2
#     4  11  21  36  57  85 114 148 191 233 280 336
#     4  10  22  40  57  80 115 151 189 231 278 339
#     4  10  19  33  56  85 113 144 185 236 285 330
#     4   8  17  33  52  79 113 143 176 225 280 330
#     4  10  20  36  57  82 112 147 190 234 278 332
#     4  11  22  38  58  83 114 150 188 231 285 338
#     4  10  19  33  55  85 115 142 183 235 283 331
#     4  10  19  35  56  81 114 149 186 231 283 336
#
# _framework density 17.677793000000001
#
# number of rings (size 3 to 8) (size 9 to 14) (size 15 to 20)
#    0.000    2.000    2.500    2.625    0.000    2.000 
#    0.000    3.125    0.000    3.000    0.000    0.000 
#    0.000    0.000    0.000    0.000    0.000    0.000 
#
# Total GULP energy -89301.465283 kJ/mol
# GULP energy per Si atom -5581.341580 kJ/mol
# Density = 1.763756 g / cm^3
# Si number density = 17.677793 Si / 1000 Ang^3
#
#
#
# Elastic Constant Matrix: (Units=GPa)
#
#
# Indices 1 2 3 4 5 6 
#
# 1 163.9126 38.4313 98.9584 0.0000 18.8140 0.0000
# 2 38.4313 34.4832 32.1791 0.0000 2.2605 0.0000
# 3 98.9584 32.1791 133.4540 0.0000 18.4912 0.0000
# 4 0.0000 0.0000 0.0000 29.8344 0.0000 2.5360
# 5 18.8140 2.2605 18.4912 0.0000 33.2226 0.0000
# 6 0.0000 0.0000 0.0000 2.5360 0.0000 22.9787
#
#
#
# Elastic Compliance Matrix: (Units=1/GPa)
#
#
# Indices 1 2 3 4 5 6 
#
# 1 0.012302 -0.006916 -0.007102 0.000000 -0.002543 0.000000
# 2 -0.006916 0.041530 -0.005457 0.000000 0.004128 0.000000
# 3 -0.007102 -0.005457 0.014592 0.000000 -0.003728 0.000000
# 4 0.000000 0.000000 0.000000 0.033836 0.000000 -0.003734
# 5 -0.002543 0.004128 -0.003728 0.000000 0.033334 0.000000
# 6 0.000000 0.000000 0.000000 -0.003734 0.000000 0.043931
#
#
# Mechanical properties :
#
#
# Convention : Reuss Voigt Hill
#
# Bulk Modulus (GPa) = 33.93005 74.55418 54.24211
# Shear Modulus (GPa) = 21.90096 28.02589 24.96342
#
# Velocity S-wave (km/s) = 3.52361 3.98599 3.76191
# Velocity P-wave (km/s) = 5.98245 7.96553 7.04413
#
# Compressibility (1/GPa) = 0.02947240
#
# Stress axis : x y z
#
# Youngs Moduli (GPa) = 81.28722 24.07908 68.53029
#
# Poissons Ratio (x) = 0.16654 0.48671
# Poissons Ratio (y) = 0.56220 0.37400
# Poissons Ratio (z) = 0.57731 0.13141
#
# Static dielectric constant tensor:
#      x y z
#    x 1.599870 0.000000 0.023620 
#    y 0.000000 1.597990 0.000000 
#    z 0.023620 0.000000 1.584510 
# 
# From -- ./inp_files/3501.got.cif
#   From: 2010.05.17/outbox.cif.g08.bks.cpg/sg6_2_cif.got.tgz:3501.got - 2010.06.03 19:42:10.
