data_PCOD9130855
_publ_section_title
;
Structure prediction by ZEFSAII (Michael W. Deem and Ramdas Pophale) SiO2 
 PCOD9130855
Probable space group: P M
;
_chemical_formula_sum "Si O2"
_cell_formula_units_Z 16
_cell_length_a 21.857718
_cell_length_b 8.822226
_cell_length_c 9.421209
_cell_angle_alpha 90.000000
_cell_angle_beta 150.566348
_cell_angle_gamma 90.000000
_cell_volume 892.767492
_symmetry_space_group_name_H-M "P M"
_symmetry_group_IT_number 6
_symmetry_cell_setting 'monoclinic'
loop_
_space_group_symop_operation_xyz
x,y,z
x,-y,z
loop_
_atom_site_type_symbol
_atom_site_label
_atom_site_fract_x
_atom_site_fract_y
_atom_site_fract_z
Si Si1 0.040740 0.681547 0.593870
Si Si2 0.573978 0.815764 0.657199
Si Si3 0.287644 0.175661 0.748608
Si Si4 0.028311 0.681184 0.238736
Si Si5 0.561445 0.184317 0.302095
Si Si6 0.800761 0.817664 0.604010
Si Si7 0.298500 0.174469 0.115410
Si Si8 0.802491 0.682516 0.293883
O O1 0.042482 0.500000 0.597213
O O2 0.019677 0.729208 0.387303
O O3 0.927426 0.732533 0.463218
O O4 0.176021 0.738225 0.915707
O O5 0.584512 0.770821 0.512461
O O6 0.436244 0.769212 0.432875
O O7 0.579282 0.000000 0.674196
O O8 0.683705 0.744170 0.968848
O O9 0.165540 0.269754 0.463671
O O10 0.271346 0.000000 0.672240
O O11 0.423267 0.233856 0.974494
O O12 0.296992 0.176980 0.939781
O O13 0.015389 0.500000 0.204679
O O14 0.920107 0.760383 0.931975
O O15 0.675161 0.230894 0.432968
O O16 0.556226 0.000000 0.292044
O O17 0.802489 0.748219 0.451422
O O18 0.801574 0.000000 0.598541
O O19 0.287749 0.000000 0.138538
O O20 0.800295 0.500000 0.292815
#
# Coordination Sequence:
#
# PCOD9130855 Si02
#       8
#     2   2   2   2   2   2   2   2
#     4   9  19  34  53  76 104 135 168 205 251 301
#     4   9  17  33  56  81 104 129 163 207 254 303
#     4   8  14  29  52  78 104 130 161 204 252 299
#     4  10  19  33  53  79 106 132 164 207 253 302
#     4   8  16  32  56  81 103 127 165 212 253 295
#     4  11  22  36  53  74 100 136 175 211 251 297
#     4   8  15  28  51  80 105 127 161 207 252 296
#     4  11  23  37  50  71 104 140 173 209 250 297
#
# _framework density 17.921800000000001
#
# number of rings (size 3 to 8) (size 9 to 14) (size 15 to 20)
#    0.000    2.750    0.000    3.375    0.000    2.000 
#    0.000    5.000    0.000    1.500    0.000    0.000 
#    0.000    0.000    0.000    0.000    0.000    0.000 
#
# Total GULP energy -89200.125414 kJ/mol
# GULP energy per Si atom -5575.007838 kJ/mol
# Density = 1.788101 g / cm^3
# Si number density = 17.921800 Si / 1000 Ang^3
#
#
#
# Elastic Constant Matrix: (Units=GPa)
#
#
# Indices 1 2 3 4 5 6 
#
# 1 105.4736 37.0441 115.0395 0.0000 17.8313 0.0000
# 2 37.0441 34.8424 40.1120 0.0000 8.6681 0.0000
# 3 115.0395 40.1120 130.5068 0.0000 45.5278 0.0000
# 4 0.0000 0.0000 0.0000 2.0471 0.0000 -5.6477
# 5 17.8313 8.6681 45.5278 0.0000 21.8181 0.0000
# 6 0.0000 0.0000 0.0000 -5.6477 0.0000 19.9500
#
#
#
# Elastic Compliance Matrix: (Units=1/GPa)
#
#
# Indices 1 2 3 4 5 6 
#
# 1 -0.010138 -0.010472 0.028719 0.000000 -0.047483 0.000000
# 2 -0.010472 0.045564 -0.005309 0.000000 0.001535 0.000000
# 3 0.028719 -0.005309 -0.031498 0.000000 0.044365 0.000000
# 4 0.000000 0.000000 0.000000 2.230636 0.000000 0.631479
# 5 -0.047483 0.001535 0.044365 0.000000 -0.008546 0.000000
# 6 0.000000 0.000000 0.000000 0.631479 0.000000 0.228893
#
#
# Mechanical properties :
#
#
# Convention : Reuss Voigt Hill
#
# Bulk Modulus (GPa) = 33.55110 72.80155 53.17632
# Shear Modulus (GPa) = 2.05005 14.00487 8.02746
#
# Velocity S-wave (km/s) = 1.07069 2.79846 2.11870
# Velocity P-wave (km/s) = 4.50444 7.15205 5.97670
#
# Compressibility (1/GPa) = 0.02980528
#
# Stress axis : x y z
#
# Youngs Moduli (GPa) = -98.64261 21.94698 -31.74775
#
# Poissons Ratio (x) = 0.22982 0.91177
# Poissons Ratio (y) = -1.03297 -0.16855
# Poissons Ratio (z) = 2.83295 0.11652
#
# Static dielectric constant tensor:
#      x y z
#    x 1.612470 0.000000 0.021260 
#    y 0.000000 1.604110 0.000000 
#    z 0.021260 0.000000 1.604000 
# 
# From -- ./inp_files/3769.got.cif
#   From: 2010.05.17/outbox.cif.g08.bks.cpg/sg6_2_cif.got.tgz:3769.got - 2010.06.03 19:42:10.
