data_PCOD9130236
_publ_section_title
;
Structure prediction by ZEFSAII (Michael W. Deem and Ramdas Pophale) SiO2 
 PCOD9130236
Probable space group: C 2
;
_chemical_formula_sum "Si O2"
_cell_formula_units_Z 30
_cell_length_a 14.649620
_cell_length_b 6.016398
_cell_length_c 15.384948
_cell_angle_alpha 90.000000
_cell_angle_beta 115.490780
_cell_angle_gamma 90.000000
_cell_volume 1223.997487
_symmetry_space_group_name_H-M "C 2"
_symmetry_group_IT_number 5
_symmetry_cell_setting 'monoclinic'
loop_
_space_group_symop_operation_xyz
x,y,z
-x,y,-z
1/2+x,1/2+y,z
1/2-x,1/2+y,-z
loop_
_atom_site_type_symbol
_atom_site_label
_atom_site_fract_x
_atom_site_fract_y
_atom_site_fract_z
Si Si1 0.500000 0.360320 0.000000
Si Si2 0.113791 0.241182 0.647559
Si Si3 0.275587 0.981496 0.818922
Si Si4 0.134073 0.622349 0.775623
Si Si5 0.851494 0.512534 0.028173
Si Si6 0.036097 0.230412 0.139523
Si Si7 0.031941 0.968394 0.307539
Si Si8 0.247743 0.812934 0.454889
O O1 0.579942 0.215085 0.978613
O O2 0.438817 0.514860 0.907057
O O3 0.083410 0.462501 0.685411
O O4 0.156462 0.285491 0.570177
O O5 0.213094 0.166091 0.744034
O O6 0.025354 0.063443 0.629997
O O7 0.223831 0.753773 0.766017
O O8 0.392270 0.942088 0.847098
O O9 0.266422 0.992982 0.919684
O O10 0.177436 0.529631 0.883356
O O11 0.048207 0.798062 0.765537
O O12 0.925846 0.301084 0.060832
O O13 0.040345 0.166637 0.241621
O O14 0.138770 0.854069 0.365961
O O15 0.239529 0.561015 0.494068
#
# Coordination Sequence:
#
# PCOD9130236 Si02
#       8
#     2   4   4   4   4   4   4   4
#     4  12  22  38  60 100 142 210 270 314 376 442
#     4  11  28  51  79 115 155 212 259 326 415 484
#     4  11  26  39  66 107 154 208 262 317 371 468
#     4  11  26  43  69 105 154 205 258 312 391 465
#     4  12  24  37  62 105 148 206 264 311 367 442
#     4  12  23  42  69 101 148 207 262 318 383 455
#     4  11  27  50  82 110 156 203 257 335 405 499
#     4  12  33  59  90 125 155 202 270 348 433 516
#
# _framework density 24.509853
#
# number of rings (size 3 to 8) (size 9 to 14) (size 15 to 20)
#    0.000    0.533    5.333    0.800   14.933    0.533 
#    0.000    0.000    0.000    0.000    0.000    0.000 
#    0.000    0.000    0.000    0.000    0.000    0.000 
#
# Total GULP energy -83799.540812 kJ/mol
# GULP energy per Si atom -5586.636054 kJ/mol
# Density = 2.445407 g / cm^3
# Si number density = 24.509853 Si / 1000 Ang^3
#
#
#
# Elastic Constant Matrix: (Units=GPa)
#
#
# Indices 1 2 3 4 5 6 
#
# 1 72.7135 18.6532 18.6407 0.0000 -17.7136 0.0000
# 2 18.6532 67.4584 23.2129 0.0000 -12.2379 0.0000
# 3 18.6407 23.2129 62.7318 0.0000 -7.3641 0.0000
# 4 0.0000 0.0000 0.0000 38.4109 0.0000 2.9366
# 5 -17.7136 -12.2379 -7.3641 0.0000 49.3458 0.0000
# 6 0.0000 0.0000 0.0000 2.9366 0.0000 40.4660
#
#
#
# Elastic Compliance Matrix: (Units=1/GPa)
#
#
# Indices 1 2 3 4 5 6 
#
# 1 0.016428 -0.002510 -0.003393 0.000000 0.004768 0.000000
# 2 -0.002510 0.017927 -0.005569 0.000000 0.002714 0.000000
# 3 -0.003393 -0.005569 0.019038 0.000000 0.000242 0.000000
# 4 0.000000 0.000000 0.000000 0.026180 0.000000 -0.001900
# 5 0.004768 0.002714 0.000242 0.000000 0.022686 0.000000
# 6 0.000000 0.000000 0.000000 -0.001900 0.000000 0.024850
#
#
# Mechanical properties :
#
#
# Convention : Reuss Voigt Hill
#
# Bulk Modulus (GPa) = 32.84209 35.99081 34.41645
# Shear Modulus (GPa) = 31.21061 35.13768 33.17415
#
# Velocity S-wave (km/s) = 3.57233 3.79042 3.68299
# Velocity P-wave (km/s) = 5.51761 5.82000 5.67082
#
# Compressibility (1/GPa) = 0.03044874
#
# Stress axis : x y z
#
# Youngs Moduli (GPa) = 60.87205 55.78289 52.52577
#
# Poissons Ratio (x) = 0.14001 0.17822
# Poissons Ratio (y) = 0.15279 0.29252
# Poissons Ratio (z) = 0.20654 0.31066
#
# Static dielectric constant tensor:
#      x y z
#    x 1.971910 0.000000 -0.032670 
#    y 0.000000 1.986610 0.000000 
#    z -0.032670 0.000000 1.942090 
# 
# From -- ./inp_files/61130.got.cif
#   From: 2010.05.17/outbox.cif.g08.bks.cpg/sg5_31_cif.got.tgz:61130.got - 2010.06.03 18:56:24.
