data_PCOD9130832
_publ_section_title
;
Structure prediction by ZEFSAII (Michael W. Deem and Ramdas Pophale) SiO2 
 PCOD9130832
Probable space group: P M
;
_chemical_formula_sum "Si O2"
_cell_formula_units_Z 12
_cell_length_a 9.505696
_cell_length_b 8.570458
_cell_length_c 16.438221
_cell_angle_alpha 90.000000
_cell_angle_beta 149.789965
_cell_angle_gamma 90.000000
_cell_volume 673.842872
_symmetry_space_group_name_H-M "P M"
_symmetry_group_IT_number 6
_symmetry_cell_setting 'monoclinic'
loop_
_space_group_symop_operation_xyz
x,y,z
x,-y,z
loop_
_atom_site_type_symbol
_atom_site_label
_atom_site_fract_x
_atom_site_fract_y
_atom_site_fract_z
Si Si1 0.982620 0.812822 0.371770
Si Si2 0.994427 0.312839 0.209135
Si Si3 0.988070 0.311977 0.027144
Si Si4 0.629067 0.813628 0.527407
Si Si5 0.614637 0.313083 0.689539
Si Si6 0.619233 0.811519 0.343997
O O1 0.805957 0.759843 0.361512
O O2 0.861130 0.749344 0.225596
O O3 0.301289 0.754134 0.538521
O O4 0.983984 0.000000 0.369464
O O5 0.019058 0.500000 0.226636
O O6 0.304030 0.238076 0.363091
O O7 0.872240 0.271308 0.059469
O O8 0.001799 0.500000 0.030616
O O9 0.797447 0.258058 0.857351
O O10 0.302990 0.248931 0.177766
O O11 0.743327 0.738543 0.667087
O O12 0.736689 0.764582 0.491905
O O13 0.647230 0.000000 0.543596
O O14 0.596598 0.500000 0.681708
O O15 0.610339 0.000000 0.339281
#
# Coordination Sequence:
#
# PCOD9130832 Si02
#       6
#     2   2   2   2   2   2
#     4  10  19  32  49  72  97 124 157 194 232 278
#     4   9  16  29  48  69  92 123 158 193 230 276
#     4   9  19  33  50  71  96 123 157 195 234 278
#     4   9  16  29  48  69  92 123 158 193 230 276
#     4  10  19  32  49  72  97 124 157 194 232 278
#     4   9  19  33  50  71  96 123 157 195 234 278
#
# _framework density 17.808305000000001
#
# number of rings (size 3 to 8) (size 9 to 14) (size 15 to 20)
#    0.000    2.667    0.000    4.000    0.000    4.000 
#    0.000    1.667    0.000    8.000    0.000    0.000 
#    0.000    0.000    0.000    0.000    0.000    0.000 
#
# Total GULP energy -66829.673043 kJ/mol
# GULP energy per Si atom -5569.139420 kJ/mol
# Density = 1.776777 g / cm^3
# Si number density = 17.808305 Si / 1000 Ang^3
#
#
#
# Elastic Constant Matrix: (Units=GPa)
#
#
# Indices 1 2 3 4 5 6 
#
# 1 148.2657 12.0638 61.4330 0.0000 -40.4281 0.0000
# 2 12.0638 12.5851 16.6951 0.0000 -4.1855 0.0000
# 3 61.4330 16.6951 103.7300 0.0000 -43.7285 0.0000
# 4 0.0000 0.0000 0.0000 16.6957 0.0000 -12.0467
# 5 -40.4281 -4.1855 -43.7285 0.0000 32.3568 0.0000
# 6 0.0000 0.0000 0.0000 -12.0467 0.0000 24.2957
#
#
#
# Elastic Compliance Matrix: (Units=1/GPa)
#
#
# Indices 1 2 3 4 5 6 
#
# 1 0.010653 -0.005895 -0.000164 0.000000 0.012326 0.000000
# 2 -0.005895 0.110631 -0.026463 0.000000 -0.028818 0.000000
# 3 -0.000164 -0.026463 0.028975 0.000000 0.035529 0.000000
# 4 0.000000 0.000000 0.000000 0.093262 0.000000 0.046243
# 5 0.012326 -0.028818 0.035529 0.000000 0.090594 0.000000
# 6 0.000000 0.000000 0.000000 0.046243 0.000000 0.064089
#
#
# Mechanical properties :
#
#
# Convention : Reuss Voigt Hill
#
# Bulk Modulus (GPa) = 11.73508 49.44051 30.58780
# Shear Modulus (GPa) = 10.16976 26.29556 18.23266
#
# Velocity S-wave (km/s) = 2.39230 3.84681 3.20320
# Velocity P-wave (km/s) = 3.77290 6.89590 5.55825
#
# Compressibility (1/GPa) = 0.08521459
#
# Stress axis : x y z
#
# Youngs Moduli (GPa) = 93.86681 9.03904 34.51289
#
# Poissons Ratio (x) = 0.05328 0.00568
# Poissons Ratio (y) = 0.55330 0.91333
# Poissons Ratio (z) = 0.01544 0.23920
#
# Static dielectric constant tensor:
#      x y z
#    x 1.652030 0.000000 -0.051090 
#    y 0.000000 1.603650 0.000000 
#    z -0.051090 0.000000 1.618490 
# 
# From -- ./inp_files/2418.got.cif
#   From: 2010.05.17/outbox.cif.g08.bks.cpg/sg6_2_cif.got.tgz:2418.got - 2010.06.03 19:42:10.
