data_PCOD9130565
_publ_section_title
;
Structure prediction by ZEFSAII (Michael W. Deem and Ramdas Pophale) SiO2 
 PCOD9130565
Probable space group: C 2
;
_chemical_formula_sum "Si O2"
_cell_formula_units_Z 20
_cell_length_a 19.876639
_cell_length_b 6.719995
_cell_length_c 11.968710
_cell_angle_alpha 90.000000
_cell_angle_beta 33.864611
_cell_angle_gamma 90.000000
_cell_volume 890.831487
_symmetry_space_group_name_H-M "C 2"
_symmetry_group_IT_number 5
_symmetry_cell_setting 'monoclinic'
loop_
_space_group_symop_operation_xyz
x,y,z
-x,y,-z
1/2+x,1/2+y,z
1/2-x,1/2+y,-z
loop_
_atom_site_type_symbol
_atom_site_label
_atom_site_fract_x
_atom_site_fract_y
_atom_site_fract_z
Si Si1 0.884029 0.201050 0.791125
Si Si2 0.000000 0.846484 0.500000
Si Si3 0.675154 0.451039 0.708875
Si Si4 0.500000 0.096475 0.000000
Si Si5 0.208405 0.561531 0.225615
Si Si6 0.434018 0.811521 0.274387
O O1 0.841730 0.352214 0.753061
O O2 0.996546 0.286202 0.705669
O O3 0.929344 0.992527 0.679830
O O4 0.777476 0.161661 0.026316
O O5 0.900778 0.701465 0.583998
O O6 0.702218 0.536200 0.794324
O O7 0.594788 0.602201 0.746941
O O8 0.803789 0.411648 0.473683
O O9 0.609174 0.242517 0.820172
O O10 0.515222 0.951455 0.084001
#
# Coordination Sequence:
#
# PCOD9130565 Si02
#       6
#     4   2   4   2   4   4
#     4  12  27  47  75 111 148 197 249 302 372 443
#     4  12  26  48  76 104 156 188 240 316 360 436
#     4  12  27  47  75 111 148 197 249 302 372 443
#     4  12  26  48  76 104 156 188 240 316 360 436
#     4  12  27  47  75 111 148 197 249 302 372 443
#     4  12  27  47  75 111 148 197 249 302 372 443
#
# _framework density 22.450935000000001
#
# number of rings (size 3 to 8) (size 9 to 14) (size 15 to 20)
#    0.000    0.000    4.000    6.000    5.600    6.400 
#    0.000    0.000    0.000    0.000    0.000    0.000 
#    0.000    0.000    0.000    0.000    0.000    0.000 
#
# Total GULP energy -56021.834077 kJ/mol
# GULP energy per Si atom -5602.183408 kJ/mol
# Density = 2.239984 g / cm^3
# Si number density = 22.450935 Si / 1000 Ang^3
#
#
#
# Elastic Constant Matrix: (Units=GPa)
#
#
# Indices 1 2 3 4 5 6 
#
# 1 63.1056 10.8487 1.9267 0.0000 -0.0715 0.0002
# 2 10.8487 99.9782 41.0894 0.0002 -2.7006 0.0002
# 3 1.9267 41.0894 82.9008 0.0011 -1.6966 -0.0002
# 4 0.0000 0.0002 0.0011 65.6697 -0.0001 -3.4189
# 5 -0.0715 -2.7006 -1.6966 -0.0001 31.1333 -0.0001
# 6 0.0002 0.0002 -0.0002 -3.4189 -0.0001 27.3832
#
#
#
# Elastic Compliance Matrix: (Units=1/GPa)
#
#
# Indices 1 2 3 4 5 6 
#
# 1 0.016173 -0.002012 0.000619 0.000000 -0.000104 0.000000
# 2 -0.002012 0.012829 -0.006296 0.000000 0.000765 0.000000
# 3 0.000619 -0.006296 0.015175 0.000000 0.000282 0.000000
# 4 0.000000 0.000000 0.000000 0.015327 0.000000 0.001914
# 5 -0.000104 0.000765 0.000282 0.000000 0.032201 0.000000
# 6 0.000000 0.000000 0.000000 0.001914 0.000000 0.036758
#
#
# Mechanical properties :
#
#
# Convention : Reuss Voigt Hill
#
# Bulk Modulus (GPa) = 34.72377 39.30155 37.01266
# Shear Modulus (GPa) = 32.58582 37.64523 35.11552
#
# Velocity S-wave (km/s) = 3.81389 4.09929 3.95916
# Velocity P-wave (km/s) = 5.90715 6.32053 6.11733
#
# Compressibility (1/GPa) = 0.02879872
#
# Stress axis : x y z
#
# Youngs Moduli (GPa) = 61.83000 77.94958 65.89948
#
# Poissons Ratio (x) = 0.15686 -0.04082
# Poissons Ratio (y) = 0.12442 0.41491
# Poissons Ratio (z) = -0.03830 0.49078
#
# Static dielectric constant tensor:
#      x y z
#    x 1.787170 0.000000 -0.005440 
#    y 0.000000 1.810230 0.000000 
#    z -0.005440 0.000000 1.848110 
# 
# From -- ./inp_files/45361.got.cif
#   From: 2010.05.17/outbox.cif.g08.bks.cpg/sg5_23_cif.got.tgz:45361.got - 2010.06.03 18:56:24.
