data_PCOD9130454
_publ_section_title
;
Structure prediction by ZEFSAII (Michael W. Deem and Ramdas Pophale) SiO2 
 PCOD9130454
Probable space group: C 2
;
_chemical_formula_sum "Si O2"
_cell_formula_units_Z 14
_cell_length_a 7.819124
_cell_length_b 5.433928
_cell_length_c 14.248313
_cell_angle_alpha 90.000000
_cell_angle_beta 59.818031
_cell_angle_gamma 90.000000
_cell_volume 523.319352
_symmetry_space_group_name_H-M "C 2"
_symmetry_group_IT_number 5
_symmetry_cell_setting 'monoclinic'
loop_
_space_group_symop_operation_xyz
x,y,z
-x,y,-z
1/2+x,1/2+y,z
1/2-x,1/2+y,-z
loop_
_atom_site_type_symbol
_atom_site_label
_atom_site_fract_x
_atom_site_fract_y
_atom_site_fract_z
Si Si1 0.329120 0.742690 0.858648
Si Si2 0.752240 0.932386 0.715330
Si Si3 0.176115 0.734619 0.568923
Si Si4 0.000000 0.097004 0.000000
O O1 0.538101 0.818622 0.756430
O O2 0.268559 0.497794 0.820495
O O3 0.368646 0.731202 0.958693
O O4 0.148612 0.929559 0.897606
O O5 0.940388 0.773144 0.635463
O O6 0.753934 0.180411 0.652579
O O7 0.236217 0.485798 0.497650
#
# Coordination Sequence:
#
# PCOD9130454 Si02
#       4
#     4   4   4   2
#     4  12  25  45  72 106 146 192 244 305 369 444
#     4  12  27  47  74 108 150 196 250 309 373 444
#     4  12  29  51  78 112 154 202 254 313 377 448
#     4  12  24  44  72 104 146 192 244 302 372 444
#
# _framework density 26.752310000000001
#
# number of rings (size 3 to 8) (size 9 to 14) (size 15 to 20)
#    0.000    0.000    0.000    9.429    0.000   13.714 
#    0.000    0.000    0.000    0.000    0.000    0.000 
#    0.000    0.000    0.000    0.000    0.000    0.000 
#
# Total GULP energy -39302.368797 kJ/mol
# GULP energy per Si atom -5614.624114 kJ/mol
# Density = 2.669142 g / cm^3
# Si number density = 26.752310 Si / 1000 Ang^3
#
#
#
# Elastic Constant Matrix: (Units=GPa)
#
#
# Indices 1 2 3 4 5 6 
#
# 1 132.2454 39.6293 38.3514 0.0000 -12.0897 0.0000
# 2 39.6293 112.5908 40.1114 0.0000 -17.1381 0.0000
# 3 38.3514 40.1114 103.4769 0.0000 -10.9294 0.0000
# 4 0.0000 0.0000 0.0000 45.7537 0.0000 3.6203
# 5 -12.0897 -17.1381 -10.9294 0.0000 66.1816 0.0000
# 6 0.0000 0.0000 0.0000 3.6203 0.0000 57.2892
#
#
#
# Elastic Compliance Matrix: (Units=1/GPa)
#
#
# Indices 1 2 3 4 5 6 
#
# 1 0.008980 -0.002202 -0.002404 0.000000 0.000673 0.000000
# 2 -0.002202 0.011124 -0.003292 0.000000 0.001935 0.000000
# 3 -0.002404 -0.003292 0.011902 0.000000 0.000674 0.000000
# 4 0.000000 0.000000 0.000000 0.021966 0.000000 -0.001388
# 5 0.000673 0.001935 0.000674 0.000000 0.015845 0.000000
# 6 0.000000 0.000000 0.000000 -0.001388 0.000000 0.017543
#
#
# Mechanical properties :
#
#
# Convention : Reuss Voigt Hill
#
# Bulk Modulus (GPa) = 61.68388 64.94417 63.31402
# Shear Modulus (GPa) = 46.05808 49.19296 47.62552
#
# Velocity S-wave (km/s) = 4.15378 4.29281 4.22387
# Velocity P-wave (km/s) = 6.79063 6.99284 6.89247
#
# Compressibility (1/GPa) = 0.01621169
#
# Stress axis : x y z
#
# Youngs Moduli (GPa) = 111.35643 89.89635 84.01982
#
# Poissons Ratio (x) = 0.19795 0.20195
# Poissons Ratio (y) = 0.24521 0.27656
# Poissons Ratio (z) = 0.26766 0.29590
#
# Static dielectric constant tensor:
#      x y z
#    x 1.986320 0.000000 0.073830 
#    y 0.000000 2.048090 0.000000 
#    z 0.073830 0.000000 2.148940 
# 
# From -- ./inp_files/32723.got.cif
#   From: 2010.05.17/outbox.cif.g08.bks.cpg/sg5_17_cif.got.tgz:32723.got - 2010.06.03 18:56:24.
