data_PCOD9130574
_publ_section_title
;
Structure prediction by ZEFSAII (Michael W. Deem and Ramdas Pophale) SiO2 
 PCOD9130574
Probable space group: C 2
;
_chemical_formula_sum "Si O2"
_cell_formula_units_Z 20
_cell_length_a 13.862341
_cell_length_b 5.123618
_cell_length_c 22.580993
_cell_angle_alpha 90.000000
_cell_angle_beta 151.720171
_cell_angle_gamma 90.000000
_cell_volume 759.856245
_symmetry_space_group_name_H-M "C 2"
_symmetry_group_IT_number 5
_symmetry_cell_setting 'monoclinic'
loop_
_space_group_symop_operation_xyz
x,y,z
-x,y,-z
1/2+x,1/2+y,z
1/2-x,1/2+y,-z
loop_
_atom_site_type_symbol
_atom_site_label
_atom_site_fract_x
_atom_site_fract_y
_atom_site_fract_z
Si Si1 0.482616 0.976160 0.140760
Si Si2 0.861085 0.670221 0.307913
Si Si3 0.564629 0.670409 0.467662
Si Si4 0.006421 0.833025 0.740282
Si Si5 0.667566 0.238631 0.047810
O O1 0.661422 0.761612 0.236183
O O2 0.259360 0.903335 0.043754
O O3 0.526701 0.196665 0.213922
O O4 0.464258 0.034331 0.061449
O O5 0.854380 0.682659 0.232907
O O6 0.922752 0.380283 0.358708
O O7 0.028611 0.888768 0.418530
O O8 0.500000 0.634288 0.500000
O O9 0.784830 0.806082 0.591137
O O10 0.131132 0.101865 0.815958
O O11 0.500000 0.358731 0.000000
#
# Coordination Sequence:
#
# PCOD9130574 Si02
#       5
#     4   4   4   4   4
#     4  12  27  48  78 111 155 210 261 327 389 463
#     4  12  28  49  80 117 159 202 262 323 395 468
#     4  12  26  49  79 116 157 205 257 324 396 467
#     4  12  27  48  77 111 157 206 258 326 391 463
#     4  12  27  48  75 110 153 206 267 318 390 458
#
# _framework density 26.320765999999999
#
# number of rings (size 3 to 8) (size 9 to 14) (size 15 to 20)
#    0.000    0.000    6.000    3.000    5.600    2.400 
#    0.000    0.000    0.000    0.000    0.000    0.000 
#    0.000    0.000    0.000    0.000    0.000    0.000 
#
# Total GULP energy -55905.193104 kJ/mol
# GULP energy per Si atom -5590.519310 kJ/mol
# Density = 2.626086 g / cm^3
# Si number density = 26.320766 Si / 1000 Ang^3
#
#
#
# Elastic Constant Matrix: (Units=GPa)
#
#
# Indices 1 2 3 4 5 6 
#
# 1 147.9767 1.0765 37.5016 0.0001 17.9796 0.0023
# 2 1.0765 55.2700 3.0802 -0.0014 -10.9709 0.0084
# 3 37.5016 3.0802 80.3791 0.0014 20.1011 0.0017
# 4 0.0001 -0.0014 0.0014 45.0799 -0.0005 -10.4279
# 5 17.9796 -10.9709 20.1011 -0.0005 37.7738 -0.0004
# 6 0.0023 0.0084 0.0017 -10.4279 -0.0004 -17.2989
#
#
#
# Elastic Compliance Matrix: (Units=1/GPa)
#
#
# Indices 1 2 3 4 5 6 
#
# 1 0.007808 -0.000417 -0.003077 0.000000 -0.002200 0.000000
# 2 -0.000417 0.019652 -0.002348 0.000003 0.007156 0.000008
# 3 -0.003077 -0.002348 0.015885 -0.000001 -0.007670 0.000001
# 4 0.000000 0.000003 -0.000001 0.019468 0.000001 -0.011736
# 5 -0.002200 0.007156 -0.007670 0.000001 0.033681 0.000001
# 6 0.000000 0.000008 0.000001 -0.011736 0.000001 -0.050733
#
#
# Mechanical properties :
#
#
# Convention : Reuss Voigt Hill
#
# Bulk Modulus (GPa) = 31.58439 40.77138 36.17788
# Shear Modulus (GPa) = 73.53083 29.24211 51.38647
#
# Velocity S-wave (km/s) = 5.29123 3.33677 4.42330
# Velocity P-wave (km/s) = 7.02533 5.51082 6.31365
#
# Compressibility (1/GPa) = 0.03166121
#
# Stress axis : x y z
#
# Youngs Moduli (GPa) = 128.07513 50.88444 62.95390
#
# Poissons Ratio (x) = 0.02124 0.19368
# Poissons Ratio (y) = 0.05346 0.14781
# Poissons Ratio (z) = 0.39403 0.11947
#
# Static dielectric constant tensor:
#      x y z
#    x 2.007040 0.000000 0.023310 
#    y 0.000000 2.211520 0.000000 
#    z 0.023310 0.000000 2.181290 
# 
# From -- ./inp_files/68514.got.cif
#   From: 2010.05.17/outbox.cif.g08.bks.cpg/sg5_35_cif.got.tgz:68514.got - 2010.06.03 18:56:24.
