data_PCOD9130110
_publ_section_title
;
Structure prediction by ZEFSAII (Michael W. Deem and Ramdas Pophale) SiO2 
 PCOD9130110
Probable space group: C 2
;
_chemical_formula_sum "Si O2"
_cell_formula_units_Z 22
_cell_length_a 4.965421
_cell_length_b 24.089263
_cell_length_c 8.476247
_cell_angle_alpha 90.000000
_cell_angle_beta 71.965898
_cell_angle_gamma 90.000000
_cell_volume 964.063068
_symmetry_space_group_name_H-M "C 2"
_symmetry_group_IT_number 5
_symmetry_cell_setting 'monoclinic'
loop_
_space_group_symop_operation_xyz
x,y,z
-x,y,-z
1/2+x,1/2+y,z
1/2-x,1/2+y,-z
loop_
_atom_site_type_symbol
_atom_site_label
_atom_site_fract_x
_atom_site_fract_y
_atom_site_fract_z
Si Si1 0.801829 0.644510 0.247945
Si Si2 0.000000 0.988595 0.000000
Si Si3 0.864872 0.968660 0.351536
Si Si4 0.000000 0.573890 0.500000
Si Si5 0.000000 0.795050 0.500000
Si Si6 0.500000 0.876841 0.500000
Si Si7 0.500000 0.054277 0.000000
Si Si8 0.328039 0.719194 0.186704
O O1 0.844056 0.615216 0.407942
O O2 0.551906 0.687599 0.259429
O O3 0.783243 0.593064 0.133375
O O4 0.100635 0.675202 0.163079
O O5 0.940263 0.963458 0.837676
O O6 0.296072 0.020615 0.922728
O O7 0.627271 0.922089 0.356608
O O8 0.000000 0.955929 0.500000
O O9 0.734690 0.030105 0.396254
O O10 0.248101 0.835587 0.508081
O O11 0.137999 0.759222 0.332184
O O12 0.500000 0.741171 0.000000
#
# Coordination Sequence:
#
# PCOD9130110 Si02
#       8
#     4   2   4   2   2   2   2   4
#     4  12  24  42  69 106 152 198 237 287 358 435
#     4  12  26  42  72 107 154 199 244 292 356 446
#     4  11  25  48  73 110 149 192 245 302 369 445
#     4  11  25  38  70 108 152 198 235 275 352 448
#     4  12  27  52  77 102 141 192 253 324 398 430
#     4  11  26  52  75 104 143 186 246 327 386 442
#     4  12  22  42  64 101 154 201 232 284 348 430
#     4  12  26  48  73 106 146 192 250 311 365 442
#
# _framework density 22.820083
#
# number of rings (size 3 to 8) (size 9 to 14) (size 15 to 20)
#    0.000    0.364    4.545    3.818    5.091    1.455 
#    3.273    0.000    0.000    0.000    0.000    0.000 
#    0.000    0.000    0.000    0.000    0.000    0.000 
#
# Total GULP energy -61351.616093 kJ/mol
# GULP energy per Si atom -5577.419645 kJ/mol
# Density = 2.276814 g / cm^3
# Si number density = 22.820083 Si / 1000 Ang^3
#
#
#
# Elastic Constant Matrix: (Units=GPa)
#
#
# Indices 1 2 3 4 5 6 
#
# 1 147.3012 46.7613 37.9801 0.0000 1.0420 0.0000
# 2 46.7613 78.0329 60.4552 0.0000 -4.8107 0.0000
# 3 37.9801 60.4552 170.1798 0.0000 5.3262 0.0000
# 4 0.0000 0.0000 0.0000 1.9518 0.0000 -15.3474
# 5 1.0420 -4.8107 5.3262 0.0000 35.1711 0.0000
# 6 0.0000 0.0000 0.0000 -15.3474 0.0000 49.6429
#
#
#
# Elastic Compliance Matrix: (Units=1/GPa)
#
#
# Indices 1 2 3 4 5 6 
#
# 1 0.008415 -0.005061 -0.000051 0.000000 -0.000934 0.000000
# 2 -0.005061 0.021136 -0.006505 0.000000 0.004026 0.000000
# 3 -0.000051 -0.006505 0.008265 0.000000 -0.002140 0.000000
# 4 0.000000 0.000000 0.000000 -0.358043 0.000000 -0.110691
# 5 -0.000934 0.004026 -0.002140 0.000000 0.029335 0.000000
# 6 0.000000 0.000000 0.000000 -0.110691 0.000000 -0.014077
#
#
# Mechanical properties :
#
#
# Convention : Reuss Voigt Hill
#
# Bulk Modulus (GPa) = 68.57449 76.21191 72.39320
# Shear Modulus (GPa) = -18.05871 34.04097 7.99113
#
# Velocity S-wave (km/s) = -2.81615 3.86646 1.87334
# Velocity P-wave (km/s) = 4.42052 7.30767 6.03917
#
# Compressibility (1/GPa) = 0.01458268
#
# Stress axis : x y z
#
# Youngs Moduli (GPa) = 118.83326 47.31363 120.98802
#
# Poissons Ratio (x) = 0.23945 0.00617
# Poissons Ratio (y) = 0.60140 0.78700
# Poissons Ratio (z) = 0.00606 0.30777
#
# Static dielectric constant tensor:
#      x y z
#    x 1.901050 0.000000 -0.028480 
#    y 0.000000 1.862900 0.000000 
#    z -0.028480 0.000000 2.007500 
# 
# From -- ./inp_files/12816.got.cif
#   From: 2010.05.17/outbox.cif.g08.bks.cpg/sg5_7_cif.got.tgz:12816.got - 2010.06.03 18:56:24.
