data_PCOD9130802
_publ_section_title
;
Structure prediction by ZEFSAII (Michael W. Deem and Ramdas Pophale) SiO2 
 PCOD9130802
Probable space group: P M
;
_chemical_formula_sum "Si O2"
_cell_formula_units_Z 16
_cell_length_a 8.416528
_cell_length_b 8.758423
_cell_length_c 13.163719
_cell_angle_alpha 90.000000
_cell_angle_beta 126.962400
_cell_angle_gamma 90.000000
_cell_volume 775.355241
_symmetry_space_group_name_H-M "P M"
_symmetry_group_IT_number 6
_symmetry_cell_setting 'monoclinic'
loop_
_space_group_symop_operation_xyz
x,y,z
x,-y,z
loop_
_atom_site_type_symbol
_atom_site_label
_atom_site_fract_x
_atom_site_fract_y
_atom_site_fract_z
Si Si1 0.696620 0.823298 0.987470
Si Si2 0.293326 0.683516 0.285962
Si Si3 0.220748 0.830071 0.052563
Si Si4 0.337762 0.668170 0.914041
Si Si5 0.727476 0.180577 0.397712
Si Si6 0.920828 0.317491 0.266886
Si Si7 0.897451 0.327769 0.650984
Si Si8 0.781524 0.171663 0.800339
O O1 0.464301 0.806577 0.920088
O O2 0.714839 0.756497 0.881051
O O3 0.762850 0.000000 0.009225
O O4 0.803693 0.738723 0.121286
O O5 0.292693 0.500000 0.274751
O O6 0.183675 0.766979 0.149823
O O7 0.518460 0.744369 0.355800
O O8 0.154974 0.719074 0.331399
O O9 0.312270 0.000000 0.090952
O O10 0.336453 0.702393 0.033852
O O11 0.016475 0.843844 0.912713
O O12 0.425530 0.500000 0.928935
O O13 0.120468 0.668090 0.780910
O O14 0.819045 0.243830 0.327324
O O15 0.878011 0.221067 0.546522
O O16 0.699546 0.000000 0.377966
O O17 0.905451 0.500000 0.270220
O O18 0.840808 0.500000 0.600449
O O19 0.760070 0.267645 0.690258
O O20 0.698474 0.000000 0.756279
#
# Coordination Sequence:
#
# PCOD9130802 Si02
#       8
#     2   2   2   2   2   2   2   2
#     4  11  21  36  59  92 128 159 198 250 309 370
#     4  11  23  40  64  93 126 166 210 259 314 374
#     4  10  18  33  57  85 119 155 194 245 302 364
#     4  10  21  36  57  87 120 159 202 249 307 369
#     4  12  26  44  67  91 124 168 214 263 315 375
#     4  11  24  42  66  95 130 167 209 261 314 374
#     4  10  22  42  64  85 116 159 208 256 303 363
#     4   9  19  35  58  86 119 155 193 243 300 359
#
# _framework density 20.635704
#
# number of rings (size 3 to 8) (size 9 to 14) (size 15 to 20)
#    0.000    1.500    1.250    4.125    0.000    4.500 
#    2.250    0.000    0.000    0.000    0.000    0.000 
#    0.000    0.000    0.000    0.000    0.000    0.000 
#
# Total GULP energy -89173.630488 kJ/mol
# GULP energy per Si atom -5573.351906 kJ/mol
# Density = 2.058874 g / cm^3
# Si number density = 20.635704 Si / 1000 Ang^3
#
#
#
# Elastic Constant Matrix: (Units=GPa)
#
#
# Indices 1 2 3 4 5 6 
#
# 1 100.8126 40.3650 38.1093 0.0000 -20.1794 0.0000
# 2 40.3650 100.9579 30.9680 0.0000 -5.7235 0.0000
# 3 38.1093 30.9680 67.4427 0.0000 -23.9558 0.0000
# 4 0.0000 0.0000 0.0000 22.0087 0.0000 -7.1831
# 5 -20.1794 -5.7235 -23.9558 0.0000 25.5091 0.0000
# 6 0.0000 0.0000 0.0000 -7.1831 0.0000 17.2973
#
#
#
# Elastic Compliance Matrix: (Units=1/GPa)
#
#
# Indices 1 2 3 4 5 6 
#
# 1 0.014413 -0.004222 -0.003740 0.000000 0.006942 0.000000
# 2 -0.004222 0.012988 -0.005596 0.000000 -0.005681 0.000000
# 3 -0.003740 -0.005596 0.027030 0.000000 0.021170 0.000000
# 4 0.000000 0.000000 0.000000 0.052560 0.000000 0.021827
# 5 0.006942 -0.005681 0.021170 0.000000 0.063300 0.000000
# 6 0.000000 0.000000 0.000000 0.021827 0.000000 0.066877
#
#
# Mechanical properties :
#
#
# Convention : Reuss Voigt Hill
#
# Bulk Modulus (GPa) = 36.60934 54.23307 45.42121
# Shear Modulus (GPa) = 18.28910 23.61440 20.95175
#
# Velocity S-wave (km/s) = 2.98028 3.38649 3.18986
# Velocity P-wave (km/s) = 5.44262 6.45208 5.96873
#
# Compressibility (1/GPa) = 0.02731543
#
# Stress axis : x y z
#
# Youngs Moduli (GPa) = 69.38074 76.99690 36.99659
#
# Poissons Ratio (x) = 0.32508 0.13836
# Poissons Ratio (y) = 0.29292 0.20702
# Poissons Ratio (z) = 0.25947 0.43085
#
# Static dielectric constant tensor:
#      x y z
#    x 1.823730 0.000000 0.021560 
#    y 0.000000 1.736150 0.000000 
#    z 0.021560 0.000000 1.742860 
# 
# From -- ./inp_files/4556.got.cif
#   From: 2010.05.17/outbox.cif.g08.bks.cpg/sg6_3_cif.got.tgz:4556.got - 2010.06.03 19:42:10.
