data_PCOD9130513
_publ_section_title
;
Structure prediction by ZEFSAII (Michael W. Deem and Ramdas Pophale) SiO2 
 PCOD9130513
Probable space group: C 2
;
_chemical_formula_sum "Si O2"
_cell_formula_units_Z 24
_cell_length_a 11.479100
_cell_length_b 7.905998
_cell_length_c 11.488872
_cell_angle_alpha 90.000000
_cell_angle_beta 103.450459
_cell_angle_gamma 90.000000
_cell_volume 1014.059475
_symmetry_space_group_name_H-M "C 2"
_symmetry_group_IT_number 5
_symmetry_cell_setting 'monoclinic'
loop_
_space_group_symop_operation_xyz
x,y,z
-x,y,-z
1/2+x,1/2+y,z
1/2-x,1/2+y,-z
loop_
_atom_site_type_symbol
_atom_site_label
_atom_site_fract_x
_atom_site_fract_y
_atom_site_fract_z
Si Si1 0.086735 0.715390 0.780092
Si Si2 0.000000 0.812250 0.500000
Si Si3 0.673004 0.851940 0.741382
Si Si4 0.599857 0.869858 0.368473
Si Si5 0.788244 0.007750 0.561214
Si Si6 0.000000 0.622474 0.000000
Si Si7 0.716741 0.004505 0.162506
O O1 0.152654 0.533539 0.795572
O O2 0.183011 0.862483 0.818205
O O3 0.029033 0.732215 0.636113
O O4 0.007079 0.723490 0.879555
O O5 0.884558 0.931003 0.496203
O O6 0.539434 0.822257 0.657821
O O7 0.773987 0.887992 0.668591
O O8 0.716468 0.685248 0.816612
O O9 0.655783 0.997075 0.476016
O O10 0.672671 0.695292 0.398443
O O11 0.636241 0.956871 0.256356
O O12 0.119499 0.511659 0.038337
#
# Coordination Sequence:
#
# PCOD9130513 Si02
#       7
#     4   2   4   4   4   2   4
#     4  12  28  53  81 120 163 216 268 342 404 486
#     4  12  26  50  82 122 170 212 278 334 414 490
#     4  12  27  47  80 113 162 216 263 335 410 477
#     4  12  26  45  72 118 163 213 267 331 403 494
#     4  12  25  43  76 117 165 216 261 334 415 472
#     4  12  30  54  88 112 168 218 276 338 406 490
#     4  12  27  54  76 118 158 210 281 332 405 490
#
# _framework density 23.667251
#
# number of rings (size 3 to 8) (size 9 to 14) (size 15 to 20)
#    0.000    0.000    5.000    3.500    9.333    0.000 
#    0.000    1.667    0.000    0.000    0.000    0.000 
#    0.000    0.000    0.000    0.000    0.000    0.000 
#
# Total GULP energy -67093.319039 kJ/mol
# GULP energy per Si atom -5591.109920 kJ/mol
# Density = 2.361338 g / cm^3
# Si number density = 23.667251 Si / 1000 Ang^3
#
#
#
# Elastic Constant Matrix: (Units=GPa)
#
#
# Indices 1 2 3 4 5 6 
#
# 1 112.3431 52.3370 46.8605 0.0000 8.8340 0.0000
# 2 52.3370 151.8079 54.9340 0.0000 34.0439 0.0000
# 3 46.8605 54.9340 146.8607 0.0000 5.6439 0.0000
# 4 0.0000 0.0000 0.0000 10.4602 0.0000 -4.1947
# 5 8.8340 34.0439 5.6439 0.0000 53.2242 0.0000
# 6 0.0000 0.0000 0.0000 -4.1947 0.0000 39.1785
#
#
#
# Elastic Compliance Matrix: (Units=1/GPa)
#
#
# Indices 1 2 3 4 5 6 
#
# 1 0.011349 -0.003097 -0.002477 0.000000 0.000360 0.000000
# 2 -0.003097 0.009772 -0.002457 0.000000 -0.005476 0.000000
# 3 -0.002477 -0.002457 0.008477 0.000000 0.001083 0.000000
# 4 0.000000 0.000000 0.000000 0.099889 0.000000 0.010695
# 5 0.000360 -0.005476 0.001083 0.000000 0.022116 0.000000
# 6 0.000000 0.000000 0.000000 0.010695 0.000000 0.026669
#
#
# Mechanical properties :
#
#
# Convention : Reuss Voigt Hill
#
# Bulk Modulus (GPa) = 73.87189 79.91941 76.89565
# Shear Modulus (GPa) = 25.14518 37.69794 31.42156
#
# Velocity S-wave (km/s) = 3.26305 3.99536 3.64763
# Velocity P-wave (km/s) = 6.74368 7.42463 7.09233
#
# Compressibility (1/GPa) = 0.01353695
#
# Stress axis : x y z
#
# Youngs Moduli (GPa) = 88.11442 102.33305 117.97123
#
# Poissons Ratio (x) = 0.31694 0.29216
# Poissons Ratio (y) = 0.27291 0.28981
# Poissons Ratio (z) = 0.21822 0.25139
#
# Static dielectric constant tensor:
#      x y z
#    x 1.921640 0.000000 -0.004190 
#    y 0.000000 1.880400 0.000000 
#    z -0.004190 0.000000 1.955170 
# 
# From -- ./inp_files/38458.got.cif
#   From: 2010.05.17/outbox.cif.g08.bks.cpg/sg5_20_cif.got.tgz:38458.got - 2010.06.03 18:56:24.
