data_PCOD9130954
_publ_section_title
;
Structure prediction by ZEFSAII (Michael W. Deem and Ramdas Pophale) SiO2 
 PCOD9130954
Probable space group: P M
;
_chemical_formula_sum "Si O2"
_cell_formula_units_Z 16
_cell_length_a 19.666170
_cell_length_b 8.852601
_cell_length_c 14.763092
_cell_angle_alpha 90.000000
_cell_angle_beta 19.265490
_cell_angle_gamma 90.000000
_cell_volume 848.028994
_symmetry_space_group_name_H-M "P M"
_symmetry_group_IT_number 6
_symmetry_cell_setting 'monoclinic'
loop_
_space_group_symop_operation_xyz
x,y,z
x,-y,z
loop_
_atom_site_type_symbol
_atom_site_label
_atom_site_fract_x
_atom_site_fract_y
_atom_site_fract_z
Si Si1 0.115000 0.682326 0.276650
Si Si2 0.462785 0.826382 0.309813
Si Si3 0.232904 0.681364 0.756322
Si Si4 0.826188 0.317608 0.159097
Si Si5 0.368425 0.684076 0.782214
Si Si6 0.275730 0.680236 0.272941
Si Si7 0.035877 0.826358 0.730618
Si Si8 0.674093 0.181894 0.867403
O O1 0.091651 0.500000 0.301612
O O2 0.227997 0.717861 0.229051
O O3 0.890773 0.756609 0.560995
O O4 0.248297 0.733274 0.022710
O O5 0.413416 0.736077 0.462437
O O6 0.249570 0.823507 0.519856
O O7 0.507607 0.000000 0.276478
O O8 0.630088 0.768997 0.027213
O O9 0.235921 0.500000 0.753044
O O10 0.263318 0.734213 0.820580
O O11 0.015389 0.728999 0.986084
O O12 0.829569 0.500000 0.147245
O O13 0.607385 0.270926 0.475047
O O14 0.869995 0.249308 0.005108
O O15 0.365597 0.500000 0.786880
O O16 0.292881 0.500000 0.260908
O O17 0.092317 0.739381 0.568214
O O18 0.486235 0.755516 0.043478
O O19 0.984928 0.000000 0.775540
O O20 0.667459 0.000000 0.875073
#
# Coordination Sequence:
#
# PCOD9130954 Si02
#       8
#     2   2   2   2   2   2   2   2
#     4  10  22  38  56  79 107 143 187 229 267 315
#     4   8  16  31  50  74 104 134 165 205 258 319
#     4   9  17  30  52  77 100 130 165 207 258 308
#     4   9  17  31  52  76 102 133 169 212 262 314
#     4   9  19  35  52  74 102 132 175 222 260 308
#     4  10  20  35  57  83 110 142 181 224 268 318
#     4   9  17  31  52  78 108 139 171 212 266 324
#     4  10  21  37  57  81 111 145 177 219 275 326
#
# _framework density 18.867279
#
# number of rings (size 3 to 8) (size 9 to 14) (size 15 to 20)
#    0.000    2.750    0.000    1.875    0.000    6.500 
#    0.000    9.375    0.000    3.000    0.000    0.000 
#    0.000    0.000    0.000    0.000    0.000    0.000 
#
# Total GULP energy -89266.705426 kJ/mol
# GULP energy per Si atom -5579.169089 kJ/mol
# Density = 1.882434 g / cm^3
# Si number density = 18.867279 Si / 1000 Ang^3
#
#
#
# Elastic Constant Matrix: (Units=GPa)
#
#
# Indices 1 2 3 4 5 6 
#
# 1 136.8509 40.6760 92.6126 0.0000 25.5290 0.0000
# 2 40.6760 28.0722 38.3596 0.0000 7.3158 0.0000
# 3 92.6126 38.3596 184.9709 0.0000 27.3563 0.0000
# 4 0.0000 0.0000 0.0000 -44.8984 0.0000 22.3906
# 5 25.5290 7.3158 27.3563 0.0000 34.6000 0.0000
# 6 0.0000 0.0000 0.0000 22.3906 0.0000 -15.6841
#
#
#
# Elastic Compliance Matrix: (Units=1/GPa)
#
#
# Indices 1 2 3 4 5 6 
#
# 1 0.015570 -0.016195 -0.003674 0.000000 -0.005159 0.000000
# 2 -0.016195 0.066774 -0.006136 0.000000 0.002682 0.000000
# 3 -0.003674 -0.006136 0.008975 0.000000 -0.003088 0.000000
# 4 0.000000 0.000000 0.000000 -0.077319 0.000000 -0.110380
# 5 -0.005159 0.002682 -0.003088 0.000000 0.034582 0.000000
# 6 0.000000 0.000000 0.000000 -0.110380 0.000000 -0.221338
#
#
# Mechanical properties :
#
#
# Convention : Reuss Voigt Hill
#
# Bulk Modulus (GPa) = 25.43952 77.02116 51.23034
# Shear Modulus (GPa) = -46.44965 6.68655 -19.88155
#
# Velocity S-wave (km/s) = -4.96715 1.88459 -3.24969
# Velocity P-wave (km/s) = 4.40274 6.75624 3.62372
#
# Compressibility (1/GPa) = 0.03930892
#
# Stress axis : x y z
#
# Youngs Moduli (GPa) = 64.22812 14.97589 111.42253
#
# Poissons Ratio (x) = 0.24254 0.40936
# Poissons Ratio (y) = 1.04018 0.68364
# Poissons Ratio (z) = 0.23597 0.09189
#
# Static dielectric constant tensor:
#      x y z
#    x 1.666460 0.000000 -0.015720 
#    y 0.000000 1.636190 0.000000 
#    z -0.015720 0.000000 1.647180 
# 
# From -- ./inp_files/4279.got.cif
#   From: 2010.05.17/outbox.cif.g08.bks.cpg/sg6_3_cif.got.tgz:4279.got - 2010.06.03 19:42:10.
