data_PCOD9130000
_publ_section_title
;
Structure prediction by ZEFSAII (Michael W. Deem and Ramdas Pophale) SiO2 
 PCOD9130000
Probable space group: C 2
;
_chemical_formula_sum "Si O2"
_cell_formula_units_Z 16
_cell_length_a 15.805854
_cell_length_b 5.496915
_cell_length_c 7.622679
_cell_angle_alpha 90.000000
_cell_angle_beta 89.786919
_cell_angle_gamma 90.000000
_cell_volume 662.279963
_symmetry_space_group_name_H-M "C 2"
_symmetry_group_IT_number 5
_symmetry_cell_setting 'monoclinic'
loop_
_space_group_symop_operation_xyz
x,y,z
-x,y,-z
1/2+x,1/2+y,z
1/2-x,1/2+y,-z
loop_
_atom_site_type_symbol
_atom_site_label
_atom_site_fract_x
_atom_site_fract_y
_atom_site_fract_z
Si Si1 0.398583 0.103610 0.536591
Si Si2 0.237850 0.882000 0.688974
Si Si3 0.179353 0.208394 0.970368
Si Si4 0.407046 0.212391 0.937223
O O1 0.500000 0.040931 0.500000
O O2 0.347099 0.282703 0.404073
O O3 0.404066 0.221233 0.727926
O O4 0.323734 0.898693 0.570061
O O5 0.262353 0.715923 0.855964
O O6 0.223674 0.145147 0.785092
O O7 0.132471 0.461393 0.990045
O O8 0.123577 0.970554 0.993229
O O9 0.500000 0.188602 0.000000
#
# Coordination Sequence:
#
# PCOD9130000 Si02
#       4
#     4   4   4   4
#     4  11  25  43  71 109 150 191 243 306 375 439
#     4  11  24  46  74 108 149 196 247 309 370 441
#     4  11  24  44  75 102 143 198 247 302 369 436
#     4  11  24  45  73 109 145 193 249 305 366 444
#
# _framework density 24.158965999999999
#
# number of rings (size 3 to 8) (size 9 to 14) (size 15 to 20)
#    0.000    1.000    0.000    6.750    0.000    4.000 
#    0.000    8.750    0.000    6.000    0.000    0.000 
#    0.000    0.000    0.000    0.000    0.000    0.000 
#
# Total GULP energy -44574.165444 kJ/mol
# GULP energy per Si atom -5571.770680 kJ/mol
# Density = 2.410398 g / cm^3
# Si number density = 24.158966 Si / 1000 Ang^3
#
#
#
# Elastic Constant Matrix: (Units=GPa)
#
#
# Indices 1 2 3 4 5 6 
#
# 1 230.1184 92.7592 99.0138 0.0000 12.6056 0.0000
# 2 92.7592 150.9749 51.1622 0.0000 -1.9435 0.0000
# 3 99.0138 51.1622 114.0438 0.0000 12.8863 0.0000
# 4 0.0000 0.0000 0.0000 47.1102 0.0000 8.9014
# 5 12.6056 -1.9435 12.8863 0.0000 51.2625 0.0000
# 6 0.0000 0.0000 0.0000 8.9014 0.0000 15.7815
#
#
#
# Elastic Compliance Matrix: (Units=1/GPa)
#
#
# Indices 1 2 3 4 5 6 
#
# 1 0.007967 -0.003050 -0.005469 0.000000 -0.000700 0.000000
# 2 -0.003050 0.009053 -0.001581 0.000000 0.001491 0.000000
# 3 -0.005469 -0.001581 0.014493 0.000000 -0.002358 0.000000
# 4 0.000000 0.000000 0.000000 0.023759 0.000000 -0.013401
# 5 -0.000700 0.001491 -0.002358 0.000000 0.020329 0.000000
# 6 0.000000 0.000000 0.000000 -0.013401 0.000000 0.070924
#
#
# Mechanical properties :
#
#
# Convention : Reuss Voigt Hill
#
# Bulk Modulus (GPa) = 88.41339 109.00081 98.70710
# Shear Modulus (GPa) = 29.32607 39.64431 34.48519
#
# Velocity S-wave (km/s) = 3.48786 4.05529 3.78223
# Velocity P-wave (km/s) = 7.27297 8.19410 7.74724
#
# Compressibility (1/GPa) = 0.01131050
#
# Stress axis : x y z
#
# Youngs Moduli (GPa) = 125.52061 110.46230 68.99899
#
# Poissons Ratio (x) = 0.33695 0.37738
# Poissons Ratio (y) = 0.38289 0.10911
# Poissons Ratio (z) = 0.68651 0.17468
#
# Static dielectric constant tensor:
#      x y z
#    x 2.060310 0.000000 -0.117190 
#    y 0.000000 1.931210 0.000000 
#    z -0.117190 0.000000 2.123230 
# 
# From -- ./inp_files/22314.got.cif
#   From: 2010.05.17/outbox.cif.g08.bks.cpg/sg5_12_cif.got.tgz:22314.got - 2010.06.03 18:56:24.
