data_PCOD9130147
_publ_section_title
;
Structure prediction by ZEFSAII (Michael W. Deem and Ramdas Pophale) SiO2 
 PCOD9130147
Probable space group: C 2
;
_chemical_formula_sum "Si O2"
_cell_formula_units_Z 28
_cell_length_a 5.433911
_cell_length_b 30.234030
_cell_length_c 7.912959
_cell_angle_alpha 90.000000
_cell_angle_beta 67.513153
_cell_angle_gamma 90.000000
_cell_volume 1201.168971
_symmetry_space_group_name_H-M "C 2"
_symmetry_group_IT_number 5
_symmetry_cell_setting 'monoclinic'
loop_
_space_group_symop_operation_xyz
x,y,z
-x,y,-z
1/2+x,1/2+y,z
1/2-x,1/2+y,-z
loop_
_atom_site_type_symbol
_atom_site_label
_atom_site_fract_x
_atom_site_fract_y
_atom_site_fract_z
Si Si1 0.985128 0.902740 0.707397
Si Si2 0.307291 0.988837 0.711741
Si Si3 0.825599 0.633560 0.192913
Si Si4 0.744440 0.086688 0.298025
Si Si5 0.686124 0.724598 0.296332
Si Si6 0.000000 0.450954 0.000000
Si Si7 0.037988 0.804215 0.288674
Si Si8 0.500000 0.758320 0.000000
O O1 0.705733 0.917781 0.856589
O O2 0.056141 0.852899 0.740208
O O3 0.000000 0.904087 0.500000
O O4 0.163667 0.942280 0.727595
O O5 0.500000 0.990728 0.500000
O O6 0.419991 0.983684 0.869199
O O7 0.160046 0.035784 0.736288
O O8 0.523523 0.614088 0.246051
O O9 0.786746 0.676010 0.323280
O O10 0.055686 0.599041 0.189654
O O11 0.000000 0.655917 0.000000
O O12 0.500000 0.091484 0.500000
O O13 0.500000 0.738761 0.500000
O O14 0.570461 0.724953 0.137203
O O15 0.898882 0.763389 0.234121
O O16 0.334472 0.794050 0.154641
O O17 0.000000 0.800877 0.500000
#
# Coordination Sequence:
#
# PCOD9130147 Si02
#       8
#     4   4   4   4   4   2   4   2
#     4  11  25  45  74 107 149 194 252 309 381 456
#     4  11  26  47  74 106 150 193 252 314 378 458
#     4  12  28  48  78 115 154 201 259 320 390 467
#     4  11  27  49  78 112 153 204 257 320 392 462
#     4  12  27  48  75 106 150 194 250 314 381 456
#     4  12  25  44  74 106 142 208 238 312 381 452
#     4  11  25  46  73 109 147 197 247 313 381 453
#     4  12  25  46  74 106 146 200 246 308 377 460
#
# _framework density 23.310625000000002
#
# number of rings (size 3 to 8) (size 9 to 14) (size 15 to 20)
#    0.000    0.571    2.857    3.857    7.000    5.714 
#    0.000    0.000    0.000    0.000    0.000    0.000 
#    0.000    0.000    0.000    0.000    0.000    0.000 
#
# Total GULP energy -77943.602778 kJ/mol
# GULP energy per Si atom -5567.400198 kJ/mol
# Density = 2.325757 g / cm^3
# Si number density = 23.310625 Si / 1000 Ang^3
#
#
#
# Elastic Constant Matrix: (Units=GPa)
#
#
# Indices 1 2 3 4 5 6 
#
# 1 48.8116 41.2442 16.3913 0.0000 -0.0452 0.0000
# 2 41.2442 159.9493 6.0774 0.0000 -7.3089 0.0000
# 3 16.3913 6.0774 132.8328 0.0000 -3.0885 0.0000
# 4 0.0000 0.0000 0.0000 2.3737 0.0000 -6.9214
# 5 -0.0452 -7.3089 -3.0885 0.0000 29.6439 0.0000
# 6 0.0000 0.0000 0.0000 -6.9214 0.0000 40.4857
#
#
#
# Elastic Compliance Matrix: (Units=1/GPa)
#
#
# Indices 1 2 3 4 5 6 
#
# 1 0.027502 -0.007066 -0.003118 0.000000 -0.002025 0.000000
# 2 -0.007066 0.008147 0.000547 0.000000 0.002055 0.000000
# 3 -0.003118 0.000547 0.007910 0.000000 0.000954 0.000000
# 4 0.000000 0.000000 0.000000 0.839996 0.000000 0.143604
# 5 -0.002025 0.002055 0.000954 0.000000 0.034337 0.000000
# 6 0.000000 0.000000 0.000000 0.143604 0.000000 0.049250
#
#
# Mechanical properties :
#
#
# Convention : Reuss Voigt Hill
#
# Bulk Modulus (GPa) = 41.17475 52.11328 46.64402
# Shear Modulus (GPa) = 5.02760 33.02605 19.02683
#
# Velocity S-wave (km/s) = 1.47019 3.76810 2.86007
# Velocity P-wave (km/s) = 4.53694 6.42931 5.56416
#
# Compressibility (1/GPa) = 0.02428673
#
# Stress axis : x y z
#
# Youngs Moduli (GPa) = 36.36067 122.74369 126.42033
#
# Poissons Ratio (x) = 0.86728 0.39412
# Poissons Ratio (y) = 0.25692 -0.06914
# Poissons Ratio (z) = 0.11336 -0.06713
#
# Static dielectric constant tensor:
#      x y z
#    x 1.993910 0.000000 0.111800 
#    y 0.000000 1.875450 0.000000 
#    z 0.111800 0.000000 2.342620 
# 
# From -- ./inp_files/13334.got.cif
#   From: 2010.05.17/outbox.cif.g08.bks.cpg/sg5_7_cif.got.tgz:13334.got - 2010.06.03 18:56:24.
