data_PCOD9130930
_publ_section_title
;
Structure prediction by ZEFSAII (Michael W. Deem and Ramdas Pophale) SiO2 
 PCOD9130930
Probable space group: P M
;
_chemical_formula_sum "Si O2"
_cell_formula_units_Z 16
_cell_length_a 9.382195
_cell_length_b 8.838026
_cell_length_c 21.598672
_cell_angle_alpha 90.000000
_cell_angle_beta 29.640069
_cell_angle_gamma 90.000000
_cell_volume 885.720758
_symmetry_space_group_name_H-M "P M"
_symmetry_group_IT_number 6
_symmetry_cell_setting 'monoclinic'
loop_
_space_group_symop_operation_xyz
x,y,z
x,-y,z
loop_
_atom_site_type_symbol
_atom_site_label
_atom_site_fract_x
_atom_site_fract_y
_atom_site_fract_z
Si Si1 0.950130 0.817851 0.475110
Si Si2 0.746647 0.174634 0.991806
Si Si3 0.957366 0.679705 0.721445
Si Si4 0.255040 0.682136 0.479963
Si Si5 0.214697 0.680238 0.251101
Si Si6 0.426656 0.826401 0.978607
Si Si7 0.279609 0.817579 0.717417
Si Si8 0.888855 0.183026 0.255336
O O1 0.611268 0.776857 0.601028
O O2 0.095829 0.748960 0.480676
O O3 0.104115 0.751648 0.356387
O O4 0.972932 0.000000 0.466673
O O5 0.544683 0.272491 0.112156
O O6 0.588363 0.174843 0.984376
O O7 0.752878 0.000000 0.011025
O O8 0.067545 0.229352 0.853759
O O9 0.973780 0.500000 0.721531
O O10 0.079915 0.722871 0.608348
O O11 0.153164 0.752157 0.701456
O O12 0.629662 0.732190 0.856925
O O13 0.272958 0.500000 0.469401
O O14 0.572888 0.752331 0.364811
O O15 0.185148 0.500000 0.262776
O O16 0.024237 0.749780 0.267123
O O17 0.105702 0.774400 0.117208
O O18 0.417094 0.000000 0.960792
O O19 0.256758 0.000000 0.722650
O O20 0.888835 0.000000 0.259529
#
# Coordination Sequence:
#
# PCOD9130930 Si02
#       8
#     2   2   2   2   2   2   2   2
#     4  11  23  39  57  77 104 144 186 224 267 319
#     4   8  15  31  53  79 108 136 172 221 266 313
#     4  10  20  33  54  82 110 140 174 214 267 322
#     4  11  24  39  53  77 111 144 179 224 272 319
#     4  11  21  34  55  84 113 142 176 220 270 319
#     4   8  16  31  53  80 108 136 173 219 262 307
#     4   9  19  35  57  82 106 135 177 223 265 312
#     4  10  20  36  58  83 108 141 183 223 263 315
#
# _framework density 18.064385000000001
#
# number of rings (size 3 to 8) (size 9 to 14) (size 15 to 20)
#    0.000    2.250    0.000    4.875    0.000   10.000 
#    0.000    1.250    0.000    4.500    0.000    0.000 
#    0.000    0.000    0.000    0.000    0.000    0.000 
#
# Total GULP energy -89281.634024 kJ/mol
# GULP energy per Si atom -5580.102127 kJ/mol
# Density = 1.802327 g / cm^3
# Si number density = 18.064385 Si / 1000 Ang^3
#
#
#
# Elastic Constant Matrix: (Units=GPa)
#
#
# Indices 1 2 3 4 5 6 
#
# 1 87.4326 44.1794 87.9639 0.0000 4.3852 0.0000
# 2 44.1794 69.3211 72.3729 0.0000 -0.0301 0.0000
# 3 87.9639 72.3729 205.2701 0.0000 7.0220 0.0000
# 4 0.0000 0.0000 0.0000 27.4730 0.0000 4.8063
# 5 4.3852 -0.0301 7.0220 0.0000 -7.0306 0.0000
# 6 0.0000 0.0000 0.0000 4.8063 0.0000 23.6287
#
#
#
# Elastic Compliance Matrix: (Units=1/GPa)
#
#
# Indices 1 2 3 4 5 6 
#
# 1 0.021555 -0.006124 -0.007290 0.000000 0.006190 0.000000
# 2 -0.006124 0.024128 -0.005558 0.000000 -0.009475 0.000000
# 3 -0.007290 -0.005558 0.009776 0.000000 0.005241 0.000000
# 4 0.000000 0.000000 0.000000 0.037743 0.000000 -0.007677
# 5 0.006190 -0.009475 0.005241 0.000000 -0.133099 0.000000
# 6 0.000000 0.000000 0.000000 -0.007677 0.000000 0.043883
#
#
# Mechanical properties :
#
#
# Convention : Reuss Voigt Hill
#
# Bulk Modulus (GPa) = 57.09562 85.67290 71.38426
# Shear Modulus (GPa) = 104.67386 19.31472 61.99429
#
# Velocity S-wave (km/s) = 7.62041 3.27343 5.86456
# Velocity P-wave (km/s) = 10.44523 7.86235 9.24444
#
# Compressibility (1/GPa) = 0.01751448
#
# Stress axis : x y z
#
# Youngs Moduli (GPa) = 46.39220 41.44643 102.29398
#
# Poissons Ratio (x) = 0.25384 0.74567
# Poissons Ratio (y) = 0.28413 0.56856
# Poissons Ratio (z) = 0.33818 0.23036
#
# Static dielectric constant tensor:
#      x y z
#    x 1.583410 0.000000 -0.008100 
#    y 0.000000 1.601820 0.000000 
#    z -0.008100 0.000000 1.647320 
# 
# From -- ./inp_files/4283.got.cif
#   From: 2010.05.17/outbox.cif.g08.bks.cpg/sg6_3_cif.got.tgz:4283.got - 2010.06.03 19:42:10.
