data_PCOD9130900
_publ_section_title
;
Structure prediction by ZEFSAII (Michael W. Deem and Ramdas Pophale) SiO2 
 PCOD9130900
Probable space group: P M
;
_chemical_formula_sum "Si O2"
_cell_formula_units_Z 16
_cell_length_a 9.490079
_cell_length_b 8.668416
_cell_length_c 11.491541
_cell_angle_alpha 90.000000
_cell_angle_beta 65.526065
_cell_angle_gamma 90.000000
_cell_volume 860.400661
_symmetry_space_group_name_H-M "P M"
_symmetry_group_IT_number 6
_symmetry_cell_setting 'monoclinic'
loop_
_space_group_symop_operation_xyz
x,y,z
x,-y,z
loop_
_atom_site_type_symbol
_atom_site_label
_atom_site_fract_x
_atom_site_fract_y
_atom_site_fract_z
Si Si1 0.390640 0.314174 0.870560
Si Si2 0.722961 0.314917 0.859614
Si Si3 0.333760 0.314976 0.624612
Si Si4 0.628437 0.814710 0.386692
Si Si5 0.568591 0.315173 0.154267
Si Si6 0.258782 0.185068 0.148372
Si Si7 0.951566 0.812270 0.387909
Si Si8 0.017205 0.815485 0.629813
O O1 0.378956 0.500000 0.884802
O O2 0.569428 0.273652 0.837830
O O3 0.345008 0.267794 0.756323
O O4 0.287085 0.240340 0.007066
O O5 0.743720 0.500000 0.844943
O O6 0.873555 0.232904 0.759263
O O7 0.680528 0.276063 0.007445
O O8 0.339753 0.500000 0.618029
O O9 0.479668 0.248234 0.505471
O O10 0.175226 0.257071 0.622377
O O11 0.621923 0.756899 0.256635
O O12 0.786380 0.761027 0.395019
O O13 0.624524 0.000000 0.389324
O O14 0.562336 0.500000 0.165705
O O15 0.399076 0.254122 0.176370
O O16 0.094722 0.235235 0.257573
O O17 0.267758 0.000000 0.150325
O O18 0.981428 0.762748 0.510128
O O19 0.949476 0.000000 0.388861
O O20 0.033325 0.000000 0.623430
#
# Coordination Sequence:
#
# PCOD9130900 Si02
#       8
#     2   2   2   2   2   2   2   2
#     4   9  20  38  58  82 114 149 186 230 280 336
#     4   9  19  37  58  81 112 147 184 228 276 332
#     4  11  23  39  58  82 114 150 187 230 284 341
#     4  11  22  38  59  83 112 145 188 239 284 330
#     4  10  21  38  58  83 116 152 188 227 279 339
#     4  10  19  35  60  86 113 147 187 231 280 333
#     4   9  21  38  55  80 113 145 180 230 285 333
#     4  11  22  37  58  83 112 147 188 233 282 336
#
# _framework density 18.595987999999998
#
# number of rings (size 3 to 8) (size 9 to 14) (size 15 to 20)
#    0.000    2.000    0.000    4.125    0.000    5.500 
#    0.000    8.750    0.000    0.000    0.000    0.000 
#    0.000    0.000    0.000    0.000    0.000    0.000 
#
# Total GULP energy -89390.144496 kJ/mol
# GULP energy per Si atom -5586.884031 kJ/mol
# Density = 1.855366 g / cm^3
# Si number density = 18.595988 Si / 1000 Ang^3
#
#
#
# Elastic Constant Matrix: (Units=GPa)
#
#
# Indices 1 2 3 4 5 6 
#
# 1 171.8348 49.2758 131.0791 0.0000 7.9425 0.0000
# 2 49.2758 46.4622 50.8259 0.0000 1.3059 0.0000
# 3 131.0791 50.8259 155.4968 0.0000 0.3877 0.0000
# 4 0.0000 0.0000 0.0000 85.5119 0.0000 -103.9903
# 5 7.9425 1.3059 0.3877 0.0000 39.8941 0.0000
# 6 0.0000 0.0000 0.0000 -103.9903 0.0000 245.9985
#
#
#
# Elastic Compliance Matrix: (Units=1/GPa)
#
#
# Indices 1 2 3 4 5 6 
#
# 1 0.017067 -0.003553 -0.013218 0.000000 -0.003153 0.000000
# 2 -0.003553 0.034280 -0.008209 0.000000 -0.000335 0.000000
# 3 -0.013218 -0.008209 0.020250 0.000000 0.002703 0.000000
# 4 0.000000 0.000000 0.000000 0.024066 0.000000 0.010173
# 5 -0.003153 -0.000335 0.002703 0.000000 0.025679 0.000000
# 6 0.000000 0.000000 0.000000 0.010173 0.000000 0.008366
#
#
# Mechanical properties :
#
#
# Convention : Reuss Voigt Hill
#
# Bulk Modulus (GPa) = 46.21592 92.90615 69.56103
# Shear Modulus (GPa) = 26.75524 83.78844 55.27184
#
# Velocity S-wave (km/s) = 3.79722 6.71975 5.45774
# Velocity P-wave (km/s) = 6.64317 10.50122 8.78656
#
# Compressibility (1/GPa) = 0.02163757
#
# Stress axis : x y z
#
# Youngs Moduli (GPa) = 58.59340 29.17117 49.38328
#
# Poissons Ratio (x) = 0.10363 0.65274
# Poissons Ratio (y) = 0.20815 0.40541
# Poissons Ratio (z) = 0.77447 0.23948
#
# Static dielectric constant tensor:
#      x y z
#    x 1.615160 0.000000 0.009470 
#    y 0.000000 1.631590 0.000000 
#    z 0.009470 0.000000 1.621240 
# 
# From -- ./inp_files/3791.got.cif
#   From: 2010.05.17/outbox.cif.g08.bks.cpg/sg6_2_cif.got.tgz:3791.got - 2010.06.03 19:42:10.
