data_PCOD9130409
_publ_section_title
;
Structure prediction by ZEFSAII (Michael W. Deem and Ramdas Pophale) SiO2 
 PCOD9130409
Probable space group: C 2
;
_chemical_formula_sum "Si O2"
_cell_formula_units_Z 32
_cell_length_a 19.837332
_cell_length_b 14.897156
_cell_length_c 13.803988
_cell_angle_alpha 90.000000
_cell_angle_beta 22.116999
_cell_angle_gamma 90.000000
_cell_volume 1535.872575
_symmetry_space_group_name_H-M "C 2"
_symmetry_group_IT_number 5
_symmetry_cell_setting 'monoclinic'
loop_
_space_group_symop_operation_xyz
x,y,z
-x,y,-z
1/2+x,1/2+y,z
1/2-x,1/2+y,-z
loop_
_atom_site_type_symbol
_atom_site_label
_atom_site_fract_x
_atom_site_fract_y
_atom_site_fract_z
Si Si1 0.789659 0.981020 0.761952
Si Si2 0.709043 0.530240 0.748360
Si Si3 0.456247 0.783168 0.670502
Si Si4 0.592988 0.210230 0.481932
Si Si5 0.931560 0.404405 0.319569
Si Si6 0.761783 0.618177 0.015339
Si Si7 0.802042 0.945299 0.032942
Si Si8 0.804373 0.893818 0.551346
O O1 0.754272 0.970176 0.695752
O O2 0.000000 0.956981 0.500000
O O3 0.759324 0.078377 0.849114
O O4 0.639826 0.921066 0.015438
O O5 0.759745 0.631408 0.711851
O O6 0.835802 0.492197 0.493810
O O7 0.500000 0.523819 0.000000
O O8 0.746371 0.468870 0.792682
O O9 0.500000 0.767457 0.500000
O O10 0.588668 0.828519 0.571317
O O11 0.393130 0.689299 0.797850
O O12 0.302072 0.858616 0.865774
O O13 0.500000 0.218751 0.500000
O O14 0.665471 0.304147 0.425288
O O15 0.441389 0.172467 0.755967
O O16 0.836277 0.380318 0.346336
O O17 0.748586 0.532616 0.962582
O O18 0.010120 0.924287 0.743815
#
# Coordination Sequence:
#
# PCOD9130409 Si02
#       8
#     4   4   4   4   4   4   4   4
#     4  12  24  45  73 101 139 189 239 290 351 431
#     4  12  25  45  76 107 142 189 241 305 365 423
#     4  12  25  43  74 104 136 193 246 296 352 431
#     4  12  26  45  73 107 141 188 250 308 346 432
#     4  12  26  46  73 107 147 186 236 299 367 429
#     4  12  25  43  73 107 140 180 253 294 350 416
#     4  12  23  45  72 102 142 190 240 296 359 427
#     4  12  27  46  70 104 152 191 234 291 377 430
#
# _framework density 20.835061
#
# number of rings (size 3 to 8) (size 9 to 14) (size 15 to 20)
#    0.000    0.000    8.750    1.125    1.750    2.000 
#    0.000    0.000    0.000    0.000    0.000    0.000 
#    0.000    0.000    0.000    0.000    0.000    0.000 
#
# Total GULP energy -89422.975428 kJ/mol
# GULP energy per Si atom -5588.935964 kJ/mol
# Density = 2.078764 g / cm^3
# Si number density = 20.835061 Si / 1000 Ang^3
#
#
#
# Elastic Constant Matrix: (Units=GPa)
#
#
# Indices 1 2 3 4 5 6 
#
# 1 142.2749 39.1280 30.4691 0.0003 -1.4301 -0.0001
# 2 39.1280 93.1994 9.0082 -0.0002 5.4017 0.0000
# 3 30.4691 9.0082 81.4266 -0.0006 11.8211 0.0003
# 4 0.0003 -0.0002 -0.0006 28.4759 0.0005 3.5848
# 5 -1.4301 5.4017 11.8211 0.0005 24.3114 -0.0002
# 6 -0.0001 0.0000 0.0003 3.5848 -0.0002 29.6356
#
#
#
# Elastic Compliance Matrix: (Units=1/GPa)
#
#
# Indices 1 2 3 4 5 6 
#
# 1 0.008731 -0.003515 -0.003299 0.000000 0.002899 0.000000
# 2 -0.003515 0.012348 0.000406 0.000000 -0.003148 0.000000
# 3 -0.003299 0.000406 0.014538 0.000001 -0.007353 0.000000
# 4 0.000000 0.000000 0.000001 0.035660 -0.000001 -0.004314
# 5 0.002899 -0.003148 -0.007353 -0.000001 0.045578 0.000000
# 6 0.000000 0.000000 0.000000 -0.004314 0.000000 0.034265
#
#
# Mechanical properties :
#
#
# Convention : Reuss Voigt Hill
#
# Bulk Modulus (GPa) = 43.85551 52.67907 48.26729
# Shear Modulus (GPa) = 29.14822 32.37093 30.75958
#
# Velocity S-wave (km/s) = 3.74438 3.94595 3.84648
# Velocity P-wave (km/s) = 6.30780 6.78965 6.55316
#
# Compressibility (1/GPa) = 0.02280215
#
# Stress axis : x y z
#
# Youngs Moduli (GPa) = 114.53613 80.98189 68.78500
#
# Poissons Ratio (x) = 0.28462 0.22692
# Poissons Ratio (y) = 0.40255 -0.02793
# Poissons Ratio (z) = 0.37785 -0.03288
#
# Static dielectric constant tensor:
#      x y z
#    x 1.751740 0.000000 0.022720 
#    y 0.000000 1.726350 0.000000 
#    z 0.022720 0.000000 1.795790 
# 
# From -- ./inp_files/57165.got.cif
#   From: 2010.05.17/outbox.cif.g08.bks.cpg/sg5_29_cif.got.tgz:57165.got - 2010.06.03 18:56:24.
