data_PCOD9130891
_publ_section_title
;
Structure prediction by ZEFSAII (Michael W. Deem and Ramdas Pophale) SiO2 
 PCOD9130891
Probable space group: P M
;
_chemical_formula_sum "Si O2"
_cell_formula_units_Z 16
_cell_length_a 12.847067
_cell_length_b 8.976500
_cell_length_c 12.716680
_cell_angle_alpha 90.000000
_cell_angle_beta 144.352925
_cell_angle_gamma 90.000000
_cell_volume 854.668063
_symmetry_space_group_name_H-M "P M"
_symmetry_group_IT_number 6
_symmetry_cell_setting 'monoclinic'
loop_
_space_group_symop_operation_xyz
x,y,z
x,-y,z
loop_
_atom_site_type_symbol
_atom_site_label
_atom_site_fract_x
_atom_site_fract_y
_atom_site_fract_z
Si Si1 0.828670 0.322858 0.379770
Si Si2 0.994654 0.322231 0.297551
Si Si3 0.360372 0.822046 0.521569
Si Si4 0.495664 0.178805 0.400203
Si Si5 0.871510 0.323584 0.658191
Si Si6 0.595473 0.678428 0.892992
Si Si7 0.473564 0.822308 0.003373
Si Si8 0.231371 0.820989 0.996109
O O1 0.783544 0.500000 0.334021
O O2 0.967300 0.291506 0.399658
O O3 0.889806 0.293176 0.547998
O O4 0.653931 0.226357 0.211652
O O5 0.019643 0.500000 0.305640
O O6 0.165507 0.238670 0.392891
O O7 0.804042 0.282549 0.086680
O O8 0.405947 0.786583 0.438149
O O9 0.509319 0.749141 0.719085
O O10 0.364399 0.000000 0.538129
O O11 0.686359 0.255243 0.544702
O O12 0.518913 0.000000 0.412615
O O13 0.368598 0.225349 0.199664
O O14 0.870416 0.500000 0.672070
O O15 0.039766 0.251274 0.853023
O O16 0.583853 0.500000 0.879737
O O17 0.483493 0.738897 0.900735
O O18 0.471233 0.000000 0.985253
O O19 0.313560 0.779972 0.950046
O O20 0.216664 0.000000 0.987329
#
# Coordination Sequence:
#
# PCOD9130891 Si02
#       8
#     2   2   2   2   2   2   2   2
#     4   9  19  36  57  86 123 160 194 240 303 357
#     4   9  20  39  60  85 119 160 196 239 302 358
#     4  11  24  40  63  90 117 157 208 252 295 354
#     4  10  23  45  63  82 120 163 203 251 301 349
#     4  11  23  37  60  92 121 156 202 247 298 360
#     4  10  22  40  61  87 124 161 195 244 304 357
#     4  10  19  34  60  91 121 156 200 245 294 356
#     4  10  22  39  60  87 119 159 200 244 303 357
#
# _framework density 18.720718999999999
#
# number of rings (size 3 to 8) (size 9 to 14) (size 15 to 20)
#    0.000    2.000    1.250    2.250    1.750    6.500 
#    0.000    3.750    0.000    0.000    0.000    0.000 
#    0.000    0.000    0.000    0.000    0.000    0.000 
#
# Total GULP energy -89361.420931 kJ/mol
# GULP energy per Si atom -5585.088808 kJ/mol
# Density = 1.867811 g / cm^3
# Si number density = 18.720719 Si / 1000 Ang^3
#
#
#
# Elastic Constant Matrix: (Units=GPa)
#
#
# Indices 1 2 3 4 5 6 
#
# 1 119.0206 46.4030 48.4607 0.0000 18.6795 0.0000
# 2 46.4030 28.5658 23.8961 0.0000 7.8269 0.0000
# 3 48.4607 23.8961 51.8958 0.0000 19.8814 0.0000
# 4 0.0000 0.0000 0.0000 -40.4168 0.0000 -43.5449
# 5 18.6795 7.8269 19.8814 0.0000 25.4757 0.0000
# 6 0.0000 0.0000 0.0000 -43.5449 0.0000 -4.2679
#
#
#
# Elastic Compliance Matrix: (Units=1/GPa)
#
#
# Indices 1 2 3 4 5 6 
#
# 1 0.024681 -0.034056 -0.006336 0.000000 -0.002689 0.000000
# 2 -0.034056 0.104252 -0.019255 0.000000 0.007968 0.000000
# 3 -0.006336 -0.019255 0.042803 0.000000 -0.022842 0.000000
# 4 0.000000 0.000000 0.000000 0.002476 0.000000 -0.025263
# 5 -0.002689 0.007968 -0.022842 0.000000 0.056603 0.000000
# 6 0.000000 0.000000 0.000000 -0.025263 0.000000 0.023448
#
#
# Mechanical properties :
#
#
# Convention : Reuss Voigt Hill
#
# Bulk Modulus (GPa) = 19.06833 48.55573 33.81203
# Shear Modulus (GPa) = 12.78648 1.53971 7.16310
#
# Velocity S-wave (km/s) = 2.61629 0.90788 1.95821
# Velocity P-wave (km/s) = 4.39709 5.20502 4.81802
#
# Compressibility (1/GPa) = 0.05244298
#
# Stress axis : x y z
#
# Youngs Moduli (GPa) = 40.51693 9.59212 23.36292
#
# Poissons Ratio (x) = 0.32667 0.14802
# Poissons Ratio (y) = 1.37983 0.44986
# Poissons Ratio (z) = 0.25670 0.18470
#
# Static dielectric constant tensor:
#      x y z
#    x 1.632990 0.000000 -0.012860 
#    y 0.000000 1.639460 0.000000 
#    z -0.012860 0.000000 1.637080 
# 
# From -- ./inp_files/5039.got.cif
#   From: 2010.05.17/outbox.cif.g08.bks.cpg/sg6_3_cif.got.tgz:5039.got - 2010.06.03 19:42:10.
