data_PCOD9130512
_publ_section_title
;
Structure prediction by ZEFSAII (Michael W. Deem and Ramdas Pophale) SiO2 
 PCOD9130512
Probable space group: C 2
;
_chemical_formula_sum "Si O2"
_cell_formula_units_Z 24
_cell_length_a 13.959836
_cell_length_b 5.398749
_cell_length_c 20.841021
_cell_angle_alpha 90.000000
_cell_angle_beta 140.081318
_cell_angle_gamma 90.000000
_cell_volume 1007.915928
_symmetry_space_group_name_H-M "C 2"
_symmetry_group_IT_number 5
_symmetry_cell_setting 'monoclinic'
loop_
_space_group_symop_operation_xyz
x,y,z
-x,y,-z
1/2+x,1/2+y,z
1/2-x,1/2+y,-z
loop_
_atom_site_type_symbol
_atom_site_label
_atom_site_fract_x
_atom_site_fract_y
_atom_site_fract_z
Si Si1 0.778379 0.427420 0.783709
Si Si2 0.258096 0.211020 0.044388
Si Si3 0.562746 0.366326 0.270864
Si Si4 0.825019 0.373331 0.659240
Si Si5 0.669184 0.921710 0.695412
Si Si6 0.500000 0.168386 0.500000
Si Si7 0.000000 0.325641 0.000000
O O1 0.849101 0.401084 0.748986
O O2 0.663534 0.652673 0.722862
O O3 0.900771 0.481746 0.899860
O O4 0.704262 0.159108 0.757274
O O5 0.402835 0.304223 0.158328
O O6 0.218231 0.449761 0.979354
O O7 0.115742 0.171825 0.017118
O O8 0.585341 0.631283 0.315688
O O9 0.685596 0.394803 0.276723
O O10 0.617949 0.130240 0.339872
O O11 0.647871 0.328586 0.562613
O O12 0.537084 0.998399 0.580113
#
# Coordination Sequence:
#
# PCOD9130512 Si02
#       7
#     4   4   4   4   4   2   2
#     4   9  19  32  48  79 117 151 202 253 293 371
#     4  12  25  42  64  92 129 174 227 276 318 387
#     4   9  17  31  48  75 115 150 188 254 307 353
#     4   9  17  31  53  81 117 154 201 255 312 378
#     4   9  17  31  52  81 117 153 202 257 309 375
#     4   8  16  28  54  88 116 154 206 260 318 380
#     4  12  26  42  68  94 130 186 222 260 336 384
#
# _framework density 23.811508
#
# number of rings (size 3 to 8) (size 9 to 14) (size 15 to 20)
#    0.000    2.667    0.000    5.000    0.000   13.333 
#    0.000    0.000    0.000    0.000    0.000   37.333 
#    0.000    0.000    0.000    0.000    0.000    0.000 
#
# Total GULP energy -66993.097942 kJ/mol
# GULP energy per Si atom -5582.758162 kJ/mol
# Density = 2.375731 g / cm^3
# Si number density = 23.811508 Si / 1000 Ang^3
#
#
#
# Elastic Constant Matrix: (Units=GPa)
#
#
# Indices 1 2 3 4 5 6 
#
# 1 95.1728 -0.3389 11.2305 0.0000 25.4864 0.0001
# 2 -0.3389 193.3058 26.9403 0.0000 5.2493 0.0003
# 3 11.2305 26.9403 135.2642 0.0000 5.4946 0.0000
# 4 0.0000 0.0000 0.0000 23.8868 0.0000 9.1577
# 5 25.4864 5.2493 5.4946 0.0000 27.2192 0.0000
# 6 0.0001 0.0003 0.0000 9.1577 0.0000 -18.6130
#
#
#
# Elastic Compliance Matrix: (Units=1/GPa)
#
#
# Indices 1 2 3 4 5 6 
#
# 1 0.014122 0.000485 -0.000734 0.000000 -0.013168 0.000000
# 2 0.000485 0.005356 -0.001055 0.000000 -0.001274 0.000000
# 3 -0.000734 -0.001055 0.007691 0.000000 -0.000662 0.000000
# 4 0.000000 0.000000 0.000000 0.035221 0.000000 0.017329
# 5 -0.013168 -0.001274 -0.000662 0.000000 0.049448 0.000000
# 6 0.000000 0.000000 0.000000 0.017329 0.000000 -0.045200
#
#
# Mechanical properties :
#
#
# Convention : Reuss Voigt Hill
#
# Bulk Modulus (GPa) = 40.71802 55.48963 48.10383
# Shear Modulus (GPa) = 64.57236 32.22599 48.39918
#
# Velocity S-wave (km/s) = 5.21316 3.68282 4.51332
# Velocity P-wave (km/s) = 7.30570 6.43728 6.88519
#
# Compressibility (1/GPa) = 0.02455915
#
# Stress axis : x y z
#
# Youngs Moduli (GPa) = 70.81224 186.71899 130.02339
#
# Poissons Ratio (x) = -0.09049 0.09545
# Poissons Ratio (y) = -0.03432 0.13720
# Poissons Ratio (z) = 0.05198 0.19702
#
# Static dielectric constant tensor:
#      x y z
#    x 2.071250 0.000000 -0.003950 
#    y 0.000000 2.012570 0.000000 
#    z -0.003950 0.000000 1.877240 
# 
# From -- ./inp_files/70757.got.cif
#   From: 2010.05.17/outbox.cif.g08.bks.cpg/sg5_36_cif.got.tgz:70757.got - 2010.06.03 18:56:24.
