data_PCOD9130629
_publ_section_title
;
Structure prediction by ZEFSAII (Michael W. Deem and Ramdas Pophale) SiO2 
 PCOD9130629
Probable space group: C 2
;
_chemical_formula_sum "Si O2"
_cell_formula_units_Z 20
_cell_length_a 8.689903
_cell_length_b 4.885814
_cell_length_c 18.848779
_cell_angle_alpha 90.000000
_cell_angle_beta 105.316814
_cell_angle_gamma 90.000000
_cell_volume 771.841775
_symmetry_space_group_name_H-M "C 2"
_symmetry_group_IT_number 5
_symmetry_cell_setting 'monoclinic'
loop_
_space_group_symop_operation_xyz
x,y,z
-x,y,-z
1/2+x,1/2+y,z
1/2-x,1/2+y,-z
loop_
_atom_site_type_symbol
_atom_site_label
_atom_site_fract_x
_atom_site_fract_y
_atom_site_fract_z
Si Si1 0.206948 0.876380 0.898498
Si Si2 0.706680 0.089766 0.399767
Si Si3 0.000000 0.377392 0.500000
Si Si4 0.813257 0.398146 0.199916
Si Si5 0.397124 0.593734 0.700604
Si Si6 0.500000 0.573718 0.000000
O O1 0.123032 0.657572 0.836180
O O2 0.377919 0.754770 0.939760
O O3 0.229075 0.165187 0.862120
O O4 0.105342 0.905779 0.957360
O O5 0.883163 0.196750 0.437361
O O6 0.608877 0.313672 0.343225
O O7 0.615049 0.046228 0.462559
O O8 0.708952 0.809341 0.356183
O O9 0.675387 0.525780 0.231447
O O10 0.936483 0.246930 0.266968
#
# Coordination Sequence:
#
# PCOD9130629 Si02
#       6
#     4   4   2   4   4   2
#     4  12  29  52  80 115 156 203 257 318 383 457
#     4  12  29  52  80 115 156 203 257 318 383 457
#     4  12  30  52  80 116 156 204 256 318 384 456
#     4  12  28  50  78 113 154 202 255 316 381 454
#     4  12  28  50  78 113 154 202 255 316 381 454
#     4  12  30  52  80 116 156 204 256 318 384 456
#
# _framework density 25.912043000000001
#
# number of rings (size 3 to 8) (size 9 to 14) (size 15 to 20)
#    0.000    0.000    0.000    7.200    0.000   27.200 
#    0.000    0.000    0.000    0.000    0.000    0.000 
#    0.000    0.000    0.000    0.000    0.000    0.000 
#
# Total GULP energy -56243.237720 kJ/mol
# GULP energy per Si atom -5624.323772 kJ/mol
# Density = 2.585307 g / cm^3
# Si number density = 25.912043 Si / 1000 Ang^3
#
#
#
# Elastic Constant Matrix: (Units=GPa)
#
#
# Indices 1 2 3 4 5 6 
#
# 1 80.4317 4.5527 7.5246 0.0000 2.8451 0.0000
# 2 4.5527 134.5160 34.7058 0.0000 -24.9550 0.0000
# 3 7.5246 34.7058 106.1065 0.0000 -14.9724 0.0000
# 4 0.0000 0.0000 0.0000 58.0580 0.0000 -22.0277
# 5 2.8451 -24.9550 -14.9724 0.0000 35.8206 0.0000
# 6 0.0000 0.0000 0.0000 -22.0277 0.0000 27.6899
#
#
#
# Elastic Compliance Matrix: (Units=1/GPa)
#
#
# Indices 1 2 3 4 5 6 
#
# 1 0.012615 -0.000501 -0.000979 0.000000 -0.001760 0.000000
# 2 -0.000501 0.009010 -0.002147 0.000000 0.005420 0.000000
# 3 -0.000979 -0.002147 0.010623 0.000000 0.003022 0.000000
# 4 0.000000 0.000000 0.000000 0.024670 0.000000 0.019626
# 5 -0.001760 0.005420 0.003022 0.000000 0.033096 0.000000
# 6 0.000000 0.000000 0.000000 0.019626 0.000000 0.051727
#
#
# Mechanical properties :
#
#
# Convention : Reuss Voigt Hill
#
# Bulk Modulus (GPa) = 40.00920 46.06893 43.03907
# Shear Modulus (GPa) = 31.78118 42.59844 37.18981
#
# Velocity S-wave (km/s) = 3.50595 4.05898 3.79256
# Velocity P-wave (km/s) = 5.64471 6.30751 5.98529
#
# Compressibility (1/GPa) = 0.02499425
#
# Stress axis : x y z
#
# Youngs Moduli (GPa) = 79.26990 110.98348 94.13902
#
# Poissons Ratio (x) = 0.05559 0.09218
# Poissons Ratio (y) = 0.03970 0.20210
# Poissons Ratio (z) = 0.07762 0.23827
#
# Static dielectric constant tensor:
#      x y z
#    x 1.975850 0.000000 0.035190 
#    y 0.000000 1.961370 0.000000 
#    z 0.035190 0.000000 2.012990 
# 
# From -- ./inp_files/59175.got.cif
#   From: 2010.05.17/outbox.cif.g08.bks.cpg/sg5_30_cif.got.tgz:59175.got - 2010.06.03 18:56:24.
