data_PCOD9130724
_publ_section_title
;
Structure prediction by ZEFSAII (Michael W. Deem and Ramdas Pophale) SiO2 
 PCOD9130724
Probable space group: C 2
;
_chemical_formula_sum "Si O2"
_cell_formula_units_Z 14
_cell_length_a 15.000000
_cell_length_b 9.000000
_cell_length_c 12.000000
_cell_angle_alpha 90.000000
_cell_angle_beta 120.000000
_cell_angle_gamma 90.000000
_cell_volume 1402.961154
_symmetry_space_group_name_H-M "C 2"
_symmetry_group_IT_number 5
_symmetry_cell_setting 'monoclinic'
loop_
_space_group_symop_operation_xyz
x,y,z
-x,y,-z
1/2+x,1/2+y,z
1/2-x,1/2+y,-z
loop_
_atom_site_type_symbol
_atom_site_label
_atom_site_fract_x
_atom_site_fract_y
_atom_site_fract_z
Si Si1 0.366792 0.954250 0.520033
Si Si2 0.352081 0.316177 0.251945
Si Si3 0.143312 0.377242 0.990871
Si Si4 0.890018 0.461967 0.280723
Si Si5 0.000000 0.121493 0.000000
Si Si6 0.044086 0.880401 0.214676
Si Si7 0.684620 0.304253 0.511506
Si Si8 0.000000 0.634466 0.000000
O O1 0.352627 0.908135 0.380371
O O2 0.486231 0.948692 0.630575
O O3 0.301454 0.854486 0.563894
O O4 0.332752 0.127040 0.505168
O O5 0.442787 0.379249 0.230231
O O6 0.352266 0.352869 0.386143
O O7 0.362536 0.136744 0.255521
O O8 0.249495 0.366979 0.124588
O O9 0.149028 0.387174 0.858863
O O10 0.080845 0.231087 0.990729
O O11 0.083826 0.524369 0.997254
O O12 0.953573 0.017607 0.871750
O O13 0.129486 0.871315 0.365945
O O14 0.040987 0.738882 0.127280
#
# Coordination Sequence:
#
# PCOD9130724 Si02
#       8
#     4   4   4   4   2   4   4   2
#     4  10  23  43  71  95 125 172 222 267 331 390
#     4  11  24  39  68  96 126 173 223 262 323 388
#     4  11  24  42  68  95 132 173 220 271 323 392
#     4  10  22  46  68  92 130 174 217 268 325 397
#     4  10  28  40  64 100 136 166 220 280 324 372
#     4  11  23  44  65  97 136 169 216 274 326 390
#     4  11  24  41  69  93 128 172 219 268 323 387
#     4  10  22  42  70  92 128 180 222 256 336 398
#
# _framework density 9.9788940000000004
#
# number of rings (size 3 to 8) (size 9 to 14) (size 15 to 20)
#    0.000    1.429    2.857    0.429   12.000    1.143 
#    2.571    0.000    0.000    0.000    0.000    0.000 
#    0.000    0.000    0.000    0.000    0.000    0.000 
#
# Total GULP energy -78172.507649 kJ/mol
# GULP energy per Si atom -5583.750546 kJ/mol
# Density = 0.995618 g / cm^3
# Si number density = 9.978894 Si / 1000 Ang^3
#
#
#
# Elastic Constant Matrix: (Units=GPa)
#
#
# Indices 1 2 3 4 5 6 
#
# 1 76.6370 21.8085 32.4440 0.0000 -20.3289 0.0000
# 2 21.8085 63.3264 29.6843 0.0000 -8.9049 0.0000
# 3 32.4440 29.6843 161.6968 0.0000 -28.3003 0.0000
# 4 0.0000 0.0000 0.0000 34.9182 0.0000 -8.5950
# 5 -20.3289 -8.9049 -28.3003 0.0000 45.9996 0.0000
# 6 0.0000 0.0000 0.0000 -8.5950 0.0000 24.4941
#
#
#
# Elastic Compliance Matrix: (Units=1/GPa)
#
#
# Indices 1 2 3 4 5 6 
#
# 1 0.016332 -0.004124 -0.001565 0.000000 0.005457 0.000000
# 2 -0.004124 0.018420 -0.002520 0.000000 0.000193 0.000000
# 3 -0.001565 -0.002520 0.007570 0.000000 0.003478 0.000000
# 4 0.000000 0.000000 0.000000 0.031346 0.000000 0.010999
# 5 0.005457 0.000193 0.003478 0.000000 0.026328 0.000000
# 6 0.000000 0.000000 0.000000 0.010999 0.000000 0.044686
#
#
# Mechanical properties :
#
#
# Convention : Reuss Voigt Hill
#
# Bulk Modulus (GPa) = 38.60442 52.17043 45.38743
# Shear Modulus (GPa) = 29.45802 35.59726 32.52764
#
# Velocity S-wave (km/s) = 3.84606 4.22788 4.04149
# Velocity P-wave (km/s) = 6.25364 7.07322 6.67602
#
# Compressibility (1/GPa) = 0.02590377
#
# Stress axis : x y z
#
# Youngs Moduli (GPa) = 61.22988 54.28927 132.10454
#
# Poissons Ratio (x) = 0.22387 0.20673
# Poissons Ratio (y) = 0.25249 0.33295
# Poissons Ratio (z) = 0.09582 0.13683
#
# Static dielectric constant tensor:
#      x y z
#    x 1.756070 0.000000 0.037040 
#    y 0.000000 1.689650 0.000000 
#    z 0.037040 0.000000 1.701990 
# 
# From -- ./inp_files/41657.got.cif
#   From: 2010.05.17/outbox.ucp.g08.bks.cvg/sg5_21_cif.got.tgz:41657.got - 2010.06.11 12:53:14.
