data_PCOD9130485
_publ_section_title
;
Structure prediction by ZEFSAII (Michael W. Deem and Ramdas Pophale) SiO2 
 PCOD9130485
Probable space group: C 2
;
_chemical_formula_sum "Si O2"
_cell_formula_units_Z 20
_cell_length_a 5.718672
_cell_length_b 18.883714
_cell_length_c 8.289759
_cell_angle_alpha 90.000000
_cell_angle_beta 75.302134
_cell_angle_gamma 90.000000
_cell_volume 865.915392
_symmetry_space_group_name_H-M "C 2"
_symmetry_group_IT_number 5
_symmetry_cell_setting 'monoclinic'
loop_
_space_group_symop_operation_xyz
x,y,z
-x,y,-z
1/2+x,1/2+y,z
1/2-x,1/2+y,-z
loop_
_atom_site_type_symbol
_atom_site_label
_atom_site_fract_x
_atom_site_fract_y
_atom_site_fract_z
Si Si1 0.500000 0.980410 0.000000
Si Si2 0.853408 0.429888 0.371608
Si Si3 0.151366 0.782586 0.320903
Si Si4 0.500000 0.557003 0.500000
Si Si5 0.000000 0.732564 0.000000
Si Si6 0.000000 0.054419 0.000000
Si Si7 0.040846 0.164106 0.226705
O O1 0.503668 0.945366 0.820169
O O2 0.770391 0.015537 0.960110
O O3 0.686526 0.365312 0.344639
O O4 0.717959 0.499307 0.465657
O O5 0.000000 0.401795 0.500000
O O6 0.046025 0.773799 0.159109
O O7 0.393908 0.735323 0.283318
O O8 0.000000 0.754650 0.500000
O O9 0.616363 0.616066 0.361518
O O10 0.768130 0.685898 0.081019
O O11 0.887341 0.105147 0.156983
#
# Coordination Sequence:
#
# PCOD9130485 Si02
#       7
#     2   4   4   2   2   2   4
#     4  12  29  49  86 115 165 218 276 336 415 485
#     4  12  30  50  76 116 161 214 271 338 412 494
#     4  12  29  49  76 115 160 212 268 339 408 496
#     4  12  26  50  78 114 158 204 266 336 412 486
#     4  12  27  49  80 115 159 212 280 328 413 491
#     4  12  24  48  78 120 154 206 276 340 394 488
#     4  12  26  46  79 116 157 205 270 339 410 481
#
# _framework density 23.096948000000001
#
# number of rings (size 3 to 8) (size 9 to 14) (size 15 to 20)
#    0.000    0.000    5.000    3.000    7.000    4.800 
#    0.000    0.000    0.000    0.000    0.000    0.000 
#    0.000    0.000    0.000    0.000    0.000    0.000 
#
# Total GULP energy -55668.318819 kJ/mol
# GULP energy per Si atom -5566.831882 kJ/mol
# Density = 2.304438 g / cm^3
# Si number density = 23.096948 Si / 1000 Ang^3
#
#
#
# Elastic Constant Matrix: (Units=GPa)
#
#
# Indices 1 2 3 4 5 6 
#
# 1 75.3192 27.2549 47.9895 0.0000 -2.5882 0.0000
# 2 27.2549 77.1346 42.7144 0.0000 12.0505 0.0000
# 3 47.9895 42.7144 150.6794 0.0000 -10.8255 0.0000
# 4 0.0000 0.0000 0.0000 94.9183 0.0000 61.6113
# 5 -2.5882 12.0505 -10.8255 0.0000 40.4683 0.0000
# 6 0.0000 0.0000 0.0000 61.6113 0.0000 41.6127
#
#
#
# Elastic Compliance Matrix: (Units=1/GPa)
#
#
# Indices 1 2 3 4 5 6 
#
# 1 0.017537 -0.003942 -0.004387 0.000000 0.001122 0.000000
# 2 -0.003942 0.017759 -0.004259 0.000000 -0.006680 0.000000
# 3 -0.004387 -0.004259 0.009495 0.000000 0.003527 0.000000
# 4 0.000000 0.000000 0.000000 0.270479 0.000000 -0.400469
# 5 0.001122 -0.006680 0.003527 0.000000 0.027715 0.000000
# 6 0.000000 0.000000 0.000000 -0.400469 0.000000 0.616961
#
#
# Mechanical properties :
#
#
# Convention : Reuss Voigt Hill
#
# Bulk Modulus (GPa) = 50.98287 59.89455 55.43871
# Shear Modulus (GPa) = 5.04205 47.74480 26.39342
#
# Velocity S-wave (km/s) = 1.47910 4.55152 3.38409
# Velocity P-wave (km/s) = 5.00383 7.32188 6.27089
#
# Compressibility (1/GPa) = 0.01961443
#
# Stress axis : x y z
#
# Youngs Moduli (GPa) = 57.02131 56.30884 105.32395
#
# Poissons Ratio (x) = 0.22200 0.46208
# Poissons Ratio (y) = 0.22481 0.44853
# Poissons Ratio (z) = 0.25016 0.23980
#
# Static dielectric constant tensor:
#      x y z
#    x 1.800430 0.000000 0.208740 
#    y 0.000000 1.831460 0.000000 
#    z 0.208740 0.000000 2.413420 
# 
# From -- ./inp_files/12082.got.cif
#   From: 2010.05.17/outbox.cif.g08.bks.cpg/sg5_7_cif.got.tgz:12082.got - 2010.06.03 18:56:24.
