data_PCOD9130071
_publ_section_title
;
Structure prediction by ZEFSAII (Michael W. Deem and Ramdas Pophale) SiO2 
 PCOD9130071
Probable space group: C 2
;
_chemical_formula_sum "Si O2"
_cell_formula_units_Z 18
_cell_length_a 7.671674
_cell_length_b 7.339615
_cell_length_c 13.321957
_cell_angle_alpha 90.000000
_cell_angle_beta 115.428656
_cell_angle_gamma 90.000000
_cell_volume 677.449958
_symmetry_space_group_name_H-M "C 2"
_symmetry_group_IT_number 5
_symmetry_cell_setting 'monoclinic'
loop_
_space_group_symop_operation_xyz
x,y,z
-x,y,-z
1/2+x,1/2+y,z
1/2-x,1/2+y,-z
loop_
_atom_site_type_symbol
_atom_site_label
_atom_site_fract_x
_atom_site_fract_y
_atom_site_fract_z
Si Si1 0.799604 0.089690 0.723967
Si Si2 0.000000 0.459746 0.500000
Si Si3 0.311039 0.860891 0.892625
Si Si4 0.940454 0.111653 0.384379
Si Si5 0.118459 0.736047 0.176410
O O1 0.631781 0.081721 0.601675
O O2 0.831508 0.277680 0.786181
O O3 0.977810 0.031281 0.697298
O O4 0.780995 0.934497 0.805093
O O5 0.060189 0.302499 0.433565
O O6 0.108692 0.779265 0.881729
O O7 0.324681 0.079950 0.887438
O O8 0.500000 0.799090 0.000000
O O9 0.719310 0.165988 0.306781
O O10 0.000000 0.007699 0.500000
#
# Coordination Sequence:
#
# PCOD9130071 Si02
#       5
#     4   2   4   4   4
#     4  11  24  47  75 111 161 208 258 335 394 492
#     4   8  22  38  70 112 156 188 268 306 414 464
#     4  12  31  48  80 109 152 214 273 328 397 467
#     4   9  21  42  73 110 158 199 253 319 400 478
#     4  11  26  50  70 113 149 202 264 331 386 475
#
# _framework density 26.570226999999999
#
# number of rings (size 3 to 8) (size 9 to 14) (size 15 to 20)
#    0.667    0.889    2.222    0.000   12.444    0.889 
#    2.000    0.000    0.000    0.000    0.000    0.000 
#    0.000    0.000    0.000    0.000    0.000    0.000 
#
# Total GULP energy -50167.384390 kJ/mol
# GULP energy per Si atom -5574.153821 kJ/mol
# Density = 2.650975 g / cm^3
# Si number density = 26.570227 Si / 1000 Ang^3
#
#
#
# Elastic Constant Matrix: (Units=GPa)
#
#
# Indices 1 2 3 4 5 6 
#
# 1 62.2678 36.2074 26.7123 0.0000 16.1603 0.0000
# 2 36.2074 125.2037 47.1505 0.0000 0.5989 0.0000
# 3 26.7123 47.1505 156.5834 0.0000 39.4972 0.0000
# 4 0.0000 0.0000 0.0000 -371.0962 0.0000 -177.5625
# 5 16.1603 0.5989 39.4972 0.0000 38.8316 0.0000
# 6 0.0000 0.0000 0.0000 -177.5625 0.0000 -35.0828
#
#
#
# Elastic Compliance Matrix: (Units=1/GPa)
#
#
# Indices 1 2 3 4 5 6 
#
# 1 0.022164 -0.006623 0.000692 0.000000 -0.009825 0.000000
# 2 -0.006623 0.011361 -0.003958 0.000000 0.006607 0.000000
# 3 0.000692 -0.003958 0.010112 0.000000 -0.010512 0.000000
# 4 0.000000 0.000000 0.000000 0.001895 0.000000 -0.009593
# 5 -0.009825 0.006607 -0.010512 0.000000 0.040431 0.000000
# 6 0.000000 0.000000 0.000000 -0.009593 0.000000 0.020049
#
#
# Mechanical properties :
#
#
# Convention : Reuss Voigt Hill
#
# Bulk Modulus (GPa) = 41.91362 62.68836 52.30099
# Shear Modulus (GPa) = 37.38501 -57.87050 -10.24275
#
# Velocity S-wave (km/s) = 3.75510 -4.67199 -1.96554
# Velocity P-wave (km/s) = 5.88302 2.33637 3.81781
#
# Compressibility (1/GPa) = 0.02385860
#
# Stress axis : x y z
#
# Youngs Moduli (GPa) = 45.11818 88.01971 98.89581
#
# Poissons Ratio (x) = 0.58296 -0.06840
# Poissons Ratio (y) = 0.29882 0.39140
# Poissons Ratio (z) = -0.03120 0.34835
#
# Static dielectric constant tensor:
#      x y z
#    x 2.520010 0.000000 0.333370 
#    y 0.000000 2.118790 0.000000 
#    z 0.333370 0.000000 2.401330 
# 
# From -- ./inp_files/49808.got.cif
#   From: 2010.05.17/outbox.cif.g08.bks.cpg/sg5_25_cif.got.tgz:49808.got - 2010.06.03 18:56:24.
