data_PCOD9130424
_publ_section_title
;
Structure prediction by ZEFSAII (Michael W. Deem and Ramdas Pophale) SiO2 
 PCOD9130424
Probable space group: C 2
;
_chemical_formula_sum "Si O2"
_cell_formula_units_Z 20
_cell_length_a 22.459617
_cell_length_b 4.923247
_cell_length_c 11.375468
_cell_angle_alpha 90.000000
_cell_angle_beta 35.828364
_cell_angle_gamma 90.000000
_cell_volume 736.284454
_symmetry_space_group_name_H-M "C 2"
_symmetry_group_IT_number 5
_symmetry_cell_setting 'monoclinic'
loop_
_space_group_symop_operation_xyz
x,y,z
-x,y,-z
1/2+x,1/2+y,z
1/2-x,1/2+y,-z
loop_
_atom_site_type_symbol
_atom_site_label
_atom_site_fract_x
_atom_site_fract_y
_atom_site_fract_z
Si Si1 0.904517 0.115180 0.586467
Si Si2 0.347061 0.883805 0.063121
Si Si3 0.592716 0.382834 0.183316
Si Si4 0.393275 0.268211 0.196934
Si Si5 0.310193 0.063213 0.567487
O O1 0.852846 0.987094 0.785187
O O2 0.852172 0.330840 0.585664
O O3 0.973941 0.891978 0.407758
O O4 0.634168 0.104333 0.067529
O O5 0.391678 0.605444 0.942844
O O6 0.393154 0.019262 0.105374
O O7 0.232290 0.812070 0.286537
O O8 0.500000 0.774765 0.500000
O O9 0.292543 0.443600 0.330669
O O10 0.381532 0.155476 0.347102
O O11 0.500000 0.413850 0.000000
#
# Coordination Sequence:
#
# PCOD9130424 Si02
#       5
#     4   4   4   4   4
#     4   8  23  51  84 124 179 229 301 368 443 539
#     4  12  23  49  78 123 170 228 287 360 435 536
#     4   9  23  48  79 122 166 231 284 361 443 507
#     4  12  28  48  83 126 180 234 292 362 453 533
#     4  12  25  53  82 136 178 230 308 366 451 545
#
# _framework density 27.163412000000001
#
# number of rings (size 3 to 8) (size 9 to 14) (size 15 to 20)
#    1.200    0.000    4.000    1.200    0.000    5.600 
#   10.800    0.000    0.000    0.000    0.000    0.000 
#    0.000    0.000    0.000    0.000    0.000    0.000 
#
# Total GULP energy -56055.707197 kJ/mol
# GULP energy per Si atom -5605.570720 kJ/mol
# Density = 2.710159 g / cm^3
# Si number density = 27.163412 Si / 1000 Ang^3
#
#
#
# Elastic Constant Matrix: (Units=GPa)
#
#
# Indices 1 2 3 4 5 6 
#
# 1 136.5035 29.5957 56.5194 -0.0024 20.1262 0.0009
# 2 29.5957 135.3330 59.2413 -0.0176 4.7477 0.0030
# 3 56.5194 59.2413 190.5369 -0.0085 15.2661 0.0038
# 4 -0.0024 -0.0176 -0.0085 43.9862 0.0035 2.3441
# 5 20.1262 4.7477 15.2661 0.0035 54.0911 0.0003
# 6 0.0009 0.0030 0.0038 2.3441 0.0003 39.1386
#
#
#
# Elastic Compliance Matrix: (Units=1/GPa)
#
#
# Indices 1 2 3 4 5 6 
#
# 1 0.008780 -0.000903 -0.002116 0.000000 -0.002590 0.000000
# 2 -0.000903 0.008646 -0.002442 0.000003 0.000266 -0.000001
# 3 -0.002116 -0.002442 0.006707 0.000000 -0.000891 0.000000
# 4 0.000000 0.000003 0.000000 0.022807 -0.000002 -0.001366
# 5 -0.002590 0.000266 -0.000891 -0.000002 0.019679 0.000000
# 6 0.000000 -0.000001 0.000000 -0.001366 0.000000 0.025632
#
#
# Mechanical properties :
#
#
# Convention : Reuss Voigt Hill
#
# Bulk Modulus (GPa) = 75.69414 83.67623 79.68519
# Shear Modulus (GPa) = 46.47881 48.57765 47.52823
#
# Velocity S-wave (km/s) = 4.14101 4.23348 4.18750
# Velocity P-wave (km/s) = 7.12676 7.40054 7.26494
#
# Compressibility (1/GPa) = 0.01321106
#
# Stress axis : x y z
#
# Youngs Moduli (GPa) = 113.89994 115.65843 149.10657
#
# Poissons Ratio (x) = 0.10442 0.31552
# Poissons Ratio (y) = 0.10283 0.36408
# Poissons Ratio (z) = 0.24102 0.28241
#
# Static dielectric constant tensor:
#      x y z
#    x 2.613870 -0.000010 -0.210780 
#    y -0.000010 2.072200 0.000010 
#    z -0.210780 0.000010 2.127530 
# 
# From -- ./inp_files/30652.got.cif
#   From: 2010.05.17/outbox.cif.g08.bks.cpg/sg5_16_cif.got.tgz:30652.got - 2010.06.03 18:56:24.
