data_PCOD9130719
_publ_section_title
;
Structure prediction by ZEFSAII (Michael W. Deem and Ramdas Pophale) SiO2 
 PCOD9130719
Probable space group: C 2
;
_chemical_formula_sum "Si O2"
_cell_formula_units_Z 15
_cell_length_a 15.000000
_cell_length_b 6.000000
_cell_length_c 18.000000
_cell_angle_alpha 90.000000
_cell_angle_beta 60.000000
_cell_angle_gamma 90.000000
_cell_volume 1402.961154
_symmetry_space_group_name_H-M "C 2"
_symmetry_group_IT_number 5
_symmetry_cell_setting 'monoclinic'
loop_
_space_group_symop_operation_xyz
x,y,z
-x,y,-z
1/2+x,1/2+y,z
1/2-x,1/2+y,-z
loop_
_atom_site_type_symbol
_atom_site_label
_atom_site_fract_x
_atom_site_fract_y
_atom_site_fract_z
Si Si1 0.000000 0.750000 0.000000
Si Si2 0.801773 0.026130 0.577610
Si Si3 0.991357 0.063653 0.137273
Si Si4 0.388960 0.152630 0.452494
Si Si5 0.110910 0.439744 0.385925
Si Si6 0.853636 0.445353 0.965854
Si Si7 0.337315 0.306733 0.859479
Si Si8 0.266864 0.733094 0.253591
O O1 0.959254 0.896276 0.085099
O O2 0.089440 0.606597 0.999911
O O3 0.698266 0.105246 0.574183
O O4 0.872096 0.909337 0.484334
O O5 0.757754 0.878845 0.663666
O O6 0.878734 0.185884 0.592785
O O7 0.053243 0.931867 0.176247
O O8 0.075661 0.228886 0.067818
O O9 0.888542 0.194097 0.200748
O O10 0.505982 0.051441 0.395319
O O11 0.364854 0.043401 0.542731
O O12 0.205033 0.503113 0.293608
O O13 0.851941 0.556086 0.884818
O O14 0.741627 0.400794 0.045496
O O15 0.282187 0.323361 0.802935
#
# Coordination Sequence:
#
# PCOD9130719 Si02
#       8
#     2   4   4   4   4   4   4   4
#     4  10  22  38  68  92 122 176 228 292 338 410
#     4  11  23  46  73 103 140 180 227 285 345 416
#     4  11  24  42  65  97 138 179 231 291 350 411
#     4  10  22  44  73 104 132 181 236 275 334 421
#     4  10  24  43  69 104 140 183 223 284 341 412
#     4  11  22  41  67  93 124 183 234 284 343 408
#     4  11  24  42  66  96 134 179 233 287 343 416
#     4  11  27  41  61 106 142 179 224 283 361 407
#
# _framework density 10.691672000000001
#
# number of rings (size 3 to 8) (size 9 to 14) (size 15 to 20)
#    0.000    1.333    2.667    2.000    1.867   11.733 
#    0.000    0.000    0.000    0.000    0.000    0.000 
#    0.000    0.000    0.000    0.000    0.000    0.000 
#
# Total GULP energy -83564.782737 kJ/mol
# GULP energy per Si atom -5570.985516 kJ/mol
# Density = 1.066734 g / cm^3
# Si number density = 10.691672 Si / 1000 Ang^3
#
#
#
# Elastic Constant Matrix: (Units=GPa)
#
#
# Indices 1 2 3 4 5 6 
#
# 1 141.0337 33.5253 43.0053 0.0003 -0.3474 0.0006
# 2 33.5253 56.4085 17.0281 0.0009 -2.9781 0.0013
# 3 43.0053 17.0281 51.3679 0.0002 -2.0250 -0.0004
# 4 0.0003 0.0009 0.0002 22.7859 -0.0002 1.1187
# 5 -0.3474 -2.9781 -2.0250 -0.0002 33.4923 0.0002
# 6 0.0006 0.0013 -0.0004 1.1187 0.0002 25.8846
#
#
#
# Elastic Compliance Matrix: (Units=1/GPa)
#
#
# Indices 1 2 3 4 5 6 
#
# 1 0.010249 -0.003922 -0.007308 0.000000 -0.000684 0.000000
# 2 -0.003922 0.021262 -0.003701 -0.000001 0.001626 -0.000001
# 3 -0.007308 -0.003701 0.026860 0.000000 0.001219 0.000001
# 4 0.000000 -0.000001 0.000000 0.043980 0.000000 -0.001901
# 5 -0.000684 0.001626 0.001219 0.000000 0.030069 0.000000
# 6 0.000000 -0.000001 0.000001 -0.001901 0.000000 0.038715
#
#
# Mechanical properties :
#
#
# Convention : Reuss Voigt Hill
#
# Bulk Modulus (GPa) = 35.07429 48.43641 41.75535
# Shear Modulus (GPa) = 23.75304 26.78266 25.26785
#
# Velocity S-wave (km/s) = 3.33651 3.54291 3.44126
# Velocity P-wave (km/s) = 5.59297 6.27988 5.94635
#
# Compressibility (1/GPa) = 0.02851091
#
# Stress axis : x y z
#
# Youngs Moduli (GPa) = 97.56671 47.03318 37.22963
#
# Poissons Ratio (x) = 0.18445 0.27207
# Poissons Ratio (y) = 0.38262 0.13778
# Poissons Ratio (z) = 0.71300 0.17406
#
# Static dielectric constant tensor:
#      x y z
#    x 1.747570 0.000000 -0.037360 
#    y 0.000000 2.037640 0.000000 
#    z -0.037360 0.000000 1.762620 
# 
# From -- ./inp_files/61201.got.cif
#   From: 2010.05.17/outbox.ucp.g08.bks.cvg/sg5_31_cif.got.tgz:61201.got - 2010.06.11 12:53:14.
