data_PCOD9130248
_publ_section_title
;
Structure prediction by ZEFSAII (Michael W. Deem and Ramdas Pophale) SiO2 
 PCOD9130248
Probable space group: C 2
;
_chemical_formula_sum "Si O2"
_cell_formula_units_Z 30
_cell_length_a 7.637266
_cell_length_b 10.965395
_cell_length_c 15.001324
_cell_angle_alpha 90.000000
_cell_angle_beta 90.865559
_cell_angle_gamma 90.000000
_cell_volume 1256.152104
_symmetry_space_group_name_H-M "C 2"
_symmetry_group_IT_number 5
_symmetry_cell_setting 'monoclinic'
loop_
_space_group_symop_operation_xyz
x,y,z
-x,y,-z
1/2+x,1/2+y,z
1/2-x,1/2+y,-z
loop_
_atom_site_type_symbol
_atom_site_label
_atom_site_fract_x
_atom_site_fract_y
_atom_site_fract_z
Si Si1 0.168635 0.198980 0.063898
Si Si2 0.000000 0.760707 0.500000
Si Si3 0.327319 0.305706 0.792961
Si Si4 0.464413 0.454697 0.343419
Si Si5 0.297694 0.436424 0.978496
Si Si6 0.601711 0.054624 0.271371
Si Si7 0.267111 0.141953 0.383574
Si Si8 0.555170 0.787894 0.245329
O O1 0.104399 0.196007 0.165962
O O2 0.272274 0.075483 0.036195
O O3 0.250297 0.332998 0.050418
O O4 0.000000 0.205705 0.000000
O O5 0.829951 0.677355 0.482942
O O6 0.017388 0.845524 0.585667
O O7 0.466150 0.394212 0.747674
O O8 0.275202 0.363877 0.885795
O O9 0.395659 0.167925 0.796349
O O10 0.150453 0.286221 0.733914
O O11 0.282220 0.525000 0.325885
O O12 0.610823 0.547591 0.378350
O O13 0.500000 0.458783 0.000000
O O14 0.438726 0.086030 0.335427
O O15 0.577151 0.928473 0.219730
O O16 0.183572 0.253857 0.326771
#
# Coordination Sequence:
#
# PCOD9130248 Si02
#       8
#     4   2   4   4   4   4   4   4
#     4  11  26  47  67 106 146 190 250 306 367 437
#     4  12  28  46  72 116 144 184 248 308 370 456
#     4  12  25  47  74 106 144 200 248 299 380 441
#     4  12  27  49  73 105 149 189 246 305 374 447
#     4  11  28  43  70 105 150 195 246 313 369 442
#     4  12  26  46  77 105 143 200 243 306 371 451
#     4  12  27  49  72 108 145 193 246 302 377 450
#     4  12  25  45  77 103 148 193 249 306 366 450
#
# _framework density 23.882459999999998
#
# number of rings (size 3 to 8) (size 9 to 14) (size 15 to 20)
#    0.000    0.267    6.667    0.800    7.467    0.533 
#    0.000    1.333    0.000    0.000    0.000    0.000 
#    0.000    0.000    0.000    0.000    0.000    0.000 
#
# Total GULP energy -83756.329403 kJ/mol
# GULP energy per Si atom -5583.755294 kJ/mol
# Density = 2.382810 g / cm^3
# Si number density = 23.882460 Si / 1000 Ang^3
#
#
#
# Elastic Constant Matrix: (Units=GPa)
#
#
# Indices 1 2 3 4 5 6 
#
# 1 111.0830 12.1666 3.3163 0.0000 12.2940 0.0000
# 2 12.1666 128.8119 -12.6996 0.0000 0.7832 0.0000
# 3 3.3163 -12.6996 43.9006 0.0000 13.7388 0.0000
# 4 0.0000 0.0000 0.0000 20.4968 0.0000 -10.8508
# 5 12.2940 0.7832 13.7388 0.0000 31.0820 0.0000
# 6 0.0000 0.0000 0.0000 -10.8508 0.0000 17.9738
#
#
#
# Elastic Compliance Matrix: (Units=1/GPa)
#
#
# Indices 1 2 3 4 5 6 
#
# 1 0.009514 -0.000852 0.000239 0.000000 -0.003847 0.000000
# 2 -0.000852 0.008122 0.002753 0.000000 -0.001085 0.000000
# 3 0.000239 0.002753 0.027398 0.000000 -0.012275 0.000000
# 4 0.000000 0.000000 0.000000 0.071705 0.000000 0.043288
# 5 -0.003847 -0.001085 -0.012275 0.000000 0.039148 0.000000
# 6 0.000000 0.000000 0.000000 0.043288 0.000000 0.081770
#
#
# Mechanical properties :
#
#
# Convention : Reuss Voigt Hill
#
# Bulk Modulus (GPa) = 20.27757 32.15135 26.21446
# Shear Modulus (GPa) = 20.01490 32.64467 26.32978
#
# Velocity S-wave (km/s) = 2.89806 3.70116 3.32395
# Velocity P-wave (km/s) = 4.43930 5.63527 5.07266
#
# Compressibility (1/GPa) = 0.04931557
#
# Stress axis : x y z
#
# Youngs Moduli (GPa) = 105.10573 123.12617 36.49836
#
# Poissons Ratio (x) = 0.10487 -0.00872
# Poissons Ratio (y) = 0.08952 -0.10049
# Poissons Ratio (z) = -0.02511 -0.33900
#
# Static dielectric constant tensor:
#      x y z
#    x 2.002610 0.000000 -0.022640 
#    y 0.000000 2.083600 0.000000 
#    z -0.022640 0.000000 1.965400 
# 
# From -- ./inp_files/50315.got.cif
#   From: 2010.05.17/outbox.cif.g08.bks.cpg/sg5_26_cif.got.tgz:50315.got - 2010.06.03 18:56:24.
