data_PCOD9130691
_publ_section_title
;
Structure prediction by ZEFSAII (Michael W. Deem and Ramdas Pophale) SiO2 
 PCOD9130691
Probable space group: C 2
;
_chemical_formula_sum "Si O2"
_cell_formula_units_Z 14
_cell_length_a 15.000000
_cell_length_b 9.000000
_cell_length_c 21.000000
_cell_angle_alpha 90.000000
_cell_angle_beta 30.000000
_cell_angle_gamma 90.000000
_cell_volume 1417.500000
_symmetry_space_group_name_H-M "C 2"
_symmetry_group_IT_number 5
_symmetry_cell_setting 'monoclinic'
loop_
_space_group_symop_operation_xyz
x,y,z
-x,y,-z
1/2+x,1/2+y,z
1/2-x,1/2+y,-z
loop_
_atom_site_type_symbol
_atom_site_label
_atom_site_fract_x
_atom_site_fract_y
_atom_site_fract_z
Si Si1 0.479486 0.079140 0.273642
Si Si2 0.347285 0.449214 0.700412
Si Si3 0.553792 0.162710 0.564167
Si Si4 0.302934 0.730900 0.646723
Si Si5 0.993328 0.332758 0.165533
Si Si6 0.214001 0.059154 0.699224
Si Si7 0.687171 0.802006 0.919828
O O1 0.411472 0.092134 0.388390
O O2 0.322073 0.147528 0.327222
O O3 0.662853 0.175772 0.162273
O O4 0.521293 0.921259 0.213828
O O5 0.523012 0.343231 0.584225
O O6 0.348533 0.620146 0.677346
O O7 0.275807 0.419105 0.815821
O O8 0.197667 0.384447 0.744840
O O9 0.359237 0.106886 0.662222
O O10 0.693119 0.105492 0.425466
O O11 0.500000 0.773207 0.500000
O O12 0.197667 0.884571 0.721068
O O13 0.965497 0.155550 0.187589
O O14 0.132260 0.364425 0.022903
O O15 0.500000 0.754441 0.000000
#
# Coordination Sequence:
#
# PCOD9130691 Si02
#       7
#     4   4   4   4   4   4   4
#     4  10  22  37  61  91 118 159 220 253 304 381
#     4   8  18  34  62  84 112 162 208 245 310 365
#     4   9  18  37  57  83 120 158 205 249 306 374
#     4  11  22  38  56  92 132 165 202 263 307 368
#     4   9  19  35  62  87 117 160 202 254 314 364
#     4  10  20  37  57  86 128 164 196 255 317 373
#     4   9  18  40  64  86 117 162 210 266 312 367
#
# _framework density 9.8765429999999999
#
# number of rings (size 3 to 8) (size 9 to 14) (size 15 to 20)
#    0.000    2.571    1.429    0.857    6.000    2.286 
#    2.571    1.429    0.000   24.857    0.000    0.000 
#    0.000    0.000    0.000    0.000    0.000    0.000 
#
# Total GULP energy -77979.937669 kJ/mol
# GULP energy per Si atom -5569.995548 kJ/mol
# Density = 0.985406 g / cm^3
# Si number density = 9.876543 Si / 1000 Ang^3
#
#
#
# Elastic Constant Matrix: (Units=GPa)
#
#
# Indices 1 2 3 4 5 6 
#
# 1 90.2182 36.6336 20.6066 -0.0001 26.0172 0.0000
# 2 36.6336 120.1456 14.4513 -0.0001 30.7369 0.0000
# 3 20.6066 14.4513 25.2278 -0.0003 10.9458 0.0001
# 4 -0.0001 -0.0001 -0.0003 15.0941 0.0000 1.6167
# 5 26.0172 30.7369 10.9458 0.0000 25.7123 0.0000
# 6 0.0000 0.0000 0.0001 1.6167 0.0000 30.4441
#
#
#
# Elastic Compliance Matrix: (Units=1/GPa)
#
#
# Indices 1 2 3 4 5 6 
#
# 1 0.016895 -0.000994 -0.007763 0.000000 -0.012603 0.000000
# 2 -0.000994 0.012062 -0.000341 0.000000 -0.013268 0.000000
# 3 -0.007763 -0.000341 0.052239 0.000001 -0.013976 0.000000
# 4 0.000000 0.000000 0.000001 0.066630 0.000000 -0.003538
# 5 -0.012603 -0.013268 -0.013976 0.000000 0.073455 0.000000
# 6 0.000000 0.000000 0.000000 -0.003538 0.000000 0.033035
#
#
# Mechanical properties :
#
#
# Convention : Reuss Voigt Hill
#
# Bulk Modulus (GPa) = 15.87281 42.10829 28.99055
# Shear Modulus (GPa) = 17.03510 25.17675 21.10592
#
# Velocity S-wave (km/s) = 2.93985 3.57399 3.27232
# Velocity P-wave (km/s) = 4.42456 6.19635 5.38384
#
# Compressibility (1/GPa) = 0.06300081
#
# Stress axis : x y z
#
# Youngs Moduli (GPa) = 59.18790 82.90783 19.14282
#
# Poissons Ratio (x) = 0.08237 0.14861
# Poissons Ratio (y) = 0.05880 0.00653
# Poissons Ratio (z) = 0.45948 0.02827
#
# Static dielectric constant tensor:
#      x y z
#    x 1.677970 0.000000 0.017290 
#    y 0.000000 1.793300 0.000000 
#    z 0.017290 0.000000 1.714780 
# 
# From -- ./inp_files/41766.got.cif
#   From: 2010.05.17/outbox.ucp.g08.bks.cvg/sg5_21_cif.got.tgz:41766.got - 2010.06.11 12:53:14.
