data_PCOD9130549
_publ_section_title
;
Structure prediction by ZEFSAII (Michael W. Deem and Ramdas Pophale) SiO2 
 PCOD9130549
Probable space group: C 2
;
_chemical_formula_sum "Si O2"
_cell_formula_units_Z 26
_cell_length_a 25.553211
_cell_length_b 9.140016
_cell_length_c 11.147412
_cell_angle_alpha 90.000000
_cell_angle_beta 26.296949
_cell_angle_gamma 90.000000
_cell_volume 1153.435216
_symmetry_space_group_name_H-M "C 2"
_symmetry_group_IT_number 5
_symmetry_cell_setting 'monoclinic'
loop_
_space_group_symop_operation_xyz
x,y,z
-x,y,-z
1/2+x,1/2+y,z
1/2-x,1/2+y,-z
loop_
_atom_site_type_symbol
_atom_site_label
_atom_site_fract_x
_atom_site_fract_y
_atom_site_fract_z
Si Si1 0.145666 0.485870 0.083131
Si Si2 0.302065 0.512449 0.525712
Si Si3 0.230397 0.179598 0.997464
Si Si4 0.084710 0.555665 0.565869
Si Si5 0.730115 0.854990 0.430784
Si Si6 0.500000 0.479746 0.500000
Si Si7 0.482080 0.359893 0.799640
O O1 0.192388 0.347643 0.063150
O O2 0.006848 0.484360 0.340224
O O3 0.214821 0.479959 0.815616
O O4 0.184503 0.636375 0.067385
O O5 0.296847 0.683727 0.507901
O O6 0.259926 0.420062 0.498839
O O7 0.432215 0.465198 0.301375
O O8 0.113722 0.083248 0.254904
O O9 0.302438 0.124324 0.733653
O O10 0.125145 0.441174 0.581433
O O11 0.016599 0.694077 0.760423
O O12 0.846619 0.880945 0.110709
O O13 0.507569 0.387359 0.606611
#
# Coordination Sequence:
#
# PCOD9130549 Si02
#       7
#     4   4   4   4   4   2   4
#     4  12  29  47  79 114 153 197 252 309 388 458
#     4  12  27  52  77 110 152 203 261 313 380 451
#     4  12  27  48  74 110 157 191 250 310 383 447
#     4  12  27  47  79 108 152 201 248 314 385 447
#     4  12  29  50  78 108 155 202 259 320 375 450
#     4  12  26  44  82 108 156 198 248 316 382 452
#     4  12  26  52  75 112 153 201 253 317 387 449
#
# _framework density 22.541363
#
# number of rings (size 3 to 8) (size 9 to 14) (size 15 to 20)
#    0.000    0.000    6.154    1.846   10.769    0.615 
#    2.769    0.000    0.000    0.000    0.000    0.000 
#    0.000    0.000    0.000    0.000    0.000    0.000 
#
# Total GULP energy -72901.137030 kJ/mol
# GULP energy per Si atom -5607.779772 kJ/mol
# Density = 2.249006 g / cm^3
# Si number density = 22.541363 Si / 1000 Ang^3
#
#
#
# Elastic Constant Matrix: (Units=GPa)
#
#
# Indices 1 2 3 4 5 6 
#
# 1 154.5693 95.9368 14.1006 0.0000 -14.3892 0.0000
# 2 95.9368 164.7594 47.6877 0.0000 -12.7227 0.0000
# 3 14.1006 47.6877 8.9877 0.0000 -10.3698 0.0000
# 4 0.0000 0.0000 0.0000 36.4632 0.0000 -6.1252
# 5 -14.3892 -12.7227 -10.3698 0.0000 38.9603 0.0000
# 6 0.0000 0.0000 0.0000 -6.1252 0.0000 50.1130
#
#
#
# Elastic Compliance Matrix: (Units=1/GPa)
#
#
# Indices 1 2 3 4 5 6 
#
# 1 0.007438 0.000875 -0.018488 0.000000 -0.001888 0.000000
# 2 0.000875 -0.006368 0.043856 0.000000 0.009917 0.000000
# 3 -0.018488 0.043856 -0.120915 0.000000 -0.024690 0.000000
# 4 0.000000 0.000000 0.000000 0.028000 0.000000 0.003422
# 5 -0.001888 0.009917 -0.024690 0.000000 0.021636 0.000000
# 6 0.000000 0.000000 0.000000 0.003422 0.000000 0.020373
#
#
# Mechanical properties :
#
#
# Convention : Reuss Voigt Hill
#
# Bulk Modulus (GPa) = -14.84566 71.52960 28.34197
# Shear Modulus (GPa) = -40.07248 36.48003 -1.79622
#
# Velocity S-wave (km/s) = -4.22089 4.02725 -0.89364
# Velocity P-wave (km/s) = 5.50952 7.30934 3.39644
#
# Compressibility (1/GPa) = -0.06735976
#
# Stress axis : x y z
#
# Youngs Moduli (GPa) = 134.45352 -157.04065 -8.27029
#
# Poissons Ratio (x) = 0.13736 -0.15290
# Poissons Ratio (y) = -0.11760 0.36270
# Poissons Ratio (z) = 2.48582 6.88722
#
# Static dielectric constant tensor:
#      x y z
#    x 1.827920 0.000000 -0.008350 
#    y 0.000000 1.800490 0.000000 
#    z -0.008350 0.000000 1.829290 
# 
# From -- ./inp_files/47921.got.cif
#   From: 2010.05.17/outbox.cif.g08.bks.cpg/sg5_24_cif.got.tgz:47921.got - 2010.06.03 18:56:24.
