data_PCOD9130174
_publ_section_title
;
Structure prediction by ZEFSAII (Michael W. Deem and Ramdas Pophale) SiO2 
 PCOD9130174
Probable space group: C 2
;
_chemical_formula_sum "Si O2"
_cell_formula_units_Z 28
_cell_length_a 13.765847
_cell_length_b 5.117106
_cell_length_c 16.453447
_cell_angle_alpha 90.000000
_cell_angle_beta 62.233498
_cell_angle_gamma 90.000000
_cell_volume 1025.547121
_symmetry_space_group_name_H-M "C 2"
_symmetry_group_IT_number 5
_symmetry_cell_setting 'monoclinic'
loop_
_space_group_symop_operation_xyz
x,y,z
-x,y,-z
1/2+x,1/2+y,z
1/2-x,1/2+y,-z
loop_
_atom_site_type_symbol
_atom_site_label
_atom_site_fract_x
_atom_site_fract_y
_atom_site_fract_z
Si Si1 0.801091 0.209690 0.520008
Si Si2 0.189596 0.589311 0.863629
Si Si3 0.663685 0.345259 0.716354
Si Si4 0.000000 0.966611 0.500000
Si Si5 0.380126 0.529634 0.895020
Si Si6 0.681511 0.242258 0.312907
Si Si7 0.500000 0.725514 0.000000
Si Si8 0.551605 0.028652 0.222579
O O1 0.767261 0.483088 0.496092
O O2 0.765006 0.213605 0.628345
O O3 0.928642 0.141897 0.466574
O O4 0.151524 0.818703 0.818537
O O5 0.257872 0.629202 0.919422
O O6 0.278022 0.448748 0.769883
O O7 0.085100 0.411198 0.919917
O O8 0.705022 0.641571 0.690825
O O9 0.560455 0.192444 0.719555
O O10 0.911439 0.803534 0.585055
O O11 0.424362 0.562694 0.968168
O O12 0.390911 0.229326 0.863395
O O13 0.453133 0.738389 0.813066
O O14 0.623185 0.028211 0.276481
#
# Coordination Sequence:
#
# PCOD9130174 Si02
#       8
#     4   4   4   2   4   4   2   4
#     4  12  29  48  74 118 158 205 271 326 383 471
#     4  11  25  49  77 111 156 201 265 317 394 469
#     4  12  24  46  78 106 159 204 259 322 389 455
#     4  12  26  50  78 112 158 218 258 332 394 452
#     4  11  26  49  75 116 148 201 257 322 386 478
#     4  11  25  48  74 113 155 206 264 322 385 470
#     4  12  26  52  82 114 160 206 258 330 410 464
#     4  11  25  46  78 108 155 200 256 318 395 456
#
# _framework density 27.302499000000001
#
# number of rings (size 3 to 8) (size 9 to 14) (size 15 to 20)
#    0.000    0.571    4.286    2.571    0.000    8.571 
#    5.143    0.000    0.000    0.000    0.000    0.000 
#    0.000    0.000    0.000    0.000    0.000    0.000 
#
# Total GULP energy -78372.522349 kJ/mol
# GULP energy per Si atom -5598.037311 kJ/mol
# Density = 2.724036 g / cm^3
# Si number density = 27.302499 Si / 1000 Ang^3
#
#
#
# Elastic Constant Matrix: (Units=GPa)
#
#
# Indices 1 2 3 4 5 6 
#
# 1 129.9442 11.6254 29.7543 0.0009 3.3816 0.0049
# 2 11.6254 93.0850 32.0903 0.0035 3.0739 0.0091
# 3 29.7543 32.0903 117.3290 0.0002 -0.0616 0.0013
# 4 0.0009 0.0035 0.0002 36.1187 -0.0007 0.2351
# 5 3.3816 3.0739 -0.0616 -0.0007 48.7076 0.0002
# 6 0.0049 0.0091 0.0013 0.2351 0.0002 42.7526
#
#
#
# Elastic Compliance Matrix: (Units=1/GPa)
#
#
# Indices 1 2 3 4 5 6 
#
# 1 0.008194 -0.000319 -0.001991 0.000000 -0.000551 -0.000001
# 2 -0.000319 0.011901 -0.003175 -0.000001 -0.000733 -0.000002
# 3 -0.001991 -0.003175 0.009896 0.000000 0.000351 0.000001
# 4 0.000000 -0.000001 0.000000 0.027687 0.000000 -0.000152
# 5 -0.000551 -0.000733 0.000351 0.000000 0.020616 0.000000
# 6 -0.000001 -0.000002 0.000001 -0.000152 0.000000 0.023391
#
#
# Mechanical properties :
#
#
# Convention : Reuss Voigt Hill
#
# Bulk Modulus (GPa) = 52.56786 54.14426 53.35606
# Shear Modulus (GPa) = 42.01797 43.30834 42.66315
#
# Velocity S-wave (km/s) = 3.92724 3.98708 3.95727
# Velocity P-wave (km/s) = 6.31347 6.40859 6.36121
#
# Compressibility (1/GPa) = 0.01902303
#
# Stress axis : x y z
#
# Youngs Moduli (GPa) = 122.03439 84.02433 101.04604
#
# Poissons Ratio (x) = 0.02678 0.20120
# Poissons Ratio (y) = 0.03890 0.32079
# Poissons Ratio (z) = 0.24299 0.26675
#
# Static dielectric constant tensor:
#      x y z
#    x 2.181200 0.000000 0.009630 
#    y 0.000000 2.228010 0.000000 
#    z 0.009630 0.000000 2.180070 
# 
# From -- ./inp_files/61186.got.cif
#   From: 2010.05.17/outbox.cif.g08.bks.cpg/sg5_31_cif.got.tgz:61186.got - 2010.06.03 18:56:24.
