data_PCOD9130062
_publ_section_title
;
Structure prediction by ZEFSAII (Michael W. Deem and Ramdas Pophale) SiO2 
 PCOD9130062
Probable space group: C 2
;
_chemical_formula_sum "Si O2"
_cell_formula_units_Z 28
_cell_length_a 14.332047
_cell_length_b 10.991141
_cell_length_c 8.931659
_cell_angle_alpha 90.000000
_cell_angle_beta 113.426267
_cell_angle_gamma 90.000000
_cell_volume 1290.991867
_symmetry_space_group_name_H-M "C 2"
_symmetry_group_IT_number 5
_symmetry_cell_setting 'monoclinic'
loop_
_space_group_symop_operation_xyz
x,y,z
-x,y,-z
1/2+x,1/2+y,z
1/2-x,1/2+y,-z
loop_
_atom_site_type_symbol
_atom_site_label
_atom_site_fract_x
_atom_site_fract_y
_atom_site_fract_z
Si Si1 0.179049 0.651330 0.472055
Si Si2 0.499140 0.026819 0.821830
Si Si3 0.097110 0.148182 0.967498
Si Si4 0.897807 0.873261 0.000656
Si Si5 0.746713 0.899094 0.625046
Si Si6 0.943467 0.309351 0.328728
Si Si7 0.674103 0.182957 0.806734
O O1 0.235635 0.773508 0.453717
O O2 0.246265 0.527221 0.535376
O O3 0.138528 0.684185 0.612338
O O4 0.088392 0.614692 0.300445
O O5 0.609800 0.078988 0.848967
O O6 0.487790 0.899520 0.726535
O O7 0.500000 0.010978 0.000000
O O8 0.107331 0.219214 0.819475
O O9 0.075627 0.006995 0.923110
O O10 0.204902 0.161728 0.118461
O O11 0.000000 0.193650 0.000000
O O12 0.848671 0.799027 0.104201
O O13 0.826301 0.893666 0.812047
O O14 0.000000 0.812703 0.000000
O O15 0.638079 0.890530 0.636220
O O16 0.000000 0.242558 0.500000
#
# Coordination Sequence:
#
# PCOD9130062 Si02
#       7
#     4   4   4   4   4   4   4
#     4  12  27  46  75 109 151 192 251 307 374 444
#     4  12  25  46  76 106 140 196 252 301 365 445
#     4  11  26  44  71 104 145 194 242 303 380 441
#     4  11  24  47  72 104 149 194 243 308 379 447
#     4  12  25  47  71 109 150 196 244 314 372 438
#     4  12  24  45  72 102 148 187 247 306 367 437
#     4  12  23  45  74 103 141 187 248 303 364 443
#
# _framework density 21.688751
#
# number of rings (size 3 to 8) (size 9 to 14) (size 15 to 20)
#    0.000    0.286    5.714    3.000    2.000    2.286 
#    0.000    1.429    0.000    0.000    0.000    0.000 
#    0.000    0.000    0.000    0.000    0.000    0.000 
#
# Total GULP energy -78222.869187 kJ/mol
# GULP energy per Si atom -5587.347799 kJ/mol
# Density = 2.163939 g / cm^3
# Si number density = 21.688751 Si / 1000 Ang^3
#
#
#
# Elastic Constant Matrix: (Units=GPa)
#
#
# Indices 1 2 3 4 5 6 
#
# 1 85.8550 25.0230 40.4729 0.0000 -12.9826 0.0000
# 2 25.0230 126.0610 39.6465 0.0000 -22.9287 0.0000
# 3 40.4729 39.6465 153.7074 0.0000 -10.4409 0.0000
# 4 0.0000 0.0000 0.0000 40.0459 0.0000 -8.7431
# 5 -12.9826 -22.9287 -10.4409 0.0000 37.9519 0.0000
# 6 0.0000 0.0000 0.0000 -8.7431 0.0000 33.7725
#
#
#
# Elastic Compliance Matrix: (Units=1/GPa)
#
#
# Indices 1 2 3 4 5 6 
#
# 1 0.013965 -0.001202 -0.003151 0.000000 0.003184 0.000000
# 2 -0.001202 0.009642 -0.001837 0.000000 0.004909 0.000000
# 3 -0.003151 -0.001837 0.007807 0.000000 -0.000040 0.000000
# 4 0.000000 0.000000 0.000000 0.026467 0.000000 0.006852
# 5 0.003184 0.004909 -0.000040 0.000000 0.030393 0.000000
# 6 0.000000 0.000000 0.000000 0.006852 0.000000 0.031384
#
#
# Mechanical properties :
#
#
# Convention : Reuss Voigt Hill
#
# Bulk Modulus (GPa) = 52.53863 63.98981 58.26422
# Shear Modulus (GPa) = 36.13214 39.71946 37.92580
#
# Velocity S-wave (km/s) = 4.08602 4.28406 4.18621
# Velocity P-wave (km/s) = 6.82182 7.35110 7.09140
#
# Compressibility (1/GPa) = 0.01903361
#
# Stress axis : x y z
#
# Youngs Moduli (GPa) = 71.60955 103.71507 128.09648
#
# Poissons Ratio (x) = 0.12466 0.40360
# Poissons Ratio (y) = 0.08607 0.23532
# Poissons Ratio (z) = 0.22562 0.19053
#
# Static dielectric constant tensor:
#      x y z
#    x 1.821490 0.000000 0.046280 
#    y 0.000000 1.829660 0.000000 
#    z 0.046280 0.000000 1.832650 
# 
# From -- ./inp_files/23721.got.cif
#   From: 2010.05.17/outbox.cif.g08.bks.cpg/sg5_12_cif.got.tgz:23721.got - 2010.06.03 18:56:24.
