data_PCOD9130189
_publ_section_title
;
Structure prediction by ZEFSAII (Michael W. Deem and Ramdas Pophale) SiO2 
 PCOD9130189
Probable space group: C 2
;
_chemical_formula_sum "Si O2"
_cell_formula_units_Z 14
_cell_length_a 12.251993
_cell_length_b 7.356515
_cell_length_c 15.461526
_cell_angle_alpha 90.000000
_cell_angle_beta 153.873660
_cell_angle_gamma 90.000000
_cell_volume 613.664723
_symmetry_space_group_name_H-M "C 2"
_symmetry_group_IT_number 5
_symmetry_cell_setting 'monoclinic'
loop_
_space_group_symop_operation_xyz
x,y,z
-x,y,-z
1/2+x,1/2+y,z
1/2-x,1/2+y,-z
loop_
_atom_site_type_symbol
_atom_site_label
_atom_site_fract_x
_atom_site_fract_y
_atom_site_fract_z
Si Si1 0.876589 0.190040 0.237630
Si Si2 0.000000 0.787846 0.500000
Si Si3 0.398791 0.101301 0.792433
Si Si4 0.578352 0.087267 0.377217
O O1 0.782830 0.201150 0.269738
O O2 0.124401 0.073251 0.404140
O O3 0.942762 0.397081 0.263052
O O4 0.660104 0.100886 0.027300
O O5 0.988423 0.675475 0.402444
O O6 0.247644 0.912741 0.673254
O O7 0.443507 0.189068 0.730656
#
# Coordination Sequence:
#
# PCOD9130189 Si02
#       4
#     4   2   4   4
#     4  11  25  47  78 104 146 184 246 287 367 408
#     4  12  26  48  76 104 148 186 244 284 368 412
#     4  11  25  50  70 108 145 189 233 306 341 436
#     4  12  25  49  74 108 142 193 233 303 344 436
#
# _framework density 22.813759999999998
#
# number of rings (size 3 to 8) (size 9 to 14) (size 15 to 20)
#    0.000    0.571    5.714    0.000    4.000    6.857 
#    5.143    0.000    0.000    0.000    0.000    0.000 
#    0.000    0.000    0.000    0.000    0.000    0.000 
#
# Total GULP energy -39092.677369 kJ/mol
# GULP energy per Si atom -5584.668196 kJ/mol
# Density = 2.276183 g / cm^3
# Si number density = 22.813760 Si / 1000 Ang^3
#
#
#
# Elastic Constant Matrix: (Units=GPa)
#
#
# Indices 1 2 3 4 5 6 
#
# 1 200.8328 37.9887 46.7565 0.0004 -31.9108 -0.0002
# 2 37.9887 69.3221 40.1855 0.0006 -6.9473 0.0005
# 3 46.7565 40.1855 125.6471 0.0002 -15.5760 0.0013
# 4 0.0004 0.0006 0.0002 21.3406 0.0005 -2.0740
# 5 -31.9108 -6.9473 -15.5760 0.0005 34.8296 0.0001
# 6 -0.0002 0.0005 0.0013 -2.0740 0.0001 37.1746
#
#
#
# Elastic Compliance Matrix: (Units=1/GPa)
#
#
# Indices 1 2 3 4 5 6 
#
# 1 0.006472 -0.002466 -0.001001 0.000000 0.004990 0.000000
# 2 -0.002466 0.018685 -0.005163 0.000000 -0.000841 0.000000
# 3 -0.001001 -0.005163 0.010313 0.000000 0.002665 0.000000
# 4 0.000000 0.000000 0.000000 0.047114 -0.000001 0.002629
# 5 0.004990 -0.000841 0.002665 -0.000001 0.034307 0.000000
# 6 0.000000 0.000000 0.000000 0.002629 0.000000 0.027047
#
#
# Mechanical properties :
#
#
# Convention : Reuss Voigt Hill
#
# Bulk Modulus (GPa) = 54.91414 71.74038 63.32726
# Shear Modulus (GPa) = 29.89226 36.72706 33.30966
#
# Velocity S-wave (km/s) = 3.62370 4.01666 3.82523
# Velocity P-wave (km/s) = 6.45222 7.28188 6.87957
#
# Compressibility (1/GPa) = 0.01821025
#
# Stress axis : x y z
#
# Youngs Moduli (GPa) = 154.52086 53.51791 96.96660
#
# Poissons Ratio (x) = 0.13198 0.09706
# Poissons Ratio (y) = 0.38107 0.50061
# Poissons Ratio (z) = 0.15467 0.27629
#
# Static dielectric constant tensor:
#      x y z
#    x 1.887940 0.000000 -0.025000 
#    y 0.000000 1.868260 0.000000 
#    z -0.025000 0.000000 1.854220 
# 
# From -- ./inp_files/37840.got.cif
#   From: 2010.05.17/outbox.cif.g08.bks.cpg/sg5_19_cif.got.tgz:37840.got - 2010.06.03 18:56:24.
