data_PCOD9130437
_publ_section_title
;
Structure prediction by ZEFSAII (Michael W. Deem and Ramdas Pophale) SiO2 
 PCOD9130437
Probable space group: C 2
;
_chemical_formula_sum "Si O2"
_cell_formula_units_Z 32
_cell_length_a 14.182990
_cell_length_b 12.510588
_cell_length_c 8.887580
_cell_angle_alpha 90.000000
_cell_angle_beta 72.858476
_cell_angle_gamma 90.000000
_cell_volume 1506.939929
_symmetry_space_group_name_H-M "C 2"
_symmetry_group_IT_number 5
_symmetry_cell_setting 'monoclinic'
loop_
_space_group_symop_operation_xyz
x,y,z
-x,y,-z
1/2+x,1/2+y,z
1/2-x,1/2+y,-z
loop_
_atom_site_type_symbol
_atom_site_label
_atom_site_fract_x
_atom_site_fract_y
_atom_site_fract_z
Si Si1 0.699362 0.358140 0.629274
Si Si2 0.308606 0.094256 0.857907
Si Si3 0.386710 0.527026 0.534048
Si Si4 0.372187 0.500433 0.877400
Si Si5 0.708750 0.691456 0.611957
Si Si6 0.911561 0.411939 0.661813
Si Si7 0.489204 0.726037 0.832674
Si Si8 0.394078 0.277586 0.021361
O O1 0.624797 0.447793 0.602129
O O2 0.719554 0.283259 0.477431
O O3 0.807164 0.401431 0.624926
O O4 0.657690 0.299776 0.795210
O O5 0.256402 0.130007 0.728215
O O6 0.334573 0.199169 0.940720
O O7 0.399441 0.017777 0.769700
O O8 0.229704 0.027107 0.990905
O O9 0.500000 0.562954 0.500000
O O10 0.357404 0.479589 0.707839
O O11 0.312934 0.621230 0.525870
O O12 0.440233 0.607262 0.858397
O O13 0.411158 0.392681 0.934912
O O14 0.599254 0.724592 0.713970
O O15 0.927315 0.308111 0.759811
O O16 0.000000 0.418611 0.500000
O O17 0.500000 0.761866 0.000000
O O18 0.500000 0.226298 0.000000
#
# Coordination Sequence:
#
# PCOD9130437 Si02
#       8
#     4   4   4   4   4   4   4   4
#     4  12  26  47  72 107 147 187 242 303 361 428
#     4  12  27  48  71 107 151 193 241 299 375 438
#     4  12  24  42  71 108 139 185 238 295 367 425
#     4  12  24  43  75 106 147 184 245 306 361 428
#     4  12  24  44  72 105 143 188 241 302 358 423
#     4  12  26  49  73 105 152 193 242 301 363 436
#     4  12  25  41  76 111 140 189 247 305 355 423
#     4  12  27  49  73 105 149 197 242 300 368 441
#
# _framework density 21.235085999999999
#
# number of rings (size 3 to 8) (size 9 to 14) (size 15 to 20)
#    0.000    0.000    6.250    4.125    0.000    2.500 
#    2.250    0.625    0.000    0.000    0.000    0.000 
#    0.000    0.000    0.000    0.000    0.000    0.000 
#
# Total GULP energy -89495.924214 kJ/mol
# GULP energy per Si atom -5593.495263 kJ/mol
# Density = 2.118675 g / cm^3
# Si number density = 21.235086 Si / 1000 Ang^3
#
#
#
# Elastic Constant Matrix: (Units=GPa)
#
#
# Indices 1 2 3 4 5 6 
#
# 1 64.6458 3.2710 7.3318 0.0000 15.9306 0.0000
# 2 3.2710 60.2760 5.8953 0.0000 13.8123 0.0000
# 3 7.3318 5.8953 111.3139 0.0000 6.5954 0.0000
# 4 0.0000 0.0000 0.0000 34.6289 0.0000 11.1856
# 5 15.9306 13.8123 6.5954 0.0000 35.8718 0.0000
# 6 0.0000 0.0000 0.0000 11.1856 0.0000 17.5324
#
#
#
# Elastic Compliance Matrix: (Units=1/GPa)
#
#
# Indices 1 2 3 4 5 6 
#
# 1 0.017473 0.000955 -0.000728 0.000000 -0.007994 0.000000
# 2 0.000955 0.018282 -0.000595 0.000000 -0.007354 0.000000
# 3 -0.000728 -0.000595 0.009130 0.000000 -0.001126 0.000000
# 4 0.000000 0.000000 0.000000 0.036373 0.000000 -0.023206
# 5 -0.007994 -0.007354 -0.001126 0.000000 0.034466 0.000000
# 6 0.000000 0.000000 0.000000 -0.023206 0.000000 0.071843
#
#
# Mechanical properties :
#
#
# Convention : Reuss Voigt Hill
#
# Bulk Modulus (GPa) = 22.65123 29.91465 26.28294
# Shear Modulus (GPa) = 24.62819 32.25580 28.44200
#
# Velocity S-wave (km/s) = 3.40926 3.90165 3.66373
# Velocity P-wave (km/s) = 5.11737 5.86644 5.50466
#
# Compressibility (1/GPa) = 0.04414772
#
# Stress axis : x y z
#
# Youngs Moduli (GPa) = 57.23122 54.69876 109.53147
#
# Poissons Ratio (x) = -0.05222 0.07972
# Poissons Ratio (y) = -0.05464 0.06521
# Poissons Ratio (z) = 0.04165 0.03257
#
# Static dielectric constant tensor:
#      x y z
#    x 1.759710 0.000000 -0.004460 
#    y 0.000000 1.794300 0.000000 
#    z -0.004460 0.000000 1.756940 
# 
# From -- ./inp_files/23865.got.cif
#   From: 2010.05.17/outbox.cif.g08.bks.cpg/sg5_12_cif.got.tgz:23865.got - 2010.06.03 18:56:24.
