data_PCOD9130242
_publ_section_title
;
Structure prediction by ZEFSAII (Michael W. Deem and Ramdas Pophale) SiO2 
 PCOD9130242
Probable space group: C 2
;
_chemical_formula_sum "Si O2"
_cell_formula_units_Z 22
_cell_length_a 18.383287
_cell_length_b 7.309386
_cell_length_c 15.305020
_cell_angle_alpha 90.000000
_cell_angle_beta 153.076624
_cell_angle_gamma 90.000000
_cell_volume 931.199983
_symmetry_space_group_name_H-M "C 2"
_symmetry_group_IT_number 5
_symmetry_cell_setting 'monoclinic'
loop_
_space_group_symop_operation_xyz
x,y,z
-x,y,-z
1/2+x,1/2+y,z
1/2-x,1/2+y,-z
loop_
_atom_site_type_symbol
_atom_site_label
_atom_site_fract_x
_atom_site_fract_y
_atom_site_fract_z
Si Si1 0.576874 0.375000 0.841209
Si Si2 0.174860 0.279573 0.225216
Si Si3 0.146495 0.224784 0.395378
Si Si4 0.500000 0.101887 0.500000
Si Si5 0.070515 0.513767 0.756725
Si Si6 0.923035 0.692468 0.831295
O O1 0.451758 0.538724 0.697246
O O2 0.556211 0.232082 0.741964
O O3 0.561334 0.240889 0.908608
O O4 0.748729 0.465126 0.028430
O O5 0.200228 0.213693 0.352305
O O6 0.332025 0.215457 0.338457
O O7 0.142040 0.497313 0.202010
O O8 0.000000 0.212640 0.000000
O O9 0.276243 0.249209 0.610620
O O10 0.036486 0.403339 0.289245
O O11 0.525122 0.968955 0.609588
O O12 0.000000 0.783960 0.000000
#
# Coordination Sequence:
#
# PCOD9130242 Si02
#       6
#     4   4   4   2   4   4
#     4  12  26  47  77 109 155 207 259 326 393 473
#     4  11  26  51  80 115 161 208 263 330 399 473
#     4  12  25  50  78 108 161 208 254 324 399 471
#     4  12  28  48  78 118 158 206 270 326 394 470
#     4  12  27  48  74 117 154 202 266 322 394 470
#     4  11  26  46  75 112 152 206 264 318 397 465
#
# _framework density 23.625429
#
# number of rings (size 3 to 8) (size 9 to 14) (size 15 to 20)
#    0.000    0.364    3.636    4.364    5.091    0.727 
#    6.545    0.909    0.000    0.000    0.000    0.000 
#    0.000    0.000    0.000    0.000    0.000    0.000 
#
# Total GULP energy -61364.685516 kJ/mol
# GULP energy per Si atom -5578.607774 kJ/mol
# Density = 2.357166 g / cm^3
# Si number density = 23.625429 Si / 1000 Ang^3
#
#
#
# Elastic Constant Matrix: (Units=GPa)
#
#
# Indices 1 2 3 4 5 6 
#
# 1 118.1269 18.3223 62.7366 0.0000 8.0323 0.0000
# 2 18.3223 107.8062 27.7150 0.0000 17.8761 0.0000
# 3 62.7366 27.7150 177.3016 0.0000 6.6060 0.0000
# 4 0.0000 0.0000 0.0000 22.6518 0.0000 -0.7474
# 5 8.0323 17.8761 6.6060 0.0000 51.7390 0.0000
# 6 0.0000 0.0000 0.0000 -0.7474 0.0000 31.2434
#
#
#
# Elastic Compliance Matrix: (Units=1/GPa)
#
#
# Indices 1 2 3 4 5 6 
#
# 1 0.010543 -0.000716 -0.003584 0.000000 -0.000932 0.000000
# 2 -0.000716 0.010256 -0.001228 0.000000 -0.003276 0.000000
# 3 -0.003584 -0.001228 0.007097 0.000000 0.000074 0.000000
# 4 0.000000 0.000000 0.000000 0.044181 0.000000 0.001057
# 5 -0.000932 -0.003276 0.000074 0.000000 0.020595 0.000000
# 6 0.000000 0.000000 0.000000 0.001057 0.000000 0.032032
#
#
# Mechanical properties :
#
#
# Convention : Reuss Voigt Hill
#
# Bulk Modulus (GPa) = 59.37724 68.97584 64.17654
# Shear Modulus (GPa) = 35.36691 40.75755 38.06223
#
# Velocity S-wave (km/s) = 3.87329 4.15801 4.01817
# Velocity P-wave (km/s) = 6.72238 7.23263 6.98217
#
# Compressibility (1/GPa) = 0.01684147
#
# Stress axis : x y z
#
# Youngs Moduli (GPa) = 94.84653 97.49988 140.89579
#
# Poissons Ratio (x) = 0.06981 0.50498
# Poissons Ratio (y) = 0.06791 0.17300
# Poissons Ratio (z) = 0.33993 0.11971
#
# Static dielectric constant tensor:
#      x y z
#    x 1.980560 0.000000 -0.011640 
#    y 0.000000 1.895620 0.000000 
#    z -0.011640 0.000000 1.951120 
# 
# From -- ./inp_files/55682.got.cif
#   From: 2010.05.17/outbox.cif.g08.bks.cpg/sg5_28_cif.got.tgz:55682.got - 2010.06.03 18:56:24.
