data_PCOD9130352
_publ_section_title
;
Structure prediction by ZEFSAII (Michael W. Deem and Ramdas Pophale) SiO2 
 PCOD9130352
Probable space group: C 2
;
_chemical_formula_sum "Si O2"
_cell_formula_units_Z 32
_cell_length_a 11.035794
_cell_length_b 22.480117
_cell_length_c 9.250292
_cell_angle_alpha 90.000000
_cell_angle_beta 44.727516
_cell_angle_gamma 90.000000
_cell_volume 1614.980750
_symmetry_space_group_name_H-M "C 2"
_symmetry_group_IT_number 5
_symmetry_cell_setting 'monoclinic'
loop_
_space_group_symop_operation_xyz
x,y,z
-x,y,-z
1/2+x,1/2+y,z
1/2-x,1/2+y,-z
loop_
_atom_site_type_symbol
_atom_site_label
_atom_site_fract_x
_atom_site_fract_y
_atom_site_fract_z
Si Si1 0.128881 0.176280 0.168147
Si Si2 0.573154 0.462788 0.088765
Si Si3 0.814675 0.893095 0.729719
Si Si4 0.225792 0.668288 0.415094
Si Si5 0.694538 0.761841 0.876992
Si Si6 0.331261 0.505605 0.542328
Si Si7 0.340946 0.129840 0.241016
Si Si8 0.300323 0.578821 0.120739
O O1 0.192630 0.163306 0.274842
O O2 0.923106 0.171518 0.312073
O O3 0.204038 0.236571 0.031971
O O4 0.210108 0.122955 0.004713
O O5 0.652735 0.418679 0.137922
O O6 0.413620 0.492802 0.314793
O O7 0.284342 0.512005 0.077399
O O8 0.500000 0.437802 0.000000
O O9 0.719947 0.831032 0.827336
O O10 0.000000 0.880167 0.500000
O O11 0.743652 0.946595 0.687260
O O12 0.199624 0.722404 0.327257
O O13 0.113283 0.666216 0.653558
O O14 0.205003 0.608826 0.335902
O O15 0.500000 0.745955 0.000000
O O16 0.500000 0.514973 0.500000
O O17 0.222348 0.565132 0.650863
O O18 0.500000 0.123400 0.000000
O O19 0.500000 0.580516 0.000000
#
# Coordination Sequence:
#
# PCOD9130352 Si02
#       8
#     4   4   4   4   4   4   4   4
#     4   9  17  32  52  72  96 129 168 205 247 300
#     4   9  15  27  52  80  98 125 170 209 243 293
#     4   9  19  33  51  74 102 138 171 205 249 297
#     4   9  18  33  54  74  97 133 170 207 252 306
#     4   9  19  36  57  75  93 131 180 214 246 295
#     4   9  18  33  52  73 101 141 175 202 242 301
#     4  12  22  30  46  80 112 132 159 210 265 298
#     4   8  13  26  52  76  91 119 167 210 236 284
#
# _framework density 19.814478000000001
#
# number of rings (size 3 to 8) (size 9 to 14) (size 15 to 20)
#    0.000    3.000    0.000    6.375    0.000    1.500 
#    0.000    5.000    0.000    0.000    0.000   10.500 
#    0.000    0.000    0.000    0.000    0.000    0.000 
#
# Total GULP energy -89131.758646 kJ/mol
# GULP energy per Si atom -5570.734915 kJ/mol
# Density = 1.976938 g / cm^3
# Si number density = 19.814478 Si / 1000 Ang^3
#
#
#
# Elastic Constant Matrix: (Units=GPa)
#
#
# Indices 1 2 3 4 5 6 
#
# 1 43.2208 10.7246 34.7585 0.0000 15.2907 0.0000
# 2 10.7246 93.4306 35.5440 0.0000 13.4710 0.0000
# 3 34.7585 35.5440 110.1067 0.0000 30.7979 0.0000
# 4 0.0000 0.0000 0.0000 16.3311 0.0000 -4.5793
# 5 15.2907 13.4710 30.7979 0.0000 38.2887 0.0000
# 6 0.0000 0.0000 0.0000 -4.5793 0.0000 17.1095
#
#
#
# Elastic Compliance Matrix: (Units=1/GPa)
#
#
# Indices 1 2 3 4 5 6 
#
# 1 0.032065 0.000455 -0.008571 0.000000 -0.006071 0.000000
# 2 0.000455 0.012271 -0.003673 0.000000 -0.001545 0.000000
# 3 -0.008571 -0.003673 0.015038 0.000000 -0.007381 0.000000
# 4 0.000000 0.000000 0.000000 0.066201 0.000000 0.017719
# 5 -0.006071 -0.001545 -0.007381 0.000000 0.035022 0.000000
# 6 0.000000 0.000000 0.000000 0.017719 0.000000 0.063189
#
#
# Mechanical properties :
#
#
# Convention : Reuss Voigt Hill
#
# Bulk Modulus (GPa) = 27.93566 45.42359 36.67963
# Shear Modulus (GPa) = 19.28300 25.39459 22.33880
#
# Velocity S-wave (km/s) = 3.12296 3.58385 3.36132
# Velocity P-wave (km/s) = 5.20894 6.33242 5.79796
#
# Compressibility (1/GPa) = 0.03579654
#
# Stress axis : x y z
#
# Youngs Moduli (GPa) = 31.18693 81.49378 66.49841
#
# Poissons Ratio (x) = -0.03712 0.56996
# Poissons Ratio (y) = -0.01420 0.24424
# Poissons Ratio (z) = 0.26730 0.29932
#
# Static dielectric constant tensor:
#      x y z
#    x 1.735860 0.000000 -0.014180 
#    y 0.000000 1.724770 0.000000 
#    z -0.014180 0.000000 1.744420 
# 
# From -- ./inp_files/22092.got.cif
#   From: 2010.05.17/outbox.cif.g08.bks.cpg/sg5_12_cif.got.tgz:22092.got - 2010.06.03 18:56:24.
