data_PCOD9130491
_publ_section_title
;
Structure prediction by ZEFSAII (Michael W. Deem and Ramdas Pophale) SiO2 
 PCOD9130491
Probable space group: C 2
;
_chemical_formula_sum "Si O2"
_cell_formula_units_Z 30
_cell_length_a 11.473013
_cell_length_b 11.640832
_cell_length_c 19.276546
_cell_angle_alpha 90.000000
_cell_angle_beta 29.008305
_cell_angle_gamma 90.000000
_cell_volume 1248.462501
_symmetry_space_group_name_H-M "C 2"
_symmetry_group_IT_number 5
_symmetry_cell_setting 'monoclinic'
loop_
_space_group_symop_operation_xyz
x,y,z
-x,y,-z
1/2+x,1/2+y,z
1/2-x,1/2+y,-z
loop_
_atom_site_type_symbol
_atom_site_label
_atom_site_fract_x
_atom_site_fract_y
_atom_site_fract_z
Si Si1 0.285134 0.763240 0.721429
Si Si2 0.944997 0.372709 0.100798
Si Si3 0.722980 0.099618 0.642271
Si Si4 0.457993 0.564002 0.719258
Si Si5 0.911035 0.154831 0.204051
Si Si6 0.500000 0.323682 0.000000
Si Si7 0.460748 0.009048 0.409248
Si Si8 0.277019 0.994375 0.943326
O O1 0.222604 0.729021 0.674768
O O2 0.452029 0.660448 0.662242
O O3 0.413520 0.885126 0.660136
O O4 0.077523 0.760377 0.888939
O O5 0.755024 0.472851 0.181375
O O6 0.869367 0.283477 0.199368
O O7 0.193031 0.425176 0.000865
O O8 0.000000 0.310486 0.000000
O O9 0.000000 0.058457 0.500000
O O10 0.604960 0.066414 0.630749
O O11 0.541116 0.040846 0.790992
O O12 0.454429 0.635373 0.792990
O O13 0.712180 0.500670 0.579911
O O14 0.656191 0.092655 0.341111
O O15 0.076019 0.089531 0.061241
O O16 0.292802 0.408952 0.081569
#
# Coordination Sequence:
#
# PCOD9130491 Si02
#       8
#     4   4   4   4   4   2   4   4
#     4  12  27  46  84 109 151 211 253 325 394 471
#     4  12  28  47  79 116 159 206 260 331 389 474
#     4  12  26  49  77 109 151 204 255 320 391 463
#     4  12  28  54  75 114 161 203 264 327 395 472
#     4  12  29  47  77 115 156 207 259 324 393 466
#     4  12  26  46  76 116 150 202 264 324 388 470
#     4  12  28  53  75 114 155 203 268 321 396 472
#     4  12  24  49  73 109 158 201 259 323 384 464
#
# _framework density 24.029558000000002
#
# number of rings (size 3 to 8) (size 9 to 14) (size 15 to 20)
#    0.000    0.000    6.667    1.200    9.333    2.133 
#    0.000    0.000    0.000    0.000    0.000    0.000 
#    0.000    0.000    0.000    0.000    0.000    0.000 
#
# Total GULP energy -83875.049325 kJ/mol
# GULP energy per Si atom -5591.669955 kJ/mol
# Density = 2.397487 g / cm^3
# Si number density = 24.029558 Si / 1000 Ang^3
#
#
#
# Elastic Constant Matrix: (Units=GPa)
#
#
# Indices 1 2 3 4 5 6 
#
# 1 144.4417 55.7291 3.7688 0.0005 5.0682 0.0025
# 2 55.7291 120.3940 3.1589 0.0002 -0.7093 -0.0006
# 3 3.7688 3.1589 51.5923 0.0086 -9.0647 0.0011
# 4 0.0005 0.0002 0.0086 28.2281 -0.0049 2.4222
# 5 5.0682 -0.7093 -9.0647 -0.0049 36.6583 -0.0002
# 6 0.0025 -0.0006 0.0011 2.4222 -0.0002 42.3231
#
#
#
# Elastic Compliance Matrix: (Units=1/GPa)
#
#
# Indices 1 2 3 4 5 6 
#
# 1 0.008505 -0.003929 -0.000628 0.000000 -0.001407 -0.000001
# 2 -0.003929 0.010134 -0.000213 0.000000 0.000687 0.000000
# 3 -0.000628 -0.000213 0.020340 -0.000005 0.005112 0.000000
# 4 0.000000 0.000000 -0.000005 0.035601 0.000004 -0.002037
# 5 -0.001407 0.000687 0.005112 0.000004 0.028751 0.000000
# 6 -0.000001 0.000000 0.000000 -0.002037 0.000000 0.023744
#
#
# Mechanical properties :
#
#
# Convention : Reuss Voigt Hill
#
# Bulk Modulus (GPa) = 33.96744 49.08240 41.52492
# Shear Modulus (GPa) = 34.14679 38.35998 36.25339
#
# Velocity S-wave (km/s) = 3.77375 3.99979 3.88841
# Velocity P-wave (km/s) = 5.75800 6.46539 6.12192
#
# Compressibility (1/GPa) = 0.02943996
#
# Stress axis : x y z
#
# Youngs Moduli (GPa) = 117.58212 98.67598 49.16454
#
# Poissons Ratio (x) = 0.38765 0.03087
# Poissons Ratio (y) = 0.46193 0.01047
# Poissons Ratio (z) = 0.07384 0.02101
#
# Static dielectric constant tensor:
#      x y z
#    x 2.021720 -0.000010 0.105510 
#    y -0.000010 1.939460 -0.000010 
#    z 0.105510 -0.000010 1.985770 
# 
# From -- ./inp_files/65341.got.cif
#   From: 2010.05.17/outbox.cif.g08.bks.cpg/sg5_33_cif.got.tgz:65341.got - 2010.06.03 18:56:24.
