data_PCOD9130957
_publ_section_title
;
Structure prediction by ZEFSAII (Michael W. Deem and Ramdas Pophale) SiO2 
 PCOD9130957
Probable space group: P M
;
_chemical_formula_sum "Si O2"
_cell_formula_units_Z 16
_cell_length_a 10.448510
_cell_length_b 8.901707
_cell_length_c 12.412104
_cell_angle_alpha 90.000000
_cell_angle_beta 52.369020
_cell_angle_gamma 90.000000
_cell_volume 914.273438
_symmetry_space_group_name_H-M "P M"
_symmetry_group_IT_number 6
_symmetry_cell_setting 'monoclinic'
loop_
_space_group_symop_operation_xyz
x,y,z
x,-y,z
loop_
_atom_site_type_symbol
_atom_site_label
_atom_site_fract_x
_atom_site_fract_y
_atom_site_fract_z
Si Si1 0.352600 0.321004 0.364820
Si Si2 0.026647 0.179790 0.945612
Si Si3 0.530086 0.178920 0.668769
Si Si4 0.728560 0.320565 0.205833
Si Si5 0.252669 0.178240 0.635305
Si Si6 0.303521 0.321056 0.953860
Si Si7 0.835173 0.819933 0.377221
Si Si8 0.210476 0.820440 0.222704
O O1 0.339623 0.500000 0.359106
O O2 0.542261 0.281744 0.280017
O O3 0.265625 0.268771 0.519009
O O4 0.278844 0.239733 0.299502
O O5 0.100290 0.213359 0.790179
O O6 0.150269 0.251282 0.968565
O O7 0.029058 0.000000 0.958900
O O8 0.850806 0.244695 0.058900
O O9 0.409122 0.208353 0.630348
O O10 0.459393 0.267735 0.806197
O O11 0.709193 0.217387 0.536941
O O12 0.520054 0.000000 0.696113
O O13 0.746030 0.500000 0.192703
O O14 0.780664 0.261908 0.296573
O O15 0.251621 0.000000 0.612318
O O16 0.291140 0.500000 0.960897
O O17 0.298837 0.256177 0.076250
O O18 0.019640 0.784279 0.310398
O O19 0.822966 0.000000 0.365218
O O20 0.227756 0.000000 0.206893
#
# Coordination Sequence:
#
# PCOD9130957 Si02
#       8
#     2   2   2   2   2   2   2   2
#     4  11  24  39  56  83 119 154 189 232 288 348
#     4  10  20  35  57  85 114 148 192 237 281 335
#     4   9  18  34  57  85 114 146 186 236 285 337
#     4  11  22  35  56  87 117 148 189 238 290 340
#     4   9  18  34  57  83 111 147 189 231 279 337
#     4  11  21  34  55  85 118 150 185 234 290 340
#     4  10  20  36  60  86 112 145 192 241 282 334
#     4  11  23  39  60  84 113 154 196 235 281 341
#
# _framework density 17.500233999999999
#
# number of rings (size 3 to 8) (size 9 to 14) (size 15 to 20)
#    0.000    1.750    2.500    3.375    0.000    5.000 
#    0.000    1.250    0.000    1.500    0.000    0.000 
#    0.000    0.000    0.000    0.000    0.000    0.000 
#
# Total GULP energy -89361.023432 kJ/mol
# GULP energy per Si atom -5585.063964 kJ/mol
# Density = 1.746040 g / cm^3
# Si number density = 17.500234 Si / 1000 Ang^3
#
#
#
# Elastic Constant Matrix: (Units=GPa)
#
#
# Indices 1 2 3 4 5 6 
#
# 1 92.3951 58.4258 67.7597 0.0000 5.2323 0.0000
# 2 58.4258 73.0246 71.3607 0.0000 3.3684 0.0000
# 3 67.7597 71.3607 154.5292 0.0000 1.6440 0.0000
# 4 0.0000 0.0000 0.0000 80.9861 0.0000 17.2455
# 5 5.2323 3.3684 1.6440 0.0000 22.5726 0.0000
# 6 0.0000 0.0000 0.0000 17.2455 0.0000 28.1316
#
#
#
# Elastic Compliance Matrix: (Units=1/GPa)
#
#
# Indices 1 2 3 4 5 6 
#
# 1 0.022742 -0.015219 -0.002915 0.000000 -0.002788 0.000000
# 2 -0.015219 0.035330 -0.009631 0.000000 -0.001043 0.000000
# 3 -0.002915 -0.009631 0.012184 0.000000 0.001225 0.000000
# 4 0.000000 0.000000 0.000000 0.014202 0.000000 -0.008706
# 5 -0.002788 -0.001043 0.001225 0.000000 0.045014 0.000000
# 6 0.000000 0.000000 0.000000 -0.008706 0.000000 0.040884
#
#
# Mechanical properties :
#
#
# Convention : Reuss Voigt Hill
#
# Bulk Modulus (GPa) = 67.90098 79.44903 73.67501
# Shear Modulus (GPa) = 21.66450 34.49823 28.08137
#
# Velocity S-wave (km/s) = 3.52228 4.44475 4.01013
# Velocity P-wave (km/s) = 7.44488 8.47576 7.97699
#
# Compressibility (1/GPa) = 0.01472733
#
# Stress axis : x y z
#
# Youngs Moduli (GPa) = 43.97160 28.30487 82.07738
#
# Poissons Ratio (x) = 0.43076 0.23922
# Poissons Ratio (y) = 0.66919 0.79046
# Poissons Ratio (z) = 0.12816 0.27259
#
# Static dielectric constant tensor:
#      x y z
#    x 1.567150 0.000000 -0.018540 
#    y 0.000000 1.577320 0.000000 
#    z -0.018540 0.000000 1.598740 
# 
# From -- ./inp_files/3796.got.cif
#   From: 2010.05.17/outbox.cif.g08.bks.cpg/sg6_2_cif.got.tgz:3796.got - 2010.06.03 19:42:10.
