data_PCOD9130865
_publ_section_title
;
Structure prediction by ZEFSAII (Michael W. Deem and Ramdas Pophale) SiO2 
 PCOD9130865
Probable space group: P M
;
_chemical_formula_sum "Si O2"
_cell_formula_units_Z 16
_cell_length_a 10.268143
_cell_length_b 8.839391
_cell_length_c 12.743920
_cell_angle_alpha 90.000000
_cell_angle_beta 41.846736
_cell_angle_gamma 90.000000
_cell_volume 771.675098
_symmetry_space_group_name_H-M "P M"
_symmetry_group_IT_number 6
_symmetry_cell_setting 'monoclinic'
loop_
_space_group_symop_operation_xyz
x,y,z
x,-y,z
loop_
_atom_site_type_symbol
_atom_site_label
_atom_site_fract_x
_atom_site_fract_y
_atom_site_fract_z
Si Si1 0.712120 0.671878 0.552800
Si Si2 0.137461 0.334702 0.403876
Si Si3 0.689068 0.680319 0.173924
Si Si4 0.869899 0.177872 0.259304
Si Si5 0.915356 0.681169 0.824141
Si Si6 0.265687 0.166632 0.148071
Si Si7 0.668074 0.169897 0.788284
Si Si8 0.281376 0.824521 0.506378
O O1 0.642052 0.500000 0.581357
O O2 0.722836 0.759143 0.436822
O O3 0.618033 0.760901 0.704934
O O4 0.932978 0.664975 0.466531
O O5 0.169005 0.500000 0.433078
O O6 0.287387 0.294773 0.222541
O O7 0.155328 0.204166 0.477056
O O8 0.661777 0.500000 0.184797
O O9 0.844153 0.727527 0.169651
O O10 0.487763 0.751742 0.342840
O O11 0.783214 0.730086 0.004838
O O12 0.084445 0.196379 0.180195
O O13 0.835897 0.000000 0.260972
O O14 0.932019 0.500000 0.817954
O O15 0.800011 0.729724 0.787387
O O16 0.136283 0.749869 0.680772
O O17 0.225894 0.000000 0.220774
O O18 0.462918 0.158468 0.968170
O O19 0.751049 0.000000 0.727229
O O20 0.311564 0.000000 0.512202
#
# Coordination Sequence:
#
# PCOD9130865 Si02
#       8
#     2   2   2   2   2   2   2   2
#     4  10  20  35  58  85 119 159 197 246 303 362
#     4  10  19  33  56  85 119 155 195 246 304 368
#     4  11  25  45  67  91 125 168 216 265 316 377
#     4  10  21  41  64  86 118 160 208 258 307 366
#     4  11  24  42  64  93 130 168 209 263 319 378
#     4   9  20  36  57  87 121 159 201 251 309 371
#     4  11  21  35  58  91 126 158 199 254 314 376
#     4  12  24  39  64  94 126 167 211 261 318 378
#
# _framework density 20.734114000000002
#
# number of rings (size 3 to 8) (size 9 to 14) (size 15 to 20)
#    0.000    1.500    1.250    4.125    0.000    6.500 
#    2.250    0.000    0.000    0.000    0.000    0.000 
#    0.000    0.000    0.000    0.000    0.000    0.000 
#
# Total GULP energy -89183.114527 kJ/mol
# GULP energy per Si atom -5573.944658 kJ/mol
# Density = 2.068692 g / cm^3
# Si number density = 20.734114 Si / 1000 Ang^3
#
#
#
# Elastic Constant Matrix: (Units=GPa)
#
#
# Indices 1 2 3 4 5 6 
#
# 1 23.6134 9.3305 21.6159 0.0000 3.6843 0.0000
# 2 9.3305 66.1489 25.6843 0.0000 -13.5182 0.0000
# 3 21.6159 25.6843 113.4382 0.0000 -8.5640 0.0000
# 4 0.0000 0.0000 0.0000 32.8080 0.0000 0.9275
# 5 3.6843 -13.5182 -8.5640 0.0000 30.0840 0.0000
# 6 0.0000 0.0000 0.0000 0.9275 0.0000 27.4001
#
#
#
# Elastic Compliance Matrix: (Units=1/GPa)
#
#
# Indices 1 2 3 4 5 6 
#
# 1 0.056273 -0.006585 -0.010195 0.000000 -0.012753 0.000000
# 2 -0.006585 0.018699 -0.002334 0.000000 0.008544 0.000000
# 3 -0.010195 -0.002334 0.011550 0.000000 0.003488 0.000000
# 4 0.000000 0.000000 0.000000 0.030510 0.000000 -0.001033
# 5 -0.012753 0.008544 0.003488 0.000000 0.039634 0.000000
# 6 0.000000 0.000000 0.000000 -0.001033 0.000000 0.036531
#
#
# Mechanical properties :
#
#
# Convention : Reuss Voigt Hill
#
# Bulk Modulus (GPa) = 20.70663 35.16245 27.93454
# Shear Modulus (GPa) = 20.20026 27.82973 24.01499
#
# Velocity S-wave (km/s) = 3.12469 3.66761 3.40698
# Velocity P-wave (km/s) = 4.79861 5.91022 5.38318
#
# Compressibility (1/GPa) = 0.04829370
#
# Stress axis : x y z
#
# Youngs Moduli (GPa) = 17.77054 53.48008 86.58228
#
# Poissons Ratio (x) = 0.35218 0.88268
# Poissons Ratio (y) = 0.11702 0.20206
# Poissons Ratio (z) = 0.18117 0.12481
#
# Static dielectric constant tensor:
#      x y z
#    x 1.751550 0.000000 -0.033710 
#    y 0.000000 1.761590 0.000000 
#    z -0.033710 0.000000 1.791070 
# 
# From -- ./inp_files/3786.got.cif
#   From: 2010.05.17/outbox.cif.g08.bks.cpg/sg6_2_cif.got.tgz:3786.got - 2010.06.03 19:42:10.
