data_PCOD9130310
_publ_section_title
;
Structure prediction by ZEFSAII (Michael W. Deem and Ramdas Pophale) SiO2 
 PCOD9130310
Probable space group: C 2
;
_chemical_formula_sum "Si O2"
_cell_formula_units_Z 18
_cell_length_a 25.195844
_cell_length_b 5.330799
_cell_length_c 4.773304
_cell_angle_alpha 90.000000
_cell_angle_beta 91.813233
_cell_angle_gamma 90.000000
_cell_volume 640.800435
_symmetry_space_group_name_H-M "C 2"
_symmetry_group_IT_number 5
_symmetry_cell_setting 'monoclinic'
loop_
_space_group_symop_operation_xyz
x,y,z
-x,y,-z
1/2+x,1/2+y,z
1/2-x,1/2+y,-z
loop_
_atom_site_type_symbol
_atom_site_label
_atom_site_fract_x
_atom_site_fract_y
_atom_site_fract_z
Si Si1 0.500000 0.098550 0.000000
Si Si2 0.812714 0.449189 0.611630
Si Si3 0.410069 0.475470 0.048667
Si Si4 0.427687 0.801122 0.576831
Si Si5 0.203976 0.944761 0.755026
O O1 0.452211 0.261543 0.129848
O O2 0.525270 0.938873 0.255208
O O3 0.874758 0.440399 0.680889
O O4 0.803085 0.701070 0.438305
O O5 0.766871 0.442786 0.843340
O O6 0.804277 0.197710 0.426307
O O7 0.421459 0.714860 0.254314
O O8 0.346682 0.430594 0.050267
O O9 0.425001 0.534228 0.733502
#
# Coordination Sequence:
#
# PCOD9130310 Si02
#       5
#     2   4   4   4   4
#     4  12  30  50  80 108 160 210 266 324 390 470
#     4   9  20  44  76 111 151 194 250 317 389 464
#     4  11  28  51  73 112 152 201 261 320 389 464
#     4  11  28  51  73 112 152 201 261 320 389 464
#     4   9  20  44  76 111 151 194 250 317 389 464
#
# _framework density 28.089867000000002
#
# number of rings (size 3 to 8) (size 9 to 14) (size 15 to 20)
#    0.000    1.778    0.000    0.667   12.444    5.333 
#    4.000    2.222    0.000    0.000    0.000    0.000 
#    0.000    0.000    0.000    0.000    0.000    0.000 
#
# Total GULP energy -50399.553265 kJ/mol
# GULP energy per Si atom -5599.950363 kJ/mol
# Density = 2.802593 g / cm^3
# Si number density = 28.089867 Si / 1000 Ang^3
#
#
#
# Elastic Constant Matrix: (Units=GPa)
#
#
# Indices 1 2 3 4 5 6 
#
# 1 182.1057 14.9494 34.4757 0.0000 7.0303 0.0000
# 2 14.9494 129.5229 28.9779 0.0000 -4.3693 0.0000
# 3 34.4757 28.9779 120.9196 0.0000 -2.3169 0.0000
# 4 0.0000 0.0000 0.0000 14.9707 0.0000 -17.1128
# 5 7.0303 -4.3693 -2.3169 0.0000 37.5738 0.0000
# 6 0.0000 0.0000 0.0000 -17.1128 0.0000 75.4945
#
#
#
# Elastic Compliance Matrix: (Units=1/GPa)
#
#
# Indices 1 2 3 4 5 6 
#
# 1 0.005874 -0.000359 -0.001612 0.000000 -0.001240 0.000000
# 2 -0.000359 0.008206 -0.001847 0.000000 0.000908 0.000000
# 3 -0.001612 -0.001847 0.009185 0.000000 0.000653 0.000000
# 4 0.000000 0.000000 0.000000 0.090158 0.000000 0.020437
# 5 -0.001240 0.000908 0.000653 0.000000 0.026992 0.000000
# 6 0.000000 0.000000 0.000000 0.020437 0.000000 0.017878
#
#
# Mechanical properties :
#
#
# Convention : Reuss Voigt Hill
#
# Bulk Modulus (GPa) = 63.98740 65.48381 64.73560
# Shear Modulus (GPa) = 29.21604 49.21747 39.21676
#
# Velocity S-wave (km/s) = 3.22854 4.19040 3.74052
# Velocity P-wave (km/s) = 6.06028 6.83926 6.46152
#
# Compressibility (1/GPa) = 0.01562808
#
# Stress axis : x y z
#
# Youngs Moduli (GPa) = 170.24356 121.86405 108.87583
#
# Poissons Ratio (x) = 0.04376 0.17556
# Poissons Ratio (y) = 0.06113 0.20107
# Poissons Ratio (z) = 0.27451 0.22505
#
# Static dielectric constant tensor:
#      x y z
#    x 2.326910 0.000000 -0.068900 
#    y 0.000000 2.201220 0.000000 
#    z -0.068900 0.000000 2.115790 
# 
# From -- ./inp_files/9992.got.cif
#   From: 2010.05.17/outbox.cif.g08.bks.cpg/sg5_5_cif.got.tgz:9992.got - 2010.06.03 18:56:24.
