data_PCOD9130393
_publ_section_title
;
Structure prediction by ZEFSAII (Michael W. Deem and Ramdas Pophale) SiO2 
 PCOD9130393
Probable space group: C 2
;
_chemical_formula_sum "Si O2"
_cell_formula_units_Z 28
_cell_length_a 29.232127
_cell_length_b 5.394979
_cell_length_c 7.340927
_cell_angle_alpha 90.000000
_cell_angle_beta 89.279142
_cell_angle_gamma 90.000000
_cell_volume 1157.621829
_symmetry_space_group_name_H-M "C 2"
_symmetry_group_IT_number 5
_symmetry_cell_setting 'monoclinic'
loop_
_space_group_symop_operation_xyz
x,y,z
-x,y,-z
1/2+x,1/2+y,z
1/2-x,1/2+y,-z
loop_
_atom_site_type_symbol
_atom_site_label
_atom_site_fract_x
_atom_site_fract_y
_atom_site_fract_z
Si Si1 0.156938 0.777590 0.657297
Si Si2 0.340241 0.962907 0.714560
Si Si3 0.000000 0.396979 0.500000
Si Si4 0.279315 0.177971 0.016855
Si Si5 0.278608 0.621600 0.519973
Si Si6 0.500000 0.436338 0.000000
Si Si7 0.058295 0.654454 0.780252
Si Si8 0.437642 0.819453 0.857094
O O1 0.154601 0.613199 0.474202
O O2 0.192980 0.661148 0.796022
O O3 0.106453 0.784522 0.742757
O O4 0.179264 0.044723 0.612807
O O5 0.303922 0.740291 0.690368
O O6 0.387503 0.849546 0.780241
O O7 0.247536 0.856561 0.457921
O O8 0.954708 0.502852 0.398719
O O9 0.973766 0.311508 0.687991
O O10 0.254243 0.442436 0.003348
O O11 0.317883 0.147252 0.860564
O O12 0.512045 0.310470 0.808717
O O13 0.452826 0.578554 0.966514
O O14 0.058570 0.520458 0.978440
#
# Coordination Sequence:
#
# PCOD9130393 Si02
#       8
#     4   4   2   4   4   2   4   4
#     4  12  29  50  82 118 162 214 274 340 407 488
#     4  12  29  50  82 118 162 214 274 340 407 488
#     4  12  22  48  84 106 158 216 254 324 412 484
#     4  12  32  49  82 121 164 217 274 339 416 482
#     4  12  28  51  84 117 166 217 276 337 404 484
#     4  12  26  48  80 114 166 204 258 340 396 490
#     4  12  26  51  77 119 164 202 268 333 405 486
#     4  12  26  51  77 119 164 202 268 333 405 486
#
# _framework density 24.187515999999999
#
# number of rings (size 3 to 8) (size 9 to 14) (size 15 to 20)
#    0.000    0.000    7.143    0.857    8.000    6.286 
#    0.000    0.000    0.000    0.000    0.000    0.000 
#    0.000    0.000    0.000    0.000    0.000    0.000 
#
# Total GULP energy -78102.393233 kJ/mol
# GULP energy per Si atom -5578.742374 kJ/mol
# Density = 2.413246 g / cm^3
# Si number density = 24.187516 Si / 1000 Ang^3
#
#
#
# Elastic Constant Matrix: (Units=GPa)
#
#
# Indices 1 2 3 4 5 6 
#
# 1 85.3124 21.6715 14.9890 0.0000 5.3908 0.0000
# 2 21.6715 89.8915 21.2347 0.0000 -7.1417 0.0000
# 3 14.9890 21.2347 129.9830 0.0000 0.4459 0.0000
# 4 0.0000 0.0000 0.0000 37.9397 0.0000 0.9451
# 5 5.3908 -7.1417 0.4459 0.0000 62.7428 0.0000
# 6 0.0000 0.0000 0.0000 0.9451 0.0000 30.2542
#
#
#
# Elastic Compliance Matrix: (Units=1/GPa)
#
#
# Indices 1 2 3 4 5 6 
#
# 1 0.012734 -0.002951 -0.000981 0.000000 -0.001423 0.000000
# 2 -0.002951 0.012367 -0.001686 0.000000 0.001673 0.000000
# 3 -0.000981 -0.001686 0.008082 0.000000 -0.000165 0.000000
# 4 0.000000 0.000000 0.000000 0.026378 0.000000 -0.000824
# 5 -0.001423 0.001673 -0.000165 0.000000 0.016252 0.000000
# 6 0.000000 0.000000 0.000000 -0.000824 0.000000 0.033079
#
#
# Mechanical properties :
#
#
# Convention : Reuss Voigt Hill
#
# Bulk Modulus (GPa) = 45.56505 46.77523 46.17014
# Shear Modulus (GPa) = 39.23276 42.67344 40.95310
#
# Velocity S-wave (km/s) = 4.03181 4.20488 4.11925
# Velocity P-wave (km/s) = 6.36813 6.55403 6.46175
#
# Compressibility (1/GPa) = 0.02194665
#
# Stress axis : x y z
#
# Youngs Moduli (GPa) = 78.53225 80.85931 123.72487
#
# Poissons Ratio (x) = 0.23862 0.12142
# Poissons Ratio (y) = 0.23176 0.20857
# Poissons Ratio (z) = 0.07707 0.13631
#
# Static dielectric constant tensor:
#      x y z
#    x 1.926120 0.000000 -0.047160 
#    y 0.000000 2.046460 0.000000 
#    z -0.047160 0.000000 1.908170 
# 
# From -- ./inp_files/31441.got.cif
#   From: 2010.05.17/outbox.cif.g08.bks.cpg/sg5_16_cif.got.tgz:31441.got - 2010.06.03 18:56:24.
