data_PCOD9130961
_publ_section_title
;
Structure prediction by ZEFSAII (Michael W. Deem and Ramdas Pophale) SiO2 
 PCOD9130961
Probable space group: P M
;
_chemical_formula_sum "Si O2"
_cell_formula_units_Z 16
_cell_length_a 12.838690
_cell_length_b 9.020146
_cell_length_c 12.523620
_cell_angle_alpha 90.000000
_cell_angle_beta 34.726377
_cell_angle_gamma 90.000000
_cell_volume 826.186937
_symmetry_space_group_name_H-M "P M"
_symmetry_group_IT_number 6
_symmetry_cell_setting 'monoclinic'
loop_
_space_group_symop_operation_xyz
x,y,z
x,-y,z
loop_
_atom_site_type_symbol
_atom_site_label
_atom_site_fract_x
_atom_site_fract_y
_atom_site_fract_z
Si Si1 0.796560 0.822046 0.463110
Si Si2 0.774633 0.669836 0.891626
Si Si3 0.589533 0.174012 0.854602
Si Si4 0.324876 0.176778 0.536952
Si Si5 0.921936 0.175976 0.970719
Si Si6 0.183633 0.329938 0.449905
Si Si7 0.180111 0.174299 0.224852
Si Si8 0.677617 0.323290 0.348020
O O1 0.710536 0.785117 0.650811
O O2 0.701701 0.736093 0.447541
O O3 0.010773 0.784123 0.293079
O O4 0.776754 0.000000 0.463435
O O5 0.732112 0.500000 0.956250
O O6 0.637853 0.733631 0.918924
O O7 0.974588 0.672898 0.667776
O O8 0.796205 0.769713 0.978103
O O9 0.623829 0.000000 0.849382
O O10 0.377109 0.191792 0.005676
O O11 0.298708 0.236491 0.438629
O O12 0.494000 0.255949 0.451007
O O13 0.351937 0.000000 0.513222
O O14 0.132296 0.207813 0.760435
O O15 0.848348 0.261286 0.135569
O O16 0.903752 0.000000 0.001101
O O17 0.246388 0.500000 0.396468
O O18 0.183423 0.262567 0.332524
O O19 0.154994 0.000000 0.272711
O O20 0.672444 0.500000 0.348399
#
# Coordination Sequence:
#
# PCOD9130961 Si02
#       8
#     2   2   2   2   2   2   2   2
#     4  10  22  42  62  84 120 162 211 260 299 354
#     4  10  20  35  58  89 127 162 196 246 308 366
#     4  10  21  37  60  88 117 157 205 251 299 357
#     4  10  22  41  65  91 121 162 210 256 303 364
#     4  10  22  41  65  91 121 162 210 256 303 364
#     4  10  20  35  58  89 127 162 196 246 308 366
#     4  10  21  37  60  88 117 157 205 251 299 357
#     4  12  26  42  64  92 126 164 205 256 317 376
#
# _framework density 19.366078999999999
#
# number of rings (size 3 to 8) (size 9 to 14) (size 15 to 20)
#    0.000    1.750    1.250    2.625    1.750    5.000 
#    0.000    2.500    0.000    0.000    0.000    0.000 
#    0.000    0.000    0.000    0.000    0.000    0.000 
#
# Total GULP energy -89427.030405 kJ/mol
# GULP energy per Si atom -5589.189400 kJ/mol
# Density = 1.932200 g / cm^3
# Si number density = 19.366079 Si / 1000 Ang^3
#
#
#
# Elastic Constant Matrix: (Units=GPa)
#
#
# Indices 1 2 3 4 5 6 
#
# 1 90.8798 41.3113 8.3232 0.0000 -10.9134 0.0000
# 2 41.3113 82.3587 23.6104 0.0000 -9.2292 0.0000
# 3 8.3232 23.6104 27.5174 0.0000 -8.4645 0.0000
# 4 0.0000 0.0000 0.0000 -32.3366 0.0000 -102.7912
# 5 -10.9134 -9.2292 -8.4645 0.0000 21.4187 0.0000
# 6 0.0000 0.0000 0.0000 -102.7912 0.0000 -164.8101
#
#
#
# Elastic Compliance Matrix: (Units=1/GPa)
#
#
# Indices 1 2 3 4 5 6 
#
# 1 0.014983 -0.008060 0.004171 0.000000 0.005809 0.000000
# 2 -0.008060 0.020492 -0.015587 0.000000 -0.001437 0.000000
# 3 0.004171 -0.015587 0.053550 0.000000 0.016571 0.000000
# 4 0.000000 0.000000 0.000000 0.031473 0.000000 -0.019629
# 5 0.005809 -0.001437 0.016571 0.000000 0.055578 0.000000
# 6 0.000000 0.000000 0.000000 -0.019629 0.000000 0.006175
#
#
# Mechanical properties :
#
#
# Convention : Reuss Voigt Hill
#
# Bulk Modulus (GPa) = 19.97067 38.58287 29.27677
# Shear Modulus (GPa) = 21.01771 -26.64486 -2.81357
#
# Velocity S-wave (km/s) = 3.29794 -3.71327 -1.20664
# Velocity P-wave (km/s) = 4.98362 1.25763 3.63443
#
# Compressibility (1/GPa) = 0.05007344
#
# Stress axis : x y z
#
# Youngs Moduli (GPa) = 66.74165 48.79853 18.67410
#
# Poissons Ratio (x) = 0.39333 -0.07789
# Poissons Ratio (y) = 0.53795 0.29107
# Poissons Ratio (z) = -0.27837 0.76061
#
# Static dielectric constant tensor:
#      x y z
#    x 1.635350 0.000000 -0.022840 
#    y 0.000000 1.658020 0.000000 
#    z -0.022840 0.000000 1.695580 
# 
# From -- ./inp_files/5043.got.cif
#   From: 2010.05.17/outbox.cif.g08.bks.cpg/sg6_3_cif.got.tgz:5043.got - 2010.06.03 19:42:10.
