data_PCOD9130289
_publ_section_title
;
Structure prediction by ZEFSAII (Michael W. Deem and Ramdas Pophale) SiO2 
 PCOD9130289
Probable space group: C 2
;
_chemical_formula_sum "Si O2"
_cell_formula_units_Z 16
_cell_length_a 6.245827
_cell_length_b 20.648234
_cell_length_c 4.821372
_cell_angle_alpha 90.000000
_cell_angle_beta 92.004629
_cell_angle_gamma 90.000000
_cell_volume 621.409141
_symmetry_space_group_name_H-M "C 2"
_symmetry_group_IT_number 5
_symmetry_cell_setting 'monoclinic'
loop_
_space_group_symop_operation_xyz
x,y,z
-x,y,-z
1/2+x,1/2+y,z
1/2-x,1/2+y,-z
loop_
_atom_site_type_symbol
_atom_site_label
_atom_site_fract_x
_atom_site_fract_y
_atom_site_fract_z
Si Si1 0.767299 0.066230 0.895076
Si Si2 0.000000 0.453057 0.000000
Si Si3 0.281441 0.159752 0.612421
Si Si4 0.500000 0.749381 0.000000
Si Si5 0.832644 0.851429 0.239426
O O1 0.325148 0.103723 0.840014
O O2 0.799428 0.119047 0.655946
O O3 0.637412 0.002127 0.817420
O O4 0.000000 0.043516 0.000000
O O5 0.834617 0.410462 0.813651
O O6 0.500000 0.190240 0.500000
O O7 0.138156 0.209148 0.781420
O O8 0.329356 0.790921 0.813617
O O9 0.000000 0.853240 0.500000
O O10 0.000000 0.850617 0.000000
#
# Coordination Sequence:
#
# PCOD9130289 Si02
#       5
#     4   2   4   2   4
#     4  12  26  47  79 124 171 219 273 343 432 515
#     4  11  26  54  88 122 174 219 284 364 426 503
#     4  12  26  51  79 122 175 227 272 340 428 518
#     4  11  30  56  88 122 184 223 284 356 428 503
#     4  11  29  56  87 123 162 229 295 358 420 497
#
# _framework density 25.747934000000001
#
# number of rings (size 3 to 8) (size 9 to 14) (size 15 to 20)
#    0.000    0.500    3.750    1.500    0.000   17.000 
#    4.500    0.000    0.000    3.000    0.000    0.000 
#    0.000    0.000    0.000    0.000    0.000    0.000 
#
# Total GULP energy -44784.730138 kJ/mol
# GULP energy per Si atom -5598.091267 kJ/mol
# Density = 2.568933 g / cm^3
# Si number density = 25.747934 Si / 1000 Ang^3
#
#
#
# Elastic Constant Matrix: (Units=GPa)
#
#
# Indices 1 2 3 4 5 6 
#
# 1 233.9533 125.6685 96.8308 0.0000 11.5480 0.0000
# 2 125.6685 177.9013 69.7625 0.0000 9.6282 0.0000
# 3 96.8308 69.7625 196.2245 0.0000 9.4690 0.0000
# 4 0.0000 0.0000 0.0000 18.4603 0.0000 1.9813
# 5 11.5480 9.6282 9.4690 0.0000 70.7203 0.0000
# 6 0.0000 0.0000 0.0000 1.9813 0.0000 27.3369
#
#
#
# Elastic Compliance Matrix: (Units=1/GPa)
#
#
# Indices 1 2 3 4 5 6 
#
# 1 0.007596 -0.004513 -0.002127 0.000000 -0.000341 0.000000
# 2 -0.004513 0.009237 -0.001039 0.000000 -0.000382 0.000000
# 3 -0.002127 -0.001039 0.006534 0.000000 -0.000386 0.000000
# 4 0.000000 0.000000 0.000000 0.054595 0.000000 -0.003957
# 5 -0.000341 -0.000382 -0.000386 0.000000 0.014300 0.000000
# 6 0.000000 0.000000 0.000000 -0.003957 0.000000 0.036867
#
#
# Mechanical properties :
#
#
# Convention : Reuss Voigt Hill
#
# Bulk Modulus (GPa) = 124.86159 132.51140 128.68649
# Shear Modulus (GPa) = 33.97756 44.35798 39.16777
#
# Velocity S-wave (km/s) = 3.63660 4.15514 3.90449
# Velocity P-wave (km/s) = 8.13832 8.63695 8.39134
#
# Compressibility (1/GPa) = 0.00800887
#
# Stress axis : x y z
#
# Youngs Moduli (GPa) = 131.65087 108.26107 153.04890
#
# Poissons Ratio (x) = 0.48858 0.32560
# Poissons Ratio (y) = 0.59414 0.15894
# Poissons Ratio (z) = 0.28007 0.11243
#
# Static dielectric constant tensor:
#      x y z
#    x 2.147220 0.000000 0.055700 
#    y 0.000000 2.026590 0.000000 
#    z 0.055700 0.000000 1.952640 
# 
# From -- ./inp_files/691.got.cif
#   From: 2010.05.17/outbox.cif.g08.bks.cpg/sg5_1_cif.got.tgz:691.got - 2010.06.03 18:56:24.
