data_PCOD9130459
_publ_section_title
;
Structure prediction by ZEFSAII (Michael W. Deem and Ramdas Pophale) SiO2 
 PCOD9130459
Probable space group: C 2
;
_chemical_formula_sum "Si O2"
_cell_formula_units_Z 24
_cell_length_a 15.826328
_cell_length_b 7.452265
_cell_length_c 11.132651
_cell_angle_alpha 90.000000
_cell_angle_beta 132.577361
_cell_angle_gamma 90.000000
_cell_volume 966.851729
_symmetry_space_group_name_H-M "C 2"
_symmetry_group_IT_number 5
_symmetry_cell_setting 'monoclinic'
loop_
_space_group_symop_operation_xyz
x,y,z
-x,y,-z
1/2+x,1/2+y,z
1/2-x,1/2+y,-z
loop_
_atom_site_type_symbol
_atom_site_label
_atom_site_fract_x
_atom_site_fract_y
_atom_site_fract_z
Si Si1 0.001743 0.260000 0.746937
Si Si2 0.156791 0.604363 0.410209
Si Si3 0.649976 0.607467 0.201286
Si Si4 0.274605 0.881839 0.932098
Si Si5 0.135765 0.696051 0.127803
Si Si6 0.511471 0.391994 0.649284
O O1 0.740241 0.599538 0.398010
O O2 0.964868 0.173234 0.840287
O O3 0.986148 0.102125 0.637438
O O4 0.919466 0.427496 0.647131
O O5 0.077232 0.775852 0.360209
O O6 0.191273 0.623193 0.304889
O O7 0.867711 0.327544 0.120941
O O8 0.643875 0.410728 0.136668
O O9 0.306661 0.082763 0.921772
O O10 0.303042 0.751331 0.847560
O O11 0.139674 0.867473 0.823582
O O12 0.000000 0.648671 0.000000
O O13 0.500000 0.334863 0.500000
#
# Coordination Sequence:
#
# PCOD9130459 Si02
#       6
#     4   4   4   4   4   4
#     4  12  27  47  77 106 143 194 246 294 365 429
#     4  12  26  46  73 108 148 187 241 300 359 432
#     4  12  25  44  77 108 140 188 245 297 360 427
#     4  12  27  49  72 109 146 185 245 302 356 437
#     4  12  24  44  76 108 143 185 241 301 359 424
#     4  12  30  51  70 106 152 194 239 298 367 432
#
# _framework density 24.822835000000001
#
# number of rings (size 3 to 8) (size 9 to 14) (size 15 to 20)
#    0.000    0.000    6.667    2.500    7.000    2.000 
#    0.000    0.000    0.000    0.000    0.000    0.000 
#    0.000    0.000    0.000    0.000    0.000    0.000 
#
# Total GULP energy -67370.516057 kJ/mol
# GULP energy per Si atom -5614.209671 kJ/mol
# Density = 2.476634 g / cm^3
# Si number density = 24.822835 Si / 1000 Ang^3
#
#
#
# Elastic Constant Matrix: (Units=GPa)
#
#
# Indices 1 2 3 4 5 6 
#
# 1 36.9870 16.1388 12.2523 0.0000 14.1242 0.0000
# 2 16.1388 146.9549 41.7144 0.0000 12.6240 0.0000
# 3 12.2523 41.7144 103.8341 0.0000 22.2639 0.0000
# 4 0.0000 0.0000 0.0000 37.7625 0.0000 -7.4766
# 5 14.1242 12.6240 22.2639 0.0000 37.2798 0.0000
# 6 0.0000 0.0000 0.0000 -7.4766 0.0000 35.9195
#
#
#
# Elastic Compliance Matrix: (Units=1/GPa)
#
#
# Indices 1 2 3 4 5 6 
#
# 1 0.032555 -0.002487 -0.000434 0.000000 -0.011233 0.000000
# 2 -0.002487 0.007895 -0.002875 0.000000 -0.000014 0.000000
# 3 -0.000434 -0.002875 0.012149 0.000000 -0.006117 0.000000
# 4 0.000000 0.000000 0.000000 0.027620 0.000000 0.005749
# 5 -0.011233 -0.000014 -0.006117 0.000000 0.034738 0.000000
# 6 0.000000 0.000000 0.000000 0.005749 0.000000 0.029037
#
#
# Mechanical properties :
#
#
# Convention : Reuss Voigt Hill
#
# Bulk Modulus (GPa) = 24.38639 47.55412 35.97026
# Shear Modulus (GPa) = 29.54128 36.70373 33.12250
#
# Velocity S-wave (km/s) = 3.45350 3.84946 3.65685
# Velocity P-wave (km/s) = 5.07422 6.24154 5.68791
#
# Compressibility (1/GPa) = 0.04100647
#
# Stress axis : x y z
#
# Youngs Moduli (GPa) = 30.71732 126.65659 82.31299
#
# Poissons Ratio (x) = 0.31501 0.03570
# Poissons Ratio (y) = 0.07640 0.23668
# Poissons Ratio (z) = 0.01332 0.36419
#
# Static dielectric constant tensor:
#      x y z
#    x 1.936870 0.000000 -0.003010 
#    y 0.000000 1.916390 0.000000 
#    z -0.003010 0.000000 1.952050 
# 
# From -- ./inp_files/63195.got.cif
#   From: 2010.05.17/outbox.cif.g08.bks.cpg/sg5_32_cif.got.tgz:63195.got - 2010.06.03 18:56:24.
