data_PCOD9130364
_publ_section_title
;
Structure prediction by ZEFSAII (Michael W. Deem and Ramdas Pophale) SiO2 
 PCOD9130364
Probable space group: C 2
;
_chemical_formula_sum "Si O2"
_cell_formula_units_Z 32
_cell_length_a 14.176292
_cell_length_b 26.542158
_cell_length_c 8.874422
_cell_angle_alpha 90.000000
_cell_angle_beta 28.584800
_cell_angle_gamma 90.000000
_cell_volume 1597.657246
_symmetry_space_group_name_H-M "C 2"
_symmetry_group_IT_number 5
_symmetry_cell_setting 'monoclinic'
loop_
_space_group_symop_operation_xyz
x,y,z
-x,y,-z
1/2+x,1/2+y,z
1/2-x,1/2+y,-z
loop_
_atom_site_type_symbol
_atom_site_label
_atom_site_fract_x
_atom_site_fract_y
_atom_site_fract_z
Si Si1 0.811315 0.630260 0.697005
Si Si2 0.593314 0.810007 0.206370
Si Si3 0.544625 0.549716 0.114394
Si Si4 0.021884 0.212973 0.804910
Si Si5 0.300187 0.121508 0.369367
Si Si6 0.720852 0.949046 0.248521
Si Si7 0.861810 0.392090 0.330154
Si Si8 0.539900 0.368640 0.275502
O O1 0.851969 0.613802 0.471262
O O2 0.000000 0.655347 0.500000
O O3 0.736514 0.581759 0.891817
O O4 0.636500 0.669153 0.950440
O O5 0.500000 0.819034 0.500000
O O6 0.533669 0.754492 0.237478
O O7 0.492006 0.849997 0.234177
O O8 0.829461 0.818381 0.881823
O O9 0.357955 0.577561 0.453347
O O10 0.500000 0.560229 0.000000
O O11 0.618896 0.492688 0.010790
O O12 0.209184 0.178555 0.495251
O O13 0.000000 0.239337 0.000000
O O14 0.500000 0.118168 0.000000
O O15 0.500000 0.961450 0.500000
O O16 0.701828 0.932443 0.451336
O O17 0.807533 0.902719 0.031951
O O18 0.664026 0.368426 0.531874
O O19 0.000000 0.412415 0.000000
O O20 0.500000 0.389092 0.500000
#
# Coordination Sequence:
#
# PCOD9130364 Si02
#       8
#     4   4   4   4   4   4   4   4
#     4   9  18  37  61  88 121 161 206 262 321 383
#     4  12  24  43  62  95 130 173 226 274 325 398
#     4   9  19  37  63  91 124 168 206 263 323 390
#     4   9  21  40  61  87 127 169 214 264 329 389
#     4   9  19  40  64  91 130 163 209 268 328 389
#     4  12  22  42  66  95 129 172 226 268 334 398
#     4  12  23  43  66  90 132 176 219 282 329 378
#     4  12  24  42  64  90 128 176 220 273 327 385
#
# _framework density 20.029329000000001
#
# number of rings (size 3 to 8) (size 9 to 14) (size 15 to 20)
#    0.000    1.500    3.750    3.375    0.000    1.500 
#    4.500   11.250    0.000    1.500    0.000    0.000 
#    0.000    0.000    0.000    0.000    0.000    0.000 
#
# Total GULP energy -89096.519978 kJ/mol
# GULP energy per Si atom -5568.532499 kJ/mol
# Density = 1.998374 g / cm^3
# Si number density = 20.029329 Si / 1000 Ang^3
#
#
#
# Elastic Constant Matrix: (Units=GPa)
#
#
# Indices 1 2 3 4 5 6 
#
# 1 93.0153 22.0042 43.5331 -0.0001 -9.6376 0.0000
# 2 22.0042 70.8727 45.9077 0.0000 6.8353 0.0000
# 3 43.5331 45.9077 149.9768 -0.0003 2.1424 0.0001
# 4 -0.0001 0.0000 -0.0003 -42.0813 0.0001 30.2189
# 5 -9.6376 6.8353 2.1424 0.0001 36.3372 0.0000
# 6 0.0000 0.0000 0.0001 30.2189 0.0000 7.9670
#
#
#
# Elastic Compliance Matrix: (Units=1/GPa)
#
#
# Indices 1 2 3 4 5 6 
#
# 1 0.013240 -0.002475 -0.003145 0.000000 0.004162 0.000000
# 2 -0.002475 0.018394 -0.004857 0.000000 -0.003830 0.000000
# 3 -0.003145 -0.004857 0.009074 0.000000 -0.000455 0.000000
# 4 0.000000 0.000000 0.000000 -0.006382 0.000000 0.024205
# 5 0.004162 -0.003830 -0.000455 0.000000 0.029371 0.000000
# 6 0.000000 0.000000 0.000000 0.024205 0.000000 0.033707
#
#
# Mechanical properties :
#
#
# Convention : Reuss Voigt Hill
#
# Bulk Modulus (GPa) = 50.62470 59.63943 55.13206
# Shear Modulus (GPa) = 40.01842 13.93925 26.97883
#
# Velocity S-wave (km/s) = 4.47474 2.64093 3.67409
# Velocity P-wave (km/s) = 7.21303 6.25620 6.75159
#
# Compressibility (1/GPa) = 0.01975320
#
# Stress axis : x y z
#
# Youngs Moduli (GPa) = 75.53120 54.36603 110.20683
#
# Poissons Ratio (x) = 0.13455 0.34659
# Poissons Ratio (y) = 0.18693 0.53530
# Poissons Ratio (z) = 0.23754 0.26407
#
# Static dielectric constant tensor:
#      x y z
#    x 1.746710 0.000000 -0.001290 
#    y 0.000000 1.765510 0.000000 
#    z -0.001290 0.000000 1.740020 
# 
# From -- ./inp_files/25694.got.cif
#   From: 2010.05.17/outbox.cif.g08.bks.cpg/sg5_13_cif.got.tgz:25694.got - 2010.06.03 18:56:24.
