data_PCOD9130613
_publ_section_title
;
Structure prediction by ZEFSAII (Michael W. Deem and Ramdas Pophale) SiO2 
 PCOD9130613
Probable space group: C 2
;
_chemical_formula_sum "Si O2"
_cell_formula_units_Z 16
_cell_length_a 18.350603
_cell_length_b 5.017176
_cell_length_c 10.063126
_cell_angle_alpha 90.000000
_cell_angle_beta 136.460057
_cell_angle_gamma 90.000000
_cell_volume 638.224707
_symmetry_space_group_name_H-M "C 2"
_symmetry_group_IT_number 5
_symmetry_cell_setting 'monoclinic'
loop_
_space_group_symop_operation_xyz
x,y,z
-x,y,-z
1/2+x,1/2+y,z
1/2-x,1/2+y,-z
loop_
_atom_site_type_symbol
_atom_site_label
_atom_site_fract_x
_atom_site_fract_y
_atom_site_fract_z
Si Si1 0.992228 0.115350 0.630436
Si Si2 0.679742 0.285072 0.934138
Si Si3 0.589714 0.928731 0.010421
Si Si4 0.728988 0.371608 0.560877
O O1 0.879971 0.994116 0.526444
O O2 0.000000 0.267742 0.500000
O O3 0.078466 0.883200 0.720790
O O4 0.038945 0.281633 0.816342
O O5 0.764085 0.520583 0.043760
O O6 0.634610 0.209051 0.018149
O O7 0.690811 0.797462 0.214688
O O8 0.500000 0.958922 0.000000
O O9 0.717268 0.108936 0.454979
#
# Coordination Sequence:
#
# PCOD9130613 Si02
#       4
#     4   4   4   4
#     4  12  29  52  85 128 169 222 283 345 425 508
#     4  12  27  52  82 122 164 224 276 345 417 491
#     4  12  27  54  87 123 170 220 278 352 418 500
#     4  12  29  53  84 125 168 221 284 347 418 502
#
# _framework density 25.069538000000001
#
# number of rings (size 3 to 8) (size 9 to 14) (size 15 to 20)
#    0.000    0.000    5.000    3.000    3.500    2.000 
#    0.000    0.000    0.000    0.000    0.000    0.000 
#    0.000    0.000    0.000    0.000    0.000    0.000 
#
# Total GULP energy -44828.791614 kJ/mol
# GULP energy per Si atom -5603.598952 kJ/mol
# Density = 2.501248 g / cm^3
# Si number density = 25.069538 Si / 1000 Ang^3
#
#
#
# Elastic Constant Matrix: (Units=GPa)
#
#
# Indices 1 2 3 4 5 6 
#
# 1 189.8011 65.7940 92.2604 0.0000 11.6697 0.0000
# 2 65.7940 137.4601 52.5816 0.0000 -9.8323 0.0000
# 3 92.2604 52.5816 167.1844 0.0000 -7.6460 0.0000
# 4 0.0000 0.0000 0.0000 45.1111 0.0000 -9.3035
# 5 11.6697 -9.8323 -7.6460 0.0000 55.1110 0.0000
# 6 0.0000 0.0000 0.0000 -9.3035 0.0000 25.4827
#
#
#
# Elastic Compliance Matrix: (Units=1/GPa)
#
#
# Indices 1 2 3 4 5 6 
#
# 1 0.008221 -0.002669 -0.003823 0.000000 -0.002747 0.000000
# 2 -0.002669 0.009206 -0.001330 0.000000 0.002023 0.000000
# 3 -0.003823 -0.001330 0.008590 0.000000 0.001764 0.000000
# 4 0.000000 0.000000 0.000000 0.023972 0.000000 0.008752
# 5 -0.002747 0.002023 0.001764 0.000000 0.019333 0.000000
# 6 0.000000 0.000000 0.000000 0.008752 0.000000 0.042438
#
#
# Mechanical properties :
#
#
# Convention : Reuss Voigt Hill
#
# Bulk Modulus (GPa) = 96.40372 101.74641 99.07507
# Shear Modulus (GPa) = 38.20834 44.06159 41.13497
#
# Velocity S-wave (km/s) = 3.90820 4.19689 4.05512
# Velocity P-wave (km/s) = 7.67485 8.00993 7.84418
#
# Compressibility (1/GPa) = 0.01037304
#
# Stress axis : x y z
#
# Youngs Moduli (GPa) = 121.63723 108.62716 116.41337
#
# Poissons Ratio (x) = 0.28994 0.44505
# Poissons Ratio (y) = 0.32466 0.15481
# Poissons Ratio (z) = 0.46502 0.14446
#
# Static dielectric constant tensor:
#      x y z
#    x 1.979080 0.000000 -0.057920 
#    y 0.000000 2.047130 0.000000 
#    z -0.057920 0.000000 2.049820 
# 
# From -- ./inp_files/25895.got.cif
#   From: 2010.05.17/outbox.cif.g08.bks.cpg/sg5_13_cif.got.tgz:25895.got - 2010.06.03 18:56:24.
