data_PCOD9130055
_publ_section_title
;
Structure prediction by ZEFSAII (Michael W. Deem and Ramdas Pophale) SiO2 
 PCOD9130055
Probable space group: C 2
;
_chemical_formula_sum "Si O2"
_cell_formula_units_Z 18
_cell_length_a 11.942965
_cell_length_b 10.752009
_cell_length_c 5.477073
_cell_angle_alpha 90.000000
_cell_angle_beta 91.792709
_cell_angle_gamma 90.000000
_cell_volume 702.971455
_symmetry_space_group_name_H-M "C 2"
_symmetry_group_IT_number 5
_symmetry_cell_setting 'monoclinic'
loop_
_space_group_symop_operation_xyz
x,y,z
-x,y,-z
1/2+x,1/2+y,z
1/2-x,1/2+y,-z
loop_
_atom_site_type_symbol
_atom_site_label
_atom_site_fract_x
_atom_site_fract_y
_atom_site_fract_z
Si Si1 0.000000 0.485400 0.000000
Si Si2 0.375183 0.452489 0.976300
Si Si3 0.684659 0.176321 0.153142
Si Si4 0.593699 0.779425 0.663322
Si Si5 0.751978 0.486472 0.518116
O O1 0.890029 0.572120 0.988312
O O2 0.022929 0.388120 0.786730
O O3 0.373487 0.306196 0.905029
O O4 0.314150 0.508773 0.735638
O O5 0.500000 0.500734 0.000000
O O6 0.317826 0.465738 0.236954
O O7 0.819432 0.209589 0.147518
O O8 0.678983 0.112273 0.420969
O O9 0.500000 0.706398 0.500000
O O10 0.680078 0.859522 0.508023
#
# Coordination Sequence:
#
# PCOD9130055 Si02
#       5
#     2   4   4   4   4
#     4  12  24  52  74 108 152 206 246 324 374 454
#     4  11  25  47  73 110 151 193 257 312 372 466
#     4  11  24  46  75 107 144 206 246 308 391 437
#     4  11  26  46  73 108 152 195 259 313 372 466
#     4  11  25  47  71 111 151 195 254 316 375 456
#
# _framework density 25.605592000000001
#
# number of rings (size 3 to 8) (size 9 to 14) (size 15 to 20)
#    0.000    0.889    3.333    3.333    0.000    8.889 
#   10.000    0.000    0.000    0.000    0.000    0.000 
#    0.000    0.000    0.000    0.000    0.000    0.000 
#
# Total GULP energy -50198.301678 kJ/mol
# GULP energy per Si atom -5577.589075 kJ/mol
# Density = 2.554731 g / cm^3
# Si number density = 25.605592 Si / 1000 Ang^3
#
#
#
# Elastic Constant Matrix: (Units=GPa)
#
#
# Indices 1 2 3 4 5 6 
#
# 1 157.4477 12.7576 74.1928 0.0000 37.4044 0.0000
# 2 12.7576 91.5986 21.7354 0.0000 -2.6730 0.0000
# 3 74.1928 21.7354 165.8134 0.0000 3.7942 0.0000
# 4 0.0000 0.0000 0.0000 40.7796 0.0000 18.0699
# 5 37.4044 -2.6730 3.7942 0.0000 53.9371 0.0000
# 6 0.0000 0.0000 0.0000 18.0699 0.0000 37.8033
#
#
#
# Elastic Compliance Matrix: (Units=1/GPa)
#
#
# Indices 1 2 3 4 5 6 
#
# 1 0.009972 -0.000578 -0.004234 0.000000 -0.006646 0.000000
# 2 -0.000578 0.011325 -0.001250 0.000000 0.001050 0.000000
# 3 -0.004234 -0.001250 0.008036 0.000000 0.002309 0.000000
# 4 0.000000 0.000000 0.000000 0.031112 0.000000 -0.014871
# 5 -0.006646 0.001050 0.002309 0.000000 0.023039 0.000000
# 6 0.000000 0.000000 0.000000 -0.014871 0.000000 0.033561
#
#
# Mechanical properties :
#
#
# Convention : Reuss Voigt Hill
#
# Bulk Modulus (GPa) = 58.10798 70.24790 64.17794
# Shear Modulus (GPa) = 37.06270 46.91559 41.98914
#
# Velocity S-wave (km/s) = 3.80866 4.28511 4.05389
# Velocity P-wave (km/s) = 6.48721 7.20951 6.85788
#
# Compressibility (1/GPa) = 0.01720934
#
# Stress axis : x y z
#
# Youngs Moduli (GPa) = 100.27661 88.30066 124.43261
#
# Poissons Ratio (x) = 0.05105 0.52688
# Poissons Ratio (y) = 0.05797 0.15552
# Poissons Ratio (z) = 0.42460 0.11036
#
# Static dielectric constant tensor:
#      x y z
#    x 2.081140 0.000000 -0.001100 
#    y 0.000000 2.072790 0.000000 
#    z -0.001100 0.000000 2.024000 
# 
# From -- ./inp_files/4455.got.cif
#   From: 2010.05.17/outbox.cif.g08.bks.cpg/sg5_3_cif.got.tgz:4455.got - 2010.06.03 18:56:24.
