data_PCOD9130872
_publ_section_title
;
Structure prediction by ZEFSAII (Michael W. Deem and Ramdas Pophale) SiO2 
 PCOD9130872
Probable space group: P M
;
_chemical_formula_sum "Si O2"
_cell_formula_units_Z 16
_cell_length_a 6.707447
_cell_length_b 10.528091
_cell_length_c 11.445089
_cell_angle_alpha 90.000000
_cell_angle_beta 98.419805
_cell_angle_gamma 90.000000
_cell_volume 799.502310
_symmetry_space_group_name_H-M "P M"
_symmetry_group_IT_number 6
_symmetry_cell_setting 'monoclinic'
loop_
_space_group_symop_operation_xyz
x,y,z
x,-y,z
loop_
_atom_site_type_symbol
_atom_site_label
_atom_site_fract_x
_atom_site_fract_y
_atom_site_fract_z
Si Si1 0.365720 0.813948 0.414590
Si Si2 0.491254 0.853274 0.686715
Si Si3 0.320079 0.356930 0.091588
Si Si4 0.698242 0.742677 0.262116
Si Si5 0.841112 0.649669 0.678318
Si Si6 0.064362 0.864207 0.185720
Si Si7 0.264760 0.643497 0.814532
Si Si8 0.033432 0.357772 0.456200
O O1 0.413848 0.865077 0.546306
O O2 0.563940 0.806525 0.352513
O O3 0.190271 0.871501 0.318242
O O4 0.254702 0.681968 0.434523
O O5 0.680655 0.756371 0.699062
O O6 0.339933 0.765897 0.749492
O O7 0.523054 0.000000 0.730835
O O8 0.253091 0.500000 0.115864
O O9 0.535153 0.330550 0.170640
O O10 0.164741 0.251926 0.125641
O O11 0.336207 0.347031 0.953793
O O12 0.869611 0.659664 0.340428
O O13 0.832295 0.838115 0.196956
O O14 0.767855 0.500000 0.659147
O O15 0.939102 0.701567 0.565055
O O16 0.022948 0.644769 0.785814
O O17 0.089040 0.000000 0.127116
O O18 0.325667 0.500000 0.775994
O O19 0.051854 0.500000 0.495096
#
# Coordination Sequence:
#
# PCOD9130872 Si02
#       8
#     2   2   2   2   2   2   2   2
#     4  10  21  38  56  89 127 165 203 242 300 365
#     4  12  24  38  61  94 127 163 204 251 304 364
#     4  10  23  43  67  91 120 159 207 258 305 359
#     4  10  21  37  60  92 127 159 198 247 309 361
#     4  10  21  39  61  87 120 161 203 250 304 358
#     4  10  23  41  63  90 124 165 204 249 305 367
#     4  10  23  45  66  87 120 165 209 252 303 361
#     4  10  19  33  58  90 124 157 199 251 303 357
#
# _framework density 20.012449
#
# number of rings (size 3 to 8) (size 9 to 14) (size 15 to 20)
#    0.000    1.750    2.500    1.125    0.000   10.500 
#    0.000    3.750    0.000    0.000    0.000    0.000 
#    0.000    0.000    0.000    0.000    0.000    0.000 
#
# Total GULP energy -89080.086655 kJ/mol
# GULP energy per Si atom -5567.505416 kJ/mol
# Density = 1.996690 g / cm^3
# Si number density = 20.012449 Si / 1000 Ang^3
#
#
#
# Elastic Constant Matrix: (Units=GPa)
#
#
# Indices 1 2 3 4 5 6 
#
# 1 99.5398 61.0546 12.6259 0.0000 -7.0684 0.0000
# 2 61.0546 159.2863 34.6604 0.0000 -14.1513 0.0000
# 3 12.6259 34.6604 77.6477 0.0000 10.1317 0.0000
# 4 0.0000 0.0000 0.0000 113.0974 0.0000 -294.9964
# 5 -7.0684 -14.1513 10.1317 0.0000 12.2776 0.0000
# 6 0.0000 0.0000 0.0000 -294.9964 0.0000 784.2603
#
#
#
# Elastic Compliance Matrix: (Units=1/GPa)
#
#
# Indices 1 2 3 4 5 6 
#
# 1 0.013182 -0.004775 -0.000319 0.000000 0.002349 0.000000
# 2 -0.004775 0.010659 -0.005857 0.000000 0.014370 0.000000
# 3 -0.000319 -0.005857 0.018435 0.000000 -0.022147 0.000000
# 4 0.000000 0.000000 0.000000 0.468231 0.000000 0.176123
# 5 0.002349 0.014370 -0.022147 0.000000 0.117641 0.000000
# 6 0.000000 0.000000 0.000000 0.176123 0.000000 0.067523
#
#
# Mechanical properties :
#
#
# Convention : Reuss Voigt Hill
#
# Bulk Modulus (GPa) = 49.07787 61.46174 55.26981
# Shear Modulus (GPa) = 6.90261 197.13591 102.01926
#
# Velocity S-wave (km/s) = 1.85921 9.93582 7.14763
# Velocity P-wave (km/s) = 5.40239 12.74385 9.78753
#
# Compressibility (1/GPa) = 0.02037578
#
# Stress axis : x y z
#
# Youngs Moduli (GPa) = 75.86049 93.81496 54.24576
#
# Poissons Ratio (x) = 0.44794 0.01728
# Poissons Ratio (y) = 0.36221 0.31771
# Poissons Ratio (z) = 0.02417 0.54945
#
# Static dielectric constant tensor:
#      x y z
#    x 1.714130 0.000000 -0.012060 
#    y 0.000000 1.718810 0.000000 
#    z -0.012060 0.000000 1.718970 
# 
# From -- ./inp_files/4404.got.cif
#   From: 2010.05.17/outbox.cif.g08.bks.cpg/sg6_3_cif.got.tgz:4404.got - 2010.06.03 19:42:10.
