data_PCOD9130523
_publ_section_title
;
Structure prediction by ZEFSAII (Michael W. Deem and Ramdas Pophale) SiO2 
 PCOD9130523
Probable space group: C 2
;
_chemical_formula_sum "Si O2"
_cell_formula_units_Z 16
_cell_length_a 12.528664
_cell_length_b 4.852834
_cell_length_c 18.791931
_cell_angle_alpha 90.000000
_cell_angle_beta 32.212686
_cell_angle_gamma 90.000000
_cell_volume 609.046781
_symmetry_space_group_name_H-M "C 2"
_symmetry_group_IT_number 5
_symmetry_cell_setting 'monoclinic'
loop_
_space_group_symop_operation_xyz
x,y,z
-x,y,-z
1/2+x,1/2+y,z
1/2-x,1/2+y,-z
loop_
_atom_site_type_symbol
_atom_site_label
_atom_site_fract_x
_atom_site_fract_y
_atom_site_fract_z
Si Si1 0.555981 0.164420 0.796429
Si Si2 0.316819 0.285975 0.560339
Si Si3 0.035478 0.915061 0.291208
Si Si4 0.557836 0.711270 0.888721
O O1 0.430945 0.221873 0.795568
O O2 0.594173 0.441123 0.820523
O O3 0.758047 0.044220 0.643772
O O4 0.439049 0.931048 0.907576
O O5 0.500000 0.143191 0.500000
O O6 0.399906 0.325493 0.434291
O O7 0.101126 0.148279 0.667751
O O8 0.252579 0.918358 0.203813
O O9 0.500000 0.622755 0.000000
#
# Coordination Sequence:
#
# PCOD9130523 Si02
#       4
#     4   4   4   4
#     4  12  26  48  77 114 155 203 258 322 384 462
#     4  12  25  45  77 123 161 195 258 322 406 471
#     4  12  26  46  82 113 159 204 248 321 404 458
#     4  12  30  52  78 111 158 210 267 315 377 467
#
# _framework density 26.270558000000001
#
# number of rings (size 3 to 8) (size 9 to 14) (size 15 to 20)
#    0.000    0.000    7.500    0.750    3.500    7.000 
#    0.000    0.000    0.000    0.000    0.000    0.000 
#    0.000    0.000    0.000    0.000    0.000    0.000 
#
# Total GULP energy -44597.785142 kJ/mol
# GULP energy per Si atom -5574.723143 kJ/mol
# Density = 2.621077 g / cm^3
# Si number density = 26.270558 Si / 1000 Ang^3
#
#
#
# Elastic Constant Matrix: (Units=GPa)
#
#
# Indices 1 2 3 4 5 6 
#
# 1 132.5830 73.0930 57.8451 -0.0041 51.6244 0.0058
# 2 73.0930 126.5699 27.7322 -0.0077 23.7544 0.0140
# 3 57.8451 27.7322 98.8949 -0.0019 52.6130 0.0032
# 4 -0.0041 -0.0077 -0.0019 32.8131 0.0028 -0.2658
# 5 51.6244 23.7544 52.6130 0.0028 74.2401 -0.0037
# 6 0.0058 0.0140 0.0032 -0.2658 -0.0037 13.1371
#
#
#
# Elastic Compliance Matrix: (Units=1/GPa)
#
#
# Indices 1 2 3 4 5 6 
#
# 1 0.015263 -0.006887 -0.004049 0.000001 -0.005541 0.000000
# 2 -0.006887 0.011652 0.000316 0.000002 0.000837 -0.000009
# 3 -0.004049 0.000316 0.017573 0.000001 -0.009739 -0.000006
# 4 0.000001 0.000002 0.000001 0.030481 -0.000003 0.000617
# 5 -0.005541 0.000837 -0.009739 -0.000003 0.023957 0.000011
# 6 0.000000 -0.000009 -0.000006 0.000617 0.000011 0.076133
#
#
# Mechanical properties :
#
#
# Convention : Reuss Voigt Hill
#
# Bulk Modulus (GPa) = 43.01649 75.04313 59.02981
# Shear Modulus (GPa) = 24.50402 37.32990 30.91696
#
# Velocity S-wave (km/s) = 3.05742 3.77368 3.43427
# Velocity P-wave (km/s) = 5.37343 6.90036 6.18420
#
# Compressibility (1/GPa) = 0.02324690
#
# Stress axis : x y z
#
# Youngs Moduli (GPa) = 65.51668 85.82291 56.90647
#
# Poissons Ratio (x) = 0.59110 0.23039
# Poissons Ratio (y) = 0.45124 -0.01796
# Poissons Ratio (z) = 0.26525 -0.02709
#
# Static dielectric constant tensor:
#      x y z
#    x 2.027230 0.000000 -0.068340 
#    y 0.000000 2.182040 0.000000 
#    z -0.068340 0.000000 2.075510 
# 
# From -- ./inp_files/45348.got.cif
#   From: 2010.05.17/outbox.cif.g08.bks.cpg/sg5_23_cif.got.tgz:45348.got - 2010.06.03 18:56:24.
