data_PCOD9130826
_publ_section_title
;
Structure prediction by ZEFSAII (Michael W. Deem and Ramdas Pophale) SiO2 
 PCOD9130826
Probable space group: P M
;
_chemical_formula_sum "Si O2"
_cell_formula_units_Z 16
_cell_length_a 11.722772
_cell_length_b 9.319490
_cell_length_c 7.561423
_cell_angle_alpha 90.000000
_cell_angle_beta 69.697180
_cell_angle_gamma 90.000000
_cell_volume 774.764126
_symmetry_space_group_name_H-M "P M"
_symmetry_group_IT_number 6
_symmetry_cell_setting 'monoclinic'
loop_
_space_group_symop_operation_xyz
x,y,z
x,-y,z
loop_
_atom_site_type_symbol
_atom_site_label
_atom_site_fract_x
_atom_site_fract_y
_atom_site_fract_z
Si Si1 0.557870 0.326603 0.710090
Si Si2 0.292587 0.330318 0.854724
Si Si3 0.816081 0.333990 0.183305
Si Si4 0.817981 0.663774 0.616785
Si Si5 0.050828 0.161452 0.071568
Si Si6 0.046602 0.841338 0.492579
Si Si7 0.577089 0.829536 0.321393
Si Si8 0.311972 0.172050 0.474301
O O1 0.564201 0.500000 0.664951
O O2 0.425934 0.303083 0.867625
O O3 0.682189 0.289218 0.744639
O O4 0.562386 0.231669 0.529512
O O5 0.268789 0.500000 0.874451
O O6 0.307765 0.273119 0.647209
O O7 0.177884 0.243239 0.985490
O O8 0.817407 0.500000 0.130481
O O9 0.815317 0.331102 0.401194
O O10 0.693600 0.254993 0.187109
O O11 0.937497 0.251482 0.059121
O O12 0.833562 0.500000 0.660518
O O13 0.934892 0.748126 0.620392
O O14 0.028219 0.150074 0.292770
O O15 0.058532 0.000000 0.994666
O O16 0.185765 0.794089 0.444867
O O17 0.036625 0.000000 0.575089
O O18 0.442837 0.804409 0.311287
O O19 0.601176 0.000000 0.310719
O O20 0.311213 0.000000 0.519280
#
# Coordination Sequence:
#
# PCOD9130826 Si02
#       8
#     2   2   2   2   2   2   2   2
#     4   8  15  27  42  62  89 118 149 188 231 271
#     4  10  19  31  48  70  95 123 154 189 232 278
#     4   9  16  27  43  64  91 119 150 190 231 270
#     4   8  14  25  42  64  88 115 148 188 230 268
#     4  10  19  31  48  70  95 123 155 190 229 274
#     4   9  18  31  47  68  94 123 154 189 228 271
#     4   9  15  24  42  66  89 115 149 189 231 271
#     4   9  18  32  48  68  95 124 155 191 230 273
#
# _framework density 20.651446
#
# number of rings (size 3 to 8) (size 9 to 14) (size 15 to 20)
#    0.000    3.000    0.000    2.250    0.000    5.000 
#    0.000    0.000    0.000    1.500    0.000    5.250 
#    0.000    0.000    0.000    0.000    0.000    0.000 
#
# Total GULP energy -89100.685939 kJ/mol
# GULP energy per Si atom -5568.792871 kJ/mol
# Density = 2.060444 g / cm^3
# Si number density = 20.651446 Si / 1000 Ang^3
#
#
#
# Elastic Constant Matrix: (Units=GPa)
#
#
# Indices 1 2 3 4 5 6 
#
# 1 181.7548 88.4124 36.7290 0.0000 -63.4251 0.0000
# 2 88.4124 103.8065 31.8508 0.0000 -39.7736 0.0000
# 3 36.7290 31.8508 40.1129 0.0000 -18.8792 0.0000
# 4 0.0000 0.0000 0.0000 10.8661 0.0000 -18.3354
# 5 -63.4251 -39.7736 -18.8792 0.0000 48.0609 0.0000
# 6 0.0000 0.0000 0.0000 -18.3354 0.0000 30.7540
#
#
#
# Elastic Compliance Matrix: (Units=1/GPa)
#
#
# Indices 1 2 3 4 5 6 
#
# 1 0.012594 -0.006025 -0.001561 0.000000 0.011021 0.000000
# 2 -0.006025 0.018796 -0.007151 0.000000 0.004795 0.000000
# 3 -0.001561 -0.007151 0.034697 0.000000 0.005652 0.000000
# 4 0.000000 0.000000 0.000000-15.292972 0.000000 -9.117611
# 5 0.011021 0.004795 0.005652 0.000000 0.041540 0.000000
# 6 0.000000 0.000000 0.000000 -9.117611 0.000000 -5.403369
#
#
# Mechanical properties :
#
#
# Convention : Reuss Voigt Hill
#
# Bulk Modulus (GPa) = 27.31215 71.07319 49.19267
# Shear Modulus (GPa) = -0.24334 29.18165 14.46915
#
# Velocity S-wave (km/s) = -0.34364 3.76314 2.64983
# Velocity P-wave (km/s) = 3.61892 7.30561 5.76492
#
# Compressibility (1/GPa) = 0.03661375
#
# Stress axis : x y z
#
# Youngs Moduli (GPa) = 79.40438 53.20274 28.82092
#
# Poissons Ratio (x) = 0.32053 0.04498
# Poissons Ratio (y) = 0.47838 0.20611
# Poissons Ratio (z) = 0.12392 0.38047
#
# Static dielectric constant tensor:
#      x y z
#    x 1.797580 0.000000 -0.008670 
#    y 0.000000 1.714130 0.000000 
#    z -0.008670 0.000000 1.783160 
# 
# From -- ./inp_files/3493.got.cif
#   From: 2010.05.17/outbox.cif.g08.bks.cpg/sg6_2_cif.got.tgz:3493.got - 2010.06.03 19:42:10.
