data_PCOD9130856
_publ_section_title
;
Structure prediction by ZEFSAII (Michael W. Deem and Ramdas Pophale) SiO2 
 PCOD9130856
Probable space group: P M
;
_chemical_formula_sum "Si O2"
_cell_formula_units_Z 16
_cell_length_a 9.582862
_cell_length_b 7.584650
_cell_length_c 11.572312
_cell_angle_alpha 90.000000
_cell_angle_beta 114.863154
_cell_angle_gamma 90.000000
_cell_volume 763.148063
_symmetry_space_group_name_H-M "P M"
_symmetry_group_IT_number 6
_symmetry_cell_setting 'monoclinic'
loop_
_space_group_symop_operation_xyz
x,y,z
x,-y,z
loop_
_atom_site_type_symbol
_atom_site_label
_atom_site_fract_x
_atom_site_fract_y
_atom_site_fract_z
Si Si1 0.378950 0.784240 0.248920
Si Si2 0.531761 0.215018 0.537556
Si Si3 0.832226 0.212409 0.774193
Si Si4 0.166042 0.299559 0.791137
Si Si5 0.214618 0.213160 0.544134
Si Si6 0.063065 0.214804 0.256291
Si Si7 0.461904 0.201870 0.026428
Si Si8 0.767434 0.783728 0.012118
O O1 0.490587 0.731099 0.392754
O O2 0.206667 0.731021 0.225829
O O3 0.428689 0.718986 0.140796
O O4 0.376397 0.000000 0.245808
O O5 0.693599 0.276318 0.644196
O O6 0.387532 0.267646 0.567979
O O7 0.532860 0.000000 0.538027
O O8 0.804672 0.275514 0.895245
O O9 0.999864 0.256207 0.784747
O O10 0.822304 0.000000 0.772904
O O11 0.201824 0.500000 0.831211
O O12 0.168091 0.274263 0.654260
O O13 0.305459 0.197005 0.899028
O O14 0.103307 0.270802 0.400760
O O15 0.213339 0.000000 0.545518
O O16 0.062435 0.000000 0.257191
O O17 0.902589 0.271392 0.146227
O O18 0.509183 0.000000 0.066572
O O19 0.602276 0.277544 0.001155
O O20 0.767608 0.000000 0.007639
#
# Coordination Sequence:
#
# PCOD9130856 Si02
#       8
#     2   2   2   2   2   2   2   2
#     4   8  14  26  49  81 111 133 158 200 250 298
#     4   8  15  29  53  85 110 129 162 207 250 297
#     4  10  19  33  54  77 104 136 170 208 251 300
#     4  12  25  37  49  70 102 136 175 219 258 299
#     4   9  17  33  57  80 103 133 168 205 250 304
#     4   8  14  26  48  80 111 133 159 201 249 297
#     4  10  19  33  55  79 103 133 169 208 253 304
#     4   9  17  29  51  84 110 129 163 210 253 297
#
# _framework density 20.965789000000001
#
# number of rings (size 3 to 8) (size 9 to 14) (size 15 to 20)
#    0.000    2.750    0.000    4.125    0.000    5.000 
#    0.000    6.250    0.000    9.750    0.000    0.000 
#    0.000    0.000    0.000    0.000    0.000    0.000 
#
# Total GULP energy -89314.162947 kJ/mol
# GULP energy per Si atom -5582.135184 kJ/mol
# Density = 2.091807 g / cm^3
# Si number density = 20.965789 Si / 1000 Ang^3
#
#
#
# Elastic Constant Matrix: (Units=GPa)
#
#
# Indices 1 2 3 4 5 6 
#
# 1 181.1642 -0.7355 124.1491 0.0000 -9.9424 0.0000
# 2 -0.7355 46.2069 -2.4667 0.0000 -0.7373 0.0000
# 3 124.1491 -2.4667 148.9691 0.0000 -5.9034 0.0000
# 4 0.0000 0.0000 0.0000 -25.6604 0.0000 10.2144
# 5 -9.9424 -0.7373 -5.9034 0.0000 41.7782 0.0000
# 6 0.0000 0.0000 0.0000 10.2144 0.0000 -36.6939
#
#
#
# Elastic Compliance Matrix: (Units=1/GPa)
#
#
# Indices 1 2 3 4 5 6 
#
# 1 0.012977 -0.000343 -0.010759 0.000000 0.001562 0.000000
# 2 -0.000343 0.021678 0.000660 0.000000 0.000394 0.000000
# 3 -0.010759 0.000660 0.015677 0.000000 -0.000334 0.000000
# 4 0.000000 0.000000 0.000000 -0.043827 0.000000 -0.012200
# 5 0.001562 0.000394 -0.000334 0.000000 0.024267 0.000000
# 6 0.000000 0.000000 0.000000 -0.012200 0.000000 -0.030649
#
#
# Mechanical properties :
#
#
# Convention : Reuss Voigt Hill
#
# Bulk Modulus (GPa) = 33.95687 68.69265 51.32476
# Shear Modulus (GPa) = 162.22338 12.91101 87.56719
#
# Velocity S-wave (km/s) = 8.80586 2.48425 6.46973
# Velocity P-wave (km/s) = 10.93721 6.40812 8.96344
#
# Compressibility (1/GPa) = 0.02944912
#
# Stress axis : x y z
#
# Youngs Moduli (GPa) = 77.06045 46.13001 63.78963
#
# Poissons Ratio (x) = 0.01582 0.68628
# Poissons Ratio (y) = 0.02642 -0.04212
# Poissons Ratio (z) = 0.82906 -0.03046
#
# Static dielectric constant tensor:
#      x y z
#    x 1.723560 0.000000 0.002060 
#    y 0.000000 1.782430 0.000000 
#    z 0.002060 0.000000 1.730990 
# 
# From -- ./inp_files/3618.got.cif
#   From: 2010.05.17/outbox.cif.g08.bks.cpg/sg6_2_cif.got.tgz:3618.got - 2010.06.03 19:42:10.
