data_PCOD9130840
_publ_section_title
;
Structure prediction by ZEFSAII (Michael W. Deem and Ramdas Pophale) SiO2 
 PCOD9130840
Probable space group: P M
;
_chemical_formula_sum "Si O2"
_cell_formula_units_Z 16
_cell_length_a 10.327187
_cell_length_b 9.031533
_cell_length_c 12.483247
_cell_angle_alpha 90.000000
_cell_angle_beta 53.585117
_cell_angle_gamma 90.000000
_cell_volume 936.971680
_symmetry_space_group_name_H-M "P M"
_symmetry_group_IT_number 6
_symmetry_cell_setting 'monoclinic'
loop_
_space_group_symop_operation_xyz
x,y,z
x,-y,z
loop_
_atom_site_type_symbol
_atom_site_label
_atom_site_fract_x
_atom_site_fract_y
_atom_site_fract_z
Si Si1 0.503350 0.177389 0.837080
Si Si2 0.332490 0.178509 0.314572
Si Si3 0.821866 0.821352 0.802426
Si Si4 0.211498 0.177625 0.141139
Si Si5 0.168417 0.322095 0.600237
Si Si6 0.707042 0.177488 0.099903
Si Si7 0.994814 0.676821 0.077750
Si Si8 0.287298 0.677357 0.774318
O O1 0.679500 0.221894 0.790723
O O2 0.436816 0.250105 0.761928
O O3 0.502303 0.000000 0.825924
O O4 0.373436 0.213614 0.994084
O O5 0.240575 0.218778 0.249845
O O6 0.256770 0.256940 0.453817
O O7 0.520691 0.216327 0.208213
O O8 0.321657 0.000000 0.331419
O O9 0.988694 0.742257 0.696091
O O10 0.841564 0.000000 0.787132
O O11 0.762446 0.785198 0.951849
O O12 0.065565 0.257029 0.152577
O O13 0.190248 0.000000 0.145535
O O14 0.162928 0.500000 0.598944
O O15 0.259854 0.278269 0.665254
O O16 0.826107 0.256106 0.123999
O O17 0.721976 0.000000 0.103926
O O18 0.986256 0.500000 0.087763
O O19 0.127280 0.717447 0.921290
O O20 0.302960 0.500000 0.771420
#
# Coordination Sequence:
#
# PCOD9130840 Si02
#       8
#     2   2   2   2   2   2   2   2
#     4   9  17  31  55  84 107 132 174 226 273 318
#     4  10  21  38  58  81 110 143 182 226 273 324
#     4  10  19  34  57  84 109 138 181 229 273 319
#     4   9  17  33  55  80 109 139 175 224 275 320
#     4  11  23  38  54  78 114 150 183 219 267 327
#     4  10  19  34  57  83 109 139 181 229 273 318
#     4  10  19  32  52  81 113 142 178 222 268 322
#     4   9  19  34  50  75 111 145 176 217 266 318
#
# _framework density 17.076288999999999
#
# number of rings (size 3 to 8) (size 9 to 14) (size 15 to 20)
#    0.000    2.250    2.500    0.750    0.000    3.000 
#    0.000    1.250    0.000    1.500    0.000    0.000 
#    0.000    0.000    0.000    0.000    0.000    0.000 
#
# Total GULP energy -89272.689992 kJ/mol
# GULP energy per Si atom -5579.543124 kJ/mol
# Density = 1.703742 g / cm^3
# Si number density = 17.076289 Si / 1000 Ang^3
#
#
#
# Elastic Constant Matrix: (Units=GPa)
#
#
# Indices 1 2 3 4 5 6 
#
# 1 185.0494 58.3548 84.2755 0.0000 19.6448 0.0000
# 2 58.3548 28.3321 45.6284 0.0000 4.8197 0.0000
# 3 84.2755 45.6284 115.7400 0.0000 11.3485 0.0000
# 4 0.0000 0.0000 0.0000 19.8572 0.0000 8.3426
# 5 19.6448 4.8197 11.3485 0.0000 25.5496 0.0000
# 6 0.0000 0.0000 0.0000 8.3426 0.0000 11.6390
#
#
#
# Elastic Compliance Matrix: (Units=1/GPa)
#
#
# Indices 1 2 3 4 5 6 
#
# 1 0.017218 -0.041582 0.004585 0.000000 -0.007431 0.000000
# 2 -0.041582 0.197146 -0.049069 0.000000 0.016577 0.000000
# 3 0.004585 -0.049069 0.025181 0.000000 -0.005453 0.000000
# 4 0.000000 0.000000 0.000000 0.072060 0.000000 -0.051651
# 5 -0.007431 0.016577 -0.005453 0.000000 0.044148 0.000000
# 6 0.000000 0.000000 0.000000 -0.051651 0.000000 0.122941
#
#
# Mechanical properties :
#
#
# Convention : Reuss Voigt Hill
#
# Bulk Modulus (GPa) = 14.83418 78.40433 46.61925
# Shear Modulus (GPa) = 7.42614 20.80002 14.11308
#
# Velocity S-wave (km/s) = 2.08764 3.49386 2.87796
# Velocity P-wave (km/s) = 3.81010 7.89240 6.19705
#
# Compressibility (1/GPa) = 0.06741188
#
# Stress axis : x y z
#
# Youngs Moduli (GPa) = 58.07980 5.07238 39.71251
#
# Poissons Ratio (x) = 0.21092 -0.18207
# Poissons Ratio (y) = 2.41509 1.94865
# Poissons Ratio (z) = -0.26628 0.24890
#
# Static dielectric constant tensor:
#      x y z
#    x 1.568450 0.000000 0.006860 
#    y 0.000000 1.566350 0.000000 
#    z 0.006860 0.000000 1.557110 
# 
# From -- ./inp_files/3466.got.cif
#   From: 2010.05.17/outbox.cif.g08.bks.cpg/sg6_2_cif.got.tgz:3466.got - 2010.06.03 19:42:10.
