data_PCOD9130246
_publ_section_title
;
Structure prediction by ZEFSAII (Michael W. Deem and Ramdas Pophale) SiO2 
 PCOD9130246
Probable space group: C 2
;
_chemical_formula_sum "Si O2"
_cell_formula_units_Z 30
_cell_length_a 22.376255
_cell_length_b 5.303561
_cell_length_c 11.366263
_cell_angle_alpha 90.000000
_cell_angle_beta 54.617232
_cell_angle_gamma 90.000000
_cell_volume 1099.742906
_symmetry_space_group_name_H-M "C 2"
_symmetry_group_IT_number 5
_symmetry_cell_setting 'monoclinic'
loop_
_space_group_symop_operation_xyz
x,y,z
-x,y,-z
1/2+x,1/2+y,z
1/2-x,1/2+y,-z
loop_
_atom_site_type_symbol
_atom_site_label
_atom_site_fract_x
_atom_site_fract_y
_atom_site_fract_z
Si Si1 0.391227 0.338460 0.527128
Si Si2 0.500000 0.411232 0.000000
Si Si3 0.456136 0.450426 0.710433
Si Si4 0.287830 0.833671 0.909921
Si Si5 0.107250 0.572687 0.054647
Si Si6 0.799993 0.324597 0.617509
Si Si7 0.965672 0.318965 0.235683
Si Si8 0.852419 0.619046 0.227751
O O1 0.413982 0.411247 0.635026
O O2 0.469845 0.273258 0.379441
O O3 0.350193 0.585675 0.523351
O O4 0.338664 0.097931 0.567853
O O5 0.489521 0.587009 0.125857
O O6 0.417728 0.293865 0.102618
O O7 0.399049 0.340828 0.871734
O O8 0.503243 0.708841 0.676558
O O9 0.288066 0.799656 0.771218
O O10 0.368073 0.881486 0.870128
O O11 0.250999 0.594471 0.011316
O O12 0.022971 0.521676 0.121342
O O13 0.159346 0.488840 0.886565
O O14 0.719376 0.273625 0.654103
O O15 0.887084 0.429517 0.283788
#
# Coordination Sequence:
#
# PCOD9130246 Si02
#       8
#     4   2   4   4   4   4   4   4
#     4  11  28  51  76 114 148 211 262 323 386 455
#     4  12  22  42  66 104 144 200 256 314 384 464
#     4  11  26  46  82 104 150 201 272 324 377 459
#     4  12  26  40  67 112 156 195 239 308 412 486
#     4  12  23  40  69 109 145 190 252 320 387 469
#     4  12  27  47  74 107 165 192 253 322 397 471
#     4  12  24  42  73 105 150 194 260 319 382 460
#     4  12  25  42  70 112 148 201 248 323 397 471
#
# _framework density 27.279102000000002
#
# number of rings (size 3 to 8) (size 9 to 14) (size 15 to 20)
#    0.000    0.267    6.667    1.600    7.467    1.067 
#    0.000    0.000    5.867    0.000    0.000    0.000 
#    0.000    0.000    0.000    0.000    0.000    0.000 
#
# Total GULP energy -83700.104982 kJ/mol
# GULP energy per Si atom -5580.006999 kJ/mol
# Density = 2.721701 g / cm^3
# Si number density = 27.279102 Si / 1000 Ang^3
#
#
#
# Elastic Constant Matrix: (Units=GPa)
#
#
# Indices 1 2 3 4 5 6 
#
# 1 139.3949 58.0611 47.4070 0.0000 -29.1811 -0.0001
# 2 58.0611 154.5818 42.8137 -0.0012 -34.0627 0.0023
# 3 47.4070 42.8137 72.0573 0.0002 -4.1315 -0.0003
# 4 0.0000 -0.0012 0.0002 41.2091 -0.0002 -8.8415
# 5 -29.1811 -34.0627 -4.1315 -0.0002 57.8583 0.0001
# 6 -0.0001 0.0023 -0.0003 -8.8415 0.0001 50.5448
#
#
#
# Elastic Compliance Matrix: (Units=1/GPa)
#
#
# Indices 1 2 3 4 5 6 
#
# 1 0.010645 -0.001464 -0.005899 0.000000 0.004086 0.000000
# 2 -0.001464 0.009146 -0.004222 0.000000 0.004344 0.000000
# 3 -0.005899 -0.004222 0.020036 0.000000 -0.004030 0.000000
# 4 0.000000 0.000000 0.000000 0.025213 0.000000 0.004410
# 5 0.004086 0.004344 -0.004030 0.000000 0.021614 0.000000
# 6 0.000000 0.000000 0.000000 0.004410 0.000000 0.020556
#
#
# Mechanical properties :
#
#
# Convention : Reuss Voigt Hill
#
# Bulk Modulus (GPa) = 60.03512 73.62195 66.82854
# Shear Modulus (GPa) = 36.78292 44.43926 40.61109
#
# Velocity S-wave (km/s) = 3.67603 4.04054 3.86259
# Velocity P-wave (km/s) = 6.33033 6.98677 6.66663
#
# Compressibility (1/GPa) = 0.01665692
#
# Stress axis : x y z
#
# Youngs Moduli (GPa) = 93.93729 109.34327 49.90927
#
# Poissons Ratio (x) = 0.16010 0.29444
# Poissons Ratio (y) = 0.13754 0.21069
# Poissons Ratio (z) = 0.55418 0.46160
#
# Static dielectric constant tensor:
#      x y z
#    x 2.463150 0.000000 0.160900 
#    y 0.000000 2.292570 0.000000 
#    z 0.160900 0.000000 2.331830 
# 
# From -- ./inp_files/57453.got.cif
#   From: 2010.05.17/outbox.cif.g08.bks.cpg/sg5_29_cif.got.tgz:57453.got - 2010.06.03 18:56:24.
