data_PCOD9130374
_publ_section_title
;
Structure prediction by ZEFSAII (Michael W. Deem and Ramdas Pophale) SiO2 
 PCOD9130374
Probable space group: C 2
;
_chemical_formula_sum "Si O2"
_cell_formula_units_Z 28
_cell_length_a 16.069559
_cell_length_b 11.495471
_cell_length_c 7.722671
_cell_angle_alpha 90.000000
_cell_angle_beta 64.988867
_cell_angle_gamma 90.000000
_cell_volume 1292.809734
_symmetry_space_group_name_H-M "C 2"
_symmetry_group_IT_number 5
_symmetry_cell_setting 'monoclinic'
loop_
_space_group_symop_operation_xyz
x,y,z
-x,y,-z
1/2+x,1/2+y,z
1/2-x,1/2+y,-z
loop_
_atom_site_type_symbol
_atom_site_label
_atom_site_fract_x
_atom_site_fract_y
_atom_site_fract_z
Si Si1 0.890452 0.210170 0.084851
Si Si2 0.610385 0.466988 0.104807
Si Si3 0.145485 0.621916 0.700534
Si Si4 0.335991 0.739752 0.527946
Si Si5 0.610050 0.994772 0.391844
Si Si6 0.684691 0.944771 0.964198
Si Si7 0.000000 0.776468 0.000000
Si Si8 0.000000 0.073656 0.500000
O O1 0.848189 0.230063 0.310765
O O2 0.851967 0.312935 0.999056
O O3 0.000000 0.224440 0.000000
O O4 0.873538 0.081526 0.026576
O O5 0.705301 0.443158 0.120002
O O6 0.529135 0.497958 0.310054
O O7 0.574844 0.359492 0.024143
O O8 0.235259 0.696669 0.665760
O O9 0.147765 0.585008 0.498865
O O10 0.150173 0.509235 0.821502
O O11 0.054301 0.694377 0.819945
O O12 0.354599 0.868810 0.577539
O O13 0.413024 0.654718 0.537834
O O14 0.500000 0.995434 0.500000
O O15 0.644660 0.011649 0.166337
#
# Coordination Sequence:
#
# PCOD9130374 Si02
#       8
#     4   4   4   4   4   4   2   2
#     4  12  24  46  76 104 142 195 245 302 362 434
#     4  12  26  47  73 105 147 195 239 304 368 434
#     4  12  28  49  72 108 151 191 238 307 368 429
#     4  12  23  44  75 106 145 183 247 301 353 433
#     4  12  25  47  72 105 144 191 242 298 359 433
#     4  12  27  45  75 109 146 188 252 298 366 434
#     4  12  28  52  70 104 154 190 244 304 372 438
#     4  12  22  44  74 110 144 184 250 300 358 438
#
# _framework density 21.658252000000001
#
# number of rings (size 3 to 8) (size 9 to 14) (size 15 to 20)
#    0.000    0.000    5.714    4.286    3.000    2.286 
#    6.429    0.000    0.000    0.000    0.000    0.000 
#    0.000    0.000    0.000    0.000    0.000    0.000 
#
# Total GULP energy -78446.635606 kJ/mol
# GULP energy per Si atom -5603.331115 kJ/mol
# Density = 2.160896 g / cm^3
# Si number density = 21.658252 Si / 1000 Ang^3
#
#
#
# Elastic Constant Matrix: (Units=GPa)
#
#
# Indices 1 2 3 4 5 6 
#
# 1 78.2706 38.0999 -12.2340 0.0000 -12.2134 0.0000
# 2 38.0999 56.4560 -12.2861 0.0000 -8.8331 0.0000
# 3 -12.2340 -12.2861 62.1861 0.0000 4.7285 0.0000
# 4 0.0000 0.0000 0.0000 21.0766 0.0000 9.7718
# 5 -12.2134 -8.8331 4.7285 0.0000 41.2334 0.0000
# 6 0.0000 0.0000 0.0000 9.7718 0.0000 22.2027
#
#
#
# Elastic Compliance Matrix: (Units=1/GPa)
#
#
# Indices 1 2 3 4 5 6 
#
# 1 0.019466 -0.012422 0.001149 0.000000 0.002973 0.000000
# 2 -0.012422 0.026973 0.002750 0.000000 0.001784 0.000000
# 3 0.001149 0.002750 0.016927 0.000000 -0.001012 0.000000
# 4 0.000000 0.000000 0.000000 0.059609 0.000000 -0.026235
# 5 0.002973 0.001784 -0.001012 0.000000 0.025631 0.000000
# 6 0.000000 0.000000 0.000000 -0.026235 0.000000 0.056586
#
#
# Mechanical properties :
#
#
# Convention : Reuss Voigt Hill
#
# Bulk Modulus (GPa) = 21.58823 24.89691 23.24257
# Shear Modulus (GPa) = 21.03681 29.12473 25.08077
#
# Velocity S-wave (km/s) = 3.11996 3.67105 3.40667
# Velocity P-wave (km/s) = 4.79251 5.43039 5.12139
#
# Compressibility (1/GPa) = 0.04632155
#
# Stress axis : x y z
#
# Youngs Moduli (GPa) = 51.37079 37.07373 59.07699
#
# Poissons Ratio (x) = 0.46052 -0.06791
# Poissons Ratio (y) = 0.63811 -0.16244
# Poissons Ratio (z) = -0.05905 -0.10194
#
# Static dielectric constant tensor:
#      x y z
#    x 1.765560 0.000000 0.033800 
#    y 0.000000 1.765780 0.000000 
#    z 0.033800 0.000000 1.801240 
# 
# From -- ./inp_files/23565.got.cif
#   From: 2010.05.17/outbox.cif.g08.bks.cpg/sg5_12_cif.got.tgz:23565.got - 2010.06.03 18:56:24.
