data_PCOD9130612
_publ_section_title
;
Structure prediction by ZEFSAII (Michael W. Deem and Ramdas Pophale) SiO2 
 PCOD9130612
Probable space group: C 2
;
_chemical_formula_sum "Si O2"
_cell_formula_units_Z 20
_cell_length_a 12.476824
_cell_length_b 7.050099
_cell_length_c 10.811375
_cell_angle_alpha 90.000000
_cell_angle_beta 131.488417
_cell_angle_gamma 90.000000
_cell_volume 712.383742
_symmetry_space_group_name_H-M "C 2"
_symmetry_group_IT_number 5
_symmetry_cell_setting 'monoclinic'
loop_
_space_group_symop_operation_xyz
x,y,z
-x,y,-z
1/2+x,1/2+y,z
1/2-x,1/2+y,-z
loop_
_atom_site_type_symbol
_atom_site_label
_atom_site_fract_x
_atom_site_fract_y
_atom_site_fract_z
Si Si1 0.521561 0.519020 0.836943
Si Si2 0.198008 0.004257 0.732200
Si Si3 0.046714 0.440636 0.207304
Si Si4 0.300243 0.063059 0.190066
Si Si5 0.713256 0.832481 0.582151
O O1 0.610207 0.576140 0.781144
O O2 0.467902 0.722203 0.841154
O O3 0.386438 0.379383 0.710148
O O4 0.648622 0.473630 0.029981
O O5 0.366981 0.034808 0.839209
O O6 0.188788 0.779154 0.752828
O O7 0.157225 0.120770 0.576170
O O8 0.145845 0.414242 0.406362
O O9 0.904830 0.534734 0.153250
O O10 0.341026 0.946425 0.341162
#
# Coordination Sequence:
#
# PCOD9130612 Si02
#       5
#     4   4   4   4   4
#     4  12  27  52  79 115 157 202 267 322 392 468
#     4  12  28  48  82 108 160 208 252 322 400 452
#     4  12  27  52  79 115 157 202 267 322 392 468
#     4  12  27  52  78 115 158 204 263 323 388 471
#     4  12  27  52  78 115 158 204 263 323 388 471
#
# _framework density 28.074756000000001
#
# number of rings (size 3 to 8) (size 9 to 14) (size 15 to 20)
#    0.000    0.000    4.000    4.800    0.000    4.800 
#   21.600    0.000    0.000    0.000    0.000    0.000 
#    0.000    0.000    0.000    0.000    0.000    0.000 
#
# Total GULP energy -55868.919089 kJ/mol
# GULP energy per Si atom -5586.891909 kJ/mol
# Density = 2.801086 g / cm^3
# Si number density = 28.074756 Si / 1000 Ang^3
#
#
#
# Elastic Constant Matrix: (Units=GPa)
#
#
# Indices 1 2 3 4 5 6 
#
# 1 211.9783 31.6395 53.3971 0.0000 -8.3222 0.0000
# 2 31.6395 79.7478 26.5191 0.0000 -4.5486 0.0000
# 3 53.3971 26.5191 173.8742 0.0000 11.3665 0.0000
# 4 0.0000 0.0000 0.0000 25.1263 0.0000 -0.6748
# 5 -8.3222 -4.5486 11.3665 0.0000 53.5262 0.0000
# 6 0.0000 0.0000 0.0000 -0.6748 0.0000 51.9541
#
#
#
# Elastic Compliance Matrix: (Units=1/GPa)
#
#
# Indices 1 2 3 4 5 6 
#
# 1 0.005364 -0.001581 -0.001472 0.000000 0.001012 0.000000
# 2 -0.001581 0.013807 -0.001705 0.000000 0.001290 0.000000
# 3 -0.001472 -0.001705 0.006579 0.000000 -0.001771 0.000000
# 4 0.000000 0.000000 0.000000 0.039813 0.000000 0.000517
# 5 0.001012 0.001290 -0.001771 0.000000 0.019325 0.000000
# 6 0.000000 0.000000 0.000000 0.000517 0.000000 0.019254
#
#
# Mechanical properties :
#
#
# Convention : Reuss Voigt Hill
#
# Bulk Modulus (GPa) = 61.59658 76.52353 69.06006
# Shear Modulus (GPa) = 41.99193 49.72428 45.85811
#
# Velocity S-wave (km/s) = 3.87165 4.21306 4.04595
# Velocity P-wave (km/s) = 6.47874 7.14022 6.81750
#
# Compressibility (1/GPa) = 0.01623467
#
# Stress axis : x y z
#
# Youngs Moduli (GPa) = 186.42640 72.42639 151.99363
#
# Poissons Ratio (x) = 0.11449 0.22379
# Poissons Ratio (y) = 0.29470 0.25910
# Poissons Ratio (z) = 0.27449 0.12346
#
# Static dielectric constant tensor:
#      x y z
#    x 2.232510 0.000000 0.094690 
#    y 0.000000 2.280830 0.000000 
#    z 0.094690 0.000000 2.412270 
# 
# From -- ./inp_files/38474.got.cif
#   From: 2010.05.17/outbox.cif.g08.bks.cpg/sg5_20_cif.got.tgz:38474.got - 2010.06.03 18:56:24.
