data_PCOD9130798
_publ_section_title
;
Structure prediction by ZEFSAII (Michael W. Deem and Ramdas Pophale) SiO2 
 PCOD9130798
Probable space group: P M
;
_chemical_formula_sum "Si O2"
_cell_formula_units_Z 16
_cell_length_a 12.735768
_cell_length_b 7.423219
_cell_length_c 12.298656
_cell_angle_alpha 90.000000
_cell_angle_beta 36.706715
_cell_angle_gamma 90.000000
_cell_volume 694.979842
_symmetry_space_group_name_H-M "P M"
_symmetry_group_IT_number 6
_symmetry_cell_setting 'monoclinic'
loop_
_space_group_symop_operation_xyz
x,y,z
x,-y,z
loop_
_atom_site_type_symbol
_atom_site_label
_atom_site_fract_x
_atom_site_fract_y
_atom_site_fract_z
Si Si1 0.460060 0.214659 0.926240
Si Si2 0.625885 0.295542 0.397486
Si Si3 0.338324 0.283797 0.792464
Si Si4 0.975266 0.279601 0.989400
Si Si5 0.803367 0.716676 0.912918
Si Si6 0.223096 0.778240 0.320464
Si Si7 0.840894 0.795171 0.632377
Si Si8 0.440091 0.790583 0.336153
O O1 0.348142 0.245694 0.911554
O O2 0.656987 0.289212 0.748966
O O3 0.479515 0.000000 0.925803
O O4 0.362733 0.281695 0.114576
O O5 0.670006 0.500000 0.392966
O O6 0.513818 0.211711 0.587715
O O7 0.492097 0.299840 0.405907
O O8 0.807416 0.216739 0.200298
O O9 0.339894 0.500000 0.776436
O O10 0.159561 0.218618 0.884950
O O11 0.970670 0.500000 0.994426
O O12 0.939685 0.227681 0.894000
O O13 0.806034 0.500000 0.901344
O O14 0.834571 0.796430 0.768977
O O15 0.613103 0.772638 0.116861
O O16 0.282665 0.720686 0.391560
O O17 0.029656 0.714639 0.448681
O O18 0.222483 0.000000 0.323180
O O19 0.844649 0.000000 0.587098
O O20 0.409873 0.000000 0.385469
#
# Coordination Sequence:
#
# PCOD9130798 Si02
#       8
#     2   2   2   2   2   2   2   2
#     4  10  21  39  56  76 110 145 183 230 275 321
#     4   9  19  35  54  78 110 144 177 224 278 323
#     4  10  21  37  57  77 105 147 186 223 272 324
#     4   8  17  34  52  75 107 141 174 215 270 323
#     4  10  19  33  55  83 115 145 180 224 273 331
#     4   9  19  35  55  80 108 144 182 222 276 328
#     4  10  20  36  57  79 109 147 181 226 281 324
#     4  10  18  33  56  82 114 147 181 222 273 330
#
# _framework density 23.022252000000002
#
# number of rings (size 3 to 8) (size 9 to 14) (size 15 to 20)
#    0.000    2.500    1.250    1.500    1.750    2.000 
#    0.000    4.375    0.000    0.000    0.000    0.000 
#    0.000    0.000    0.000    0.000    0.000    0.000 
#
# Total GULP energy -89360.127453 kJ/mol
# GULP energy per Si atom -5585.007966 kJ/mol
# Density = 2.296985 g / cm^3
# Si number density = 23.022252 Si / 1000 Ang^3
#
#
#
# Elastic Constant Matrix: (Units=GPa)
#
#
# Indices 1 2 3 4 5 6 
#
# 1 87.5510 -12.1983 7.4041 0.0000 -18.7156 0.0000
# 2 -12.1983 82.9198 -5.1570 0.0000 -5.4818 0.0000
# 3 7.4041 -5.1570 39.5751 0.0000 -7.9706 0.0000
# 4 0.0000 0.0000 0.0000 0.5624 0.0000 6.6638
# 5 -18.7156 -5.4818 -7.9706 0.0000 36.8600 0.0000
# 6 0.0000 0.0000 0.0000 6.6638 0.0000 18.5011
#
#
#
# Elastic Compliance Matrix: (Units=1/GPa)
#
#
# Indices 1 2 3 4 5 6 
#
# 1 0.013301 0.002366 -0.000783 0.000000 0.006936 0.000000
# 2 0.002366 0.012760 0.001928 0.000000 0.003516 0.000000
# 3 -0.000783 0.001928 0.026812 0.000000 0.005687 0.000000
# 4 0.000000 0.000000 0.000000 -0.544140 0.000000 0.195991
# 5 0.006936 0.003516 0.005687 0.000000 0.032404 0.000000
# 6 0.000000 0.000000 0.000000 0.195991 0.000000 -0.016542
#
#
# Mechanical properties :
#
#
# Convention : Reuss Voigt Hill
#
# Bulk Modulus (GPa) = 16.69568 21.12705 18.91136
# Shear Modulus (GPa) = -10.81167 25.85117 7.51975
#
# Velocity S-wave (km/s) = -2.16942 3.35457 1.80925
# Velocity P-wave (km/s) = 0.99627 4.91944 3.54919
#
# Compressibility (1/GPa) = 0.05989575
#
# Stress axis : x y z
#
# Youngs Moduli (GPa) = 75.18493 78.36768 37.29737
#
# Poissons Ratio (x) = -0.18546 0.02921
# Poissons Ratio (y) = -0.17792 -0.07192
# Poissons Ratio (z) = 0.05888 -0.15111
#
# Static dielectric constant tensor:
#      x y z
#    x 1.817390 0.000000 -0.035080 
#    y 0.000000 1.862270 0.000000 
#    z -0.035080 0.000000 1.856640 
# 
# From -- ./inp_files/3625.got.cif
#   From: 2010.05.17/outbox.cif.g08.bks.cpg/sg6_2_cif.got.tgz:3625.got - 2010.06.03 19:42:10.
