data_PCOD9130898
_publ_section_title
;
Structure prediction by ZEFSAII (Michael W. Deem and Ramdas Pophale) SiO2 
 PCOD9130898
Probable space group: P M
;
_chemical_formula_sum "Si O2"
_cell_formula_units_Z 16
_cell_length_a 12.769484
_cell_length_b 8.780279
_cell_length_c 12.711709
_cell_angle_alpha 90.000000
_cell_angle_beta 143.842442
_cell_angle_gamma 90.000000
_cell_volume 840.898004
_symmetry_space_group_name_H-M "P M"
_symmetry_group_IT_number 6
_symmetry_cell_setting 'monoclinic'
loop_
_space_group_symop_operation_xyz
x,y,z
x,-y,z
loop_
_atom_site_type_symbol
_atom_site_label
_atom_site_fract_x
_atom_site_fract_y
_atom_site_fract_z
Si Si1 0.782290 0.681534 0.331560
Si Si2 0.902187 0.316531 0.197641
Si Si3 0.293473 0.683742 0.444916
Si Si4 0.427480 0.316718 0.321975
Si Si5 0.808774 0.180316 0.577511
Si Si6 0.532414 0.818510 0.822310
Si Si7 0.413081 0.818115 0.957228
Si Si8 0.159568 0.681725 0.916174
O O1 0.790254 0.500000 0.354964
O O2 0.887729 0.720437 0.310353
O O3 0.841430 0.766755 0.483953
O O4 0.580599 0.732495 0.144778
O O5 0.888524 0.500000 0.177461
O O6 0.091872 0.266696 0.306600
O O7 0.730655 0.245625 0.001704
O O8 0.295929 0.500000 0.454308
O O9 0.352043 0.725750 0.374866
O O10 0.430211 0.748492 0.641012
O O11 0.452873 0.500000 0.339702
O O12 0.614432 0.238110 0.451305
O O13 0.286956 0.278141 0.116864
O O14 0.961208 0.258537 0.770187
O O15 0.819580 0.000000 0.594323
O O16 0.542297 0.000000 0.819750
O O17 0.423873 0.783701 0.841924
O O18 0.432647 0.000000 0.986607
O O19 0.242017 0.759029 0.879368
O O20 0.159440 0.500000 0.903482
#
# Coordination Sequence:
#
# PCOD9130898 Si02
#       8
#     2   2   2   2   2   2   2   2
#     4  10  19  35  59  89 124 161 203 248 302 363
#     4   9  20  38  61  90 120 158 203 249 300 356
#     4  10  22  41  65  90 118 159 209 255 299 356
#     4  10  23  44  65  87 119 159 208 259 303 355
#     4  12  25  39  60  90 125 161 201 250 310 370
#     4  10  22  38  58  90 127 162 198 244 304 364
#     4  10  20  36  58  89 127 163 199 247 309 362
#     4  11  23  39  62  89 120 161 207 252 305 364
#
# _framework density 19.027277999999999
#
# number of rings (size 3 to 8) (size 9 to 14) (size 15 to 20)
#    0.000    1.750    1.250    2.625    1.750    4.500 
#    0.000    2.500    0.000    0.000    0.000    0.000 
#    0.000    0.000    0.000    0.000    0.000    0.000 
#
# Total GULP energy -89409.997239 kJ/mol
# GULP energy per Si atom -5588.124827 kJ/mol
# Density = 1.898397 g / cm^3
# Si number density = 19.027278 Si / 1000 Ang^3
#
#
#
# Elastic Constant Matrix: (Units=GPa)
#
#
# Indices 1 2 3 4 5 6 
#
# 1 123.7319 43.5028 85.5142 0.0000 4.1038 0.0000
# 2 43.5028 32.0822 32.1000 0.0000 2.5398 0.0000
# 3 85.5142 32.1000 114.1399 0.0000 12.1312 0.0000
# 4 0.0000 0.0000 0.0000 -60.6308 0.0000 -3.1872
# 5 4.1038 2.5398 12.1312 0.0000 19.6408 0.0000
# 6 0.0000 0.0000 0.0000 -3.1872 0.0000 14.7239
#
#
#
# Elastic Compliance Matrix: (Units=1/GPa)
#
#
# Indices 1 2 3 4 5 6 
#
# 1 0.023661 -0.019757 -0.012754 0.000000 0.005489 0.000000
# 2 -0.019757 0.059951 -0.001790 0.000000 -0.002519 0.000000
# 3 -0.012754 -0.001790 0.019813 0.000000 -0.009341 0.000000
# 4 0.000000 0.000000 0.000000 -0.016308 0.000000 -0.003530
# 5 0.005489 -0.002519 -0.009341 0.000000 0.055863 0.000000
# 6 0.000000 0.000000 0.000000 -0.003530 0.000000 0.067153
#
#
# Mechanical properties :
#
#
# Convention : Reuss Voigt Hill
#
# Bulk Modulus (GPa) = 28.71757 65.79866 47.25812
# Shear Modulus (GPa) = 17.22103 2.00258 9.61180
#
# Velocity S-wave (km/s) = 3.01170 1.02702 2.25001
# Velocity P-wave (km/s) = 5.21722 6.00522 5.62504
#
# Compressibility (1/GPa) = 0.03482188
#
# Stress axis : x y z
#
# Youngs Moduli (GPa) = 42.26395 16.68023 50.47281
#
# Poissons Ratio (x) = 0.32956 0.64372
# Poissons Ratio (y) = 0.83502 0.09037
# Poissons Ratio (z) = 0.53902 0.02986
#
# Static dielectric constant tensor:
#      x y z
#    x 1.659700 0.000000 0.004160 
#    y 0.000000 1.631820 0.000000 
#    z 0.004160 0.000000 1.650810 
# 
# From -- ./inp_files/5052.got.cif
#   From: 2010.05.17/outbox.cif.g08.bks.cpg/sg6_3_cif.got.tgz:5052.got - 2010.06.03 19:42:10.
