data_PCOD9130687
_publ_section_title
;
Structure prediction by ZEFSAII (Michael W. Deem and Ramdas Pophale) SiO2 
 PCOD9130687
Probable space group: C 2
;
_chemical_formula_sum "Si O2"
_cell_formula_units_Z 16
_cell_length_a 15.000000
_cell_length_b 24.000000
_cell_length_c 9.000000
_cell_angle_alpha 90.000000
_cell_angle_beta 30.000000
_cell_angle_gamma 90.000000
_cell_volume 1620.000000
_symmetry_space_group_name_H-M "C 2"
_symmetry_group_IT_number 5
_symmetry_cell_setting 'monoclinic'
loop_
_space_group_symop_operation_xyz
x,y,z
-x,y,-z
1/2+x,1/2+y,z
1/2-x,1/2+y,-z
loop_
_atom_site_type_symbol
_atom_site_label
_atom_site_fract_x
_atom_site_fract_y
_atom_site_fract_z
Si Si1 0.018236 0.943120 0.791627
Si Si2 0.321467 0.801145 0.659865
Si Si3 0.815140 0.241581 0.354595
Si Si4 0.154823 0.426412 0.391692
Si Si5 0.154198 0.042301 0.394440
Si Si6 0.520527 0.322015 0.648671
Si Si7 0.027432 0.522038 0.782576
Si Si8 0.175930 0.111266 0.647110
O O1 0.062353 0.882836 0.659783
O O2 0.809431 0.952335 0.066411
O O3 0.128426 0.990449 0.548151
O O4 0.000000 0.943838 0.000000
O O5 0.500000 0.794513 0.500000
O O6 0.319272 0.760658 0.521331
O O7 0.303585 0.863719 0.617405
O O8 0.157656 0.799681 0.012037
O O9 0.672155 0.278835 0.475186
O O10 0.775980 0.175735 0.405512
O O11 0.000000 0.250131 0.000000
O O12 0.000000 0.418737 0.500000
O O13 0.095660 0.465704 0.610217
O O14 0.148684 0.095078 0.513150
O O15 0.000000 0.041870 0.500000
O O16 0.326234 0.038297 0.040231
O O17 0.500000 0.327057 0.500000
O O18 0.163810 0.570218 0.539864
O O19 0.000000 0.518127 0.000000
O O20 0.000000 0.099502 0.000000
#
# Coordination Sequence:
#
# PCOD9130687 Si02
#       8
#     4   4   4   4   4   4   4   4
#     4  11  21  37  60  87 122 163 196 238 301 365
#     4  10  22  39  62  91 123 159 199 246 304 364
#     4  11  24  42  64  87 115 159 209 258 310 360
#     4  10  20  35  55  84 117 151 188 230 286 350
#     4  11  22  36  59  92 122 153 195 248 300 354
#     4  11  23  40  62  91 125 160 202 253 306 366
#     4  10  21  36  57  84 114 152 191 235 289 346
#     4  10  23  43  61  80 113 155 202 248 296 359
#
# _framework density 9.8765429999999999
#
# number of rings (size 3 to 8) (size 9 to 14) (size 15 to 20)
#    0.000    1.500    0.000    6.375    0.000    7.000 
#    0.000    3.125    0.000    0.000    0.000    0.000 
#    0.000    0.000    0.000    0.000    0.000    0.000 
#
# Total GULP energy -89183.810807 kJ/mol
# GULP energy per Si atom -5573.988175 kJ/mol
# Density = 0.985406 g / cm^3
# Si number density = 9.876543 Si / 1000 Ang^3
#
#
#
# Elastic Constant Matrix: (Units=GPa)
#
#
# Indices 1 2 3 4 5 6 
#
# 1 50.8917 -1.1353 -19.6110 0.0000 -3.0618 0.0010
# 2 -1.1353 61.7391 22.9612 -0.0004 3.6324 0.0019
# 3 -19.6110 22.9612 73.9839 0.0003 -6.9419 0.0009
# 4 0.0000 -0.0004 0.0003 33.0568 -0.0005 5.4294
# 5 -3.0618 3.6324 -6.9419 -0.0005 28.6938 0.0013
# 6 0.0010 0.0019 0.0009 5.4294 0.0013 21.1282
#
#
#
# Elastic Compliance Matrix: (Units=1/GPa)
#
#
# Indices 1 2 3 4 5 6 
#
# 1 0.022639 -0.002527 0.007206 0.000000 0.004479 -0.000001
# 2 -0.002527 0.019002 -0.006977 0.000000 -0.004363 -0.000001
# 3 0.007206 -0.006977 0.018159 0.000000 0.006045 -0.000001
# 4 0.000000 0.000000 0.000000 0.031584 0.000001 -0.008116
# 5 0.004479 -0.004363 0.006045 0.000001 0.037343 -0.000003
# 6 -0.000001 -0.000001 -0.000001 -0.008116 -0.000003 0.049416
#
#
# Mechanical properties :
#
#
# Convention : Reuss Voigt Hill
#
# Bulk Modulus (GPa) = 18.11458 21.22717 19.67087
# Shear Modulus (GPa) = 24.85819 28.86910 26.86364
#
# Velocity S-wave (km/s) = 3.55131 3.82710 3.69178
# Velocity P-wave (km/s) = 5.09962 5.50441 5.30588
#
# Compressibility (1/GPa) = 0.05520417
#
# Stress axis : x y z
#
# Youngs Moduli (GPa) = 44.17093 52.62587 55.06945
#
# Poissons Ratio (x) = 0.13299 -0.39681
# Poissons Ratio (y) = 0.11162 0.38420
# Poissons Ratio (z) = -0.31828 0.36715
#
# Static dielectric constant tensor:
#      x y z
#    x 1.775920 0.000000 -0.107950 
#    y 0.000000 1.681630 0.000000 
#    z -0.107950 0.000000 1.753030 
# 
# From -- ./inp_files/25576.got.cif
#   From: 2010.05.17/outbox.ucp.g08.bks.cvg/sg5_13_cif.got.tgz:25576.got - 2010.06.11 12:53:14.
