data_PCOD9130520
_publ_section_title
;
Structure prediction by ZEFSAII (Michael W. Deem and Ramdas Pophale) SiO2 
 PCOD9130520
Probable space group: C 2
;
_chemical_formula_sum "Si O2"
_cell_formula_units_Z 20
_cell_length_a 9.156806
_cell_length_b 5.202449
_cell_length_c 17.525943
_cell_angle_alpha 90.000000
_cell_angle_beta 85.894304
_cell_angle_gamma 90.000000
_cell_volume 832.755029
_symmetry_space_group_name_H-M "C 2"
_symmetry_group_IT_number 5
_symmetry_cell_setting 'monoclinic'
loop_
_space_group_symop_operation_xyz
x,y,z
-x,y,-z
1/2+x,1/2+y,z
1/2-x,1/2+y,-z
loop_
_atom_site_type_symbol
_atom_site_label
_atom_site_fract_x
_atom_site_fract_y
_atom_site_fract_z
Si Si1 0.837548 0.677260 0.470973
Si Si2 0.614080 0.313538 0.935828
Si Si3 0.324457 0.096502 0.766706
Si Si4 0.337280 0.095583 0.290171
Si Si5 0.178069 0.913578 0.092989
O O1 0.747389 0.444753 0.512900
O O2 0.847194 0.616521 0.381102
O O3 0.000000 0.693633 0.500000
O O4 0.494728 0.477308 0.893710
O O5 0.705939 0.119449 0.883064
O O6 0.500000 0.166212 0.000000
O O7 0.700841 0.448110 0.000827
O O8 0.497070 0.062666 0.746456
O O9 0.264315 0.354234 0.728700
O O10 0.301502 0.157280 0.858247
O O11 0.236506 0.857651 0.736992
#
# Coordination Sequence:
#
# PCOD9130520 Si02
#       5
#     4   4   4   4   4
#     4  12  25  45  74 101 137 177 224 275 332 393
#     4   8  20  37  59  87 121 162 231 267 322 384
#     4  12  26  45  70  98 144 177 225 274 348 397
#     4  12  26  46  69 105 135 179 223 276 330 418
#     4   9  20  41  60  92 124 177 213 284 325 391
#
# _framework density 24.016667000000002
#
# number of rings (size 3 to 8) (size 9 to 14) (size 15 to 20)
#    1.200    0.000    0.000    6.600    0.000    4.800 
#    7.200    0.000    0.000    0.000    0.000    0.000 
#    0.000    0.000    0.000    0.000    0.000    0.000 
#
# Total GULP energy -55849.941755 kJ/mol
# GULP energy per Si atom -5584.994175 kJ/mol
# Density = 2.396200 g / cm^3
# Si number density = 24.016667 Si / 1000 Ang^3
#
#
#
# Elastic Constant Matrix: (Units=GPa)
#
#
# Indices 1 2 3 4 5 6 
#
# 1 154.8721 40.2049 6.2518 0.0000 13.7242 0.0000
# 2 40.2049 89.1711 -18.1553 0.0000 9.7158 0.0000
# 3 6.2518 -18.1553 106.5634 0.0000 15.7348 0.0000
# 4 0.0000 0.0000 0.0000 39.6547 0.0000 7.0618
# 5 13.7242 9.7158 15.7348 0.0000 32.6929 0.0000
# 6 0.0000 0.0000 0.0000 7.0618 0.0000 35.8288
#
#
#
# Elastic Compliance Matrix: (Units=1/GPa)
#
#
# Indices 1 2 3 4 5 6 
#
# 1 0.007515 -0.003343 -0.000744 0.000000 -0.001803 0.000000
# 2 -0.003343 0.013830 0.003178 0.000000 -0.004236 0.000000
# 3 -0.000744 0.003178 0.010832 0.000000 -0.005845 0.000000
# 4 0.000000 0.000000 0.000000 0.026135 0.000000 -0.005151
# 5 -0.001803 -0.004236 -0.005845 0.000000 0.035417 0.000000
# 6 0.000000 0.000000 0.000000 -0.005151 0.000000 0.028926
#
#
# Mechanical properties :
#
#
# Convention : Reuss Voigt Hill
#
# Bulk Modulus (GPa) = 32.94007 45.24551 39.09279
# Shear Modulus (GPa) = 37.14888 43.12230 40.13559
#
# Velocity S-wave (km/s) = 3.93720 4.24195 4.09241
# Velocity P-wave (km/s) = 5.86634 6.54769 6.21636
#
# Compressibility (1/GPa) = 0.03035817
#
# Stress axis : x y z
#
# Youngs Moduli (GPa) = 133.07327 72.30456 92.31646
#
# Poissons Ratio (x) = 0.24173 0.06871
# Poissons Ratio (y) = 0.44490 -0.29338
# Poissons Ratio (z) = 0.09904 -0.22978
#
# Static dielectric constant tensor:
#      x y z
#    x 2.053570 0.000000 0.020070 
#    y 0.000000 1.952000 0.000000 
#    z 0.020070 0.000000 1.942000 
# 
# From -- ./inp_files/59154.got.cif
#   From: 2010.05.17/outbox.cif.g08.bks.cpg/sg5_30_cif.got.tgz:59154.got - 2010.06.03 18:56:24.
