data_PCOD9130132
_publ_section_title
;
Structure prediction by ZEFSAII (Michael W. Deem and Ramdas Pophale) SiO2 
 PCOD9130132
Probable space group: C 2
;
_chemical_formula_sum "Si O2"
_cell_formula_units_Z 24
_cell_length_a 8.656884
_cell_length_b 17.293669
_cell_length_c 14.842907
_cell_angle_alpha 90.000000
_cell_angle_beta 32.526110
_cell_angle_gamma 90.000000
_cell_volume 1194.798673
_symmetry_space_group_name_H-M "C 2"
_symmetry_group_IT_number 5
_symmetry_cell_setting 'monoclinic'
loop_
_space_group_symop_operation_xyz
x,y,z
-x,y,-z
1/2+x,1/2+y,z
1/2-x,1/2+y,-z
loop_
_atom_site_type_symbol
_atom_site_label
_atom_site_fract_x
_atom_site_fract_y
_atom_site_fract_z
Si Si1 0.500000 0.765350 0.000000
Si Si2 0.185190 0.522588 0.999030
Si Si3 0.358375 0.013198 0.660242
Si Si4 0.307630 0.855551 0.459579
Si Si5 0.063820 0.632939 0.214362
Si Si6 0.500000 0.722563 0.500000
Si Si7 0.369407 0.872744 0.220624
O O1 0.241539 0.708935 0.151233
O O2 0.541103 0.819132 0.066385
O O3 0.516215 0.501726 0.817022
O O4 0.192878 0.595781 0.060932
O O5 0.000000 0.535084 0.000000
O O6 0.017329 0.455951 0.136770
O O7 0.500000 0.046894 0.500000
O O8 0.419205 0.070254 0.714122
O O9 0.509911 0.930613 0.601516
O O10 0.396541 0.780358 0.472143
O O11 0.370454 0.844653 0.322710
O O12 0.968442 0.873640 0.639832
O O13 0.750572 0.664830 0.347904
#
# Coordination Sequence:
#
# PCOD9130132 Si02
#       7
#     2   4   4   4   4   2   4
#     4  12  24  50  68 104 142 186 226 300 348 406
#     4  12  26  45  72 106 137 189 237 284 349 421
#     4  12  26  45  73 102 142 186 238 285 347 422
#     4  11  25  46  71 107 138 188 236 283 349 421
#     4  12  28  48  72 102 149 183 229 296 355 408
#     4  12  28  46  72 108 146 180 234 294 356 406
#     4  11  25  44  76 101 142 187 236 283 347 423
#
# _framework density 20.087066
#
# number of rings (size 3 to 8) (size 9 to 14) (size 15 to 20)
#    0.000    0.333    6.667    1.000    7.000    2.667 
#    0.000    0.000    0.000    0.000    0.000    0.000 
#    0.000    0.000    0.000    0.000    0.000    0.000 
#
# Total GULP energy -67085.632434 kJ/mol
# GULP energy per Si atom -5590.469370 kJ/mol
# Density = 2.004135 g / cm^3
# Si number density = 20.087066 Si / 1000 Ang^3
#
#
#
# Elastic Constant Matrix: (Units=GPa)
#
#
# Indices 1 2 3 4 5 6 
#
# 1 101.4354 24.5922 43.1880 -0.0172 4.7197 0.0042
# 2 24.5922 56.6633 12.7743 0.0103 1.3918 -0.0150
# 3 43.1880 12.7743 97.5486 -0.0781 -5.0544 0.0508
# 4 -0.0172 0.0103 -0.0781 29.8465 0.0091 2.4738
# 5 4.7197 1.3918 -5.0544 0.0091 42.5864 -0.0044
# 6 0.0042 -0.0150 0.0508 2.4738 -0.0044 17.0272
#
#
#
# Elastic Compliance Matrix: (Units=1/GPa)
#
#
# Indices 1 2 3 4 5 6 
#
# 1 0.013357 -0.004526 -0.005423 -0.000005 -0.001976 0.000009
# 2 -0.004526 0.019751 -0.000594 -0.000013 -0.000214 0.000022
# 3 -0.005423 -0.000594 0.012841 0.000034 0.002145 -0.000042
# 4 -0.000005 -0.000013 0.000034 0.033913 -0.000003 -0.004927
# 5 -0.001976 -0.000214 0.002145 -0.000003 0.023962 0.000000
# 6 0.000009 0.000022 -0.000042 -0.004927 0.000000 0.059446
#
#
# Mechanical properties :
#
#
# Convention : Reuss Voigt Hill
#
# Bulk Modulus (GPa) = 40.21931 46.30626 43.26278
# Shear Modulus (GPa) = 25.95461 29.56488 27.75974
#
# Velocity S-wave (km/s) = 3.59849 3.84061 3.72152
# Velocity P-wave (km/s) = 6.10995 6.53987 6.32856
#
# Compressibility (1/GPa) = 0.02486368
#
# Stress axis : x y z
#
# Youngs Moduli (GPa) = 74.86899 50.62916 77.87390
#
# Poissons Ratio (x) = 0.22913 0.42232
# Poissons Ratio (y) = 0.33884 0.04626
# Poissons Ratio (z) = 0.40603 0.03007
#
# Static dielectric constant tensor:
#      x y z
#    x 1.727920 0.000000 -0.048880 
#    y 0.000000 1.656280 -0.000010 
#    z -0.048880 -0.000010 1.765420 
# 
# From -- ./inp_files/15702.got.cif
#   From: 2010.05.17/outbox.cif.g08.bks.cpg/sg5_8_cif.got.tgz:15702.got - 2010.06.03 18:56:24.
