data_PCOD9130586
_publ_section_title
;
Structure prediction by ZEFSAII (Michael W. Deem and Ramdas Pophale) SiO2 
 PCOD9130586
Probable space group: C 2
;
_chemical_formula_sum "Si O2"
_cell_formula_units_Z 18
_cell_length_a 22.297760
_cell_length_b 4.866894
_cell_length_c 7.087305
_cell_angle_alpha 90.000000
_cell_angle_beta 99.665087
_cell_angle_gamma 90.000000
_cell_volume 758.203324
_symmetry_space_group_name_H-M "C 2"
_symmetry_group_IT_number 5
_symmetry_cell_setting 'monoclinic'
loop_
_space_group_symop_operation_xyz
x,y,z
-x,y,-z
1/2+x,1/2+y,z
1/2-x,1/2+y,-z
loop_
_atom_site_type_symbol
_atom_site_label
_atom_site_fract_x
_atom_site_fract_y
_atom_site_fract_z
Si Si1 0.853862 0.297090 0.355473
Si Si2 0.000000 0.532821 0.000000
Si Si3 0.736637 0.072495 0.117991
Si Si4 0.600963 0.316345 0.861843
Si Si5 0.119963 0.224481 0.193174
O O1 0.867049 0.587125 0.258639
O O2 0.893625 0.092413 0.252117
O O3 0.871393 0.245822 0.579387
O O4 0.944495 0.355394 0.892759
O O5 0.032348 0.714231 0.857523
O O6 0.676086 0.911594 0.146058
O O7 0.783047 0.200995 0.294877
O O8 0.771840 0.830368 0.025686
O O9 0.619878 0.430315 0.085034
#
# Coordination Sequence:
#
# PCOD9130586 Si02
#       5
#     4   2   4   4   4
#     4  12  29  52  84 123 162 218 277 339 424 497
#     4  12  26  58  80 116 168 218 270 346 404 490
#     4  12  26  51  82 116 166 208 266 345 415 494
#     4  12  27  56  79 121 166 212 276 343 404 493
#     4  12  30  55  86 118 170 220 273 343 420 495
#
# _framework density 23.740331999999999
#
# number of rings (size 3 to 8) (size 9 to 14) (size 15 to 20)
#    0.000    0.000    4.444    3.333    3.111    4.444 
#    4.000    0.000    0.000    0.000    0.000    0.000 
#    0.000    0.000    0.000    0.000    0.000    0.000 
#
# Total GULP energy -50252.514835 kJ/mol
# GULP energy per Si atom -5583.612759 kJ/mol
# Density = 2.368630 g / cm^3
# Si number density = 23.740332 Si / 1000 Ang^3
#
#
#
# Elastic Constant Matrix: (Units=GPa)
#
#
# Indices 1 2 3 4 5 6 
#
# 1 158.1747 33.9069 43.1207 0.0000 19.2410 0.0000
# 2 33.9069 153.1841 43.2121 0.0000 1.6135 0.0000
# 3 43.1207 43.2121 166.8676 0.0000 8.2774 0.0000
# 4 0.0000 0.0000 0.0000 19.2747 0.0000 -1.3317
# 5 19.2410 1.6135 8.2774 0.0000 16.7873 0.0000
# 6 0.0000 0.0000 0.0000 -1.3317 0.0000 46.6981
#
#
#
# Elastic Compliance Matrix: (Units=1/GPa)
#
#
# Indices 1 2 3 4 5 6 
#
# 1 0.007978 -0.001309 -0.001307 0.000000 -0.008373 0.000000
# 2 -0.001309 0.007258 -0.001621 0.000000 0.001602 0.000000
# 3 -0.001307 -0.001621 0.006835 0.000000 -0.001716 0.000000
# 4 0.000000 0.000000 0.000000 0.051984 0.000000 0.001482
# 5 -0.008373 0.001602 -0.001716 0.000000 0.069858 0.000000
# 6 0.000000 0.000000 0.000000 0.001482 0.000000 0.021456
#
#
# Mechanical properties :
#
#
# Convention : Reuss Voigt Hill
#
# Bulk Modulus (GPa) = 73.54329 79.85620 76.69974
# Shear Modulus (GPa) = 28.03066 40.41780 34.22423
#
# Velocity S-wave (km/s) = 3.43989 4.13061 3.80097
# Velocity P-wave (km/s) = 6.84270 7.51396 7.18617
#
# Compressibility (1/GPa) = 0.01359743
#
# Stress axis : x y z
#
# Youngs Moduli (GPa) = 125.35049 137.77607 146.29643
#
# Poissons Ratio (x) = 0.18033 0.19124
# Poissons Ratio (y) = 0.16407 0.23712
# Poissons Ratio (z) = 0.16386 0.22331
#
# Static dielectric constant tensor:
#      x y z
#    x 1.988240 0.000000 0.036210 
#    y 0.000000 1.910320 0.000000 
#    z 0.036210 0.000000 1.933690 
# 
# From -- ./inp_files/25856.got.cif
#   From: 2010.05.17/outbox.cif.g08.bks.cpg/sg5_13_cif.got.tgz:25856.got - 2010.06.03 18:56:24.
