data_PCOD9130560
_publ_section_title
;
Structure prediction by ZEFSAII (Michael W. Deem and Ramdas Pophale) SiO2 
 PCOD9130560
Probable space group: C 2
;
_chemical_formula_sum "Si O2"
_cell_formula_units_Z 20
_cell_length_a 4.614599
_cell_length_b 9.059603
_cell_length_c 18.407469
_cell_angle_alpha 90.000000
_cell_angle_beta 96.053545
_cell_angle_gamma 90.000000
_cell_volume 765.259468
_symmetry_space_group_name_H-M "C 2"
_symmetry_group_IT_number 5
_symmetry_cell_setting 'monoclinic'
loop_
_space_group_symop_operation_xyz
x,y,z
-x,y,-z
1/2+x,1/2+y,z
1/2-x,1/2+y,-z
loop_
_atom_site_type_symbol
_atom_site_label
_atom_site_fract_x
_atom_site_fract_y
_atom_site_fract_z
Si Si1 0.474223 0.228240 0.748141
Si Si2 0.424235 0.498152 0.341501
Si Si3 0.317232 0.682240 0.857902
Si Si4 0.770096 0.242779 0.554929
Si Si5 0.217213 0.411027 0.949251
O O1 0.424913 0.385988 0.711810
O O2 0.328757 0.095528 0.702280
O O3 0.831244 0.206494 0.770449
O O4 0.466345 0.214086 0.835729
O O5 0.303143 0.381967 0.397235
O O6 0.621379 0.612126 0.390786
O O7 0.334322 0.522601 0.891503
O O8 0.494097 0.793485 0.910388
O O9 0.500000 0.995672 0.000000
O O10 0.500000 0.190818 0.500000
O O11 0.000000 0.285933 0.500000
O O12 0.500000 0.355793 0.000000
#
# Coordination Sequence:
#
# PCOD9130560 Si02
#       5
#     4   4   4   4   4
#     4  12  27  48  77 113 154 201 255 316 381 455
#     4  12  29  51  80 114 155 204 256 318 384 456
#     4  12  26  48  76 112 152 200 253 314 379 452
#     4  12  30  52  80 115 156 203 257 318 383 457
#     4  12  26  47  78 112 153 202 255 316 381 454
#
# _framework density 26.134927999999999
#
# number of rings (size 3 to 8) (size 9 to 14) (size 15 to 20)
#    0.000    0.000    0.000    8.400    0.000   19.200 
#    0.000    0.000    0.000    0.000    0.000    0.000 
#    0.000    0.000    0.000    0.000    0.000    0.000 
#
# Total GULP energy -55840.326031 kJ/mol
# GULP energy per Si atom -5584.032603 kJ/mol
# Density = 2.607544 g / cm^3
# Si number density = 26.134928 Si / 1000 Ang^3
#
#
#
# Elastic Constant Matrix: (Units=GPa)
#
#
# Indices 1 2 3 4 5 6 
#
# 1 61.5160 43.2342 61.1329 0.0000 20.7474 0.0000
# 2 43.2342 219.7512 107.5478 0.0000 51.1674 0.0000
# 3 61.1329 107.5478 188.3755 0.0000 69.9245 0.0000
# 4 0.0000 0.0000 0.0000 41.3238 0.0000 -10.6462
# 5 20.7474 51.1674 69.9245 0.0000 57.5997 0.0000
# 6 0.0000 0.0000 0.0000 -10.6462 0.0000 6.4448
#
#
#
# Elastic Compliance Matrix: (Units=1/GPa)
#
#
# Indices 1 2 3 4 5 6 
#
# 1 0.024373 -0.001425 -0.007840 0.000000 0.002004 0.000000
# 2 -0.001425 0.006562 -0.002386 0.000000 -0.002420 0.000000
# 3 -0.007840 -0.002386 0.013433 0.000000 -0.011364 0.000000
# 4 0.000000 0.000000 0.000000 0.042128 0.000000 0.069591
# 5 0.002004 -0.002420 -0.011364 0.000000 0.032585 0.000000
# 6 0.000000 0.000000 0.000000 0.069591 0.000000 0.270124
#
#
# Mechanical properties :
#
#
# Convention : Reuss Voigt Hill
#
# Bulk Modulus (GPa) = 47.46878 99.27472 73.37175
# Shear Modulus (GPa) = 11.91816 38.25549 25.08682
#
# Velocity S-wave (km/s) = 2.13779 3.83007 3.10158
# Velocity P-wave (km/s) = 4.92909 7.59126 6.40012
#
# Compressibility (1/GPa) = 0.02106648
#
# Stress axis : x y z
#
# Youngs Moduli (GPa) = 41.02975 152.39381 74.44112
#
# Poissons Ratio (x) = 0.21713 0.58363
# Poissons Ratio (y) = 0.05846 0.17760
# Poissons Ratio (z) = 0.32168 0.36358
#
# Static dielectric constant tensor:
#      x y z
#    x 2.121980 0.000000 -0.102450 
#    y 0.000000 1.952470 0.000000 
#    z -0.102450 0.000000 1.962960 
# 
# From -- ./inp_files/63841.got.cif
#   From: 2010.05.17/outbox.cif.g08.bks.cpg/sg5_32_cif.got.tgz:63841.got - 2010.06.03 18:56:24.
