data_PCOD9130462
_publ_section_title
;
Structure prediction by ZEFSAII (Michael W. Deem and Ramdas Pophale) SiO2 
 PCOD9130462
Probable space group: C 2
;
_chemical_formula_sum "Si O2"
_cell_formula_units_Z 18
_cell_length_a 9.157691
_cell_length_b 10.270166
_cell_length_c 8.824336
_cell_angle_alpha 90.000000
_cell_angle_beta 113.251327
_cell_angle_gamma 90.000000
_cell_volume 762.531862
_symmetry_space_group_name_H-M "C 2"
_symmetry_group_IT_number 5
_symmetry_cell_setting 'monoclinic'
loop_
_space_group_symop_operation_xyz
x,y,z
-x,y,-z
1/2+x,1/2+y,z
1/2-x,1/2+y,-z
loop_
_atom_site_type_symbol
_atom_site_label
_atom_site_fract_x
_atom_site_fract_y
_atom_site_fract_z
Si Si1 0.574085 0.883570 0.812533
Si Si2 0.670307 0.489623 0.879944
Si Si3 0.000000 0.185816 0.000000
Si Si4 0.341977 0.364217 0.668900
Si Si5 0.702251 0.072898 0.386120
O O1 0.672682 0.915133 0.004683
O O2 0.470483 0.762049 0.829742
O O3 0.707568 0.856093 0.743092
O O4 0.463938 0.998938 0.710202
O O5 0.641072 0.591449 0.004022
O O6 0.517711 0.395789 0.803505
O O7 0.704028 0.559627 0.734978
O O8 0.296506 0.485316 0.544320
O O9 0.330374 0.222627 0.586212
#
# Coordination Sequence:
#
# PCOD9130462 Si02
#       5
#     4   4   2   4   4
#     4  12  26  46  76 105 141 187 243 296 354 427
#     4  12  26  46  76 105 141 187 243 296 354 427
#     4  12  24  44  78 106 142 180 242 296 366 408
#     4  12  29  47  72 107 148 192 238 294 360 426
#     4  12  29  47  72 107 148 192 238 294 360 426
#
# _framework density 23.60557
#
# number of rings (size 3 to 8) (size 9 to 14) (size 15 to 20)
#    0.000    0.000    6.667    1.333    6.222    7.111 
#    0.000    0.000    0.000    0.000    0.000    0.000 
#    0.000    0.000    0.000    0.000    0.000    0.000 
#
# Total GULP energy -50335.243881 kJ/mol
# GULP energy per Si atom -5592.804876 kJ/mol
# Density = 2.355184 g / cm^3
# Si number density = 23.605570 Si / 1000 Ang^3
#
#
#
# Elastic Constant Matrix: (Units=GPa)
#
#
# Indices 1 2 3 4 5 6 
#
# 1 98.9693 13.9614 7.6073 0.0000 14.6457 0.0000
# 2 13.9614 120.3286 13.0289 0.0000 27.7969 0.0000
# 3 7.6073 13.0289 58.6575 0.0000 16.7783 0.0000
# 4 0.0000 0.0000 0.0000 30.2542 0.0000 -5.7763
# 5 14.6457 27.7969 16.7783 0.0000 37.8335 0.0000
# 6 0.0000 0.0000 0.0000 -5.7763 0.0000 19.5688
#
#
#
# Elastic Compliance Matrix: (Units=1/GPa)
#
#
# Indices 1 2 3 4 5 6 
#
# 1 0.010733 -0.000342 -0.000228 0.000000 -0.003802 0.000000
# 2 -0.000342 0.010021 -0.000130 0.000000 -0.007173 0.000000
# 3 -0.000228 -0.000130 0.019532 0.000000 -0.008478 0.000000
# 4 0.000000 0.000000 0.000000 0.035027 0.000000 0.010339
# 5 -0.003802 -0.007173 -0.008478 0.000000 0.036933 0.000000
# 6 0.000000 0.000000 0.000000 0.010339 0.000000 0.054154
#
#
# Mechanical properties :
#
#
# Convention : Reuss Voigt Hill
#
# Bulk Modulus (GPa) = 25.71716 38.57228 32.14472
# Shear Modulus (GPa) = 27.66064 33.75515 30.70789
#
# Velocity S-wave (km/s) = 3.42685 3.78559 3.61068
# Velocity P-wave (km/s) = 5.15518 5.95679 5.57043
#
# Compressibility (1/GPa) = 0.03888454
#
# Stress axis : x y z
#
# Youngs Moduli (GPa) = 93.17409 99.78736 51.19905
#
# Poissons Ratio (x) = 0.03415 0.01169
# Poissons Ratio (y) = 0.03189 0.00665
# Poissons Ratio (z) = 0.02128 0.01296
#
# Static dielectric constant tensor:
#      x y z
#    x 1.862460 0.000000 -0.033820 
#    y 0.000000 1.937540 0.000000 
#    z -0.033820 0.000000 1.892040 
# 
# From -- ./inp_files/34659.got.cif
#   From: 2010.05.17/outbox.cif.g08.bks.cpg/sg5_18_cif.got.tgz:34659.got - 2010.06.03 18:56:24.
