data_PCOD9130386
_publ_section_title
;
Structure prediction by ZEFSAII (Michael W. Deem and Ramdas Pophale) SiO2 
 PCOD9130386
Probable space group: C 2
;
_chemical_formula_sum "Si O2"
_cell_formula_units_Z 20
_cell_length_a 23.110624
_cell_length_b 5.305111
_cell_length_c 11.638307
_cell_angle_alpha 90.000000
_cell_angle_beta 33.810812
_cell_angle_gamma 90.000000
_cell_volume 794.006374
_symmetry_space_group_name_H-M "C 2"
_symmetry_group_IT_number 5
_symmetry_cell_setting 'monoclinic'
loop_
_space_group_symop_operation_xyz
x,y,z
-x,y,-z
1/2+x,1/2+y,z
1/2-x,1/2+y,-z
loop_
_atom_site_type_symbol
_atom_site_label
_atom_site_fract_x
_atom_site_fract_y
_atom_site_fract_z
Si Si1 0.814334 0.741880 0.236851
Si Si2 0.614068 0.954310 0.666340
Si Si3 0.500000 0.516032 0.500000
Si Si4 0.000000 0.096413 0.000000
Si Si5 0.319214 0.789377 0.873077
Si Si6 0.444571 0.154761 0.804182
O O1 0.700077 0.844043 0.442042
O O2 0.830850 0.517747 0.302458
O O3 0.898115 0.937226 0.147232
O O4 0.849504 0.707613 0.048450
O O5 0.549083 0.166252 0.708078
O O6 0.523008 0.766575 0.852610
O O7 0.395603 0.680255 0.648349
O O8 0.466026 0.336797 0.661708
O O9 0.408942 0.883795 0.813464
O O10 0.246854 0.551645 0.031934
#
# Coordination Sequence:
#
# PCOD9130386 Si02
#       6
#     4   4   2   2   4   4
#     4  12  26  48  79 120 162 212 265 344 410 503
#     4  12  26  48  80 118 160 215 267 340 417 495
#     4  12  30  56  82 124 164 230 288 360 416 506
#     4  12  22  46  76 116 166 200 280 330 408 496
#     4  12  29  57  83 120 170 222 287 357 425 497
#     4  12  28  53  84 121 169 224 287 347 417 509
#
# _framework density 25.188714999999998
#
# number of rings (size 3 to 8) (size 9 to 14) (size 15 to 20)
#    0.000    0.000    8.000    0.600    2.800    4.800 
#    3.600    0.000    0.000    0.000    0.000    0.000 
#    0.000    0.000    0.000    0.000    0.000    0.000 
#
# Total GULP energy -55891.944507 kJ/mol
# GULP energy per Si atom -5589.194451 kJ/mol
# Density = 2.513138 g / cm^3
# Si number density = 25.188715 Si / 1000 Ang^3
#
#
#
# Elastic Constant Matrix: (Units=GPa)
#
#
# Indices 1 2 3 4 5 6 
#
# 1 68.7855 32.3934 57.3902 -0.0029 13.3273 0.0001
# 2 32.3934 111.4470 62.8687 -0.0144 6.7282 0.0023
# 3 57.3902 62.8687 232.4034 -0.0061 3.2013 0.0022
# 4 -0.0029 -0.0144 -0.0061 19.2730 0.0019 11.4656
# 5 13.3273 6.7282 3.2013 0.0019 46.2971 0.0005
# 6 0.0001 0.0023 0.0022 11.4656 0.0005 15.3180
#
#
#
# Elastic Compliance Matrix: (Units=1/GPa)
#
#
# Indices 1 2 3 4 5 6 
#
# 1 0.020524 -0.003347 -0.004092 -0.000001 -0.005139 0.000002
# 2 -0.003347 0.011218 -0.002201 0.000014 -0.000515 -0.000012
# 3 -0.004092 -0.002201 0.005894 0.000000 0.001090 0.000000
# 4 -0.000001 0.000014 0.000000 0.093537 -0.000005 -0.070013
# 5 -0.005139 -0.000515 0.001090 -0.000005 0.023078 0.000003
# 6 0.000002 -0.000012 0.000000 -0.070013 0.000003 0.117688
#
#
# Mechanical properties :
#
#
# Convention : Reuss Voigt Hill
#
# Bulk Modulus (GPa) = 54.47842 79.77115 67.12479
# Shear Modulus (GPa) = 16.81587 33.50987 25.16287
#
# Velocity S-wave (km/s) = 2.58659 3.65136 3.16408
# Velocity P-wave (km/s) = 5.53133 7.03667 6.32892
#
# Compressibility (1/GPa) = 0.01835589
#
# Stress axis : x y z
#
# Youngs Moduli (GPa) = 48.72376 89.13858 169.66989
#
# Poissons Ratio (x) = 0.29834 0.69430
# Poissons Ratio (y) = 0.16307 0.37348
# Poissons Ratio (z) = 0.19938 0.19621
#
# Static dielectric constant tensor:
#      x y z
#    x 2.124160 0.000000 0.020240 
#    y 0.000000 2.084760 0.000000 
#    z 0.020240 0.000000 1.942480 
# 
# From -- ./inp_files/40994.got.cif
#   From: 2010.05.17/outbox.cif.g08.bks.cpg/sg5_21_cif.got.tgz:40994.got - 2010.06.03 18:56:24.
