data_PCOD9130217
_publ_section_title
;
Structure prediction by ZEFSAII (Michael W. Deem and Ramdas Pophale) SiO2 
 PCOD9130217
Probable space group: C 2
;
_chemical_formula_sum "Si O2"
_cell_formula_units_Z 16
_cell_length_a 6.991574
_cell_length_b 7.513299
_cell_length_c 12.406663
_cell_angle_alpha 90.000000
_cell_angle_beta 122.451831
_cell_angle_gamma 90.000000
_cell_volume 549.948721
_symmetry_space_group_name_H-M "C 2"
_symmetry_group_IT_number 5
_symmetry_cell_setting 'monoclinic'
loop_
_space_group_symop_operation_xyz
x,y,z
-x,y,-z
1/2+x,1/2+y,z
1/2-x,1/2+y,-z
loop_
_atom_site_type_symbol
_atom_site_label
_atom_site_fract_x
_atom_site_fract_y
_atom_site_fract_z
Si Si1 0.482124 0.095010 0.119034
Si Si2 0.739053 0.411775 0.558630
Si Si3 0.362639 0.709603 0.804950
Si Si4 0.753545 0.871836 0.689773
O O1 0.279644 0.175450 0.129152
O O2 0.703193 0.182344 0.242548
O O3 0.483041 0.881198 0.127984
O O4 0.500000 0.144802 0.000000
O O5 0.500000 0.516288 0.500000
O O6 0.007627 0.455990 0.642109
O O7 0.722631 0.350507 0.429840
O O8 0.735238 0.269206 0.654793
O O9 0.436432 0.510199 0.794668
#
# Coordination Sequence:
#
# PCOD9130217 Si02
#       4
#     4   4   4   4
#     4  12  31  55  86 122 173 236 298 358 432 527
#     4  11  25  49  83 128 172 220 282 362 448 527
#     4  12  28  53  78 126 168 224 290 359 431 521
#     4  11  28  51  83 125 176 226 285 365 447 522
#
# _framework density 29.093622
#
# number of rings (size 3 to 8) (size 9 to 14) (size 15 to 20)
#    0.000    0.500    5.000    0.000   14.000    1.000 
#    0.000    0.000    0.000    0.000    0.000    0.000 
#    0.000    0.000    0.000    0.000    0.000    0.000 
#
# Total GULP energy -44741.992171 kJ/mol
# GULP energy per Si atom -5592.749021 kJ/mol
# Density = 2.902740 g / cm^3
# Si number density = 29.093622 Si / 1000 Ang^3
#
#
#
# Elastic Constant Matrix: (Units=GPa)
#
#
# Indices 1 2 3 4 5 6 
#
# 1 164.6401 54.3603 41.8507 0.0000 -24.0823 0.0000
# 2 54.3603 138.9549 30.9075 0.0000 0.4561 0.0000
# 3 41.8507 30.9075 190.4013 0.0000 -58.4702 0.0000
# 4 0.0000 0.0000 0.0000 16.8966 0.0000 21.3678
# 5 -24.0823 0.4561 -58.4702 0.0000 62.6395 0.0000
# 6 0.0000 0.0000 0.0000 21.3678 0.0000 35.1944
#
#
#
# Elastic Compliance Matrix: (Units=1/GPa)
#
#
# Indices 1 2 3 4 5 6 
#
# 1 0.007486 -0.002845 -0.000411 0.000000 0.002515 0.000000
# 2 -0.002845 0.008673 -0.001595 0.000000 -0.002646 0.000000
# 3 -0.000411 -0.001595 0.007789 0.000000 0.007124 0.000000
# 4 0.000000 0.000000 0.000000 0.254877 0.000000 -0.154745
# 5 0.002515 -0.002646 0.007124 0.000000 0.023600 0.000000
# 6 0.000000 0.000000 0.000000 -0.154745 0.000000 0.122365
#
#
# Mechanical properties :
#
#
# Convention : Reuss Voigt Hill
#
# Bulk Modulus (GPa) = 70.20050 83.13702 76.66876
# Shear Modulus (GPa) = 11.38324 47.40463 29.39394
#
# Velocity S-wave (km/s) = 1.98018 4.04094 3.18201
# Velocity P-wave (km/s) = 5.42307 7.10000 6.31742
#
# Compressibility (1/GPa) = 0.01424491
#
# Stress axis : x y z
#
# Youngs Moduli (GPa) = 133.58872 115.29878 128.38389
#
# Poissons Ratio (x) = 0.32805 0.05280
# Poissons Ratio (y) = 0.38009 0.20478
# Poissons Ratio (z) = 0.05494 0.18390
#
# Static dielectric constant tensor:
#      x y z
#    x 2.310480 0.000000 0.097570 
#    y 0.000000 2.257840 0.000000 
#    z 0.097570 0.000000 2.245900 
# 
# From -- ./inp_files/34664.got.cif
#   From: 2010.05.17/outbox.cif.g08.bks.cpg/sg5_18_cif.got.tgz:34664.got - 2010.06.03 18:56:24.
