data_PCOD9130389
_publ_section_title
;
Structure prediction by ZEFSAII (Michael W. Deem and Ramdas Pophale) SiO2 
 PCOD9130389
Probable space group: C 2
;
_chemical_formula_sum "Si O2"
_cell_formula_units_Z 18
_cell_length_a 14.038418
_cell_length_b 5.441080
_cell_length_c 14.715974
_cell_angle_alpha 90.000000
_cell_angle_beta 138.918150
_cell_angle_gamma 90.000000
_cell_volume 738.665616
_symmetry_space_group_name_H-M "C 2"
_symmetry_group_IT_number 5
_symmetry_cell_setting 'monoclinic'
loop_
_space_group_symop_operation_xyz
x,y,z
-x,y,-z
1/2+x,1/2+y,z
1/2-x,1/2+y,-z
loop_
_atom_site_type_symbol
_atom_site_label
_atom_site_fract_x
_atom_site_fract_y
_atom_site_fract_z
Si Si1 0.500000 0.766261 0.000000
Si Si2 0.893451 0.603523 0.087701
Si Si3 0.670955 0.380511 0.228077
Si Si4 0.811231 0.237158 0.510034
Si Si5 0.364176 0.747028 0.211106
O O1 0.632321 0.607613 0.135654
O O2 0.450904 0.913873 0.053077
O O3 0.895103 0.520111 0.193060
O O4 0.013421 0.812374 0.155277
O O5 0.727892 0.645574 0.939482
O O6 0.777450 0.372882 0.390198
O O7 0.754585 0.211397 0.215671
O O8 0.769704 0.469748 0.546201
O O9 0.976908 0.162148 0.647893
#
# Coordination Sequence:
#
# PCOD9130389 Si02
#       5
#     2   4   4   4   4
#     4  12  22  46  80 108 156 192 260 332 380 466
#     4  12  25  46  75 114 148 198 263 322 387 473
#     4  12  25  49  72 112 154 199 259 327 385 470
#     4  12  29  51  76 111 158 208 262 324 387 472
#     4  12  25  47  76 110 151 206 261 313 407 453
#
# _framework density 24.368265000000001
#
# number of rings (size 3 to 8) (size 9 to 14) (size 15 to 20)
#    0.000    0.000    6.667    3.333    3.111    1.778 
#    0.000    2.222    0.000    0.000    0.000    0.000 
#    0.000    0.000    0.000    0.000    0.000    0.000 
#
# Total GULP energy -50160.090487 kJ/mol
# GULP energy per Si atom -5573.343387 kJ/mol
# Density = 2.431280 g / cm^3
# Si number density = 24.368265 Si / 1000 Ang^3
#
#
#
# Elastic Constant Matrix: (Units=GPa)
#
#
# Indices 1 2 3 4 5 6 
#
# 1 112.3610 6.4602 26.2889 0.0000 18.7794 0.0000
# 2 6.4602 41.4250 -3.3987 0.0000 13.8621 0.0000
# 3 26.2889 -3.3987 128.8111 0.0000 26.6063 0.0000
# 4 0.0000 0.0000 0.0000 11.5294 0.0000 -15.0933
# 5 18.7794 13.8621 26.6063 0.0000 59.2973 0.0000
# 6 0.0000 0.0000 0.0000 -15.0933 0.0000 31.8261
#
#
#
# Elastic Compliance Matrix: (Units=1/GPa)
#
#
# Indices 1 2 3 4 5 6 
#
# 1 0.009676 -0.000916 -0.001554 0.000000 -0.002153 0.000000
# 2 -0.000916 0.026830 0.002348 0.000000 -0.007036 0.000000
# 3 -0.001554 0.002348 0.008987 0.000000 -0.004089 0.000000
# 4 0.000000 0.000000 0.000000 0.228753 0.000000 0.108484
# 5 -0.002153 -0.007036 -0.004089 0.000000 0.021025 0.000000
# 6 0.000000 0.000000 0.000000 0.108484 0.000000 0.082869
#
#
# Mechanical properties :
#
#
# Convention : Reuss Voigt Hill
#
# Bulk Modulus (GPa) = 22.10022 37.92201 30.01112
# Shear Modulus (GPa) = 12.70754 37.41366 25.06060
#
# Velocity S-wave (km/s) = 2.28607 3.92260 3.21036
# Velocity P-wave (km/s) = 4.00713 6.00929 5.10728
#
# Compressibility (1/GPa) = 0.04524841
#
# Stress axis : x y z
#
# Youngs Moduli (GPa) = 103.34825 37.27195 111.27077
#
# Poissons Ratio (x) = 0.03414 0.17294
# Poissons Ratio (y) = 0.09467 -0.26127
# Poissons Ratio (z) = 0.16063 -0.08752
#
# Static dielectric constant tensor:
#      x y z
#    x 1.981080 0.000000 0.043540 
#    y 0.000000 2.193410 0.000000 
#    z 0.043540 0.000000 1.949000 
# 
# From -- ./inp_files/28247.got.cif
#   From: 2010.05.17/outbox.cif.g08.bks.cpg/sg5_15_cif.got.tgz:28247.got - 2010.06.03 18:56:24.
