data_PCOD9130812
_publ_section_title
;
Structure prediction by ZEFSAII (Michael W. Deem and Ramdas Pophale) SiO2 
 PCOD9130812
Probable space group: P M
;
_chemical_formula_sum "Si O2"
_cell_formula_units_Z 16
_cell_length_a 12.485309
_cell_length_b 7.532713
_cell_length_c 10.095362
_cell_angle_alpha 90.000000
_cell_angle_beta 50.783133
_cell_angle_gamma 90.000000
_cell_volume 735.595229
_symmetry_space_group_name_H-M "P M"
_symmetry_group_IT_number 6
_symmetry_cell_setting 'monoclinic'
loop_
_space_group_symop_operation_xyz
x,y,z
x,-y,z
loop_
_atom_site_type_symbol
_atom_site_label
_atom_site_fract_x
_atom_site_fract_y
_atom_site_fract_z
Si Si1 0.289410 0.216400 0.962890
Si Si2 0.974149 0.782826 0.248381
Si Si3 0.264457 0.784484 0.465835
Si Si4 0.466667 0.213906 0.075383
Si Si5 0.728477 0.212780 0.248317
Si Si6 0.996477 0.202247 0.528987
Si Si7 0.769723 0.699367 0.906704
Si Si8 0.427589 0.782507 0.584775
O O1 0.381063 0.272982 0.766652
O O2 0.287220 0.000000 0.965323
O O3 0.366490 0.272933 0.036212
O O4 0.129168 0.271383 0.084801
O O5 0.853489 0.721087 0.243787
O O6 0.955730 0.724971 0.416477
O O7 0.968826 0.000000 0.247648
O O8 0.392802 0.744144 0.270768
O O9 0.307967 0.724323 0.576723
O O10 0.127628 0.715036 0.501353
O O11 0.251349 0.000000 0.484254
O O12 0.479649 0.000000 0.057053
O O13 0.619226 0.289570 0.958501
O O14 0.578404 0.277423 0.416513
O O15 0.724371 0.000000 0.265146
O O16 0.754652 0.246924 0.072191
O O17 0.874020 0.197129 0.730674
O O18 0.040442 0.000000 0.463076
O O19 0.822519 0.500000 0.863708
O O20 0.430858 0.000000 0.581017
#
# Coordination Sequence:
#
# PCOD9130812 Si02
#       8
#     2   2   2   2   2   2   2   2
#     4   9  17  29  52  89 121 138 169 229 290 339
#     4   9  18  32  55  90 121 142 177 230 287 341
#     4   9  16  30  55  85 112 140 181 231 282 333
#     4  10  18  35  61  84 110 144 186 238 287 334
#     4  10  20  36  58  84 115 150 187 231 282 338
#     4  10  20  36  60  88 114 147 188 236 287 340
#     4  12  26  40  54  79 115 157 199 239 279 331
#     4   9  17  28  49  85 118 140 171 222 280 332
#
# _framework density 21.751092
#
# number of rings (size 3 to 8) (size 9 to 14) (size 15 to 20)
#    0.000    2.250    2.500    1.125    3.500    0.000 
#    0.000    1.250    0.000    0.750    0.000    0.000 
#    0.000    0.000    0.000    0.000    0.000    0.000 
#
# Total GULP energy -89316.498568 kJ/mol
# GULP energy per Si atom -5582.281161 kJ/mol
# Density = 2.170159 g / cm^3
# Si number density = 21.751092 Si / 1000 Ang^3
#
#
#
# Elastic Constant Matrix: (Units=GPa)
#
#
# Indices 1 2 3 4 5 6 
#
# 1 134.4735 0.3958 38.1782 0.0000 1.7487 0.0000
# 2 0.3958 51.0578 -0.4515 0.0000 -0.0222 0.0000
# 3 38.1782 -0.4515 99.4701 0.0000 5.7696 0.0000
# 4 0.0000 0.0000 0.0000 -29.7952 0.0000 1.6826
# 5 1.7487 -0.0222 5.7696 0.0000 34.8524 0.0000
# 6 0.0000 0.0000 0.0000 1.6826 0.0000 9.7638
#
#
#
# Elastic Compliance Matrix: (Units=1/GPa)
#
#
# Indices 1 2 3 4 5 6 
#
# 1 0.008347 -0.000093 -0.003211 0.000000 0.000113 0.000000
# 2 -0.000093 0.019587 0.000125 0.000000 -0.000004 0.000000
# 3 -0.003211 0.000125 0.011386 0.000000 -0.001724 0.000000
# 4 0.000000 0.000000 0.000000 -0.033239 0.000000 0.005728
# 5 0.000113 -0.000004 -0.001724 0.000000 0.028972 0.000000
# 6 0.000000 0.000000 0.000000 0.005728 0.000000 0.101432
#
#
# Mechanical properties :
#
#
# Convention : Reuss Voigt Hill
#
# Bulk Modulus (GPa) = 30.33733 40.13850 35.23791
# Shear Modulus (GPa) = 32.50329 19.42279 25.96304
#
# Velocity S-wave (km/s) = 3.86985 2.99148 3.45866
# Velocity P-wave (km/s) = 5.82627 5.51594 5.67323
#
# Compressibility (1/GPa) = 0.03296269
#
# Stress axis : x y z
#
# Youngs Moduli (GPa) = 119.80749 51.05309 87.82652
#
# Poissons Ratio (x) = 0.00475 0.28197
# Poissons Ratio (y) = 0.01115 -0.01096
# Poissons Ratio (z) = 0.38465 -0.00637
#
# Static dielectric constant tensor:
#      x y z
#    x 1.766720 0.000000 0.002960 
#    y 0.000000 1.856640 0.000000 
#    z 0.002960 0.000000 1.755310 
# 
# From -- ./inp_files/3454.got.cif
#   From: 2010.05.17/outbox.cif.g08.bks.cpg/sg6_2_cif.got.tgz:3454.got - 2010.06.03 19:42:10.
