data_PCOD9130582
_publ_section_title
;
Structure prediction by ZEFSAII (Michael W. Deem and Ramdas Pophale) SiO2 
 PCOD9130582
Probable space group: C 2
;
_chemical_formula_sum "Si O2"
_cell_formula_units_Z 18
_cell_length_a 17.715271
_cell_length_b 8.774213
_cell_length_c 5.093900
_cell_angle_alpha 90.000000
_cell_angle_beta 111.046322
_cell_angle_gamma 90.000000
_cell_volume 738.963832
_symmetry_space_group_name_H-M "C 2"
_symmetry_group_IT_number 5
_symmetry_cell_setting 'monoclinic'
loop_
_space_group_symop_operation_xyz
x,y,z
-x,y,-z
1/2+x,1/2+y,z
1/2-x,1/2+y,-z
loop_
_atom_site_type_symbol
_atom_site_label
_atom_site_fract_x
_atom_site_fract_y
_atom_site_fract_z
Si Si1 0.201224 0.560680 0.457901
Si Si2 0.554864 0.293877 0.326836
Si Si3 0.875560 0.126262 0.506004
Si Si4 0.000000 0.326859 0.000000
Si Si5 0.352908 0.884298 0.097472
O O1 0.130971 0.687036 0.348802
O O2 0.290925 0.624745 0.552310
O O3 0.182031 0.474840 0.701761
O O4 0.196819 0.440054 0.214202
O O5 0.500000 0.235412 0.500000
O O6 0.590296 0.456489 0.467262
O O7 0.500000 0.315603 0.000000
O O8 0.940735 0.226120 0.747380
O O9 0.859497 0.210519 0.208558
O O10 0.055762 0.423513 0.876519
#
# Coordination Sequence:
#
# PCOD9130582 Si02
#       5
#     4   4   4   2   4
#     4  12  30  49  81 116 163 200 268 335 397 460
#     4  12  28  48  77 114 158 203 259 326 399 461
#     4  12  28  53  80 116 158 214 266 320 398 483
#     4  12  26  50  82 112 156 218 262 316 386 510
#     4  12  28  50  80 116 154 213 262 324 394 479
#
# _framework density 24.358433999999999
#
# number of rings (size 3 to 8) (size 9 to 14) (size 15 to 20)
#    0.000    0.000    3.333    4.667    7.778    1.778 
#    0.000    0.000    0.000    0.000    0.000    0.000 
#    0.000    0.000    0.000    0.000    0.000    0.000 
#
# Total GULP energy -50452.006438 kJ/mol
# GULP energy per Si atom -5605.778493 kJ/mol
# Density = 2.430299 g / cm^3
# Si number density = 24.358434 Si / 1000 Ang^3
#
#
#
# Elastic Constant Matrix: (Units=GPa)
#
#
# Indices 1 2 3 4 5 6 
#
# 1 150.2035 18.7325 63.9329 0.0000 1.2589 0.0000
# 2 18.7325 97.0979 48.6690 0.0000 0.1884 0.0000
# 3 63.9329 48.6690 136.2309 0.0000 -19.2646 0.0000
# 4 0.0000 0.0000 0.0000 45.3683 0.0000 -13.5247
# 5 1.2589 0.1884 -19.2646 0.0000 51.0405 0.0000
# 6 0.0000 0.0000 0.0000 -13.5247 0.0000 66.9701
#
#
#
# Elastic Compliance Matrix: (Units=1/GPa)
#
#
# Indices 1 2 3 4 5 6 
#
# 1 0.008503 0.000607 -0.004476 0.000000 -0.001901 0.000000
# 2 0.000607 0.012754 -0.005123 0.000000 -0.001996 0.000000
# 3 -0.004476 -0.005123 0.011926 0.000000 0.004631 0.000000
# 4 0.000000 0.000000 0.000000 0.023454 0.000000 0.004737
# 5 -0.001901 -0.001996 0.004631 0.000000 0.021394 0.000000
# 6 0.000000 0.000000 0.000000 0.004737 0.000000 0.015889
#
#
# Mechanical properties :
#
#
# Convention : Reuss Voigt Hill
#
# Bulk Modulus (GPa) = 65.79890 71.80010 68.79950
# Shear Modulus (GPa) = 42.74556 49.48897 46.11727
#
# Velocity S-wave (km/s) = 4.19365 4.51233 4.35590
# Velocity P-wave (km/s) = 7.10776 7.52918 7.32151
#
# Compressibility (1/GPa) = 0.01519782
#
# Stress axis : x y z
#
# Youngs Moduli (GPa) = 117.60350 78.40873 83.84811
#
# Poissons Ratio (x) = -0.04758 0.37532
# Poissons Ratio (y) = -0.07137 0.42958
# Poissons Ratio (z) = 0.52642 0.40171
#
# Static dielectric constant tensor:
#      x y z
#    x 1.896850 0.000000 0.054230 
#    y 0.000000 1.954830 0.000000 
#    z 0.054230 0.000000 1.362620 
# 
# From -- ./inp_files/8084.got.cif
#   From: 2010.05.17/outbox.cif.g08.bks.cpg/sg5_5_cif.got.tgz:8084.got - 2010.06.03 18:56:24.
