data_PCOD9130844
_publ_section_title
;
Structure prediction by ZEFSAII (Michael W. Deem and Ramdas Pophale) SiO2 
 PCOD9130844
Probable space group: P M
;
_chemical_formula_sum "Si O2"
_cell_formula_units_Z 16
_cell_length_a 12.570252
_cell_length_b 8.751836
_cell_length_c 10.569687
_cell_angle_alpha 90.000000
_cell_angle_beta 127.899920
_cell_angle_gamma 90.000000
_cell_volume 917.548518
_symmetry_space_group_name_H-M "P M"
_symmetry_group_IT_number 6
_symmetry_cell_setting 'monoclinic'
loop_
_space_group_symop_operation_xyz
x,y,z
x,-y,z
loop_
_atom_site_type_symbol
_atom_site_label
_atom_site_fract_x
_atom_site_fract_y
_atom_site_fract_z
Si Si1 0.700820 0.183211 0.959850
Si Si2 0.974927 0.684039 0.071941
Si Si3 0.128450 0.683483 0.438803
Si Si4 0.392337 0.317329 0.009320
Si Si5 0.961503 0.183358 0.552829
Si Si6 0.676297 0.183628 0.237344
Si Si7 0.396423 0.183221 0.730261
Si Si8 0.104882 0.684503 0.903423
O O1 0.549860 0.224975 0.806105
O O2 0.713445 0.000000 0.961928
O O3 0.822572 0.258213 0.974061
O O4 0.709012 0.225640 0.114953
O O5 0.974380 0.500000 0.071555
O O6 0.056717 0.733570 0.256710
O O7 0.046311 0.735653 0.995179
O O8 0.126806 0.500000 0.444457
O O9 0.280851 0.742692 0.561469
O O10 0.047096 0.749679 0.498804
O O11 0.395034 0.500000 0.995053
O O12 0.534942 0.261034 0.167805
O O13 0.376514 0.240615 0.859806
O O14 0.261944 0.276156 0.996873
O O15 0.804973 0.225024 0.415544
O O16 0.020788 0.246234 0.726272
O O17 0.972001 0.000000 0.557211
O O18 0.658801 0.000000 0.227369
O O19 0.384858 0.000000 0.720307
O O20 0.095001 0.500000 0.889604
#
# Coordination Sequence:
#
# PCOD9130844 Si02
#       8
#     2   2   2   2   2   2   2   2
#     4   9  18  34  54  79 110 143 179 224 272 324
#     4  10  22  38  56  79 112 149 183 224 275 330
#     4  11  21  34  55  84 111 142 186 231 273 324
#     4  10  19  32  54  81 109 143 182 224 274 325
#     4  11  21  35  57  83 110 144 184 229 278 325
#     4   9  19  34  53  80 112 140 175 227 277 323
#     4  10  20  34  54  81 112 142 180 229 277 323
#     4  10  22  39  55  79 114 147 183 228 274 326
#
# _framework density 17.437767999999998
#
# number of rings (size 3 to 8) (size 9 to 14) (size 15 to 20)
#    0.000    2.000    2.500    2.250    0.000    5.000 
#    0.000    1.250    0.000    4.500    0.000    0.000 
#    0.000    0.000    0.000    0.000    0.000    0.000 
#
# Total GULP energy -89301.582983 kJ/mol
# GULP energy per Si atom -5581.348936 kJ/mol
# Density = 1.739808 g / cm^3
# Si number density = 17.437768 Si / 1000 Ang^3
#
#
#
# Elastic Constant Matrix: (Units=GPa)
#
#
# Indices 1 2 3 4 5 6 
#
# 1 160.0045 38.1536 85.5802 0.0000 12.2565 0.0000
# 2 38.1536 25.8264 30.0695 0.0000 4.4886 0.0000
# 3 85.5802 30.0695 111.2098 0.0000 9.2658 0.0000
# 4 0.0000 0.0000 0.0000 37.0965 0.0000 -4.0594
# 5 12.2565 4.4886 9.2658 0.0000 30.2010 0.0000
# 6 0.0000 0.0000 0.0000 -4.0594 0.0000 40.7379
#
#
#
# Elastic Compliance Matrix: (Units=1/GPa)
#
#
# Indices 1 2 3 4 5 6 
#
# 1 0.012345 -0.010311 -0.006591 0.000000 -0.001455 0.000000
# 2 -0.010311 0.065552 -0.009571 0.000000 -0.002621 0.000000
# 3 -0.006591 -0.009571 0.016738 0.000000 -0.001038 0.000000
# 4 0.000000 0.000000 0.000000 0.027254 0.000000 0.002716
# 5 -0.001455 -0.002621 -0.001038 0.000000 0.034410 0.000000
# 6 0.000000 0.000000 0.000000 0.002716 0.000000 0.024818
#
#
# Mechanical properties :
#
#
# Convention : Reuss Voigt Hill
#
# Bulk Modulus (GPa) = 23.98695 67.18301 45.58498
# Shear Modulus (GPa) = 20.16456 31.15624 25.66040
#
# Velocity S-wave (km/s) = 3.40424 4.23154 3.84023
# Velocity P-wave (km/s) = 5.40716 7.90477 6.77211
#
# Compressibility (1/GPa) = 0.04168933
#
# Stress axis : x y z
#
# Youngs Moduli (GPa) = 81.00294 15.25512 59.74307
#
# Poissons Ratio (x) = 0.15730 0.39376
# Poissons Ratio (y) = 0.83522 0.57180
# Poissons Ratio (z) = 0.53388 0.14601
#
# Static dielectric constant tensor:
#      x y z
#    x 1.586840 0.000000 0.018470 
#    y 0.000000 1.586490 0.000000 
#    z 0.018470 0.000000 1.580290 
# 
# From -- ./inp_files/3758.got.cif
#   From: 2010.05.17/outbox.cif.g08.bks.cpg/sg6_2_cif.got.tgz:3758.got - 2010.06.03 19:42:10.
