data_PCOD9130674
_publ_section_title
;
Structure prediction by ZEFSAII (Michael W. Deem and Ramdas Pophale) SiO2 
 PCOD9130674
Probable space group: C 2
;
_chemical_formula_sum "Si O2"
_cell_formula_units_Z 16
_cell_length_a 15.000000
_cell_length_b 9.000000
_cell_length_c 24.000000
_cell_angle_alpha 90.000000
_cell_angle_beta 30.000000
_cell_angle_gamma 90.000000
_cell_volume 1620.000000
_symmetry_space_group_name_H-M "C 2"
_symmetry_group_IT_number 5
_symmetry_cell_setting 'monoclinic'
loop_
_space_group_symop_operation_xyz
x,y,z
-x,y,-z
1/2+x,1/2+y,z
1/2-x,1/2+y,-z
loop_
_atom_site_type_symbol
_atom_site_label
_atom_site_fract_x
_atom_site_fract_y
_atom_site_fract_z
Si Si1 0.041387 0.938410 0.682286
Si Si2 0.695759 0.467223 0.398115
Si Si3 0.403532 0.729980 0.911858
Si Si4 0.450152 0.386760 0.859387
Si Si5 0.781568 0.429889 0.222302
Si Si6 0.238046 0.254863 0.236407
Si Si7 0.904258 0.285603 0.498037
Si Si8 0.017466 0.283818 0.259108
O O1 0.241307 0.881983 0.563209
O O2 0.988243 0.883009 0.772829
O O3 0.899478 0.886298 0.712335
O O4 0.029815 0.116885 0.695051
O O5 0.500000 0.395348 0.500000
O O6 0.754465 0.468288 0.302103
O O7 0.672155 0.630832 0.436273
O O8 0.839140 0.380282 0.356634
O O9 0.412646 0.553185 0.901145
O O10 0.563485 0.806999 0.860622
O O11 0.421780 0.782787 0.837797
O O12 0.217663 0.784091 0.036771
O O13 0.621274 0.333872 0.800721
O O14 0.820525 0.593504 0.176245
O O15 0.175811 0.335397 0.213794
O O16 0.054847 0.246853 0.371457
O O17 0.000000 0.360409 0.500000
#
# Coordination Sequence:
#
# PCOD9130674 Si02
#       8
#     4   4   4   4   4   4   4   4
#     4  10  22  38  58  87 118 150 193 233 285 343
#     4  10  19  36  55  82 117 155 193 225 278 334
#     4  10  23  42  61  84 112 148 192 244 292 338
#     4  11  22  41  62  84 112 150 192 241 292 342
#     4  10  20  39  59  83 116 151 190 236 281 340
#     4  11  21  38  60  85 119 156 190 232 283 341
#     4  11  20  35  58  86 120 157 190 228 278 333
#     4   9  23  38  56  87 117 150 194 234 285 341
#
# _framework density 9.8765429999999999
#
# number of rings (size 3 to 8) (size 9 to 14) (size 15 to 20)
#    0.000    1.750    3.750    0.750    1.750    3.500 
#    2.250    5.000    0.000    0.000    0.000    0.000 
#    0.000    0.000    0.000    0.000    0.000    0.000 
#
# Total GULP energy -89258.898804 kJ/mol
# GULP energy per Si atom -5578.681175 kJ/mol
# Density = 0.985406 g / cm^3
# Si number density = 9.876543 Si / 1000 Ang^3
#
#
#
# Elastic Constant Matrix: (Units=GPa)
#
#
# Indices 1 2 3 4 5 6 
#
# 1 137.8343 29.1459 15.5317 -0.0002 -30.4381 0.0000
# 2 29.1459 32.5990 29.1952 -0.0001 -4.0098 0.0000
# 3 15.5317 29.1952 56.8594 -0.0012 -23.4791 0.0000
# 4 -0.0002 -0.0001 -0.0012 25.5359 0.0000 -5.7952
# 5 -30.4381 -4.0098 -23.4791 0.0000 13.4542 0.0000
# 6 0.0000 0.0000 0.0000 -5.7952 0.0000 28.3525
#
#
#
# Elastic Compliance Matrix: (Units=1/GPa)
#
#
# Indices 1 2 3 4 5 6 
#
# 1 -0.000073 0.013755 -0.019394 -0.000001 -0.029910 0.000000
# 2 0.013755 0.003781 0.027261 0.000001 0.079819 0.000000
# 3 -0.019394 0.027261 -0.021029 -0.000001 -0.072448 0.000000
# 4 -0.000001 0.000001 -0.000001 0.041066 -0.000003 0.008394
# 5 -0.029910 0.079819 -0.072448 -0.000003 -0.095982 -0.000001
# 6 0.000000 0.000000 0.000000 0.008394 -0.000001 0.036986
#
#
# Mechanical properties :
#
#
# Convention : Reuss Voigt Hill
#
# Bulk Modulus (GPa) = 38.57392 41.67091 40.12241
# Shear Modulus (GPa) = -71.57663 23.69651 -23.94006
#
# Velocity S-wave (km/s) = -6.02614 3.46733 -3.48511
# Velocity P-wave (km/s) = 5.37110 6.09685 2.03996
#
# Compressibility (1/GPa) = 0.02592425
#
# Stress axis : x y z
#
# Youngs Moduli (GPa) = -13650.73158 264.48208 -47.55378
#
# Poissons Ratio (x) = -3.63798 -0.92224
# Poissons Ratio (y) = 187.76755 1.29637
# Poissons Ratio (z) = -264.73721 -7.21009
#
# Static dielectric constant tensor:
#      x y z
#    x 1.719360 0.000000 0.009200 
#    y 0.000000 1.703000 0.000000 
#    z 0.009200 0.000000 1.702490 
# 
# From -- ./inp_files/54178.got.cif
#   From: 2010.05.17/outbox.ucp.g08.bks.cvg/sg5_28_cif.got.tgz:54178.got - 2010.06.11 12:53:14.
