data_PCOD9130008
_publ_section_title
;
Structure prediction by ZEFSAII (Michael W. Deem and Ramdas Pophale) SiO2 
 PCOD9130008
Probable space group: C 2
;
_chemical_formula_sum "Si O2"
_cell_formula_units_Z 16
_cell_length_a 12.659445
_cell_length_b 12.480515
_cell_length_c 10.208701
_cell_angle_alpha 90.000000
_cell_angle_beta 23.318675
_cell_angle_gamma 90.000000
_cell_volume 638.473160
_symmetry_space_group_name_H-M "C 2"
_symmetry_group_IT_number 5
_symmetry_cell_setting 'monoclinic'
loop_
_space_group_symop_operation_xyz
x,y,z
-x,y,-z
1/2+x,1/2+y,z
1/2-x,1/2+y,-z
loop_
_atom_site_type_symbol
_atom_site_label
_atom_site_fract_x
_atom_site_fract_y
_atom_site_fract_z
Si Si1 0.737871 0.808980 0.134122
Si Si2 0.099365 0.041836 0.080818
Si Si3 0.206080 0.274106 0.873317
Si Si4 0.993027 0.591823 0.159617
O O1 0.500000 0.774026 0.500000
O O2 0.638597 0.808299 0.097186
O O3 0.972047 0.721141 0.873005
O O4 0.831348 0.928123 0.060124
O O5 0.785819 0.055771 0.461884
O O6 0.199162 0.144276 0.885786
O O7 0.259377 0.049853 0.036478
O O8 0.500000 0.310613 0.500000
O O9 0.000000 0.311613 0.000000
O O10 0.000000 0.561431 0.000000
#
# Coordination Sequence:
#
# PCOD9130008 Si02
#       4
#     4   4   4   4
#     4  11  26  48  77 109 143 192 245 297 358 430
#     4  11  25  44  70 105 142 189 240 295 356 426
#     4  11  24  45  69 102 145 187 233 295 358 424
#     4  11  24  45  69 104 148 188 234 297 360 426
#
# _framework density 25.059785000000002
#
# number of rings (size 3 to 8) (size 9 to 14) (size 15 to 20)
#    0.000    1.000    0.000    7.500    0.000   12.000 
#    0.000    0.000    0.000    0.000    0.000    0.000 
#    0.000    0.000    0.000    0.000    0.000    0.000 
#
# Total GULP energy -44906.484323 kJ/mol
# GULP energy per Si atom -5613.310540 kJ/mol
# Density = 2.500275 g / cm^3
# Si number density = 25.059785 Si / 1000 Ang^3
#
#
#
# Elastic Constant Matrix: (Units=GPa)
#
#
# Indices 1 2 3 4 5 6 
#
# 1 189.1084 -8.8151 52.4711 0.0346 -6.1354 -0.0113
# 2 -8.8151 112.1388 1.9668 0.0104 -26.4592 0.0186
# 3 52.4711 1.9668 146.2809 0.0556 -10.3358 -0.0031
# 4 0.0346 0.0104 0.0556 52.3043 -0.0118 -4.0981
# 5 -6.1354 -26.4592 -10.3358 -0.0118 31.9660 0.0091
# 6 -0.0113 0.0186 -0.0031 -4.0981 0.0091 -11.3822
#
#
#
# Elastic Compliance Matrix: (Units=1/GPa)
#
#
# Indices 1 2 3 4 5 6 
#
# 1 0.005931 0.000763 -0.002060 -0.000002 0.001104 -0.000003
# 2 0.000763 0.011217 0.000248 0.000001 0.009511 0.000025
# 3 -0.002060 0.000248 0.007735 -0.000006 0.002311 0.000004
# 4 -0.000002 0.000001 -0.000006 0.018594 0.000007 -0.006695
# 5 0.001104 0.009511 0.002311 0.000007 0.040115 0.000043
# 6 -0.000003 0.000025 0.000004 -0.006695 0.000043 -0.085446
#
#
# Mechanical properties :
#
#
# Convention : Reuss Voigt Hill
#
# Bulk Modulus (GPa) = 43.88940 59.86376 51.87658
# Shear Modulus (GPa) = 637.74203 41.37131 339.55667
#
# Velocity S-wave (km/s) = 15.96999 4.06754 11.65302
# Velocity P-wave (km/s) = 18.91048 6.78234 14.20574
#
# Compressibility (1/GPa) = 0.02278454
#
# Stress axis : x y z
#
# Youngs Moduli (GPa) = 168.61063 89.14754 129.28414
#
# Poissons Ratio (x) = -0.06800 0.26628
# Poissons Ratio (y) = -0.12861 -0.03201
# Poissons Ratio (z) = 0.34728 -0.02208
#
# Static dielectric constant tensor:
#      x y z
#    x 1.976560 -0.000010 -0.019390 
#    y -0.000010 2.018550 -0.000010 
#    z -0.019390 -0.000010 1.866870 
# 
# From -- ./inp_files/40002.got.cif
#   From: 2010.05.17/outbox.cif.g08.bks.cpg/sg5_21_cif.got.tgz:40002.got - 2010.06.03 18:56:24.
