data_PCOD9130215
_publ_section_title
;
Structure prediction by ZEFSAII (Michael W. Deem and Ramdas Pophale) SiO2 
 PCOD9130215
Probable space group: C 2
;
_chemical_formula_sum "Si O2"
_cell_formula_units_Z 16
_cell_length_a 5.294958
_cell_length_b 22.792566
_cell_length_c 5.105061
_cell_angle_alpha 90.000000
_cell_angle_beta 87.657714
_cell_angle_gamma 90.000000
_cell_volume 615.593001
_symmetry_space_group_name_H-M "C 2"
_symmetry_group_IT_number 5
_symmetry_cell_setting 'monoclinic'
loop_
_space_group_symop_operation_xyz
x,y,z
-x,y,-z
1/2+x,1/2+y,z
1/2-x,1/2+y,-z
loop_
_atom_site_type_symbol
_atom_site_label
_atom_site_fract_x
_atom_site_fract_y
_atom_site_fract_z
Si Si1 0.342910 0.397650 0.277872
Si Si2 0.828137 0.084344 0.241363
Si Si3 0.246616 0.217796 0.674526
Si Si4 0.500000 0.999295 0.500000
Si Si5 0.500000 0.812165 0.000000
O O1 0.500000 0.367176 0.500000
O O2 0.229387 0.454590 0.431912
O O3 0.115836 0.355710 0.206406
O O4 0.500000 0.409379 0.000000
O O5 0.763939 0.152613 0.204061
O O6 0.572593 0.046946 0.276785
O O7 0.000000 0.079805 0.500000
O O8 0.000000 0.061974 0.000000
O O9 0.500000 0.222360 0.500000
O O10 0.000000 0.222936 0.500000
O O11 0.214765 0.268867 0.885939
#
# Coordination Sequence:
#
# PCOD9130215 Si02
#       5
#     4   4   4   2   2
#     4  12  30  51  79 122 166 223 284 345 419 501
#     4  11  25  49  79 118 162 210 271 344 417 503
#     4  11  27  50  80 125 168 220 275 346 424 507
#     4  12  26  52  82 118 162 216 278 346 426 492
#     4  12  30  50  84 118 172 222 282 344 428 504
#
# _framework density 25.991201
#
# number of rings (size 3 to 8) (size 9 to 14) (size 15 to 20)
#    0.000    0.500    2.500    3.000    8.750    5.000 
#    0.000    0.000    0.000    0.000    0.000    0.000 
#    0.000    0.000    0.000    0.000    0.000    0.000 
#
# Total GULP energy -44798.788403 kJ/mol
# GULP energy per Si atom -5599.848550 kJ/mol
# Density = 2.593204 g / cm^3
# Si number density = 25.991201 Si / 1000 Ang^3
#
#
#
# Elastic Constant Matrix: (Units=GPa)
#
#
# Indices 1 2 3 4 5 6 
#
# 1 142.5557 41.6745 75.5055 0.0000 -27.3188 0.0000
# 2 41.6745 150.8474 34.4058 0.0000 -9.4986 0.0000
# 3 75.5055 34.4058 166.8600 0.0000 -28.3073 0.0000
# 4 0.0000 0.0000 0.0000 15.2015 0.0000 -49.5800
# 5 -27.3188 -9.4986 -28.3073 0.0000 80.1384 0.0000
# 6 0.0000 0.0000 0.0000 -49.5800 0.0000 4.3651
#
#
#
# Elastic Compliance Matrix: (Units=1/GPa)
#
#
# Indices 1 2 3 4 5 6 
#
# 1 0.009891 -0.001750 -0.003806 0.000000 0.001820 0.000000
# 2 -0.001750 0.007275 -0.000705 0.000000 0.000017 0.000000
# 3 -0.003806 -0.000705 0.008113 0.000000 0.001485 0.000000
# 4 0.000000 0.000000 0.000000 -0.001825 0.000000 -0.020729
# 5 0.001820 0.000017 0.001485 0.000000 0.013625 0.000000
# 6 0.000000 0.000000 0.000000 -0.020729 0.000000 -0.006356
#
#
# Mechanical properties :
#
#
# Convention : Reuss Voigt Hill
#
# Bulk Modulus (GPa) = 78.39783 84.82607 81.61195
# Shear Modulus (GPa) = 105.26825 40.51947 72.89386
#
# Velocity S-wave (km/s) = 6.37098 3.95266 5.30155
# Velocity P-wave (km/s) = 9.18411 7.31701 8.30321
#
# Compressibility (1/GPa) = 0.01275546
#
# Stress axis : x y z
#
# Youngs Moduli (GPa) = 101.10068 137.46512 123.26373
#
# Poissons Ratio (x) = 0.24055 0.46917
# Poissons Ratio (y) = 0.17691 0.08694
# Poissons Ratio (z) = 0.38481 0.09696
#
# Static dielectric constant tensor:
#      x y z
#    x 1.959110 0.000000 -0.010830 
#    y 0.000000 2.011800 0.000000 
#    z -0.010830 0.000000 2.046230 
# 
# From -- ./inp_files/615.got.cif
#   From: 2010.05.17/outbox.cif.g08.bks.cpg/sg5_1_cif.got.tgz:615.got - 2010.06.03 18:56:24.
