data_PCOD9130673
_publ_section_title
;
Structure prediction by ZEFSAII (Michael W. Deem and Ramdas Pophale) SiO2 
 PCOD9130673
Probable space group: C 2
;
_chemical_formula_sum "Si O2"
_cell_formula_units_Z 15
_cell_length_a 18.000000
_cell_length_b 12.000000
_cell_length_c 15.000000
_cell_angle_alpha 90.000000
_cell_angle_beta 30.000000
_cell_angle_gamma 90.000000
_cell_volume 1620.000000
_symmetry_space_group_name_H-M "C 2"
_symmetry_group_IT_number 5
_symmetry_cell_setting 'monoclinic'
loop_
_space_group_symop_operation_xyz
x,y,z
-x,y,-z
1/2+x,1/2+y,z
1/2-x,1/2+y,-z
loop_
_atom_site_type_symbol
_atom_site_label
_atom_site_fract_x
_atom_site_fract_y
_atom_site_fract_z
Si Si1 0.580403 0.645690 0.046414
Si Si2 0.120268 0.108563 0.581876
Si Si3 0.105955 0.865278 0.558556
Si Si4 0.223587 0.821741 0.637730
Si Si5 0.500000 0.442748 0.000000
Si Si6 0.928573 0.665076 0.669878
Si Si7 0.589249 0.005487 0.635111
Si Si8 0.938109 0.380547 0.154590
O O1 0.514535 0.644754 0.214937
O O2 0.540961 0.530477 0.036499
O O3 0.509048 0.758878 0.084675
O O4 0.753507 0.660136 0.851923
O O5 0.198483 0.201138 0.439463
O O6 0.258054 0.071688 0.502452
O O7 0.067804 0.994945 0.591511
O O8 0.136237 0.832316 0.631944
O O9 0.262489 0.857134 0.344283
O O10 0.988254 0.785592 0.636377
O O11 0.359642 0.905915 0.481626
O O12 0.123261 0.863768 0.824183
O O13 0.000000 0.635467 0.500000
O O14 0.981748 0.583287 0.692679
O O15 0.531821 0.954520 0.788120
O O16 0.000000 0.435177 0.000000
#
# Coordination Sequence:
#
# PCOD9130673 Si02
#       8
#     4   4   4   4   2   4   4   4
#     4  12  21  34  65  88 126 163 209 258 314 377
#     4  10  19  41  62  82 118 173 200 258 314 375
#     4  10  21  39  60  84 125 159 214 258 312 370
#     4  10  19  37  66  88 126 162 205 265 310 372
#     4  12  22  36  64 106 122 164 224 260 312 390
#     4  12  25  37  58  94 126 159 209 275 315 371
#     4  10  20  38  60  89 128 157 205 265 320 366
#     4  10  19  35  63  90 114 165 211 253 304 386
#
# _framework density 9.2592590000000001
#
# number of rings (size 3 to 8) (size 9 to 14) (size 15 to 20)
#    0.000    1.600    7.333    1.600    0.000    1.067 
#    4.800    0.000    0.000    2.400    0.000    0.000 
#    0.000    0.000    0.000    0.000    0.000    0.000 
#
# Total GULP energy -83550.051789 kJ/mol
# GULP energy per Si atom -5570.003453 kJ/mol
# Density = 0.923818 g / cm^3
# Si number density = 9.259259 Si / 1000 Ang^3
#
#
#
# Elastic Constant Matrix: (Units=GPa)
#
#
# Indices 1 2 3 4 5 6 
#
# 1 7.5643 34.2066 52.2465 0.0000 13.7032 0.0000
# 2 34.2066 110.6529 51.6810 0.0000 5.0503 0.0000
# 3 52.2465 51.6810 144.8034 0.0000 30.1766 0.0000
# 4 0.0000 0.0000 0.0000 16.2421 0.0000 4.7700
# 5 13.7032 5.0503 30.1766 0.0000 20.5781 0.0000
# 6 0.0000 0.0000 0.0000 4.7700 0.0000 66.6105
#
#
#
# Elastic Compliance Matrix: (Units=1/GPa)
#
#
# Indices 1 2 3 4 5 6 
#
# 1 -0.066944 0.012423 0.015935 0.000000 0.018162 0.000000
# 2 0.012423 0.008816 -0.007854 0.000000 0.001081 0.000000
# 3 0.015935 -0.007854 0.008308 0.000000 -0.020867 0.000000
# 4 0.000000 0.000000 0.000000 0.062891 0.000000 -0.004504
# 5 0.018162 0.001081 -0.020867 0.000000 0.066837 0.000000
# 6 0.000000 0.000000 0.000000 -0.004504 0.000000 0.015335
#
#
# Mechanical properties :
#
#
# Convention : Reuss Voigt Hill
#
# Bulk Modulus (GPa) = -113.49056 59.92098 -26.78479
# Shear Modulus (GPa) = 97.47003 29.01191 63.24097
#
# Velocity S-wave (km/s) = 7.26279 3.96238 5.85015
# Velocity P-wave (km/s) = 2.98544 7.30490 5.58007
#
# Compressibility (1/GPa) = -0.00881131
#
# Stress axis : x y z
#
# Youngs Moduli (GPa) = -14.93793 113.43216 120.36299
#
# Poissons Ratio (x) = -1.40917 -1.91802
# Poissons Ratio (y) = 0.18557 0.94535
# Poissons Ratio (z) = 0.23804 0.89091
#
# Static dielectric constant tensor:
#      x y z
#    x 1.686270 0.000000 0.050770 
#    y 0.000000 1.693480 0.000000 
#    z 0.050770 0.000000 1.584600 
# 
# From -- ./inp_files/55980.got.cif
#   From: 2010.05.17/outbox.ucp.g08.bks.cvg/sg5_28_cif.got.tgz:55980.got - 2010.06.11 12:53:14.
