data_PCOD9130765
_publ_section_title
;
Structure prediction by ZEFSAII (Michael W. Deem and Ramdas Pophale) SiO2 
 PCOD9130765
Probable space group: P M
;
_chemical_formula_sum "Si O2"
_cell_formula_units_Z 13
_cell_length_a 6.853857
_cell_length_b 7.306999
_cell_length_c 9.667943
_cell_angle_alpha 90.000000
_cell_angle_beta 107.166313
_cell_angle_gamma 90.000000
_cell_volume 462.612186
_symmetry_space_group_name_H-M "P M"
_symmetry_group_IT_number 6
_symmetry_cell_setting 'monoclinic'
loop_
_space_group_symop_operation_xyz
x,y,z
x,-y,z
loop_
_atom_site_type_symbol
_atom_site_label
_atom_site_fract_x
_atom_site_fract_y
_atom_site_fract_z
Si Si1 0.595370 0.204475 0.260920
Si Si2 0.509451 0.217778 0.941997
Si Si3 0.282221 0.220646 0.629126
Si Si4 0.716535 0.779088 0.568543
Si Si5 0.939437 0.783437 0.876859
Si Si6 0.172872 0.305492 0.196182
Si Si7 0.008840 0.500000 0.394338
O O1 0.546903 0.291510 0.102669
O O2 0.709882 0.303532 0.412453
O O3 0.361360 0.178126 0.268535
O O4 0.683487 0.000000 0.257433
O O5 0.721621 0.241291 0.906746
O O6 0.474882 0.000000 0.952106
O O7 0.332757 0.276500 0.799151
O O8 0.498344 0.251424 0.595060
O O9 0.119644 0.340528 0.515286
O O10 0.240770 0.000000 0.617946
O O11 0.736999 0.000000 0.559239
O O12 0.888253 0.715470 0.712240
O O13 0.097186 0.713459 0.023847
O O14 0.979030 0.000000 0.873768
O O15 0.278863 0.500000 0.243537
O O16 0.985686 0.335930 0.261796
#
# Coordination Sequence:
#
# PCOD9130765 Si02
#       7
#     2   2   2   2   2   2   1
#     4  10  17  32  58  82 105 135 175 229 274 318
#     4   8  17  32  56  84 106 133 180 224 274 331
#     4   9  16  32  53  79 106 137 179 230 267 313
#     4   8  14  27  52  77 100 135 180 215 260 319
#     4   9  17  33  53  73 104 144 179 221 271 323
#     4  10  21  33  47  76 110 134 184 220 261 320
#     4  10  20  32  50  82 108 140 188 226 256 330
#
# _framework density 28.101292000000001
#
# number of rings (size 3 to 8) (size 9 to 14) (size 15 to 20)
#    0.462    2.462    1.538    2.308    0.000    0.615 
#    6.923    0.000    3.385    0.000    0.000    0.000 
#    0.000    0.000    0.000    0.000    0.000    0.000 
#
# Total GULP energy -72380.137947 kJ/mol
# GULP energy per Si atom -5567.702919 kJ/mol
# Density = 2.803733 g / cm^3
# Si number density = 28.101292 Si / 1000 Ang^3
#
#
#
# Elastic Constant Matrix: (Units=GPa)
#
#
# Indices 1 2 3 4 5 6 
#
# 1 89.5266 -22.5496 42.2866 0.0000 21.3647 0.0000
# 2 -22.5496 121.8182 9.6540 0.0000 11.0125 0.0000
# 3 42.2866 9.6540 305.8749 0.0000 14.1390 0.0000
# 4 0.0000 0.0000 0.0000 39.7469 0.0000 24.9334
# 5 21.3647 11.0125 14.1390 0.0000 68.0771 0.0000
# 6 0.0000 0.0000 0.0000 24.9334 0.0000 -140.7538
#
#
#
# Elastic Compliance Matrix: (Units=1/GPa)
#
#
# Indices 1 2 3 4 5 6 
#
# 1 0.013880 0.003118 -0.001810 0.000000 -0.004485 0.000000
# 2 0.003118 0.009044 -0.000610 0.000000 -0.002315 0.000000
# 3 -0.001810 -0.000610 0.003542 0.000000 -0.000069 0.000000
# 4 0.000000 0.000000 0.000000 0.022643 0.000000 0.004011
# 5 -0.004485 -0.002315 -0.000069 0.000000 0.016485 0.000000
# 6 0.000000 0.000000 0.000000 0.004011 0.000000 -0.006394
#
#
# Mechanical properties :
#
#
# Convention : Reuss Voigt Hill
#
# Bulk Modulus (GPa) = 35.88926 64.00020 49.94473
# Shear Modulus (GPa) = 74.52554 25.93596 50.23075
#
# Velocity S-wave (km/s) = 5.15538 3.04130 4.23246
# Velocity P-wave (km/s) = 6.94524 5.92933 6.45729
#
# Compressibility (1/GPa) = 0.02786349
#
# Stress axis : x y z
#
# Youngs Moduli (GPa) = 72.04381 110.57367 282.32839
#
# Poissons Ratio (x) = -0.34480 0.51103
# Poissons Ratio (y) = -0.22465 0.17208
# Poissons Ratio (z) = 0.13040 0.06740
#
# Static dielectric constant tensor:
#      x y z
#    x 2.599660 0.000000 -0.169310 
#    y 0.000000 2.101170 0.000000 
#    z -0.169310 0.000000 2.184710 
# 
# From -- ./inp_files/3430.got.cif
#   From: 2010.05.17/outbox.cif.g08.bks.cpg/sg6_2_cif.got.tgz:3430.got - 2010.06.03 19:42:10.
