data_PCOD9130413
_publ_section_title
;
Structure prediction by ZEFSAII (Michael W. Deem and Ramdas Pophale) SiO2 
 PCOD9130413
Probable space group: C 2
;
_chemical_formula_sum "Si O2"
_cell_formula_units_Z 30
_cell_length_a 14.690808
_cell_length_b 6.150057
_cell_length_c 16.435163
_cell_angle_alpha 90.000000
_cell_angle_beta 61.456391
_cell_angle_gamma 90.000000
_cell_volume 1304.420776
_symmetry_space_group_name_H-M "C 2"
_symmetry_group_IT_number 5
_symmetry_cell_setting 'monoclinic'
loop_
_space_group_symop_operation_xyz
x,y,z
-x,y,-z
1/2+x,1/2+y,z
1/2-x,1/2+y,-z
loop_
_atom_site_type_symbol
_atom_site_label
_atom_site_fract_x
_atom_site_fract_y
_atom_site_fract_z
Si Si1 0.202063 0.024540 0.005901
Si Si2 0.147599 0.178795 0.643219
Si Si3 0.759973 0.019059 0.712301
Si Si4 0.090042 0.700425 0.287354
Si Si5 0.500000 0.149402 0.500000
Si Si6 0.002777 0.979288 0.201115
Si Si7 0.811877 0.330754 0.555591
Si Si8 0.799657 0.935903 0.182068
O O1 0.100526 0.032693 0.105069
O O2 0.250594 0.274807 0.994761
O O3 0.183040 0.998952 0.917976
O O4 0.196465 0.346644 0.686048
O O5 0.026805 0.144066 0.712428
O O6 0.176514 0.257130 0.541275
O O7 0.202518 0.942276 0.622189
O O8 0.825472 0.140623 0.614378
O O9 0.696833 0.184903 0.793815
O O10 0.832483 0.902306 0.745049
O O11 0.022939 0.735638 0.398595
O O12 0.178804 0.510900 0.252653
O O13 0.020954 0.742852 0.236747
O O14 0.397188 0.011466 0.531669
O O15 0.900096 0.014780 0.189754
#
# Coordination Sequence:
#
# PCOD9130413 Si02
#       8
#     4   4   4   4   2   4   4   4
#     4  12  29  56  88 123 163 207 273 353 424 508
#     4  12  26  45  71 109 151 211 271 326 402 500
#     4  12  23  47  72 101 159 204 257 343 391 484
#     4  12  27  47  71 111 156 202 268 328 402 489
#     4  12  26  42  64 106 152 202 258 332 394 482
#     4  12  27  50  80 116 152 213 267 336 425 497
#     4  12  26  43  65 104 154 205 266 324 394 483
#     4  12  26  53  78 114 154 206 269 340 411 500
#
# _framework density 22.998714
#
# number of rings (size 3 to 8) (size 9 to 14) (size 15 to 20)
#    0.000    0.000    8.000    1.200    7.467    2.133 
#    0.000    1.333    0.000    0.000    0.000    0.000 
#    0.000    0.000    0.000    0.000    0.000    0.000 
#
# Total GULP energy -83548.617654 kJ/mol
# GULP energy per Si atom -5569.907844 kJ/mol
# Density = 2.294637 g / cm^3
# Si number density = 22.998714 Si / 1000 Ang^3
#
#
#
# Elastic Constant Matrix: (Units=GPa)
#
#
# Indices 1 2 3 4 5 6 
#
# 1 80.7002 28.2034 46.7807 0.0000 15.8352 0.0001
# 2 28.2034 77.7325 37.7089 -0.0001 0.0986 0.0001
# 3 46.7807 37.7089 158.4795 0.0000 -20.7626 -0.0001
# 4 0.0000 -0.0001 0.0000 29.6074 -0.0001 2.0509
# 5 15.8352 0.0986 -20.7626 -0.0001 36.0543 -0.0001
# 6 0.0001 0.0001 -0.0001 2.0509 -0.0001 107.7381
#
#
#
# Elastic Compliance Matrix: (Units=1/GPa)
#
#
# Indices 1 2 3 4 5 6 
#
# 1 0.020146 -0.004074 -0.006636 0.000000 -0.012658 0.000000
# 2 -0.004074 0.015530 -0.002448 0.000000 0.000337 0.000000
# 3 -0.006636 -0.002448 0.009988 0.000000 0.008673 0.000000
# 4 0.000000 0.000000 0.000000 0.033820 0.000000 -0.000644
# 5 -0.012658 0.000337 0.008673 0.000000 0.038289 0.000000
# 6 0.000000 0.000000 0.000000 -0.000644 0.000000 0.009294
#
#
# Mechanical properties :
#
#
# Convention : Reuss Voigt Hill
#
# Bulk Modulus (GPa) = 51.68844 60.25536 55.97190
# Shear Modulus (GPa) = 31.28278 48.29458 39.78868
#
# Velocity S-wave (km/s) = 3.69209 4.58742 4.16389
# Velocity P-wave (km/s) = 6.37955 7.36991 6.89254
#
# Compressibility (1/GPa) = 0.01934669
#
# Stress axis : x y z
#
# Youngs Moduli (GPa) = 49.63786 64.39043 100.12507
#
# Poissons Ratio (x) = 0.26235 0.66440
# Poissons Ratio (y) = 0.20224 0.24515
# Poissons Ratio (z) = 0.32938 0.15766
#
# Static dielectric constant tensor:
#      x y z
#    x 1.712080 0.000000 0.173770 
#    y 0.000000 1.965730 0.000000 
#    z 0.173770 0.000000 1.820090 
# 
# From -- ./inp_files/61188.got.cif
#   From: 2010.05.17/outbox.cif.g08.bks.cpg/sg5_31_cif.got.tgz:61188.got - 2010.06.03 18:56:24.
