data_PCOD9130117
_publ_section_title
;
Structure prediction by ZEFSAII (Michael W. Deem and Ramdas Pophale) SiO2 
 PCOD9130117
Probable space group: C 2
;
_chemical_formula_sum "Si O2"
_cell_formula_units_Z 20
_cell_length_a 15.976833
_cell_length_b 4.955499
_cell_length_c 15.800642
_cell_angle_alpha 90.000000
_cell_angle_beta 34.791338
_cell_angle_gamma 90.000000
_cell_volume 713.799987
_symmetry_space_group_name_H-M "C 2"
_symmetry_group_IT_number 5
_symmetry_cell_setting 'monoclinic'
loop_
_space_group_symop_operation_xyz
x,y,z
-x,y,-z
1/2+x,1/2+y,z
1/2-x,1/2+y,-z
loop_
_atom_site_type_symbol
_atom_site_label
_atom_site_fract_x
_atom_site_fract_y
_atom_site_fract_z
Si Si1 0.082391 0.089370 0.151157
Si Si2 0.246212 0.306778 0.868109
Si Si3 0.281544 0.768857 0.419925
Si Si4 0.034233 0.685138 0.887514
Si Si5 0.832200 0.422796 0.641883
O O1 0.953050 0.309629 0.256290
O O2 0.132571 0.024144 0.204091
O O3 0.222354 0.148940 0.976453
O O4 0.006241 0.849699 0.162139
O O5 0.298191 0.110007 0.751808
O O6 0.088828 0.456683 0.992186
O O7 0.282757 0.546738 0.493792
O O8 0.199612 0.618294 0.411824
O O9 0.211873 0.679553 0.740014
O O10 0.000000 0.868729 0.000000
O O11 0.000000 0.332301 0.500000
#
# Coordination Sequence:
#
# PCOD9130117 Si02
#       5
#     4   4   4   4   4
#     4  11  25  45  79 110 154 207 272 329 402 488
#     4  12  25  47  78 118 150 212 271 331 407 486
#     4  11  28  50  78 113 164 212 268 339 419 486
#     4  11  25  43  74 113 155 201 259 328 396 488
#     4  11  27  50  82 115 162 212 271 339 412 489
#
# _framework density 28.019053
#
# number of rings (size 3 to 8) (size 9 to 14) (size 15 to 20)
#    0.000    0.800    4.000    1.200   11.200    3.200 
#    0.000    2.000    0.000    0.000    0.000    0.000 
#    0.000    0.000    0.000    0.000    0.000    0.000 
#
# Total GULP energy -56016.878079 kJ/mol
# GULP energy per Si atom -5601.687808 kJ/mol
# Density = 2.795528 g / cm^3
# Si number density = 28.019053 Si / 1000 Ang^3
#
#
#
# Elastic Constant Matrix: (Units=GPa)
#
#
# Indices 1 2 3 4 5 6 
#
# 1 134.9370 8.2231 51.1072 -0.0035 -22.4983 0.0006
# 2 8.2231 105.5421 32.0312 -0.0253 -2.4095 0.0173
# 3 51.1072 32.0312 175.1216 -0.0053 -27.7011 0.0042
# 4 -0.0035 -0.0253 -0.0053 49.0858 0.0042 -1.0035
# 5 -22.4983 -2.4095 -27.7011 0.0042 66.1073 -0.0035
# 6 0.0006 0.0173 0.0042 -1.0035 -0.0035 23.5458
#
#
#
# Elastic Compliance Matrix: (Units=1/GPa)
#
#
# Indices 1 2 3 4 5 6 
#
# 1 0.008572 0.000043 -0.002193 0.000000 0.002000 0.000000
# 2 0.000043 0.010044 -0.001917 0.000005 -0.000422 -0.000007
# 3 -0.002193 -0.001917 0.007038 -0.000001 0.002133 0.000000
# 4 0.000000 0.000005 -0.000001 0.020390 -0.000001 0.000869
# 5 0.002000 -0.000422 0.002133 -0.000001 0.016686 0.000002
# 6 0.000000 -0.000007 0.000000 0.000869 0.000002 0.042507
#
#
# Mechanical properties :
#
#
# Convention : Reuss Voigt Hill
#
# Bulk Modulus (GPa) = 57.07294 66.48040 61.77667
# Shear Modulus (GPa) = 41.94235 49.36372 45.65304
#
# Velocity S-wave (km/s) = 3.87321 4.20192 4.04091
# Velocity P-wave (km/s) = 6.35735 6.87895 6.62328
#
# Compressibility (1/GPa) = 0.01752144
#
# Stress axis : x y z
#
# Youngs Moduli (GPa) = 116.65348 99.56669 142.07847
#
# Poissons Ratio (x) = -0.00432 0.31163
# Poissons Ratio (y) = -0.00507 0.27229
# Poissons Ratio (z) = 0.25586 0.19082
#
# Static dielectric constant tensor:
#      x y z
#    x 2.322120 -0.000010 0.066760 
#    y -0.000010 2.232710 0.000000 
#    z 0.066760 0.000000 2.179800 
# 
# From -- ./inp_files/62040.got.cif
#   From: 2010.05.17/outbox.cif.g08.bks.cpg/sg5_32_cif.got.tgz:62040.got - 2010.06.03 18:56:24.
