data_PCOD9130256
_publ_section_title
;
Structure prediction by ZEFSAII (Michael W. Deem and Ramdas Pophale) SiO2 
 PCOD9130256
Probable space group: C 2
;
_chemical_formula_sum "Si O2"
_cell_formula_units_Z 20
_cell_length_a 29.428679
_cell_length_b 5.448860
_cell_length_c 4.681435
_cell_angle_alpha 90.000000
_cell_angle_beta 84.330868
_cell_angle_gamma 90.000000
_cell_volume 747.009355
_symmetry_space_group_name_H-M "C 2"
_symmetry_group_IT_number 5
_symmetry_cell_setting 'monoclinic'
loop_
_space_group_symop_operation_xyz
x,y,z
-x,y,-z
1/2+x,1/2+y,z
1/2-x,1/2+y,-z
loop_
_atom_site_type_symbol
_atom_site_label
_atom_site_fract_x
_atom_site_fract_y
_atom_site_fract_z
Si Si1 0.469804 0.804370 0.750755
Si Si2 0.696834 0.602681 0.423907
Si Si3 0.391733 0.121697 0.096104
Si Si4 0.902750 0.942851 0.611901
Si Si5 0.291096 0.097736 0.228779
O O1 0.500000 0.958991 0.500000
O O2 0.447750 0.601703 0.554431
O O3 0.500000 0.721577 0.000000
O O4 0.427721 0.937900 0.937998
O O5 0.643756 0.594408 0.389221
O O6 0.705136 0.857368 0.577481
O O7 0.737852 0.592809 0.162271
O O8 0.703138 0.354160 0.605349
O O9 0.397304 0.195744 0.424523
O O10 0.338939 0.077608 0.031455
O O11 0.404182 0.377072 0.942897
#
# Coordination Sequence:
#
# PCOD9130256 Si02
#       5
#     4   4   4   4   4
#     4  12  28  48  78 108 146 202 260 326 394 456
#     4   9  20  41  72 110 152 198 246 304 378 459
#     4  11  26  47  75 108 149 197 249 319 384 461
#     4  11  26  47  75 108 149 197 249 319 384 461
#     4   9  20  41  72 110 152 198 246 304 378 459
#
# _framework density 26.773430999999999
#
# number of rings (size 3 to 8) (size 9 to 14) (size 15 to 20)
#    0.000    1.600    0.000    2.400   14.000    3.200 
#    3.600    2.000    0.000    0.000    0.000    0.000 
#    0.000    0.000    0.000    0.000    0.000    0.000 
#
# Total GULP energy -55804.573858 kJ/mol
# GULP energy per Si atom -5580.457386 kJ/mol
# Density = 2.671249 g / cm^3
# Si number density = 26.773431 Si / 1000 Ang^3
#
#
#
# Elastic Constant Matrix: (Units=GPa)
#
#
# Indices 1 2 3 4 5 6 
#
# 1 163.3230 20.5613 66.2651 0.0000 -29.0750 0.0000
# 2 20.5613 111.2089 36.2609 0.0000 -2.9777 0.0000
# 3 66.2651 36.2609 109.5478 0.0000 -13.9387 0.0000
# 4 0.0000 0.0000 0.0000 43.2152 0.0000 -15.3864
# 5 -29.0750 -2.9777 -13.9387 0.0000 49.4186 0.0000
# 6 0.0000 0.0000 0.0000 -15.3864 0.0000 45.5036
#
#
#
# Elastic Compliance Matrix: (Units=1/GPa)
#
#
# Indices 1 2 3 4 5 6 
#
# 1 0.008750 0.000059 -0.004830 0.000000 0.003789 0.000000
# 2 0.000059 0.010086 -0.003415 0.000000 -0.000321 0.000000
# 3 -0.004830 -0.003415 0.013269 0.000000 0.000695 0.000000
# 4 0.000000 0.000000 0.000000 0.026307 0.000000 0.008895
# 5 0.003789 -0.000321 0.000695 0.000000 0.022641 0.000000
# 6 0.000000 0.000000 0.000000 0.008895 0.000000 0.024984
#
#
# Mechanical properties :
#
#
# Convention : Reuss Voigt Hill
#
# Bulk Modulus (GPa) = 63.56377 70.02824 66.79601
# Shear Modulus (GPa) = 39.16857 45.02697 42.09777
#
# Velocity S-wave (km/s) = 3.82902 4.10540 3.96962
# Velocity P-wave (km/s) = 6.58342 6.97747 6.78331
#
# Compressibility (1/GPa) = 0.01573223
#
# Stress axis : x y z
#
# Youngs Moduli (GPa) = 114.29064 99.14635 75.36479
#
# Poissons Ratio (x) = -0.00581 0.36400
# Poissons Ratio (y) = -0.00670 0.25736
# Poissons Ratio (z) = 0.55201 0.33857
#
# Static dielectric constant tensor:
#      x y z
#    x 2.200710 0.000000 -0.075210 
#    y 0.000000 2.054860 0.000000 
#    z -0.075210 0.000000 2.107210 
# 
# From -- ./inp_files/10577.got.cif
#   From: 2010.05.17/outbox.cif.g08.bks.cpg/sg5_6_cif.got.tgz:10577.got - 2010.06.03 18:56:24.
