data_PCOD9130796
_publ_section_title
;
Structure prediction by ZEFSAII (Michael W. Deem and Ramdas Pophale) SiO2 
 PCOD9130796
Probable space group: P M
;
_chemical_formula_sum "Si O2"
_cell_formula_units_Z 16
_cell_length_a 12.572213
_cell_length_b 8.745700
_cell_length_c 10.582218
_cell_angle_alpha 90.000000
_cell_angle_beta 127.976705
_cell_angle_gamma 90.000000
_cell_volume 917.176778
_symmetry_space_group_name_H-M "P M"
_symmetry_group_IT_number 6
_symmetry_cell_setting 'monoclinic'
loop_
_space_group_symop_operation_xyz
x,y,z
x,-y,z
loop_
_atom_site_type_symbol
_atom_site_label
_atom_site_fract_x
_atom_site_fract_y
_atom_site_fract_z
Si Si1 0.993070 0.817348 0.180330
Si Si2 0.245711 0.316499 0.757354
Si Si3 0.267161 0.683030 0.290456
Si Si4 0.410153 0.182738 0.640551
Si Si5 0.397847 0.313959 0.123656
Si Si6 0.689714 0.183747 0.963435
Si Si7 0.975282 0.182386 0.466436
Si Si8 0.686216 0.316802 0.240150
O O1 0.001449 0.781859 0.336686
O O2 0.112908 0.735020 0.195618
O O3 0.009647 0.000000 0.179263
O O4 0.840564 0.775785 0.028803
O O5 0.251435 0.500000 0.754030
O O6 0.327663 0.247283 0.699556
O O7 0.092395 0.260689 0.632163
O O8 0.314444 0.266273 0.938662
O O9 0.273353 0.500000 0.298726
O O10 0.351022 0.748553 0.469477
O O11 0.330080 0.737567 0.204035
O O12 0.567533 0.219016 0.780245
O O13 0.393774 0.000000 0.625955
O O14 0.396544 0.500000 0.123079
O O15 0.553597 0.267739 0.220085
O O16 0.689901 0.000000 0.986776
O O17 0.665397 0.265495 0.079526
O O18 0.825774 0.242162 0.386719
O O19 0.981052 0.000000 0.484121
O O20 0.697901 0.500000 0.253386
#
# Coordination Sequence:
#
# PCOD9130796 Si02
#       8
#     2   2   2   2   2   2   2   2
#     4   9  18  34  53  77 110 143 177 224 274 323
#     4  11  20  35  58  83 108 142 186 231 275 323
#     4  11  22  37  56  79 111 150 186 223 273 332
#     4  11  21  35  55  83 113 142 181 232 280 324
#     4   9  21  38  55  80 113 144 182 232 276 321
#     4   9  19  34  54  79 110 141 176 227 281 323
#     4  10  20  34  53  82 116 142 176 227 276 325
#     4  10  18  33  56  81 109 142 182 226 275 325
#
# _framework density 17.444838000000001
#
# number of rings (size 3 to 8) (size 9 to 14) (size 15 to 20)
#    0.000    2.000    2.500    2.625    0.000    2.500 
#    0.000    6.250    0.000    4.500    0.000    0.000 
#    0.000    0.000    0.000    0.000    0.000    0.000 
#
# Total GULP energy -89301.410377 kJ/mol
# GULP energy per Si atom -5581.338149 kJ/mol
# Density = 1.740513 g / cm^3
# Si number density = 17.444838 Si / 1000 Ang^3
#
#
#
# Elastic Constant Matrix: (Units=GPa)
#
#
# Indices 1 2 3 4 5 6 
#
# 1 163.3944 44.5176 88.8044 0.0000 10.5180 0.0000
# 2 44.5176 35.9026 30.8311 0.0000 3.8795 0.0000
# 3 88.8044 30.8311 112.1734 0.0000 6.8520 0.0000
# 4 0.0000 0.0000 0.0000 0.0305 0.0000 20.8829
# 5 10.5180 3.8795 6.8520 0.0000 29.0021 0.0000
# 6 0.0000 0.0000 0.0000 20.8829 0.0000 15.3869
#
#
#
# Elastic Compliance Matrix: (Units=1/GPa)
#
#
# Indices 1 2 3 4 5 6 
#
# 1 0.012840 -0.009294 -0.007510 0.000000 -0.001639 0.000000
# 2 -0.009294 0.043372 -0.004479 0.000000 -0.001373 0.000000
# 3 -0.007510 -0.004479 0.016121 0.000000 -0.000486 0.000000
# 4 0.000000 0.000000 0.000000 -0.035321 0.000000 0.047938
# 5 -0.001639 -0.001373 -0.000486 0.000000 0.035373 0.000000
# 6 0.000000 0.000000 0.000000 0.047938 0.000000 -0.000070
#
#
# Mechanical properties :
#
#
# Convention : Reuss Voigt Hill
#
# Bulk Modulus (GPa) = 33.59525 71.08629 52.34077
# Shear Modulus (GPa) = 40.06272 18.70504 29.38388
#
# Velocity S-wave (km/s) = 4.79742 3.27806 4.10858
# Velocity P-wave (km/s) = 7.07013 7.42733 7.25093
#
# Compressibility (1/GPa) = 0.02976611
#
# Stress axis : x y z
#
# Youngs Moduli (GPa) = 77.88371 23.05613 62.03037
#
# Poissons Ratio (x) = 0.21429 0.46586
# Poissons Ratio (y) = 0.72387 0.27785
# Poissons Ratio (z) = 0.58492 0.10327
#
# Static dielectric constant tensor:
#      x y z
#    x 1.591790 0.000000 0.022240 
#    y 0.000000 1.585930 0.000000 
#    z 0.022240 0.000000 1.578710 
# 
# From -- ./inp_files/3742.got.cif
#   From: 2010.05.17/outbox.cif.g08.bks.cpg/sg6_2_cif.got.tgz:3742.got - 2010.06.03 19:42:10.
