data_PCOD9130749
_publ_section_title
;
Structure prediction by ZEFSAII (Michael W. Deem and Ramdas Pophale) SiO2 
 PCOD9130749
Probable space group: C 2
;
_chemical_formula_sum "Si O2"
_cell_formula_units_Z 12
_cell_length_a 9.000000
_cell_length_b 15.000000
_cell_length_c 18.000000
_cell_angle_alpha 90.000000
_cell_angle_beta 30.000000
_cell_angle_gamma 90.000000
_cell_volume 1215.000000
_symmetry_space_group_name_H-M "C 2"
_symmetry_group_IT_number 5
_symmetry_cell_setting 'monoclinic'
loop_
_space_group_symop_operation_xyz
x,y,z
-x,y,-z
1/2+x,1/2+y,z
1/2-x,1/2+y,-z
loop_
_atom_site_type_symbol
_atom_site_label
_atom_site_fract_x
_atom_site_fract_y
_atom_site_fract_z
Si Si1 0.723112 0.104760 0.833836
Si Si2 0.315696 0.454454 0.321032
Si Si3 0.193180 0.758571 0.612529
Si Si4 0.355668 0.114428 0.840221
Si Si5 0.739865 0.933299 0.176287
Si Si6 0.332578 0.767068 0.382768
O O1 0.522078 0.117952 0.847085
O O2 0.973165 0.180670 0.719294
O O3 0.500000 0.114737 0.000000
O O4 0.915074 0.014077 0.762769
O O5 0.352855 0.350435 0.324355
O O6 0.326675 0.455455 0.225268
O O7 0.000000 0.479975 0.500000
O O8 0.500000 0.709527 0.500000
O O9 0.265936 0.783940 0.497708
O O10 0.939912 0.691773 0.746381
O O11 0.442113 0.019453 0.769622
O O12 0.000000 0.115100 0.000000
O O13 0.526820 0.848469 0.268352
O O14 0.000000 0.921495 0.000000
O O15 0.000000 0.755885 0.500000
#
# Coordination Sequence:
#
# PCOD9130749 Si02
#       6
#     4   4   4   4   4   4
#     4  12  26  45  68 101 137 178 223 280 341 402
#     4  11  24  46  71 101 138 176 227 277 338 403
#     4  11  23  47  68  98 135 178 223 280 341 397
#     4  11  26  44  69  97 135 178 226 278 339 400
#     4  11  24  46  69  99 138 179 225 280 335 401
#     4  12  27  43  70 102 137 177 229 279 336 402
#
# _framework density 9.8765429999999999
#
# number of rings (size 3 to 8) (size 9 to 14) (size 15 to 20)
#    0.000    0.667    5.000    3.000    9.333    1.333 
#    0.000    0.000    0.000    0.000    0.000    0.000 
#    0.000    0.000    0.000    0.000    0.000    0.000 
#
# Total GULP energy -66873.943220 kJ/mol
# GULP energy per Si atom -5572.828602 kJ/mol
# Density = 0.985406 g / cm^3
# Si number density = 9.876543 Si / 1000 Ang^3
#
#
#
# Elastic Constant Matrix: (Units=GPa)
#
#
# Indices 1 2 3 4 5 6 
#
# 1 45.1831 32.3374 75.4079 -0.2486 -2.7564 -0.0895
# 2 32.3374 110.4493 57.1679 -0.0466 -1.8295 0.0106
# 3 75.4079 57.1679 122.2426 -0.0428 11.6660 0.1566
# 4 -0.2486 -0.0466 -0.0428 57.7619 0.0942 -17.7833
# 5 -2.7564 -1.8295 11.6660 0.0942 44.8557 -0.0361
# 6 -0.0895 0.0106 0.1566 -17.7833 -0.0361 20.3052
#
#
#
# Elastic Compliance Matrix: (Units=1/GPa)
#
#
# Indices 1 2 3 4 5 6 
#
# 1 -0.259159 -0.014409 0.172467 -0.002316 -0.061367 -0.004603
# 2 -0.014409 0.011320 0.003727 -0.000108 -0.001393 -0.000195
# 3 0.172467 0.003727 -0.103552 0.001516 0.037681 0.002952
# 4 -0.002316 -0.000108 0.001516 0.023683 -0.000574 0.020719
# 5 -0.061367 -0.001393 0.037681 -0.000574 0.008666 -0.001048
# 6 -0.004603 -0.000195 0.002952 0.020719 -0.001048 0.067350
#
#
# Mechanical properties :
#
#
# Convention : Reuss Voigt Hill
#
# Bulk Modulus (GPa) = -35.94748 67.52238 15.78745
# Shear Modulus (GPa) = -8.55378 32.11535 11.78078
#
# Velocity S-wave (km/s) = -2.08321 4.03654 2.44478
# Velocity P-wave (km/s) = 4.90145 7.48213 3.99738
#
# Compressibility (1/GPa) = -0.02781837
#
# Stress axis : x y z
#
# Youngs Moduli (GPa) = -3.85864 88.33874 -9.65698
#
# Poissons Ratio (x) = 1.27284 1.66551
# Poissons Ratio (y) = -0.05560 0.03600
# Poissons Ratio (z) = 0.66549 -0.32928
#
# Static dielectric constant tensor:
#      x y z
#    x 1.761420 -0.000080 0.070100 
#    y -0.000080 1.670690 -0.000080 
#    z 0.070100 -0.000080 1.705570 
# 
# From -- ./inp_files/27664.got.cif
#   From: 2010.05.17/outbox.ucp.g08.bks.cvg/sg5_14_cif.got.tgz:27664.got - 2010.06.11 12:53:14.
