data_PCOD9130366
_publ_section_title
;
Structure prediction by ZEFSAII (Michael W. Deem and Ramdas Pophale) SiO2 
 PCOD9130366
Probable space group: C 2
;
_chemical_formula_sum "Si O2"
_cell_formula_units_Z 26
_cell_length_a 18.104135
_cell_length_b 6.486421
_cell_length_c 11.560266
_cell_angle_alpha 90.000000
_cell_angle_beta 120.677401
_cell_angle_gamma 90.000000
_cell_volume 1167.552037
_symmetry_space_group_name_H-M "C 2"
_symmetry_group_IT_number 5
_symmetry_cell_setting 'monoclinic'
loop_
_space_group_symop_operation_xyz
x,y,z
-x,y,-z
1/2+x,1/2+y,z
1/2-x,1/2+y,-z
loop_
_atom_site_type_symbol
_atom_site_label
_atom_site_fract_x
_atom_site_fract_y
_atom_site_fract_z
Si Si1 0.371097 0.117120 0.639746
Si Si2 0.969809 0.347079 0.194935
Si Si3 0.000000 0.130742 0.000000
Si Si4 0.159581 0.919849 0.178670
Si Si5 0.849919 0.998275 0.187123
Si Si6 0.732329 0.311891 0.650593
Si Si7 0.324625 0.138194 0.013204
O O1 0.376223 0.303103 0.736993
O O2 0.334084 0.216796 0.494088
O O3 0.461954 0.001829 0.693587
O O4 0.300629 0.955739 0.636026
O O5 0.923692 0.171755 0.235973
O O6 0.892021 0.453075 0.061046
O O7 0.024696 0.250218 0.134338
O O8 0.919144 0.993752 0.962746
O O9 0.219613 0.112484 0.255995
O O10 0.196233 0.745013 0.125274
O O11 0.816316 0.941154 0.288402
O O12 0.869311 0.777517 0.145922
O O13 0.770883 0.060197 0.036997
#
# Coordination Sequence:
#
# PCOD9130366 Si02
#       7
#     4   4   2   4   4   4   4
#     4  12  26  48  77 103 142 202 262 307 358 447
#     4  12  26  43  74 112 151 190 245 306 379 450
#     4  12  22  42  70 112 146 176 234 310 374 436
#     4  12  23  42  75 108 142 187 243 305 370 443
#     4  12  25  44  73 111 151 190 237 303 389 452
#     4  12  26  48  78 101 144 205 256 306 371 440
#     4  12  23  43  72 109 145 186 227 302 388 449
#
# _framework density 22.268816000000001
#
# number of rings (size 3 to 8) (size 9 to 14) (size 15 to 20)
#    0.000    0.000    7.692    3.692    0.000    0.000 
#    0.000    0.769    6.769    0.000    0.000    0.000 
#    0.000    0.000    0.000    0.000    0.000    0.000 
#
# Total GULP energy -72557.290994 kJ/mol
# GULP energy per Si atom -5581.330076 kJ/mol
# Density = 2.221813 g / cm^3
# Si number density = 22.268816 Si / 1000 Ang^3
#
#
#
# Elastic Constant Matrix: (Units=GPa)
#
#
# Indices 1 2 3 4 5 6 
#
# 1 105.7250 46.1672 41.8337 0.0000 -3.5281 0.0000
# 2 46.1672 89.6249 40.9649 0.0000 -6.5373 0.0000
# 3 41.8337 40.9649 105.2941 0.0000 -1.9363 0.0000
# 4 0.0000 0.0000 0.0000 46.5448 0.0000 2.6795
# 5 -3.5281 -6.5373 -1.9363 0.0000 29.6662 0.0000
# 6 0.0000 0.0000 0.0000 2.6795 0.0000 34.2466
#
#
#
# Elastic Compliance Matrix: (Units=1/GPa)
#
#
# Indices 1 2 3 4 5 6 
#
# 1 0.012992 -0.005256 -0.003113 0.000000 0.000184 0.000000
# 2 -0.005256 0.015908 -0.004053 0.000000 0.002616 0.000000
# 3 -0.003113 -0.004053 0.012303 0.000000 -0.000460 0.000000
# 4 0.000000 0.000000 0.000000 0.021582 0.000000 -0.001689
# 5 0.000184 0.002616 -0.000460 0.000000 0.034277 0.000000
# 6 0.000000 0.000000 0.000000 -0.001689 0.000000 0.029332
#
#
# Mechanical properties :
#
#
# Convention : Reuss Voigt Hill
#
# Bulk Modulus (GPa) = 61.13163 62.06395 61.59779
# Shear Modulus (GPa) = 31.91017 33.53674 32.72346
#
# Velocity S-wave (km/s) = 3.78954 3.88493 3.83753
# Velocity P-wave (km/s) = 6.83072 6.93213 6.88161
#
# Compressibility (1/GPa) = 0.01635814
#
# Stress axis : x y z
#
# Youngs Moduli (GPa) = 76.97270 62.86073 81.28411
#
# Poissons Ratio (x) = 0.33038 0.25308
# Poissons Ratio (y) = 0.40455 0.32944
# Poissons Ratio (z) = 0.23965 0.25477
#
# Static dielectric constant tensor:
#      x y z
#    x 1.824320 0.000000 -0.032330 
#    y 0.000000 1.917490 0.000000 
#    z -0.032330 0.000000 1.763880 
# 
# From -- ./inp_files/45529.got.cif
#   From: 2010.05.17/outbox.cif.g08.bks.cpg/sg5_23_cif.got.tgz:45529.got - 2010.06.03 18:56:24.
