data_PCOD9130024
_publ_section_title
;
Structure prediction by ZEFSAII (Michael W. Deem and Ramdas Pophale) SiO2 
 PCOD9130024
Probable space group: C 2
;
_chemical_formula_sum "Si O2"
_cell_formula_units_Z 22
_cell_length_a 12.994855
_cell_length_b 13.346977
_cell_length_c 5.533365
_cell_angle_alpha 90.000000
_cell_angle_beta 113.057693
_cell_angle_gamma 90.000000
_cell_volume 883.047095
_symmetry_space_group_name_H-M "C 2"
_symmetry_group_IT_number 5
_symmetry_cell_setting 'monoclinic'
loop_
_space_group_symop_operation_xyz
x,y,z
-x,y,-z
1/2+x,1/2+y,z
1/2-x,1/2+y,-z
loop_
_atom_site_type_symbol
_atom_site_label
_atom_site_fract_x
_atom_site_fract_y
_atom_site_fract_z
Si Si1 0.369899 0.739220 0.326799
Si Si2 0.500000 0.938915 0.000000
Si Si3 0.000000 0.858677 0.000000
Si Si4 0.000000 0.555510 0.500000
Si Si5 0.775752 0.378683 0.883964
Si Si6 0.664402 0.221391 0.473570
Si Si7 0.606386 0.529768 0.778538
O O1 0.500000 0.757076 0.500000
O O2 0.282007 0.701443 0.446899
O O3 0.374965 0.645794 0.139054
O O4 0.314434 0.840854 0.180406
O O5 0.475199 0.999389 0.223414
O O6 0.608744 0.873945 0.156391
O O7 0.922843 0.784488 0.771767
O O8 0.078625 0.940566 0.938581
O O9 0.105021 0.624398 0.524279
O O10 0.690084 0.296488 0.714125
O O11 0.722376 0.486127 0.785298
O O12 0.500000 0.530159 0.500000
#
# Coordination Sequence:
#
# PCOD9130024 Si02
#       7
#     4   2   2   2   4   4   4
#     4  11  27  48  75 114 158 205 259 327 403 478
#     4  12  31  51  80 118 168 206 268 330 412 474
#     4  12  23  45  78 110 148 204 260 334 388 468
#     4  12  30  52  82 122 156 214 274 338 394 476
#     4  12  26  48  77 110 153 206 257 327 394 477
#     4  12  26  47  81 110 156 206 273 329 401 469
#     4  11  24  45  73 111 145 193 260 322 388 465
#
# _framework density 24.913734999999999
#
# number of rings (size 3 to 8) (size 9 to 14) (size 15 to 20)
#    0.000    0.364    3.636    3.818    8.909    3.636 
#    0.000    0.000    0.000    0.000    0.000    0.000 
#    0.000    0.000    0.000    0.000    0.000    0.000 
#
# Total GULP energy -61462.019644 kJ/mol
# GULP energy per Si atom -5587.456331 kJ/mol
# Density = 2.485703 g / cm^3
# Si number density = 24.913735 Si / 1000 Ang^3
#
#
#
# Elastic Constant Matrix: (Units=GPa)
#
#
# Indices 1 2 3 4 5 6 
#
# 1 133.5670 20.2132 26.4176 0.0000 7.0483 0.0000
# 2 20.2132 101.1153 32.8517 0.0000 4.5611 0.0000
# 3 26.4176 32.8517 84.1591 0.0000 8.0452 0.0000
# 4 0.0000 0.0000 0.0000 32.3336 0.0000 -13.5829
# 5 7.0483 4.5611 8.0452 0.0000 47.8603 0.0000
# 6 0.0000 0.0000 0.0000 -13.5829 0.0000 85.5555
#
#
#
# Elastic Compliance Matrix: (Units=1/GPa)
#
#
# Indices 1 2 3 4 5 6 
#
# 1 0.008080 -0.000894 -0.002116 0.000000 -0.000749 0.000000
# 2 -0.000894 0.011431 -0.004157 0.000000 -0.000259 0.000000
# 3 -0.002116 -0.004157 0.014332 0.000000 -0.001701 0.000000
# 4 0.000000 0.000000 0.000000 0.033138 0.000000 0.005261
# 5 -0.000749 -0.000259 -0.001701 0.000000 0.021315 0.000000
# 6 0.000000 0.000000 0.000000 0.005261 0.000000 0.012524
#
#
# Mechanical properties :
#
#
# Convention : Reuss Voigt Hill
#
# Bulk Modulus (GPa) = 51.25695 53.08960 52.17327
# Shear Modulus (GPa) = 41.10000 49.10715 45.10357
#
# Velocity S-wave (km/s) = 4.06605 4.44451 4.25948
# Velocity P-wave (km/s) = 6.53162 6.90607 6.72146
#
# Compressibility (1/GPa) = 0.01950955
#
# Stress axis : x y z
#
# Youngs Moduli (GPa) = 123.75964 87.48501 69.77610
#
# Poissons Ratio (x) = 0.07822 0.14763
# Poissons Ratio (y) = 0.11065 0.29003
# Poissons Ratio (z) = 0.26185 0.36363
#
# Static dielectric constant tensor:
#      x y z
#    x 2.081830 0.000000 -0.109180 
#    y 0.000000 1.919940 0.000000 
#    z -0.109180 0.000000 2.059760 
# 
# From -- ./inp_files/4853.got.cif
#   From: 2010.05.17/outbox.cif.g08.bks.cpg/sg5_3_cif.got.tgz:4853.got - 2010.06.03 18:56:24.
