data_PCOD9130635
_publ_section_title
;
Structure prediction by ZEFSAII (Michael W. Deem and Ramdas Pophale) SiO2 
 PCOD9130635
Probable space group: C 2
;
_chemical_formula_sum "Si O2"
_cell_formula_units_Z 16
_cell_length_a 5.210931
_cell_length_b 23.082059
_cell_length_c 5.124617
_cell_angle_alpha 90.000000
_cell_angle_beta 90.241842
_cell_angle_gamma 90.000000
_cell_volume 616.378403
_symmetry_space_group_name_H-M "C 2"
_symmetry_group_IT_number 5
_symmetry_cell_setting 'monoclinic'
loop_
_space_group_symop_operation_xyz
x,y,z
-x,y,-z
1/2+x,1/2+y,z
1/2-x,1/2+y,-z
loop_
_atom_site_type_symbol
_atom_site_label
_atom_site_fract_x
_atom_site_fract_y
_atom_site_fract_z
Si Si1 0.000000 0.909940 0.000000
Si Si2 0.000000 0.713647 0.500000
Si Si3 0.747783 0.619290 0.823068
Si Si4 0.246250 0.487355 0.337634
Si Si5 0.185435 0.312826 0.252645
O O1 0.894555 0.863376 0.210269
O O2 0.776017 0.957508 0.054912
O O3 0.210176 0.671901 0.372806
O O4 0.149475 0.755039 0.700893
O O5 0.745219 0.556573 0.688753
O O6 0.500000 0.625779 0.000000
O O7 0.000000 0.619533 0.000000
O O8 0.500000 0.470194 0.500000
O O9 0.000000 0.469313 0.500000
O O10 0.000000 0.322133 0.500000
O O11 0.000000 0.310674 0.000000
#
# Coordination Sequence:
#
# PCOD9130635 Si02
#       5
#     2   2   4   4   4
#     4  12  30  50  86 122 170 226 294 358 440 522
#     4  12  32  52  82 128 174 226 298 356 442 528
#     4  12  29  51  84 125 172 226 285 359 440 524
#     4  12  28  51  83 125 171 221 288 360 440 524
#     4  12  31  55  85 126 177 239 295 362 440 518
#
# _framework density 25.958079999999999
#
# number of rings (size 3 to 8) (size 9 to 14) (size 15 to 20)
#    0.000    0.000    2.500    3.750   17.500    0.000 
#    0.000    0.000    0.000    0.000    0.000    0.000 
#    0.000    0.000    0.000    0.000    0.000    0.000 
#
# Total GULP energy -44817.372530 kJ/mol
# GULP energy per Si atom -5602.171566 kJ/mol
# Density = 2.589900 g / cm^3
# Si number density = 25.958080 Si / 1000 Ang^3
#
#
#
# Elastic Constant Matrix: (Units=GPa)
#
#
# Indices 1 2 3 4 5 6 
#
# 1 221.1406 60.8872 95.3721 0.0000 -42.8261 0.0000
# 2 60.8872 205.5748 54.2788 0.0000 -18.4137 0.0000
# 3 95.3721 54.2788 152.2513 0.0000 -21.7294 0.0000
# 4 0.0000 0.0000 0.0000 148.1881 0.0000 21.8109
# 5 -42.8261 -18.4137 -21.7294 0.0000 84.1617 0.0000
# 6 0.0000 0.0000 0.0000 21.8109 0.0000 58.9693
#
#
#
# Elastic Compliance Matrix: (Units=1/GPa)
#
#
# Indices 1 2 3 4 5 6 
#
# 1 0.006757 -0.000842 -0.003601 0.000000 0.002324 0.000000
# 2 -0.000842 0.005516 -0.001378 0.000000 0.000422 0.000000
# 3 -0.003601 -0.001378 0.009355 0.000000 0.000282 0.000000
# 4 0.000000 0.000000 0.000000 0.007137 0.000000 -0.002640
# 5 0.002324 0.000422 0.000282 0.000000 0.013230 0.000000
# 6 0.000000 0.000000 0.000000 -0.002640 0.000000 0.017934
#
#
# Mechanical properties :
#
#
# Convention : Reuss Voigt Hill
#
# Bulk Modulus (GPa) = 100.15069 111.11588 105.63328
# Shear Modulus (GPa) = 66.75606 82.82572 74.79089
#
# Velocity S-wave (km/s) = 5.07668 5.65480 5.37352
# Velocity P-wave (km/s) = 8.54570 9.24849 8.90403
#
# Compressibility (1/GPa) = 0.00998495
#
# Stress axis : x y z
#
# Youngs Moduli (GPa) = 147.99659 181.30110 106.89317
#
# Poissons Ratio (x) = 0.15273 0.38487
# Poissons Ratio (y) = 0.12467 0.14735
# Poissons Ratio (z) = 0.53287 0.24991
#
# Static dielectric constant tensor:
#      x y z
#    x 1.975430 0.000000 0.067830 
#    y 0.000000 2.001950 0.000000 
#    z 0.067830 0.000000 2.150810 
# 
# From -- ./inp_files/660.got.cif
#   From: 2010.05.17/outbox.cif.g08.bks.cpg/sg5_1_cif.got.tgz:660.got - 2010.06.03 18:56:24.
