data_PCOD9130144
_publ_section_title
;
Structure prediction by ZEFSAII (Michael W. Deem and Ramdas Pophale) SiO2 
 PCOD9130144
Probable space group: C 2
;
_chemical_formula_sum "Si O2"
_cell_formula_units_Z 22
_cell_length_a 6.671119
_cell_length_b 12.880059
_cell_length_c 10.788888
_cell_angle_alpha 90.000000
_cell_angle_beta 88.922025
_cell_angle_gamma 90.000000
_cell_volume 926.864729
_symmetry_space_group_name_H-M "C 2"
_symmetry_group_IT_number 5
_symmetry_cell_setting 'monoclinic'
loop_
_space_group_symop_operation_xyz
x,y,z
-x,y,-z
1/2+x,1/2+y,z
1/2-x,1/2+y,-z
loop_
_atom_site_type_symbol
_atom_site_label
_atom_site_fract_x
_atom_site_fract_y
_atom_site_fract_z
Si Si1 0.689868 0.456600 0.327681
Si Si2 0.839293 0.233609 0.890594
Si Si3 0.630913 0.455618 0.879770
Si Si4 0.000000 0.797347 0.500000
Si Si5 0.359478 0.692823 0.614624
Si Si6 0.482902 0.045702 0.137080
O O1 0.517559 0.435643 0.230387
O O2 0.662153 0.369580 0.429799
O O3 0.651055 0.568704 0.386410
O O4 0.887056 0.472620 0.242244
O O5 0.736734 0.345776 0.906184
O O6 0.930342 0.227929 0.750319
O O7 0.661690 0.145103 0.882774
O O8 0.000000 0.219099 0.000000
O O9 0.781499 0.548046 0.836599
O O10 0.500000 0.486600 0.000000
O O11 0.868221 0.731025 0.406291
O O12 0.500000 0.726337 0.500000
O O13 0.500000 0.996824 0.000000
#
# Coordination Sequence:
#
# PCOD9130144 Si02
#       6
#     4   4   4   2   4   4
#     4  11  26  49  75 113 150 196 262 311 374 460
#     4  11  27  49  77 116 153 202 256 313 380 459
#     4  12  25  48  77 113 155 195 256 313 388 452
#     4  12  26  52  76 104 154 202 250 320 370 456
#     4  11  27  49  77 109 148 203 253 313 379 450
#     4  11  25  45  73 110 154 202 239 315 379 446
#
# _framework density 23.735934
#
# number of rings (size 3 to 8) (size 9 to 14) (size 15 to 20)
#    0.000    0.727    4.545    1.091    7.636    2.909 
#    1.636    0.000    0.000    0.000    0.000    0.000 
#    0.000    0.000    0.000    0.000    0.000    0.000 
#
# Total GULP energy -61474.830980 kJ/mol
# GULP energy per Si atom -5588.620998 kJ/mol
# Density = 2.368191 g / cm^3
# Si number density = 23.735934 Si / 1000 Ang^3
#
#
#
# Elastic Constant Matrix: (Units=GPa)
#
#
# Indices 1 2 3 4 5 6 
#
# 1 114.4263 62.9113 55.7295 0.0000 -17.6164 0.0000
# 2 62.9113 134.5428 38.7235 0.0000 5.9104 0.0000
# 3 55.7295 38.7235 141.6976 0.0000 -15.0345 0.0000
# 4 0.0000 0.0000 0.0000 25.3895 0.0000 21.3760
# 5 -17.6164 5.9104 -15.0345 0.0000 47.3714 0.0000
# 6 0.0000 0.0000 0.0000 21.3760 0.0000 42.8582
#
#
#
# Elastic Compliance Matrix: (Units=1/GPa)
#
#
# Indices 1 2 3 4 5 6 
#
# 1 0.014538 -0.005999 -0.003545 0.000000 0.005030 0.000000
# 2 -0.005999 0.010687 -0.000972 0.000000 -0.003873 0.000000
# 3 -0.003545 -0.000972 0.008890 0.000000 0.001624 0.000000
# 4 0.000000 0.000000 0.000000 0.067898 0.000000 -0.033865
# 5 0.005030 -0.003873 0.001624 0.000000 0.023979 0.000000
# 6 0.000000 0.000000 0.000000 -0.033865 0.000000 0.040223
#
#
# Mechanical properties :
#
#
# Convention : Reuss Voigt Hill
#
# Bulk Modulus (GPa) = 76.43217 78.37726 77.40471
# Shear Modulus (GPa) = 26.09501 38.67732 32.38616
#
# Velocity S-wave (km/s) = 3.31930 4.04107 3.69783
# Velocity P-wave (km/s) = 6.85283 7.40715 7.13537
#
# Compressibility (1/GPa) = 0.01308350
#
# Stress axis : x y z
#
# Youngs Moduli (GPa) = 68.78495 93.56745 112.49172
#
# Poissons Ratio (x) = 0.56127 0.39876
# Poissons Ratio (y) = 0.41261 0.10938
# Poissons Ratio (z) = 0.24383 0.09098
#
# Static dielectric constant tensor:
#      x y z
#    x 2.109350 0.000000 0.014230 
#    y 0.000000 1.886450 0.000000 
#    z 0.014230 0.000000 1.849220 
# 
# From -- ./inp_files/33272.got.cif
#   From: 2010.05.17/outbox.cif.g08.bks.cpg/sg5_17_cif.got.tgz:33272.got - 2010.06.03 18:56:24.
