data_PCOD9130909
_publ_section_title
;
Structure prediction by ZEFSAII (Michael W. Deem and Ramdas Pophale) SiO2 
 PCOD9130909
Probable space group: P M
;
_chemical_formula_sum "Si O2"
_cell_formula_units_Z 12
_cell_length_a 10.501357
_cell_length_b 8.520202
_cell_length_c 7.773262
_cell_angle_alpha 90.000000
_cell_angle_beta 111.838112
_cell_angle_gamma 90.000000
_cell_volume 645.592152
_symmetry_space_group_name_H-M "P M"
_symmetry_group_IT_number 6
_symmetry_cell_setting 'monoclinic'
loop_
_space_group_symop_operation_xyz
x,y,z
x,-y,z
loop_
_atom_site_type_symbol
_atom_site_label
_atom_site_fract_x
_atom_site_fract_y
_atom_site_fract_z
Si Si1 0.812390 0.690042 0.351900
Si Si2 0.321389 0.688216 0.422192
Si Si3 0.504231 0.187990 0.205575
Si Si4 0.309137 0.811902 0.794608
Si Si5 0.011489 0.310078 0.757806
Si Si6 0.016267 0.308885 0.152178
O O1 0.807157 0.500000 0.347611
O O2 0.659547 0.754317 0.270595
O O3 0.893878 0.738686 0.565229
O O4 0.903268 0.741719 0.233772
O O5 0.321823 0.500000 0.424635
O O6 0.430327 0.747398 0.338415
O O7 0.348549 0.749887 0.626793
O O8 0.168550 0.740894 0.287035
O O9 0.501535 0.000000 0.209530
O O10 0.415066 0.240384 0.995543
O O11 0.158268 0.749911 0.766685
O O12 0.306453 0.000000 0.790548
O O13 0.016333 0.500000 0.758684
O O14 0.988559 0.258073 0.942800
O O15 0.016339 0.500000 0.153392
#
# Coordination Sequence:
#
# PCOD9130909 Si02
#       6
#     2   2   2   2   2   2
#     4  10  21  38  59  88 122 157 198 248 300 352
#     4  11  21  38  66  92 116 156 204 254 300 347
#     4  11  25  42  58  87 129 165 197 243 301 363
#     4  11  23  38  59  89 125 162 199 243 299 362
#     4  10  19  36  62  90 118 151 201 253 295 351
#     4   9  18  34  60  90 116 145 195 251 295 345
#
# _framework density 18.587588
#
# number of rings (size 3 to 8) (size 9 to 14) (size 15 to 20)
#    0.000    1.667    3.333    1.500    0.000    4.000 
#    0.000    2.500    0.000    0.000    0.000    0.000 
#    0.000    0.000    0.000    0.000    0.000    0.000 
#
# Total GULP energy -67043.628760 kJ/mol
# GULP energy per Si atom -5586.969063 kJ/mol
# Density = 1.854528 g / cm^3
# Si number density = 18.587588 Si / 1000 Ang^3
#
#
#
# Elastic Constant Matrix: (Units=GPa)
#
#
# Indices 1 2 3 4 5 6 
#
# 1 146.7850 16.5382 78.7741 0.0000 -5.6789 0.0000
# 2 16.5382 17.5930 25.0442 0.0000 -0.3661 0.0000
# 3 78.7741 25.0442 157.0673 0.0000 -12.7101 0.0000
# 4 0.0000 0.0000 0.0000 21.5597 0.0000 -9.7098
# 5 -5.6789 -0.3661 -12.7101 0.0000 42.1411 0.0000
# 6 0.0000 0.0000 0.0000 -9.7098 0.0000 -60.8719
#
#
#
# Elastic Compliance Matrix: (Units=1/GPa)
#
#
# Indices 1 2 3 4 5 6 
#
# 1 0.009424 -0.002750 -0.004292 0.000000 -0.000048 0.000000
# 2 -0.002750 0.074698 -0.010771 0.000000 -0.002970 0.000000
# 3 -0.004292 -0.010771 0.010437 0.000000 0.002476 0.000000
# 4 0.000000 0.000000 0.000000 0.043274 0.000000 -0.006903
# 5 -0.000048 -0.002970 0.002476 0.000000 0.024444 0.000000
# 6 0.000000 0.000000 0.000000 -0.006903 0.000000 -0.015327
#
#
# Mechanical properties :
#
#
# Convention : Reuss Voigt Hill
#
# Bulk Modulus (GPa) = 16.96882 62.46202 39.71542
# Shear Modulus (GPa) = 24.72536 13.97170 19.34853
#
# Velocity S-wave (km/s) = 3.65116 2.74463 3.22986
# Velocity P-wave (km/s) = 5.18879 6.61219 5.94326
#
# Compressibility (1/GPa) = 0.05893162
#
# Stress axis : x y z
#
# Youngs Moduli (GPa) = 106.11284 13.38724 95.81308
#
# Poissons Ratio (x) = 0.03682 0.41121
# Poissons Ratio (y) = 0.29186 1.03204
# Poissons Ratio (z) = 0.45541 0.14420
#
# Static dielectric constant tensor:
#      x y z
#    x 1.596900 0.000000 -0.008820 
#    y 0.000000 1.640330 0.000000 
#    z -0.008820 0.000000 1.638560 
# 
# From -- ./inp_files/2430.got.cif
#   From: 2010.05.17/outbox.cif.g08.bks.cpg/sg6_2_cif.got.tgz:2430.got - 2010.06.03 19:42:10.
