data_PCOD9130309
_publ_section_title
;
Structure prediction by ZEFSAII (Michael W. Deem and Ramdas Pophale) SiO2 
 PCOD9130309
Probable space group: C 2
;
_chemical_formula_sum "Si O2"
_cell_formula_units_Z 12
_cell_length_a 5.088715
_cell_length_b 17.486730
_cell_length_c 5.294365
_cell_angle_alpha 90.000000
_cell_angle_beta 81.303998
_cell_angle_gamma 90.000000
_cell_volume 465.703214
_symmetry_space_group_name_H-M "C 2"
_symmetry_group_IT_number 5
_symmetry_cell_setting 'monoclinic'
loop_
_space_group_symop_operation_xyz
x,y,z
-x,y,-z
1/2+x,1/2+y,z
1/2-x,1/2+y,-z
loop_
_atom_site_type_symbol
_atom_site_label
_atom_site_fract_x
_atom_site_fract_y
_atom_site_fract_z
Si Si1 0.155766 0.009050 0.219161
Si Si2 0.500000 0.886056 0.000000
Si Si3 0.207276 0.782198 0.658535
Si Si4 0.000000 0.648582 0.000000
O O1 0.000000 0.021129 0.500000
O O2 0.266331 0.088876 0.093115
O O3 0.000000 0.977137 0.000000
O O4 0.383584 0.945634 0.222070
O O5 0.293213 0.831202 0.889085
O O6 0.500000 0.763525 0.500000
O O7 0.038083 0.707835 0.766109
O O8 0.000000 0.823517 0.500000
#
# Coordination Sequence:
#
# PCOD9130309 Si02
#       4
#     4   2   4   2
#     4  11  29  52  84 116 169 223 280 345 418 498
#     4  11  30  50  78 129 162 216 284 345 418 502
#     4  12  29  49  86 123 170 216 277 345 425 491
#     4  11  28  50  78 123 164 218 280 345 412 502
#
# _framework density 25.767482999999999
#
# number of rings (size 3 to 8) (size 9 to 14) (size 15 to 20)
#    0.000    0.667    0.000    3.000   23.333    2.667 
#    0.000    0.000    0.000    0.000    0.000    0.000 
#    0.000    0.000    0.000    0.000    0.000    0.000 
#
# Total GULP energy -33524.017296 kJ/mol
# GULP energy per Si atom -5587.336216 kJ/mol
# Density = 2.570883 g / cm^3
# Si number density = 25.767483 Si / 1000 Ang^3
#
#
#
# Elastic Constant Matrix: (Units=GPa)
#
#
# Indices 1 2 3 4 5 6 
#
# 1 138.5019 47.3829 92.1672 0.0000 -0.1891 0.0000
# 2 47.3829 139.5953 51.4828 0.0000 -10.9753 0.0000
# 3 92.1672 51.4828 179.2449 0.0000 -23.1158 0.0000
# 4 0.0000 0.0000 0.0000********** 0.000090513.6300
# 5 -0.1891 -10.9753 -23.1158 0.0000 71.2643 0.0000
# 6 0.0000 0.0000 0.000090513.6300 0.0000**********
#
#
#
# Elastic Compliance Matrix: (Units=1/GPa)
#
#
# Indices 1 2 3 4 5 6 
#
# 1 0.011718 -0.002037 -0.005716 0.000000 -0.002137 0.000000
# 2 -0.002037 0.008384 -0.001247 0.000000 0.000881 0.000000
# 3 -0.005716 -0.001247 0.009236 0.000000 0.002789 0.000000
# 4 0.000000 0.000000 0.000000 0.037770 0.000000 0.031450
# 5 -0.002137 0.000881 0.002789 0.000000 0.015067 0.000000
# 6 0.000000 0.000000 0.000000 0.031450 0.000000 0.026178
#
#
# Mechanical properties :
#
#
# Convention : Reuss Voigt Hill
#
# Bulk Modulus (GPa) = 88.19941 93.26755 90.73348
# Shear Modulus (GPa) = 38.42276 -36776.92501 -18369.25112
#
# Velocity S-wave (km/s) = 3.86571 -119.59764 -84.52411
# Velocity P-wave (km/s) = 7.36398 137.96806 97.41909
#
# Compressibility (1/GPa) = 0.01133794
#
# Stress axis : x y z
#
# Youngs Moduli (GPa) = 85.34112 119.27121 108.27661
#
# Poissons Ratio (x) = 0.24301 0.61886
# Poissons Ratio (y) = 0.17388 0.13500
# Poissons Ratio (z) = 0.48777 0.14871
#
# Static dielectric constant tensor:
#      x y z
#    x 80.513620 0.000000 32.941410 
#    y 0.000000 1.994790 0.000000 
#    z 32.941410 0.000000 15.924300 
# 
# From -- ./inp_files/272.got.cif
#   From: 2010.05.17/outbox.cif.g08.bks.cpg/sg5_1_cif.got.tgz:272.got - 2010.06.03 18:56:24.
