data_PCOD9130251
_publ_section_title
;
Structure prediction by ZEFSAII (Michael W. Deem and Ramdas Pophale) SiO2 
 PCOD9130251
Probable space group: C 2
;
_chemical_formula_sum "Si O2"
_cell_formula_units_Z 22
_cell_length_a 9.616298
_cell_length_b 15.346782
_cell_length_c 6.751077
_cell_angle_alpha 90.000000
_cell_angle_beta 70.885232
_cell_angle_gamma 90.000000
_cell_volume 941.386247
_symmetry_space_group_name_H-M "C 2"
_symmetry_group_IT_number 5
_symmetry_cell_setting 'monoclinic'
loop_
_space_group_symop_operation_xyz
x,y,z
-x,y,-z
1/2+x,1/2+y,z
1/2-x,1/2+y,-z
loop_
_atom_site_type_symbol
_atom_site_label
_atom_site_fract_x
_atom_site_fract_y
_atom_site_fract_z
Si Si1 0.500000 0.041610 0.000000
Si Si2 0.166663 0.903151 0.496383
Si Si3 0.877735 0.410685 0.731544
Si Si4 0.258864 0.594556 0.643637
Si Si5 0.828715 0.716213 0.645721
Si Si6 0.370114 0.717147 0.907507
O O1 0.600024 0.101716 0.817393
O O2 0.408789 0.979804 0.890655
O O3 0.218309 0.916185 0.698959
O O4 0.232777 0.810102 0.400855
O O5 0.000000 0.896321 0.500000
O O6 0.218288 0.991688 0.370873
O O7 0.000000 0.424268 0.500000
O O8 0.889600 0.313786 0.812351
O O9 0.250374 0.638347 0.434207
O O10 0.367701 0.647178 0.733530
O O11 0.781623 0.712233 0.895457
O O12 0.000000 0.712339 0.500000
O O13 0.500000 0.699443 0.000000
#
# Coordination Sequence:
#
# PCOD9130251 Si02
#       6
#     2   4   4   4   4   4
#     4  12  26  44  76 114 142 204 260 296 384 452
#     4  11  26  47  72 105 153 199 237 311 376 436
#     4  12  24  48  78 108 153 199 255 312 371 455
#     4  12  27  44  73 109 145 195 250 307 368 449
#     4  11  26  51  70 103 150 196 244 307 377 443
#     4  12  27  44  78 111 144 196 256 310 381 441
#
# _framework density 23.369790999999999
#
# number of rings (size 3 to 8) (size 9 to 14) (size 15 to 20)
#    0.000    0.364    4.545    3.273    7.636    0.000 
#    0.000    1.818    0.000    0.000    0.000    0.000 
#    0.000    0.000    0.000    0.000    0.000    0.000 
#
# Total GULP energy -61525.697441 kJ/mol
# GULP energy per Si atom -5593.245222 kJ/mol
# Density = 2.331660 g / cm^3
# Si number density = 23.369791 Si / 1000 Ang^3
#
#
#
# Elastic Constant Matrix: (Units=GPa)
#
#
# Indices 1 2 3 4 5 6 
#
# 1 99.9429 10.0072 21.2906 0.0000 20.8128 0.0000
# 2 10.0072 67.3974 26.0215 0.0000 5.9255 0.0000
# 3 21.2906 26.0215 101.5368 0.0000 7.9918 0.0000
# 4 0.0000 0.0000 0.0000 46.2736 0.0000 9.7369
# 5 20.8128 5.9255 7.9918 0.0000 45.6348 0.0000
# 6 0.0000 0.0000 0.0000 9.7369 0.0000 31.8492
#
#
#
# Elastic Compliance Matrix: (Units=1/GPa)
#
#
# Indices 1 2 3 4 5 6 
#
# 1 0.011468 -0.000551 -0.001883 0.000000 -0.004829 0.000000
# 2 -0.000551 0.016584 -0.004041 0.000000 -0.001194 0.000000
# 3 -0.001883 -0.004041 0.011326 0.000000 -0.000600 0.000000
# 4 0.000000 0.000000 0.000000 0.023096 0.000000 -0.007061
# 5 -0.004829 -0.001194 -0.000600 0.000000 0.024376 0.000000
# 6 0.000000 0.000000 0.000000 -0.007061 0.000000 0.033557
#
#
# Mechanical properties :
#
#
# Convention : Reuss Voigt Hill
#
# Bulk Modulus (GPa) = 37.83827 42.61286 40.22556
# Shear Modulus (GPa) = 35.17015 38.85537 37.01276
#
# Velocity S-wave (km/s) = 3.88357 4.08196 3.98400
# Velocity P-wave (km/s) = 6.02791 6.36320 6.19782
#
# Compressibility (1/GPa) = 0.02642827
#
# Stress axis : x y z
#
# Youngs Moduli (GPa) = 87.20180 60.29828 88.29035
#
# Poissons Ratio (x) = 0.03323 0.16628
# Poissons Ratio (y) = 0.04805 0.35674
# Poissons Ratio (z) = 0.16423 0.24364
#
# Static dielectric constant tensor:
#      x y z
#    x 2.181000 0.000000 -0.063130 
#    y 0.000000 1.850240 0.000000 
#    z -0.063130 0.000000 1.864730 
# 
# From -- ./inp_files/4759.got.cif
#   From: 2010.05.17/outbox.cif.g08.bks.cpg/sg5_3_cif.got.tgz:4759.got - 2010.06.03 18:56:24.
