data_PCOD9130937
_publ_section_title
;
Structure prediction by ZEFSAII (Michael W. Deem and Ramdas Pophale) SiO2 
 PCOD9130937
Probable space group: P M
;
_chemical_formula_sum "Si O2"
_cell_formula_units_Z 16
_cell_length_a 16.147927
_cell_length_b 8.927191
_cell_length_c 14.457566
_cell_angle_alpha 90.000000
_cell_angle_beta 26.589056
_cell_angle_gamma 90.000000
_cell_volume 932.836438
_symmetry_space_group_name_H-M "P M"
_symmetry_group_IT_number 6
_symmetry_cell_setting 'monoclinic'
loop_
_space_group_symop_operation_xyz
x,y,z
x,-y,z
loop_
_atom_site_type_symbol
_atom_site_label
_atom_site_fract_x
_atom_site_fract_y
_atom_site_fract_z
Si Si1 0.329080 0.320699 0.637950
Si Si2 0.330318 0.820656 0.933801
Si Si3 0.342038 0.180193 0.137054
Si Si4 0.341896 0.178791 0.424446
Si Si5 0.044125 0.680194 0.081512
Si Si6 0.022776 0.178832 0.598640
Si Si7 0.619894 0.678569 0.003028
Si Si8 0.616086 0.319963 0.509977
O O1 0.327519 0.500000 0.623394
O O2 0.331006 0.236454 0.539464
O O3 0.506306 0.284421 0.525128
O O4 0.153216 0.282066 0.878146
O O5 0.507146 0.757404 0.702305
O O6 0.327996 0.000000 0.930379
O O7 0.333416 0.777919 0.038369
O O8 0.153689 0.755260 0.056220
O O9 0.151611 0.215224 0.381401
O O10 0.368048 0.000000 0.118383
O O11 0.507759 0.259186 0.026420
O O12 0.153451 0.213699 0.556164
O O13 0.367006 0.000000 0.395758
O O14 0.509020 0.255899 0.201827
O O15 0.057206 0.500000 0.078720
O O16 0.830057 0.722931 0.292103
O O17 0.829849 0.264007 0.792371
O O18 0.987690 0.000000 0.633058
O O19 0.613662 0.500000 0.010850
O O20 0.603186 0.500000 0.534724
#
# Coordination Sequence:
#
# PCOD9130937 Si02
#       8
#     2   2   2   2   2   2   2   2
#     4   9  18  33  53  78 107 138 174 216 260 307
#     4  10  20  34  54  80 107 137 175 217 260 307
#     4   9  20  38  56  75 105 142 175 212 260 311
#     4  10  21  37  56  78 106 139 173 212 260 312
#     4   9  19  36  55  75 105 142 176 214 260 309
#     4   9  19  37  56  74 103 140 173 210 260 313
#     4  11  22  35  55  81 106 134 172 217 260 308
#     4   9  19  36  55  77 107 142 176 212 260 311
#
# _framework density 17.151987999999999
#
# number of rings (size 3 to 8) (size 9 to 14) (size 15 to 20)
#    0.000    2.500    0.000    3.375    0.000    8.000 
#    0.000    5.000    0.000    0.000    0.000    0.000 
#    0.000    0.000    0.000    0.000    0.000    0.000 
#
# Total GULP energy -89279.219126 kJ/mol
# GULP energy per Si atom -5579.951195 kJ/mol
# Density = 1.711295 g / cm^3
# Si number density = 17.151988 Si / 1000 Ang^3
#
#
#
# Elastic Constant Matrix: (Units=GPa)
#
#
# Indices 1 2 3 4 5 6 
#
# 1 155.4505 68.9542 125.7471 0.0000 17.6772 0.0000
# 2 68.9542 57.6362 69.8572 0.0000 -0.7632 0.0000
# 3 125.7471 69.8572 159.1021 0.0000 -16.4753 0.0000
# 4 0.0000 0.0000 0.0000 26.2574 0.0000 1.1875
# 5 17.6772 -0.7632 -16.4753 0.0000 29.6073 0.0000
# 6 0.0000 0.0000 0.0000 1.1875 0.0000 28.0076
#
#
#
# Elastic Compliance Matrix: (Units=1/GPa)
#
#
# Indices 1 2 3 4 5 6 
#
# 1 0.048622 -0.012646 -0.038112 0.000000 -0.050563 0.000000
# 2 -0.012646 0.042561 -0.008274 0.000000 0.004044 0.000000
# 3 -0.038112 -0.008274 0.044965 0.000000 0.047563 0.000000
# 4 0.000000 0.000000 0.000000 0.038158 0.000000 -0.001618
# 5 -0.050563 0.004044 0.047563 0.000000 0.090535 0.000000
# 6 0.000000 0.000000 0.000000 -0.001618 0.000000 0.035773
#
#
# Mechanical properties :
#
#
# Convention : Reuss Voigt Hill
#
# Bulk Modulus (GPa) = 55.29536 100.14509 77.72023
# Shear Modulus (GPa) = 11.77285 23.94981 17.86133
#
# Velocity S-wave (km/s) = 2.62274 3.74080 3.23051
# Velocity P-wave (km/s) = 6.44050 8.78475 7.70233
#
# Compressibility (1/GPa) = 0.01808470
#
# Stress axis : x y z
#
# Youngs Moduli (GPa) = 20.56694 23.49542 22.23960
#
# Poissons Ratio (x) = 0.29713 0.84759
# Poissons Ratio (y) = 0.26010 0.18400
# Poissons Ratio (z) = 0.78384 0.19439
#
# Static dielectric constant tensor:
#      x y z
#    x 1.557890 0.000000 -0.001370 
#    y 0.000000 1.573760 0.000000 
#    z -0.001370 0.000000 1.562350 
# 
# From -- ./inp_files/5626.got.cif
#   From: 2010.05.17/outbox.cif.g08.bks.cpg/sg6_3_cif.got.tgz:5626.got - 2010.06.03 19:42:10.
