data_PCOD9130104
_publ_section_title
;
Structure prediction by ZEFSAII (Michael W. Deem and Ramdas Pophale) SiO2 
 PCOD9130104
Probable space group: C 2
;
_chemical_formula_sum "Si O2"
_cell_formula_units_Z 24
_cell_length_a 22.195566
_cell_length_b 5.223651
_cell_length_c 22.946073
_cell_angle_alpha 90.000000
_cell_angle_beta 20.677888
_cell_angle_gamma 90.000000
_cell_volume 939.427878
_symmetry_space_group_name_H-M "C 2"
_symmetry_group_IT_number 5
_symmetry_cell_setting 'monoclinic'
loop_
_space_group_symop_operation_xyz
x,y,z
-x,y,-z
1/2+x,1/2+y,z
1/2-x,1/2+y,-z
loop_
_atom_site_type_symbol
_atom_site_label
_atom_site_fract_x
_atom_site_fract_y
_atom_site_fract_z
Si Si1 0.572014 0.003960 0.731200
Si Si2 0.617249 0.676817 0.340459
Si Si3 0.106889 0.999197 0.853242
Si Si4 0.602959 0.492692 0.068136
Si Si5 0.358634 0.311421 0.542426
Si Si6 0.512065 0.933957 0.314571
O O1 0.477311 0.278583 0.816523
O O2 0.601345 0.884926 0.640318
O O3 0.458971 0.780419 0.863215
O O4 0.738625 0.030794 0.622052
O O5 0.500000 0.780038 0.500000
O O6 0.542051 0.392304 0.401762
O O7 0.799457 0.765534 0.198317
O O8 0.573765 0.771021 0.314845
O O9 0.242894 0.169831 0.694742
O O10 0.974743 0.913080 0.923790
O O11 0.000000 0.143821 0.000000
O O12 0.805631 0.490592 0.880519
O O13 0.404303 0.145281 0.445532
#
# Coordination Sequence:
#
# PCOD9130104 Si02
#       6
#     4   4   4   4   4   4
#     4  11  28  50  77 112 160 195 264 309 393 451
#     4  12  26  46  72 108 148 192 253 312 384 447
#     4  11  24  51  74 107 153 197 255 312 383 459
#     4  11  26  51  75 116 150 207 250 324 373 464
#     4  11  29  47  77 111 153 200 257 321 384 453
#     4  12  27  46  82 107 154 199 256 314 390 450
#
# _framework density 25.547466
#
# number of rings (size 3 to 8) (size 9 to 14) (size 15 to 20)
#    0.000    0.667    3.333    2.000   11.667    0.000 
#    3.000    0.833    0.000    0.000    0.000    0.000 
#    0.000    0.000    0.000    0.000    0.000    0.000 
#
# Total GULP energy -66962.343398 kJ/mol
# GULP energy per Si atom -5580.195283 kJ/mol
# Density = 2.548932 g / cm^3
# Si number density = 25.547466 Si / 1000 Ang^3
#
#
#
# Elastic Constant Matrix: (Units=GPa)
#
#
# Indices 1 2 3 4 5 6 
#
# 1 167.0518 5.7522 22.9276 -0.0315 -3.6735 0.0156
# 2 5.7522 46.4716 22.5424 -0.1444 -11.3834 0.0778
# 3 22.9276 22.5424 85.0993 -0.0078 -11.4164 0.0285
# 4 -0.0315 -0.1444 -0.0078 49.6911 0.0690 4.5147
# 5 -3.6735 -11.3834 -11.4164 0.0690 35.3311 -0.0284
# 6 0.0156 0.0778 0.0285 4.5147 -0.0284 34.9760
#
#
#
# Elastic Compliance Matrix: (Units=1/GPa)
#
#
# Indices 1 2 3 4 5 6 
#
# 1 0.006217 0.000076 -0.001678 0.000004 0.000129 -0.000002
# 2 0.000076 0.026021 -0.006050 0.000071 0.006437 -0.000057
# 3 -0.001678 -0.006050 0.014133 -0.000020 0.002443 0.000007
# 4 0.000004 0.000071 -0.000020 0.020363 -0.000025 -0.002629
# 5 0.000129 0.006437 0.002443 -0.000025 0.031180 0.000012
# 6 -0.000002 -0.000057 0.000007 -0.002629 0.000012 0.028930
#
#
# Mechanical properties :
#
#
# Convention : Reuss Voigt Hill
#
# Bulk Modulus (GPa) = 32.18795 44.56302 38.37548
# Shear Modulus (GPa) = 32.78609 40.49303 36.63956
#
# Velocity S-wave (km/s) = 3.58626 3.98554 3.79116
# Velocity P-wave (km/s) = 5.45664 6.21775 5.84959
#
# Compressibility (1/GPa) = 0.03106753
#
# Stress axis : x y z
#
# Youngs Moduli (GPa) = 160.85826 38.43103 70.75490
#
# Poissons Ratio (x) = -0.00292 0.11871
# Poissons Ratio (y) = -0.01221 0.42804
# Poissons Ratio (z) = 0.26988 0.23250
#
# Static dielectric constant tensor:
#      x y z
#    x 1.999390 0.000000 -0.000170 
#    y 0.000000 2.059480 0.000000 
#    z -0.000170 0.000000 1.987720 
# 
# From -- ./inp_files/69550.got.cif
#   From: 2010.05.17/outbox.cif.g08.bks.cpg/sg5_35_cif.got.tgz:69550.got - 2010.06.03 18:56:24.
