data_PCOD9130793
_publ_section_title
;
Structure prediction by ZEFSAII (Michael W. Deem and Ramdas Pophale) SiO2 
 PCOD9130793
Probable space group: P M
;
_chemical_formula_sum "Si O2"
_cell_formula_units_Z 16
_cell_length_a 10.886858
_cell_length_b 8.410026
_cell_length_c 8.457126
_cell_angle_alpha 90.000000
_cell_angle_beta 80.540985
_cell_angle_gamma 90.000000
_cell_volume 763.795796
_symmetry_space_group_name_H-M "P M"
_symmetry_group_IT_number 6
_symmetry_cell_setting 'monoclinic'
loop_
_space_group_symop_operation_xyz
x,y,z
x,-y,z
loop_
_atom_site_type_symbol
_atom_site_label
_atom_site_fract_x
_atom_site_fract_y
_atom_site_fract_z
Si Si1 0.527100 0.811146 0.416820
Si Si2 0.451703 0.685864 0.105899
Si Si3 0.745008 0.323751 0.012718
Si Si4 0.392401 0.313098 0.762254
Si Si5 0.796293 0.320051 0.415823
Si Si6 0.124545 0.189323 0.808009
Si Si7 0.867096 0.819786 0.711210
Si Si8 0.961440 0.819383 0.142483
O O1 0.439154 0.763762 0.284103
O O2 0.471577 0.764559 0.601775
O O3 0.661214 0.722629 0.370187
O O4 0.546146 0.000000 0.406985
O O5 0.414343 0.500000 0.126940
O O6 0.599704 0.696853 0.050283
O O7 0.402781 0.747630 0.944301
O O8 0.776978 0.500000 0.069002
O O9 0.787813 0.306935 0.824457
O O10 0.830270 0.191717 0.076175
O O11 0.425282 0.500000 0.759948
O O12 0.248255 0.285781 0.749980
O O13 0.788719 0.500000 0.473913
O O14 0.818325 0.193061 0.546668
O O15 0.923339 0.299009 0.288115
O O16 0.012271 0.217524 0.708916
O O17 0.152263 0.000000 0.800480
O O18 0.065642 0.227347 0.993321
O O19 0.848972 0.000000 0.772483
O O20 0.984556 0.000000 0.189993
#
# Coordination Sequence:
#
# PCOD9130793 Si02
#       8
#     2   2   2   2   2   2   2   2
#     4  12  25  41  66  96 130 169 210 261 320 384
#     4  10  22  40  62  92 127 166 209 261 318 375
#     4  10  18  32  57  86 119 155 193 247 311 371
#     4  11  24  43  67  93 127 169 216 267 316 374
#     4  12  23  37  59  92 128 158 200 257 317 381
#     4   9  21  42  63  86 119 161 209 256 305 368
#     4  10  21  37  59  87 121 161 205 255 311 375
#     4  10  20  36  59  86 119 157 198 248 304 366
#
# _framework density 20.948008000000002
#
# number of rings (size 3 to 8) (size 9 to 14) (size 15 to 20)
#    0.000    1.500    1.250    5.250    0.000    5.500 
#    2.250    0.000    0.000    0.000    0.000    0.000 
#    0.000    0.000    0.000    0.000    0.000    0.000 
#
# Total GULP energy -89112.184078 kJ/mol
# GULP energy per Si atom -5569.511505 kJ/mol
# Density = 2.090033 g / cm^3
# Si number density = 20.948008 Si / 1000 Ang^3
#
#
#
# Elastic Constant Matrix: (Units=GPa)
#
#
# Indices 1 2 3 4 5 6 
#
# 1 40.1904 13.3685 22.8442 0.0000 -7.5711 0.0000
# 2 13.3685 67.6597 12.6243 0.0000 -0.1049 0.0000
# 3 22.8442 12.6243 64.2841 0.0000 15.1503 0.0000
# 4 0.0000 0.0000 0.0000 196.9469 0.0000 -49.4864
# 5 -7.5711 -0.1049 15.1503 0.0000 28.8349 0.0000
# 6 0.0000 0.0000 0.0000 -49.4864 0.0000 34.2698
#
#
#
# Elastic Compliance Matrix: (Units=1/GPa)
#
#
# Indices 1 2 3 4 5 6 
#
# 1 0.040640 -0.004580 -0.018322 0.000000 0.020281 0.000000
# 2 -0.004580 0.015947 -0.001409 0.000000 -0.000404 0.000000
# 3 -0.018322 -0.001409 0.026797 0.000000 -0.018895 0.000000
# 4 0.000000 0.000000 0.000000 0.007969 0.000000 0.011507
# 5 0.020281 -0.000404 -0.018895 0.000000 0.049932 0.000000
# 6 0.000000 0.000000 0.000000 0.011507 0.000000 0.045797
#
#
# Mechanical properties :
#
#
# Convention : Reuss Voigt Hill
#
# Bulk Modulus (GPa) = 28.76717 29.97867 29.37292
# Shear Modulus (GPa) = 20.21917 60.23015 40.22466
#
# Velocity S-wave (km/s) = 3.11015 5.36793 4.38678
# Velocity P-wave (km/s) = 5.16332 7.26372 6.30164
#
# Compressibility (1/GPa) = 0.03476185
#
# Stress axis : x y z
#
# Youngs Moduli (GPa) = 24.60648 62.70771 37.31783
#
# Poissons Ratio (x) = 0.28718 0.68374
# Poissons Ratio (y) = 0.11269 0.05258
# Poissons Ratio (z) = 0.45084 0.08835
#
# Static dielectric constant tensor:
#      x y z
#    x 1.700360 0.000000 0.018530 
#    y 0.000000 1.595440 0.000000 
#    z 0.018530 0.000000 1.920910 
# 
# From -- ./inp_files/3569.got.cif
#   From: 2010.05.17/outbox.cif.g08.bks.cpg/sg6_2_cif.got.tgz:3569.got - 2010.06.03 19:42:10.
