data_PCOD9130888
_publ_section_title
;
Structure prediction by ZEFSAII (Michael W. Deem and Ramdas Pophale) SiO2 
 PCOD9130888
Probable space group: P M
;
_chemical_formula_sum "Si O2"
_cell_formula_units_Z 16
_cell_length_a 10.538969
_cell_length_b 8.703845
_cell_length_c 12.550494
_cell_angle_alpha 90.000000
_cell_angle_beta 51.846301
_cell_angle_gamma 90.000000
_cell_volume 905.293721
_symmetry_space_group_name_H-M "P M"
_symmetry_group_IT_number 6
_symmetry_cell_setting 'monoclinic'
loop_
_space_group_symop_operation_xyz
x,y,z
x,-y,z
loop_
_atom_site_type_symbol
_atom_site_label
_atom_site_fract_x
_atom_site_fract_y
_atom_site_fract_z
Si Si1 0.690830 0.316173 0.782400
Si Si2 0.506784 0.316837 0.221550
Si Si3 0.805973 0.182787 0.948535
Si Si4 0.282304 0.183657 0.513969
Si Si5 0.206854 0.684456 0.220743
Si Si6 0.323536 0.686912 0.931666
Si Si7 0.162325 0.315212 0.794546
Si Si8 0.984219 0.182491 0.511002
O O1 0.691320 0.500000 0.796640
O O2 0.744546 0.239840 0.865213
O O3 0.510319 0.266861 0.845077
O O4 0.821057 0.268144 0.626731
O O5 0.528996 0.500000 0.213758
O O6 0.428335 0.256553 0.371340
O O7 0.372667 0.283491 0.199505
O O8 0.672237 0.236578 0.102704
O O9 0.979286 0.256783 0.881308
O O10 0.821298 0.000000 0.939396
O O11 0.259244 0.250315 0.643162
O O12 0.119098 0.219528 0.531342
O O13 0.298952 0.000000 0.508115
O O14 0.183668 0.500000 0.235965
O O15 0.063481 0.764252 0.359433
O O16 0.230406 0.735449 0.087049
O O17 0.321966 0.500000 0.933183
O O18 0.241679 0.736479 0.864567
O O19 0.163734 0.500000 0.789435
O O20 0.958836 0.000000 0.525152
#
# Coordination Sequence:
#
# PCOD9130888 Si02
#       8
#     2   2   2   2   2   2   2   2
#     4  11  20  36  60  85 111 145 191 237 281 331
#     4  10  19  34  59  86 111 144 191 236 281 335
#     4  12  23  36  55  85 119 148 187 237 286 332
#     4  10  20  35  54  82 120 150 183 233 286 333
#     4   9  17  34  57  82 111 144 184 231 281 331
#     4   9  20  38  59  85 113 144 189 238 279 331
#     4  11  22  38  60  83 113 154 195 231 278 338
#     4  10  20  33  52  84 118 145 182 231 282 333
#
# _framework density 17.673821
#
# number of rings (size 3 to 8) (size 9 to 14) (size 15 to 20)
#    0.000    1.750    2.500    3.000    0.000    1.500 
#    0.000    5.000    0.000    3.000    0.000    0.000 
#    0.000    0.000    0.000    0.000    0.000    0.000 
#
# Total GULP energy -89363.464296 kJ/mol
# GULP energy per Si atom -5585.216518 kJ/mol
# Density = 1.763359 g / cm^3
# Si number density = 17.673821 Si / 1000 Ang^3
#
#
#
# Elastic Constant Matrix: (Units=GPa)
#
#
# Indices 1 2 3 4 5 6 
#
# 1 105.1738 24.8030 65.4268 0.0000 14.5183 0.0000
# 2 24.8030 40.9264 28.2943 0.0000 6.8205 0.0000
# 3 65.4268 28.2943 143.4531 0.0000 17.1767 0.0000
# 4 0.0000 0.0000 0.0000 15.1289 0.0000 -5.9209
# 5 14.5183 6.8205 17.1767 0.0000 25.7092 0.0000
# 6 0.0000 0.0000 0.0000 -5.9209 0.0000 1.2457
#
#
#
# Elastic Compliance Matrix: (Units=1/GPa)
#
#
# Indices 1 2 3 4 5 6 
#
# 1 0.014282 -0.004479 -0.005225 0.000000 -0.003386 0.000000
# 2 -0.004479 0.030101 -0.003523 0.000000 -0.003103 0.000000
# 3 -0.005225 -0.003523 0.010417 0.000000 -0.003075 0.000000
# 4 0.000000 0.000000 0.000000 -0.076837 0.000000 -0.365224
# 5 -0.003386 -0.003103 -0.003075 0.000000 0.043686 0.000000
# 6 0.000000 0.000000 0.000000 -0.365224 0.000000 -0.933203
#
#
# Mechanical properties :
#
#
# Convention : Reuss Voigt Hill
#
# Bulk Modulus (GPa) = 35.27751 58.51130 46.89440
# Shear Modulus (GPa) = -5.71003 19.81869 7.05433
#
# Velocity S-wave (km/s) = -1.79939 3.35230 2.00002
# Velocity P-wave (km/s) = 3.96063 6.93988 5.65016
#
# Compressibility (1/GPa) = 0.02834667
#
# Stress axis : x y z
#
# Youngs Moduli (GPa) = 70.01748 33.22149 95.99761
#
# Poissons Ratio (x) = 0.14880 0.50159
# Poissons Ratio (y) = 0.31360 0.33818
# Poissons Ratio (z) = 0.36584 0.11703
#
# Static dielectric constant tensor:
#      x y z
#    x 1.581670 0.000000 0.005500 
#    y 0.000000 1.589370 0.000000 
#    z 0.005500 0.000000 1.597520 
# 
# From -- ./inp_files/2712.got.cif
#   From: 2010.05.17/outbox.cif.g08.bks.cpg/sg6_2_cif.got.tgz:2712.got - 2010.06.03 19:42:10.
