data_PCOD9130632
_publ_section_title
;
Structure prediction by ZEFSAII (Michael W. Deem and Ramdas Pophale) SiO2 
 PCOD9130632
Probable space group: C 2
;
_chemical_formula_sum "Si O2"
_cell_formula_units_Z 20
_cell_length_a 24.754573
_cell_length_b 4.820814
_cell_length_c 10.846127
_cell_angle_alpha 90.000000
_cell_angle_beta 34.023626
_cell_angle_gamma 90.000000
_cell_volume 724.231706
_symmetry_space_group_name_H-M "C 2"
_symmetry_group_IT_number 5
_symmetry_cell_setting 'monoclinic'
loop_
_space_group_symop_operation_xyz
x,y,z
-x,y,-z
1/2+x,1/2+y,z
1/2-x,1/2+y,-z
loop_
_atom_site_type_symbol
_atom_site_label
_atom_site_fract_x
_atom_site_fract_y
_atom_site_fract_z
Si Si1 0.669562 0.694530 0.799609
Si Si2 0.000000 0.611086 0.500000
Si Si3 0.005818 0.910459 0.752108
Si Si4 0.203377 0.228813 0.404103
Si Si5 0.198222 0.324967 0.142127
Si Si6 0.500000 0.003843 0.000000
O O1 0.739449 0.449946 0.618024
O O2 0.791267 0.393395 0.734607
O O3 0.730886 0.955680 0.726220
O O4 0.596410 0.563478 0.037744
O O5 0.906863 0.420074 0.698454
O O6 0.986627 0.782267 0.398473
O O7 0.094392 0.118059 0.607196
O O8 0.009828 0.690236 0.858021
O O9 0.406885 0.813294 0.154149
O O10 0.221214 0.003879 0.080025
#
# Coordination Sequence:
#
# PCOD9130632 Si02
#       6
#     4   2   4   4   4   2
#     4  12  28  57  85 125 172 233 285 377 418 531
#     4  12  30  54  92 126 182 222 292 362 444 510
#     4  12  30  60  86 135 172 233 294 362 439 532
#     4  12  29  51  87 125 172 228 298 349 448 512
#     4  12  28  50  80 128 174 226 284 359 436 526
#     4  12  30  62  90 124 186 232 300 362 452 506
#
# _framework density 27.615472
#
# number of rings (size 3 to 8) (size 9 to 14) (size 15 to 20)
#    0.000    0.000    2.000    5.400    8.400    4.800 
#    7.200    0.000    0.000    0.000    0.000    0.000 
#    0.000    0.000    0.000    0.000    0.000    0.000 
#
# Total GULP energy -56185.027742 kJ/mol
# GULP energy per Si atom -5618.502774 kJ/mol
# Density = 2.755262 g / cm^3
# Si number density = 27.615472 Si / 1000 Ang^3
#
#
#
# Elastic Constant Matrix: (Units=GPa)
#
#
# Indices 1 2 3 4 5 6 
#
# 1 149.1487 70.0662 86.1114 -0.0016 5.7026 0.0019
# 2 70.0662 171.4979 65.0122 -0.0047 -20.0499 0.0032
# 3 86.1114 65.0122 168.5225 -0.0009 -37.6781 0.0004
# 4 -0.0016 -0.0047 -0.0009 21.8963 -0.0004 9.9364
# 5 5.7026 -20.0499 -37.6781 -0.0004 75.9645 -0.0001
# 6 0.0019 0.0032 0.0004 9.9364 -0.0001 58.1236
#
#
#
# Elastic Compliance Matrix: (Units=1/GPa)
#
#
# Indices 1 2 3 4 5 6 
#
# 1 0.011687 -0.003113 -0.005793 0.000000 -0.004572 0.000000
# 2 -0.003113 0.007680 -0.000975 0.000002 0.001777 -0.000001
# 3 -0.005793 -0.000975 0.010471 0.000000 0.005371 0.000000
# 4 0.000000 0.000002 0.000000 0.049511 0.000001 -0.008464
# 5 -0.004572 0.001777 0.005371 0.000001 0.016640 0.000000
# 6 0.000000 -0.000001 0.000000 -0.008464 0.000000 0.018652
#
#
# Mechanical properties :
#
#
# Convention : Reuss Voigt Hill
#
# Bulk Modulus (GPa) = 99.24443 103.50542 101.37493
# Shear Modulus (GPa) = 36.29495 49.06218 42.67856
#
# Velocity S-wave (km/s) = 3.62926 4.21957 3.93550
# Velocity P-wave (km/s) = 7.31970 7.82956 7.57892
#
# Compressibility (1/GPa) = 0.01007613
#
# Stress axis : x y z
#
# Youngs Moduli (GPa) = 85.56873 130.20584 95.50352
#
# Poissons Ratio (x) = 0.40535 0.55324
# Poissons Ratio (y) = 0.26639 0.09309
# Poissons Ratio (z) = 0.49568 0.12691
#
# Static dielectric constant tensor:
#      x y z
#    x 2.139700 0.000000 0.055760 
#    y 0.000000 2.068480 0.000000 
#    z 0.055760 0.000000 2.208520 
# 
# From -- ./inp_files/47761.got.cif
#   From: 2010.05.17/outbox.cif.g08.bks.cpg/sg5_24_cif.got.tgz:47761.got - 2010.06.03 18:56:24.
