data_PCOD9130451
_publ_section_title
;
Structure prediction by ZEFSAII (Michael W. Deem and Ramdas Pophale) SiO2 
 PCOD9130451
Probable space group: C 2
;
_chemical_formula_sum "Si O2"
_cell_formula_units_Z 20
_cell_length_a 8.040006
_cell_length_b 5.232814
_cell_length_c 24.245550
_cell_angle_alpha 90.000000
_cell_angle_beta 47.403903
_cell_angle_gamma 90.000000
_cell_volume 750.906758
_symmetry_space_group_name_H-M "C 2"
_symmetry_group_IT_number 5
_symmetry_cell_setting 'monoclinic'
loop_
_space_group_symop_operation_xyz
x,y,z
-x,y,-z
1/2+x,1/2+y,z
1/2-x,1/2+y,-z
loop_
_atom_site_type_symbol
_atom_site_label
_atom_site_fract_x
_atom_site_fract_y
_atom_site_fract_z
Si Si1 0.500000 0.128830 0.500000
Si Si2 0.407218 0.953140 0.303729
Si Si3 0.816486 0.270544 0.206129
Si Si4 0.957887 0.771826 0.894968
Si Si5 0.996258 0.269394 0.401980
Si Si6 0.000000 0.513649 0.000000
O O1 0.726516 0.263933 0.469892
O O2 0.582881 0.956270 0.430079
O O3 0.400577 0.782487 0.250691
O O4 0.525152 0.840920 0.331418
O O5 0.548366 0.215660 0.262564
O O6 0.146920 0.018013 0.375450
O O7 0.913820 0.533812 0.160737
O O8 0.916553 0.030354 0.150570
O O9 0.939966 0.699195 0.963107
O O10 0.702480 0.832089 0.935165
#
# Coordination Sequence:
#
# PCOD9130451 Si02
#       6
#     2   4   4   4   4   2
#     4  12  24  44  70 104 148 196 248 308 372 444
#     4  12  26  47  74 109 150 198 252 312 376 450
#     4  12  27  49  76 111 153 200 252 314 380 452
#     4  12  28  50  78 112 152 200 252 314 380 452
#     4  12  25  45  72 107 147 196 248 308 372 444
#     4  12  28  52  78 114 152 200 256 316 380 456
#
# _framework density 26.634463
#
# number of rings (size 3 to 8) (size 9 to 14) (size 15 to 20)
#    0.000    0.000    0.000    9.600    0.000    8.800 
#    0.000    0.000    0.000    0.000    0.000    0.000 
#    0.000    0.000    0.000    0.000    0.000    0.000 
#
# Total GULP energy -56099.051904 kJ/mol
# GULP energy per Si atom -5609.905190 kJ/mol
# Density = 2.657384 g / cm^3
# Si number density = 26.634463 Si / 1000 Ang^3
#
#
#
# Elastic Constant Matrix: (Units=GPa)
#
#
# Indices 1 2 3 4 5 6 
#
# 1 129.5268 45.2531 35.3412 0.0015 2.2986 0.0026
# 2 45.2531 143.5671 44.0977 0.0026 6.8272 0.0066
# 3 35.3412 44.0977 93.8864 -0.0002 -3.7072 0.0026
# 4 0.0015 0.0026 -0.0002 42.2392 -0.0001 6.0973
# 5 2.2986 6.8272 -3.7072 -0.0001 67.5263 0.0010
# 6 0.0026 0.0066 0.0026 6.0973 0.0010 46.0856
#
#
#
# Elastic Compliance Matrix: (Units=1/GPa)
#
#
# Indices 1 2 3 4 5 6 
#
# 1 0.009133 -0.002114 -0.002454 0.000000 -0.000232 0.000000
# 2 -0.002114 0.008702 -0.003331 0.000000 -0.000991 -0.000001
# 3 -0.002454 -0.003331 0.013184 0.000000 0.001144 0.000000
# 4 0.000000 0.000000 0.000000 0.024136 0.000000 -0.003193
# 5 -0.000232 -0.000991 0.001144 0.000000 0.014980 0.000000
# 6 0.000000 -0.000001 0.000000 -0.003193 0.000000 0.022121
#
#
# Mechanical properties :
#
#
# Convention : Reuss Voigt Hill
#
# Bulk Modulus (GPa) = 65.69465 68.48491 67.08978
# Shear Modulus (GPa) = 44.19828 47.32278 45.76053
#
# Velocity S-wave (km/s) = 4.07804 4.21972 4.14949
# Velocity P-wave (km/s) = 6.84783 7.03634 6.94273
#
# Compressibility (1/GPa) = 0.01522194
#
# Stress axis : x y z
#
# Youngs Moduli (GPa) = 109.49756 114.91876 75.84690
#
# Poissons Ratio (x) = 0.24292 0.18613
# Poissons Ratio (y) = 0.23146 0.25261
# Poissons Ratio (z) = 0.26871 0.38275
#
# Static dielectric constant tensor:
#      x y z
#    x 2.024670 0.000000 -0.022460 
#    y 0.000000 2.047510 0.000000 
#    z -0.022460 0.000000 2.139510 
# 
# From -- ./inp_files/59086.got.cif
#   From: 2010.05.17/outbox.cif.g08.bks.cpg/sg5_30_cif.got.tgz:59086.got - 2010.06.03 18:56:24.
