data_PCOD9130732
_publ_section_title
;
Structure prediction by ZEFSAII (Michael W. Deem and Ramdas Pophale) SiO2 
 PCOD9130732
Probable space group: C 2
;
_chemical_formula_sum "Si O2"
_cell_formula_units_Z 8
_cell_length_a 21.000000
_cell_length_b 6.000000
_cell_length_c 9.000000
_cell_angle_alpha 90.000000
_cell_angle_beta 40.000000
_cell_angle_gamma 90.000000
_cell_volume 728.921149
_symmetry_space_group_name_H-M "C 2"
_symmetry_group_IT_number 5
_symmetry_cell_setting 'monoclinic'
loop_
_space_group_symop_operation_xyz
x,y,z
-x,y,-z
1/2+x,1/2+y,z
1/2-x,1/2+y,-z
loop_
_atom_site_type_symbol
_atom_site_label
_atom_site_fract_x
_atom_site_fract_y
_atom_site_fract_z
Si Si1 0.896511 0.371290 0.115030
Si Si2 0.274382 0.362904 0.029911
Si Si3 0.189113 0.131464 0.446533
Si Si4 0.518687 0.565550 0.300367
O O1 0.851279 0.205093 0.320687
O O2 0.798087 0.518048 0.258540
O O3 0.935496 0.242523 0.898684
O O4 0.000000 0.471667 0.000000
O O5 0.211235 0.337367 0.294970
O O6 0.247521 0.613652 0.007963
O O7 0.393470 0.382295 0.843248
O O8 0.092815 0.998650 0.553776
O O9 0.500000 0.657390 0.500000
#
# Coordination Sequence:
#
# PCOD9130732 Si02
#       4
#     4   4   4   4
#     4  10  24  46  73 109 150 197 255 304 380 444
#     4  12  26  49  74 114 154 198 250 309 378 446
#     4  11  24  47  75 108 153 200 248 319 368 453
#     4  11  24  45  71 113 148 197 249 311 375 450
#
# _framework density 10.975123999999999
#
# number of rings (size 3 to 8) (size 9 to 14) (size 15 to 20)
#    0.000    1.000    2.500    3.000    0.000    2.000 
#   13.500    0.000    0.000    0.000    0.000    0.000 
#    0.000    0.000    0.000    0.000    0.000    0.000 
#
# Total GULP energy -44601.219361 kJ/mol
# GULP energy per Si atom -5575.152420 kJ/mol
# Density = 1.095014 g / cm^3
# Si number density = 10.975124 Si / 1000 Ang^3
#
#
#
# Elastic Constant Matrix: (Units=GPa)
#
#
# Indices 1 2 3 4 5 6 
#
# 1 152.6241 49.4044 61.8920 0.0000 -40.6258 0.0001
# 2 49.4044 83.7453 28.7236 0.0000 -10.9615 0.0004
# 3 61.8920 28.7236 187.6665 0.0000 -7.2395 0.0001
# 4 0.0000 0.0000 0.0000 42.4422 0.0000 -10.5663
# 5 -40.6258 -10.9615 -7.2395 0.0000 85.7405 0.0000
# 6 0.0001 0.0004 0.0001 -10.5663 0.0000 35.9408
#
#
#
# Elastic Compliance Matrix: (Units=1/GPa)
#
#
# Indices 1 2 3 4 5 6 
#
# 1 0.010104 -0.004589 -0.002476 0.000000 0.003992 0.000000
# 2 -0.004589 0.014870 -0.000776 0.000000 -0.000339 0.000000
# 3 -0.002476 -0.000776 0.006235 0.000000 -0.000746 0.000000
# 4 0.000000 0.000000 0.000000 0.025422 0.000000 0.007474
# 5 0.003992 -0.000339 -0.000746 0.000000 0.013448 0.000000
# 6 0.000000 0.000000 0.000000 0.007474 0.000000 0.030021
#
#
# Mechanical properties :
#
#
# Convention : Reuss Voigt Hill
#
# Bulk Modulus (GPa) = 64.39990 78.23067 71.31528
# Shear Modulus (GPa) = 41.33689 51.75909 46.54799
#
# Velocity S-wave (km/s) = 4.34430 4.86121 4.61001
# Velocity P-wave (km/s) = 7.38693 8.19914 7.80361
#
# Compressibility (1/GPa) = 0.01552797
#
# Stress axis : x y z
#
# Youngs Moduli (GPa) = 98.96953 67.25004 160.38268
#
# Poissons Ratio (x) = 0.30862 0.39710
# Poissons Ratio (y) = 0.45418 0.12438
# Poissons Ratio (z) = 0.24504 0.05215
#
# Static dielectric constant tensor:
#      x y z
#    x 1.950900 0.000000 0.027270 
#    y 0.000000 1.839490 0.000000 
#    z 0.027270 0.000000 1.760510 
# 
# From -- ./inp_files/28230.got.cif
#   From: 2010.05.17/outbox.ucp.g08.bks.cvg/sg5_15_cif.got.tgz:28230.got - 2010.06.11 12:53:14.
