data_PCOD9130786
_publ_section_title
;
Structure prediction by ZEFSAII (Michael W. Deem and Ramdas Pophale) SiO2 
 PCOD9130786
Probable space group: P M
;
_chemical_formula_sum "Si O2"
_cell_formula_units_Z 12
_cell_length_a 10.462785
_cell_length_b 8.923631
_cell_length_c 6.765702
_cell_angle_alpha 90.000000
_cell_angle_beta 114.707164
_cell_angle_gamma 90.000000
_cell_volume 573.859572
_symmetry_space_group_name_H-M "P M"
_symmetry_group_IT_number 6
_symmetry_cell_setting 'monoclinic'
loop_
_space_group_symop_operation_xyz
x,y,z
x,-y,z
loop_
_atom_site_type_symbol
_atom_site_label
_atom_site_fract_x
_atom_site_fract_y
_atom_site_fract_z
Si Si1 0.914500 0.830174 0.717280
Si Si2 0.743074 0.676481 0.309953
Si Si3 0.444068 0.177925 0.096629
Si Si4 0.183492 0.668121 0.788224
Si Si5 0.265636 0.666639 0.287620
Si Si6 0.995263 0.174952 0.231909
O O1 0.793935 0.719322 0.564039
O O2 0.054670 0.782057 0.686950
O O3 0.873464 0.000000 0.640937
O O4 0.950484 0.825159 0.970980
O O5 0.723197 0.500000 0.276791
O O6 0.600390 0.763006 0.168083
O O7 0.870432 0.735549 0.257014
O O8 0.392036 0.231773 0.283110
O O9 0.431856 0.000000 0.074775
O O10 0.337179 0.256505 0.870137
O O11 0.165451 0.500000 0.692698
O O12 0.184168 0.646242 0.027334
O O13 0.309896 0.500000 0.382359
O O14 0.149865 0.746974 0.348887
O O15 0.003107 0.000000 0.293279
#
# Coordination Sequence:
#
# PCOD9130786 Si02
#       6
#     2   2   2   2   2   2
#     4  10  20  36  59  85 114 149 191 236 285 339
#     4  12  24  36  56  86 119 152 191 238 288 340
#     4  10  18  32  54  80 111 150 191 232 284 340
#     4   8  15  29  52  78 106 143 184 222 274 335
#     4   8  15  29  52  78 106 143 184 222 274 335
#     4  10  20  36  59  85 114 149 191 236 285 339
#
# _framework density 20.911041999999998
#
# number of rings (size 3 to 8) (size 9 to 14) (size 15 to 20)
#    1.000    1.333    0.000    4.500    0.000    2.000 
#    0.000    0.000    3.667    0.000    0.000    0.000 
#    0.000    0.000    0.000    0.000    0.000    0.000 
#
# Total GULP energy -66809.394215 kJ/mol
# GULP energy per Si atom -5567.449518 kJ/mol
# Density = 2.086345 g / cm^3
# Si number density = 20.911042 Si / 1000 Ang^3
#
#
#
# Elastic Constant Matrix: (Units=GPa)
#
#
# Indices 1 2 3 4 5 6 
#
# 1 89.4884 30.4257 8.0455 0.0000 10.1115 0.0000
# 2 30.4257 149.2370 5.8483 0.0000 5.6316 0.0000
# 3 8.0455 5.8483 34.8962 0.0000 10.8728 0.0000
# 4 0.0000 0.0000 0.0000 -96.7854 0.0000 -43.6931
# 5 10.1115 5.6316 10.8728 0.0000 33.3723 0.0000
# 6 0.0000 0.0000 0.0000 -43.6931 0.0000 13.8514
#
#
#
# Elastic Compliance Matrix: (Units=1/GPa)
#
#
# Indices 1 2 3 4 5 6 
#
# 1 0.012444 -0.002367 -0.001583 0.000000 -0.002855 0.000000
# 2 -0.002367 0.007217 -0.000565 0.000000 -0.000317 0.000000
# 3 -0.001583 -0.000565 0.032206 0.000000 -0.009918 0.000000
# 4 0.000000 0.000000 0.000000 -0.004262 0.000000 -0.013445
# 5 -0.002855 -0.000317 -0.009918 0.000000 0.034115 0.000000
# 6 0.000000 0.000000 0.000000 -0.013445 0.000000 0.029783
#
#
# Mechanical properties :
#
#
# Convention : Reuss Voigt Hill
#
# Bulk Modulus (GPa) = 23.34389 40.25118 31.79754
# Shear Modulus (GPa) = 37.08835 5.37448 21.23142
#
# Velocity S-wave (km/s) = 4.21601 1.60491 3.18987
# Velocity P-wave (km/s) = 5.90655 4.76706 5.36713
#
# Compressibility (1/GPa) = 0.04283776
#
# Stress axis : x y z
#
# Youngs Moduli (GPa) = 80.35713 138.55242 31.04987
#
# Poissons Ratio (x) = 0.32800 0.04914
# Poissons Ratio (y) = 0.19023 0.01755
# Poissons Ratio (z) = 0.12718 0.07830
#
# Static dielectric constant tensor:
#      x y z
#    x 1.759450 0.000000 -0.055790 
#    y 0.000000 1.778710 0.000000 
#    z -0.055790 0.000000 1.836810 
# 
# From -- ./inp_files/2732.got.cif
#   From: 2010.05.17/outbox.cif.g08.bks.cpg/sg6_2_cif.got.tgz:2732.got - 2010.06.03 19:42:10.
