data_PCOD9130757
_publ_section_title
;
Structure prediction by ZEFSAII (Michael W. Deem and Ramdas Pophale) SiO2 
 PCOD9130757
Probable space group: P M
;
_chemical_formula_sum "Si O2"
_cell_formula_units_Z 16
_cell_length_a 7.290843
_cell_length_b 9.337982
_cell_length_c 11.388125
_cell_angle_alpha 90.000000
_cell_angle_beta 110.855544
_cell_angle_gamma 90.000000
_cell_volume 724.525164
_symmetry_space_group_name_H-M "P M"
_symmetry_group_IT_number 6
_symmetry_cell_setting 'monoclinic'
loop_
_space_group_symop_operation_xyz
x,y,z
x,-y,z
loop_
_atom_site_type_symbol
_atom_site_label
_atom_site_fract_x
_atom_site_fract_y
_atom_site_fract_z
Si Si1 0.597230 0.170455 0.897690
Si Si2 0.963873 0.840994 0.389340
Si Si3 0.208732 0.670858 0.895918
Si Si4 0.765635 0.662155 0.141472
Si Si5 0.341333 0.659874 0.169053
Si Si6 0.502266 0.336239 0.651765
Si Si7 0.037227 0.661765 0.620285
Si Si8 0.410958 0.839681 0.415167
O O1 0.384996 0.225187 0.896622
O O2 0.608651 0.238107 0.771508
O O3 0.608691 0.000000 0.899316
O O4 0.749518 0.241208 0.022519
O O5 0.933061 0.772134 0.509918
O O6 0.196179 0.852711 0.423971
O O7 0.891303 0.736109 0.271120
O O8 0.877861 0.000000 0.357092
O O9 0.263328 0.500000 0.895455
O O10 0.040565 0.693480 0.760243
O O11 0.184862 0.692844 0.030008
O O12 0.828155 0.500000 0.129530
O O13 0.547067 0.654703 0.146373
O O14 0.303371 0.500000 0.208814
O O15 0.371968 0.772547 0.278889
O O16 0.569946 0.500000 0.672209
O O17 0.269812 0.338213 0.635942
O O18 0.520493 0.268858 0.527109
O O19 0.965108 0.500000 0.583277
O O20 0.495082 0.000000 0.428943
#
# Coordination Sequence:
#
# PCOD9130757 Si02
#       8
#     2   2   2   2   2   2   2   2
#     4  10  17  26  44  70  97 122 153 198 246 284
#     4  10  20  32  47  71 100 127 158 198 243 290
#     4   8  15  28  45  67  94 124 161 199 234 279
#     4  10  20  34  51  71  96 128 165 201 238 285
#     4   9  18  32  50  72  97 126 161 200 240 286
#     4   9  16  28  46  67  93 125 161 198 235 279
#     4   8  14  26  45  67  91 121 156 196 237 277
#     4  10  20  32  48  73 102 129 159 198 243 288
#
# _framework density 22.083427
#
# number of rings (size 3 to 8) (size 9 to 14) (size 15 to 20)
#    0.000    2.750    0.000    4.125    0.000    7.000 
#    0.000    0.000    0.000    1.500    0.000    1.750 
#    0.000    0.000    0.000    0.000    0.000    0.000 
#
# Total GULP energy -89315.654733 kJ/mol
# GULP energy per Si atom -5582.228421 kJ/mol
# Density = 2.203316 g / cm^3
# Si number density = 22.083427 Si / 1000 Ang^3
#
#
#
# Elastic Constant Matrix: (Units=GPa)
#
#
# Indices 1 2 3 4 5 6 
#
# 1 57.4731 7.2644 -17.9148 0.0000 -3.8523 0.0000
# 2 7.2644 196.7330 109.4812 0.0000 -9.1162 0.0000
# 3 -17.9148 109.4812 163.6368 0.0000 -18.6101 0.0000
# 4 0.0000 0.0000 0.0000 0.4711 0.0000 6.9176
# 5 -3.8523 -9.1162 -18.6101 0.0000 15.9456 0.0000
# 6 0.0000 0.0000 0.0000 6.9176 0.0000 8.8861
#
#
#
# Elastic Compliance Matrix: (Units=1/GPa)
#
#
# Indices 1 2 3 4 5 6 
#
# 1 0.020194 -0.003402 0.005559 0.000000 0.009421 0.000000
# 2 -0.003402 0.008725 -0.006614 0.000000 -0.003553 0.000000
# 3 0.005559 -0.006614 0.012530 0.000000 0.012186 0.000000
# 4 0.000000 0.000000 0.000000 -0.203497 0.000000 0.158417
# 5 0.009421 -0.003553 0.012186 0.000000 0.077180 0.000000
# 6 0.000000 0.000000 0.000000 0.158417 0.000000 -0.010788
#
#
# Mechanical properties :
#
#
# Convention : Reuss Voigt Hill
#
# Bulk Modulus (GPa) = 30.73760 68.38939 49.56349
# Shear Modulus (GPa) = -65.87920 26.32801 -19.77559
#
# Velocity S-wave (km/s) = -5.46779 3.45658 -2.99573
# Velocity P-wave (km/s) = 5.09050 6.85321 3.24448
#
# Compressibility (1/GPa) = 0.03253344
#
# Stress axis : x y z
#
# Youngs Moduli (GPa) = 49.52061 114.61922 79.80560
#
# Poissons Ratio (x) = 0.38999 -0.44361
# Poissons Ratio (y) = 0.16849 0.52781
# Poissons Ratio (z) = -0.27526 0.75806
#
# Static dielectric constant tensor:
#      x y z
#    x 1.893670 0.000000 0.018870 
#    y 0.000000 1.766620 0.000000 
#    z 0.018870 0.000000 1.818550 
# 
# From -- ./inp_files/3451.got.cif
#   From: 2010.05.17/outbox.cif.g08.bks.cpg/sg6_2_cif.got.tgz:3451.got - 2010.06.03 19:42:10.
