data_PCOD9130247
_publ_section_title
;
Structure prediction by ZEFSAII (Michael W. Deem and Ramdas Pophale) SiO2 
 PCOD9130247
Probable space group: C 2
;
_chemical_formula_sum "Si O2"
_cell_formula_units_Z 16
_cell_length_a 5.138252
_cell_length_b 23.052069
_cell_length_c 5.121159
_cell_angle_alpha 90.000000
_cell_angle_beta 89.827776
_cell_angle_gamma 90.000000
_cell_volume 606.584919
_symmetry_space_group_name_H-M "C 2"
_symmetry_group_IT_number 5
_symmetry_cell_setting 'monoclinic'
loop_
_space_group_symop_operation_xyz
x,y,z
-x,y,-z
1/2+x,1/2+y,z
1/2-x,1/2+y,-z
loop_
_atom_site_type_symbol
_atom_site_label
_atom_site_fract_x
_atom_site_fract_y
_atom_site_fract_z
Si Si1 0.319363 0.937620 0.245116
Si Si2 0.000000 0.847651 0.000000
Si Si3 0.730603 0.766222 0.670444
Si Si4 0.500000 0.539702 0.000000
Si Si5 0.319167 0.137359 0.748836
O O1 0.500000 0.939348 0.500000
O O2 0.075635 0.893034 0.229401
O O3 0.500000 0.919443 0.000000
O O4 0.198135 0.999177 0.160257
O O5 0.222830 0.800583 0.062854
O O6 0.500000 0.792485 0.500000
O O7 0.674713 0.698781 0.723554
O O8 0.000000 0.768851 0.500000
O O9 0.640879 0.582273 0.798585
O O10 0.500000 0.129050 0.500000
O O11 0.500000 0.143190 0.000000
#
# Coordination Sequence:
#
# PCOD9130247 Si02
#       5
#     4   2   4   2   4
#     4  11  28  52  78 116 156 209 280 340 405 483
#     4  11  26  46  84 110 160 213 266 340 416 481
#     4  11  27  48  77 122 169 212 270 333 413 497
#     4  11  28  50  84 112 166 217 272 338 418 487
#     4  11  27  49  76 120 167 215 267 335 409 500
#
# _framework density 26.377179999999999
#
# number of rings (size 3 to 8) (size 9 to 14) (size 15 to 20)
#    0.000    1.000    1.250    1.500   14.000    9.000 
#    0.000    0.000    0.000    0.000    0.000    0.000 
#    0.000    0.000    0.000    0.000    0.000    0.000 
#
# Total GULP energy -44800.684092 kJ/mol
# GULP energy per Si atom -5600.085512 kJ/mol
# Density = 2.631714 g / cm^3
# Si number density = 26.377180 Si / 1000 Ang^3
#
#
#
# Elastic Constant Matrix: (Units=GPa)
#
#
# Indices 1 2 3 4 5 6 
#
# 1 119.4232 55.9994 91.7431 0.0000 39.0733 0.0000
# 2 55.9994 213.4507 64.0202 0.0000 18.1283 0.0000
# 3 91.7431 64.0202 233.8144 0.0000 39.0723 0.0000
# 4 0.0000 0.0000 0.0000 2.4688 0.0000 3.5435
# 5 39.0733 18.1283 39.0723 0.0000 69.5527 0.0000
# 6 0.0000 0.0000 0.0000 3.5435 0.0000 6.1366
#
#
#
# Elastic Compliance Matrix: (Units=1/GPa)
#
#
# Indices 1 2 3 4 5 6 
#
# 1 0.014197 -0.002044 -0.004157 0.000000 -0.005107 0.000000
# 2 -0.002044 0.005421 -0.000704 0.000000 0.000131 0.000000
# 3 -0.004157 -0.000704 0.006268 0.000000 -0.001002 0.000000
# 4 0.000000 0.000000 0.000000 2.366015 0.000000 -1.366244
# 5 -0.005107 0.000131 -0.001002 0.000000 0.017776 0.000000
# 6 0.000000 0.000000 0.000000 -1.366244 0.000000 0.951889
#
#
# Mechanical properties :
#
#
# Convention : Reuss Voigt Hill
#
# Bulk Modulus (GPa) = 82.81267 110.02375 96.41821
# Shear Modulus (GPa) = 1.47955 39.29333 20.38644
#
# Velocity S-wave (km/s) = 0.74976 3.86381 2.78309
# Velocity P-wave (km/s) = 5.67567 7.85542 6.85277
#
# Compressibility (1/GPa) = 0.01207545
#
# Stress axis : x y z
#
# Youngs Moduli (GPa) = 70.43855 184.45886 159.52827
#
# Poissons Ratio (x) = 0.37701 0.66322
# Poissons Ratio (y) = 0.14397 0.11235
# Poissons Ratio (z) = 0.29284 0.12991
#
# Static dielectric constant tensor:
#      x y z
#    x 2.251650 0.000000 -0.093260 
#    y 0.000000 2.054900 0.000000 
#    z -0.093260 0.000000 2.031980 
# 
# From -- ./inp_files/769.got.cif
#   From: 2010.05.17/outbox.cif.g08.bks.cpg/sg5_1_cif.got.tgz:769.got - 2010.06.03 18:56:24.
