data_PCOD9130887
_publ_section_title
;
Structure prediction by ZEFSAII (Michael W. Deem and Ramdas Pophale) SiO2 
 PCOD9130887
Probable space group: P M
;
_chemical_formula_sum "Si O2"
_cell_formula_units_Z 12
_cell_length_a 12.328832
_cell_length_b 8.856898
_cell_length_c 9.456516
_cell_angle_alpha 90.000000
_cell_angle_beta 39.910956
_cell_angle_gamma 90.000000
_cell_volume 662.516351
_symmetry_space_group_name_H-M "P M"
_symmetry_group_IT_number 6
_symmetry_cell_setting 'monoclinic'
loop_
_space_group_symop_operation_xyz
x,y,z
x,-y,z
loop_
_atom_site_type_symbol
_atom_site_label
_atom_site_fract_x
_atom_site_fract_y
_atom_site_fract_z
Si Si1 0.763990 0.172266 0.400390
Si Si2 0.260635 0.679393 0.625797
Si Si3 0.570346 0.180380 0.144178
Si Si4 0.880052 0.679394 0.006370
Si Si5 0.570334 0.680261 0.832698
Si Si6 0.376678 0.172267 0.787709
O O1 0.867075 0.260983 0.180213
O O2 0.730942 0.258039 0.581037
O O3 0.570335 0.165059 0.535888
O O4 0.822229 0.000000 0.362178
O O5 0.291712 0.500000 0.593071
O O6 0.403795 0.761090 0.391718
O O7 0.273596 0.739015 0.773703
O O8 0.070348 0.708249 0.763329
O O9 0.736903 0.238909 0.058595
O O10 0.570344 0.000000 0.139108
O O11 0.570339 0.249317 0.987093
O O12 0.848974 0.500000 0.035798
O O13 0.570332 0.500000 0.836014
O O14 0.409725 0.741964 0.902262
O O15 0.318437 0.000000 0.865976
#
# Coordination Sequence:
#
# PCOD9130887 Si02
#       6
#     2   2   2   2   2   2
#     4   9  18  34  56  84 112 144 186 231 279 332
#     4  11  23  38  59  87 117 152 194 237 283 338
#     4  12  23  38  59  84 118 154 190 236 289 344
#     4  11  23  38  59  87 117 152 194 237 283 338
#     4  10  19  34  59  84 112 152 190 232 287 342
#     4   9  18  34  56  84 112 144 186 231 279 332
#
# _framework density 18.112759
#
# number of rings (size 3 to 8) (size 9 to 14) (size 15 to 20)
#    1.000    0.667    1.667    4.500    0.000    2.667 
#    0.000    1.667    0.000   10.000    0.000    0.000 
#    0.000    0.000    0.000    0.000    0.000    0.000 
#
# Total GULP energy -66879.557423 kJ/mol
# GULP energy per Si atom -5573.296452 kJ/mol
# Density = 1.807153 g / cm^3
# Si number density = 18.112759 Si / 1000 Ang^3
#
#
#
# Elastic Constant Matrix: (Units=GPa)
#
#
# Indices 1 2 3 4 5 6 
#
# 1 96.9783 74.0567 77.2456 0.0000 19.8575 0.0000
# 2 74.0567 174.4461 72.1222 0.0000 6.3935 0.0000
# 3 77.2456 72.1222 87.0056 0.0000 13.2001 0.0000
# 4 0.0000 0.0000 0.0000 18.1507 0.0000 16.0822
# 5 19.8575 6.3935 13.2001 0.0000 29.0084 0.0000
# 6 0.0000 0.0000 0.0000 16.0822 0.0000 22.9935
#
#
#
# Elastic Compliance Matrix: (Units=1/GPa)
#
#
# Indices 1 2 3 4 5 6 
#
# 1 0.040314 -0.004034 -0.030502 0.000000 -0.012828 0.000000
# 2 -0.004034 0.009184 -0.004451 0.000000 0.002762 0.000000
# 3 -0.030502 -0.004451 0.041835 0.000000 0.002824 0.000000
# 4 0.000000 0.000000 0.000000 0.144876 0.000000 -0.101329
# 5 -0.012828 0.002762 0.002824 0.000000 0.041360 0.000000
# 6 0.000000 0.000000 0.000000 -0.101329 0.000000 0.114363
#
#
# Mechanical properties :
#
#
# Convention : Reuss Voigt Hill
#
# Bulk Modulus (GPa) = 74.85026 89.47546 82.16286
# Shear Modulus (GPa) = 10.54058 23.03088 16.78573
#
# Velocity S-wave (km/s) = 2.41496 3.56972 3.04753
# Velocity P-wave (km/s) = 7.01359 8.15456 7.60550
#
# Compressibility (1/GPa) = 0.01336001
#
# Stress axis : x y z
#
# Youngs Moduli (GPa) = 24.80513 108.89003 23.90352
#
# Poissons Ratio (x) = 0.43922 0.72911
# Poissons Ratio (y) = 0.10005 0.10638
# Poissons Ratio (z) = 0.75661 0.48462
#
# Static dielectric constant tensor:
#      x y z
#    x 1.620800 0.000000 -0.013650 
#    y 0.000000 1.607010 0.000000 
#    z -0.013650 0.000000 1.624900 
# 
# From -- ./inp_files/3670.got.cif
#   From: 2010.05.17/outbox.cif.g08.bks.cpg/sg6_2_cif.got.tgz:3670.got - 2010.06.03 19:42:10.
