data_PCOD9130576
_publ_section_title
;
Structure prediction by ZEFSAII (Michael W. Deem and Ramdas Pophale) SiO2 
 PCOD9130576
Probable space group: C 2
;
_chemical_formula_sum "Si O2"
_cell_formula_units_Z 24
_cell_length_a 14.174874
_cell_length_b 5.616673
_cell_length_c 14.345870
_cell_angle_alpha 90.000000
_cell_angle_beta 119.647212
_cell_angle_gamma 90.000000
_cell_volume 992.633216
_symmetry_space_group_name_H-M "C 2"
_symmetry_group_IT_number 5
_symmetry_cell_setting 'monoclinic'
loop_
_space_group_symop_operation_xyz
x,y,z
-x,y,-z
1/2+x,1/2+y,z
1/2-x,1/2+y,-z
loop_
_atom_site_type_symbol
_atom_site_label
_atom_site_fract_x
_atom_site_fract_y
_atom_site_fract_z
Si Si1 0.821946 0.497260 0.937234
Si Si2 0.297384 0.763744 0.487438
Si Si3 0.774667 0.316837 0.264199
Si Si4 0.418111 0.311672 0.138990
Si Si5 0.900892 0.176397 0.825492
Si Si6 0.505642 0.944833 0.304502
O O1 0.805540 0.686345 0.846392
O O2 0.699770 0.428933 0.906175
O O3 0.884208 0.284484 0.918701
O O4 0.888934 0.593900 0.056486
O O5 0.276266 0.501380 0.523767
O O6 0.285851 0.711022 0.372155
O O7 0.414149 0.872268 0.573491
O O8 0.718775 0.571363 0.253001
O O9 0.890248 0.327595 0.270499
O O10 0.505923 0.479938 0.135504
O O11 0.471707 0.214429 0.260929
O O12 0.933329 0.352808 0.757987
#
# Coordination Sequence:
#
# PCOD9130576 Si02
#       6
#     4   4   4   4   4   4
#     4  12  28  51  78 115 160 209 268 334 407 493
#     4  12  27  50  81 124 164 218 275 338 413 492
#     4  12  26  50  79 116 157 207 267 336 401 487
#     4  12  28  51  78 115 160 209 268 334 407 493
#     4  12  26  51  76 108 158 202 263 324 406 482
#     4  12  26  50  79 116 157 207 267 336 401 487
#
# _framework density 24.178118000000001
#
# number of rings (size 3 to 8) (size 9 to 14) (size 15 to 20)
#    0.000    0.000    5.000    4.500    0.000    4.000 
#    0.000    1.667    0.000    0.000    0.000    0.000 
#    0.000    0.000    0.000    0.000    0.000    0.000 
#
# Total GULP energy -67147.148067 kJ/mol
# GULP energy per Si atom -5595.595672 kJ/mol
# Density = 2.412309 g / cm^3
# Si number density = 24.178118 Si / 1000 Ang^3
#
#
#
# Elastic Constant Matrix: (Units=GPa)
#
#
# Indices 1 2 3 4 5 6 
#
# 1 101.9487 9.8487 7.4525 0.0000 8.1413 0.0000
# 2 9.8487 39.4398 -6.6323 0.0000 -1.8421 0.0000
# 3 7.4525 -6.6323 68.5813 0.0000 1.4838 0.0000
# 4 0.0000 0.0000 0.0000 35.8720 0.0000 4.4764
# 5 8.1413 -1.8421 1.4838 0.0000 46.0995 0.0000
# 6 0.0000 0.0000 0.0000 4.4764 0.0000 54.3800
#
#
#
# Elastic Compliance Matrix: (Units=1/GPa)
#
#
# Indices 1 2 3 4 5 6 
#
# 1 0.010340 -0.002900 -0.001363 0.000000 -0.001898 0.000000
# 2 -0.002900 0.026629 0.002858 0.000000 0.001484 0.000000
# 3 -0.001363 0.002858 0.015009 0.000000 -0.000128 0.000000
# 4 0.000000 0.000000 0.000000 0.028166 0.000000 -0.002319
# 5 -0.001898 0.001484 -0.000128 0.000000 0.022091 0.000000
# 6 0.000000 0.000000 0.000000 -0.002319 0.000000 0.018580
#
#
# Mechanical properties :
#
#
# Convention : Reuss Voigt Hill
#
# Bulk Modulus (GPa) = 20.33825 25.70087 23.01956
# Shear Modulus (GPa) = 35.71072 40.55703 38.13387
#
# Velocity S-wave (km/s) = 3.84733 4.10008 3.97571
# Velocity P-wave (km/s) = 5.30716 5.75040 5.53322
#
# Compressibility (1/GPa) = 0.04916844
#
# Stress axis : x y z
#
# Youngs Moduli (GPa) = 96.70976 37.55276 66.62880
#
# Poissons Ratio (x) = 0.10890 0.09082
# Poissons Ratio (y) = 0.28045 -0.19044
# Poissons Ratio (z) = 0.13182 -0.10733
#
# Static dielectric constant tensor:
#      x y z
#    x 1.864190 0.000000 0.001590 
#    y 0.000000 2.088680 0.000000 
#    z 0.001590 0.000000 1.938110 
# 
# From -- ./inp_files/53904.got.cif
#   From: 2010.05.17/outbox.cif.g08.bks.cpg/sg5_27_cif.got.tgz:53904.got - 2010.06.03 18:56:24.
