data_PCOD9130183
_publ_section_title
;
Structure prediction by ZEFSAII (Michael W. Deem and Ramdas Pophale) SiO2 
 PCOD9130183
Probable space group: C 2
;
_chemical_formula_sum "Si O2"
_cell_formula_units_Z 30
_cell_length_a 27.597384
_cell_length_b 8.515534
_cell_length_c 5.248878
_cell_angle_alpha 90.000000
_cell_angle_beta 70.640054
_cell_angle_gamma 90.000000
_cell_volume 1163.770392
_symmetry_space_group_name_H-M "C 2"
_symmetry_group_IT_number 5
_symmetry_cell_setting 'monoclinic'
loop_
_space_group_symop_operation_xyz
x,y,z
-x,y,-z
1/2+x,1/2+y,z
1/2-x,1/2+y,-z
loop_
_atom_site_type_symbol
_atom_site_label
_atom_site_fract_x
_atom_site_fract_y
_atom_site_fract_z
Si Si1 0.600339 0.303490 0.129996
Si Si2 0.000000 0.967091 0.500000
Si Si3 0.140280 0.080172 0.781215
Si Si4 0.041178 0.240244 0.738533
Si Si5 0.059160 0.526248 0.412994
Si Si6 0.805519 0.852436 0.657327
Si Si7 0.845319 0.530693 0.427773
Si Si8 0.688565 0.839168 0.008688
O O1 0.551142 0.371361 0.361228
O O2 0.651330 0.330110 0.203589
O O3 0.587491 0.119718 0.139540
O O4 0.608907 0.418799 0.882333
O O5 0.012299 0.083194 0.709213
O O6 0.096190 0.197089 0.758351
O O7 0.165407 0.166510 0.981967
O O8 0.183930 0.014623 0.514184
O O9 0.054656 0.339414 0.460112
O O10 0.000000 0.325088 0.000000
O O11 0.095512 0.566699 0.591593
O O12 0.000000 0.574751 0.500000
O O13 0.814644 0.695412 0.472806
O O14 0.749744 0.841566 0.876699
O O15 0.831791 0.439517 0.195962
O O16 0.827040 0.421121 0.699308
#
# Coordination Sequence:
#
# PCOD9130183 Si02
#       8
#     4   2   4   4   4   4   4   4
#     4  11  26  47  73 109 155 196 255 319 394 467
#     4  12  22  44  74 114 150 196 256 314 384 468
#     4  12  27  48  79 109 150 207 258 326 384 467
#     4  12  25  44  74 113 149 198 256 314 386 464
#     4  11  25  47  74 109 154 203 248 316 396 462
#     4  11  28  49  78 110 154 200 264 316 400 458
#     4  11  29  51  74 119 157 202 260 328 387 480
#     4  12  29  50  82 112 158 204 268 323 394 461
#
# _framework density 25.778279000000001
#
# number of rings (size 3 to 8) (size 9 to 14) (size 15 to 20)
#    0.000    0.533    5.333    0.800   13.067    0.000 
#    2.400    0.667    0.000    0.000    0.000    0.000 
#    0.000    0.000    0.000    0.000    0.000    0.000 
#
# Total GULP energy -83883.919935 kJ/mol
# GULP energy per Si atom -5592.261329 kJ/mol
# Density = 2.571961 g / cm^3
# Si number density = 25.778279 Si / 1000 Ang^3
#
#
#
# Elastic Constant Matrix: (Units=GPa)
#
#
# Indices 1 2 3 4 5 6 
#
# 1 170.8641 47.0187 37.6219 0.0000 -32.7472 0.0000
# 2 47.0187 121.8070 55.1157 0.0000 -16.2660 0.0000
# 3 37.6219 55.1157 91.8000 0.0000 -1.1859 0.0000
# 4 0.0000 0.0000 0.0000 47.3406 0.0000 -3.1942
# 5 -32.7472 -16.2660 -1.1859 0.0000 28.3869 0.0000
# 6 0.0000 0.0000 0.0000 -3.1942 0.0000 28.0416
#
#
#
# Elastic Compliance Matrix: (Units=1/GPa)
#
#
# Indices 1 2 3 4 5 6 
#
# 1 0.008461 -0.000712 -0.002921 0.000000 0.009230 0.000000
# 2 -0.000712 0.012530 -0.007153 0.000000 0.006060 0.000000
# 3 -0.002921 -0.007153 0.016297 0.000000 -0.006788 0.000000
# 4 0.000000 0.000000 0.000000 0.021287 0.000000 0.002425
# 5 0.009230 0.006060 -0.006788 0.000000 0.049065 0.000000
# 6 0.000000 0.000000 0.000000 0.002425 0.000000 0.035937
#
#
# Mechanical properties :
#
#
# Convention : Reuss Voigt Hill
#
# Bulk Modulus (GPa) = 63.62551 73.77595 68.70073
# Shear Modulus (GPa) = 29.34475 37.06813 33.20644
#
# Velocity S-wave (km/s) = 3.37761 3.79616 3.59298
# Velocity P-wave (km/s) = 6.32032 6.92069 6.62731
#
# Compressibility (1/GPa) = 0.01571697
#
# Stress axis : x y z
#
# Youngs Moduli (GPa) = 118.19434 79.80596 61.35974
#
# Poissons Ratio (x) = 0.05679 0.17923
# Poissons Ratio (y) = 0.08411 0.43892
# Poissons Ratio (z) = 0.34524 0.57087
#
# Static dielectric constant tensor:
#      x y z
#    x 1.968460 0.000000 -0.039370 
#    y 0.000000 2.142780 0.000000 
#    z -0.039370 0.000000 2.068120 
# 
# From -- ./inp_files/11226.got.cif
#   From: 2010.05.17/outbox.cif.g08.bks.cpg/sg5_6_cif.got.tgz:11226.got - 2010.06.03 18:56:24.
