data_PCOD9130511
_publ_section_title
;
Structure prediction by ZEFSAII (Michael W. Deem and Ramdas Pophale) SiO2 
 PCOD9130511
Probable space group: C 2
;
_chemical_formula_sum "Si O2"
_cell_formula_units_Z 20
_cell_length_a 13.444458
_cell_length_b 5.346727
_cell_length_c 16.079129
_cell_angle_alpha 90.000000
_cell_angle_beta 135.964239
_cell_angle_gamma 90.000000
_cell_volume 803.425517
_symmetry_space_group_name_H-M "C 2"
_symmetry_group_IT_number 5
_symmetry_cell_setting 'monoclinic'
loop_
_space_group_symop_operation_xyz
x,y,z
-x,y,-z
1/2+x,1/2+y,z
1/2-x,1/2+y,-z
loop_
_atom_site_type_symbol
_atom_site_label
_atom_site_fract_x
_atom_site_fract_y
_atom_site_fract_z
Si Si1 0.389495 0.423950 0.289324
Si Si2 0.887323 0.641625 0.857091
Si Si3 0.342049 0.647383 0.773443
Si Si4 0.241679 0.100792 0.941735
Si Si5 0.798568 0.745495 0.486248
O O1 0.286812 0.621046 0.275533
O O2 0.279880 0.188221 0.227737
O O3 0.394485 0.536540 0.199861
O O4 0.539131 0.346144 0.415710
O O5 0.937965 0.392316 0.842971
O O6 0.866039 0.623598 0.943992
O O7 0.929624 0.904072 0.846985
O O8 0.261031 0.659580 0.638255
O O9 0.238986 0.360849 0.988215
O O10 0.787842 0.492434 0.535007
#
# Coordination Sequence:
#
# PCOD9130511 Si02
#       5
#     4   4   4   4   4
#     4   8  22  34  56  79 111 145 187 217 273 330
#     4   8  18  30  58  74 107 137 183 213 278 315
#     4   9  18  37  52  74 106 150 184 223 262 326
#     4   9  16  29  54  86 110 128 174 244 286 300
#     4  12  25  35  52  81 117 153 184 220 275 327
#
# _framework density 24.893408000000001
#
# number of rings (size 3 to 8) (size 9 to 14) (size 15 to 20)
#    2.400    0.000    0.000    4.200    2.800    0.000 
#    3.600    0.000    0.000    0.000    0.000   57.400 
#    0.000    0.000    0.000    0.000    0.000    0.000 
#
# Total GULP energy -55751.359283 kJ/mol
# GULP energy per Si atom -5575.135928 kJ/mol
# Density = 2.483675 g / cm^3
# Si number density = 24.893408 Si / 1000 Ang^3
#
#
#
# Elastic Constant Matrix: (Units=GPa)
#
#
# Indices 1 2 3 4 5 6 
#
# 1 68.1071 13.9490 11.3552 0.0000 -14.1363 0.0000
# 2 13.9490 -50.6452 -425.0280 -0.0003 -4.2172 0.0002
# 3 11.3552 -425.0280 -765.1317 -0.0004 28.3062 -0.0001
# 4 0.0000 -0.0003 -0.0004 45.4028 0.0000 -9.2780
# 5 -14.1363 -4.2172 28.3062 0.0000 29.1280 0.0000
# 6 0.0000 0.0002 -0.0001 -9.2780 0.0000 -8.7297
#
#
#
# Elastic Compliance Matrix: (Units=1/GPa)
#
#
# Indices 1 2 3 4 5 6 
#
# 1 0.016121 0.000133 0.000440 0.000000 0.007416 0.000000
# 2 0.000133 0.005806 -0.003079 0.000000 0.003897 0.000000
# 3 0.000440 -0.003079 0.000387 0.000000 -0.000609 0.000000
# 4 0.000000 0.000000 0.000000 0.018095 0.000000 -0.019232
# 5 0.007416 0.003897 -0.000609 0.000000 0.039086 0.000000
# 6 0.000000 0.000000 0.000000 -0.019232 0.000000 -0.094112
#
#
# Mechanical properties :
#
#
# Convention : Reuss Voigt Hill
#
# Bulk Modulus (GPa) = 57.79567 -171.90194 -57.05313
# Shear Modulus (GPa) = -1303.17874 -10.03618 -656.60746
#
# Velocity S-wave (km/s) = -22.90502 -2.01008 -16.25854
# Velocity P-wave (km/s) = 26.00485 8.63669 19.37582
#
# Compressibility (1/GPa) = 0.01730233
#
# Stress axis : x y z
#
# Youngs Moduli (GPa) = 62.02913 172.24562 2581.71570
#
# Poissons Ratio (x) = -0.02294 -1.13502
# Poissons Ratio (y) = -0.00826 7.94877
# Poissons Ratio (z) = -0.02727 0.53032
#
# Static dielectric constant tensor:
#      x y z
#    x 2.131530 0.000000 0.136490 
#    y 0.000000 2.288070 0.000000 
#    z 0.136490 0.000000 2.153550 
# 
# From -- ./inp_files/47590.got.cif
#   From: 2010.05.17/outbox.cif.g08.bks.cpg/sg5_24_cif.got.tgz:47590.got - 2010.06.03 18:56:24.
