data_PCOD9130572
_publ_section_title
;
Structure prediction by ZEFSAII (Michael W. Deem and Ramdas Pophale) SiO2 
 PCOD9130572
Probable space group: C 2
;
_chemical_formula_sum "Si O2"
_cell_formula_units_Z 16
_cell_length_a 11.894571
_cell_length_b 6.676905
_cell_length_c 9.495221
_cell_angle_alpha 90.000000
_cell_angle_beta 123.952534
_cell_angle_gamma 90.000000
_cell_volume 625.526529
_symmetry_space_group_name_H-M "C 2"
_symmetry_group_IT_number 5
_symmetry_cell_setting 'monoclinic'
loop_
_space_group_symop_operation_xyz
x,y,z
-x,y,-z
1/2+x,1/2+y,z
1/2-x,1/2+y,-z
loop_
_atom_site_type_symbol
_atom_site_label
_atom_site_fract_x
_atom_site_fract_y
_atom_site_fract_z
Si Si1 0.319846 0.611700 0.915293
Si Si2 0.054875 0.472962 0.884792
Si Si3 0.332294 0.271970 0.700238
Si Si4 0.159949 0.918553 0.599360
O O1 0.202317 0.537873 0.937742
O O2 0.363956 0.428510 0.846717
O O3 0.246994 0.772156 0.760023
O O4 0.430538 0.732390 0.086862
O O5 0.946423 0.610097 0.728596
O O6 0.204964 0.143919 0.665134
O O7 0.299984 0.388213 0.535097
O O8 0.500000 0.032323 0.000000
O O9 0.000000 0.890774 0.500000
#
# Coordination Sequence:
#
# PCOD9130572 Si02
#       4
#     4   4   4   4
#     4  12  28  50  79 114 158 202 258 314 384 463
#     4  12  27  50  77 114 154 209 249 317 384 450
#     4  12  27  51  78 114 155 203 259 313 386 457
#     4  12  26  49  78 114 153 204 253 321 380 454
#
# _framework density 25.578453
#
# number of rings (size 3 to 8) (size 9 to 14) (size 15 to 20)
#    0.000    0.000    7.500    1.500    0.000    8.000 
#    0.000    0.000    0.000    0.000    0.000    0.000 
#    0.000    0.000    0.000    0.000    0.000    0.000 
#
# Total GULP energy -44721.131657 kJ/mol
# GULP energy per Si atom -5590.141457 kJ/mol
# Density = 2.552023 g / cm^3
# Si number density = 25.578453 Si / 1000 Ang^3
#
#
#
# Elastic Constant Matrix: (Units=GPa)
#
#
# Indices 1 2 3 4 5 6 
#
# 1 123.2748 67.0040 49.9455 0.0000 -1.1129 0.0000
# 2 67.0040 164.4240 61.7916 0.0000 13.1047 0.0000
# 3 49.9455 61.7916 84.8219 0.0000 -0.2714 0.0000
# 4 0.0000 0.0000 0.0000 53.2830 0.0000 9.7075
# 5 -1.1129 13.1047 -0.2714 0.0000 50.4651 0.0000
# 6 0.0000 0.0000 0.0000 9.7075 0.0000 49.1802
#
#
#
# Elastic Compliance Matrix: (Units=1/GPa)
#
#
# Indices 1 2 3 4 5 6 
#
# 1 0.011679 -0.003111 -0.004607 0.000000 0.001041 0.000000
# 2 -0.003111 0.009456 -0.005065 0.000000 -0.002551 0.000000
# 3 -0.004607 -0.005065 0.018197 0.000000 0.001312 0.000000
# 4 0.000000 0.000000 0.000000 0.019468 0.000000 -0.003843
# 5 0.001041 -0.002551 0.001312 0.000000 0.020508 0.000000
# 6 0.000000 0.000000 0.000000 -0.003843 0.000000 0.021092
#
#
# Mechanical properties :
#
#
# Convention : Reuss Voigt Hill
#
# Bulk Modulus (GPa) = 72.64823 81.11144 76.87984
# Shear Modulus (GPa) = 38.29804 43.50431 40.90117
#
# Velocity S-wave (km/s) = 3.87366 4.12857 4.00315
# Velocity P-wave (km/s) = 6.96210 7.38285 7.17556
#
# Compressibility (1/GPa) = 0.01376496
#
# Stress axis : x y z
#
# Youngs Moduli (GPa) = 85.62520 105.74838 54.95517
#
# Poissons Ratio (x) = 0.32894 0.25320
# Poissons Ratio (y) = 0.26635 0.27837
# Poissons Ratio (z) = 0.39451 0.53566
#
# Static dielectric constant tensor:
#      x y z
#    x 2.018200 0.000000 0.019520 
#    y 0.000000 2.025300 0.000000 
#    z 0.019520 0.000000 2.043490 
# 
# From -- ./inp_files/22428.got.cif
#   From: 2010.05.17/outbox.cif.g08.bks.cpg/sg5_12_cif.got.tgz:22428.got - 2010.06.03 18:56:24.
