data_PCOD9130097
_publ_section_title
;
Structure prediction by ZEFSAII (Michael W. Deem and Ramdas Pophale) SiO2 
 PCOD9130097
Probable space group: C 2
;
_chemical_formula_sum "Si O2"
_cell_formula_units_Z 24
_cell_length_a 13.438134
_cell_length_b 5.143090
_cell_length_c 20.402506
_cell_angle_alpha 90.000000
_cell_angle_beta 138.040961
_cell_angle_gamma 90.000000
_cell_volume 942.784494
_symmetry_space_group_name_H-M "C 2"
_symmetry_group_IT_number 5
_symmetry_cell_setting 'monoclinic'
loop_
_space_group_symop_operation_xyz
x,y,z
-x,y,-z
1/2+x,1/2+y,z
1/2-x,1/2+y,-z
loop_
_atom_site_type_symbol
_atom_site_label
_atom_site_fract_x
_atom_site_fract_y
_atom_site_fract_z
Si Si1 0.149988 0.369760 0.611584
Si Si2 0.081651 0.667428 0.905218
Si Si3 0.927178 0.173635 0.770043
Si Si4 0.656679 0.489207 0.057459
Si Si5 0.189525 0.674468 0.432800
Si Si6 0.411155 0.858670 0.278615
O O1 0.253035 0.616857 0.678515
O O2 0.246589 0.199175 0.609004
O O3 0.112057 0.235186 0.661799
O O4 0.000000 0.440541 0.500000
O O5 0.235411 0.638687 0.940006
O O6 0.981306 0.420710 0.837933
O O7 0.117472 0.726141 0.998108
O O8 0.998142 0.920448 0.837688
O O9 0.997859 0.203440 0.732102
O O10 0.755566 0.431601 0.169296
O O11 0.500000 0.613203 0.000000
O O12 0.232654 0.935088 0.491887
O O13 0.015861 0.607875 0.343708
#
# Coordination Sequence:
#
# PCOD9130097 Si02
#       6
#     4   4   4   4   4   4
#     4  12  26  50  81 115 156 211 262 326 391 466
#     4  11  25  52  81 111 165 207 254 326 393 458
#     4  11  26  54  77 115 161 208 260 323 390 469
#     4  11  24  48  82 116 155 206 262 319 387 466
#     4  12  27  55  77 110 161 206 261 327 390 464
#     4  11  26  50  79 116 157 206 260 322 391 462
#
# _framework density 25.456505
#
# number of rings (size 3 to 8) (size 9 to 14) (size 15 to 20)
#    0.000    0.667    1.667    6.000    0.000    0.000 
#    9.000   35.000    0.000    0.000    0.000    0.000 
#    0.000    0.000    0.000    0.000    0.000    0.000 
#
# Total GULP energy -67350.293866 kJ/mol
# GULP energy per Si atom -5612.524489 kJ/mol
# Density = 2.539857 g / cm^3
# Si number density = 25.456505 Si / 1000 Ang^3
#
#
#
# Elastic Constant Matrix: (Units=GPa)
#
#
# Indices 1 2 3 4 5 6 
#
# 1 141.2063 25.1325 69.8103 0.0000 -7.7996 0.0000
# 2 25.1325 138.7281 50.9408 0.0000 -8.8153 -0.0001
# 3 69.8103 50.9408 212.1726 0.0000 0.1067 0.0000
# 4 0.0000 0.0000 0.0000 40.7987 0.0000 1.8344
# 5 -7.7996 -8.8153 0.1067 0.0000 57.8255 0.0000
# 6 0.0000 -0.0001 0.0000 1.8344 0.0000 32.5608
#
#
#
# Elastic Compliance Matrix: (Units=1/GPa)
#
#
# Indices 1 2 3 4 5 6 
#
# 1 0.008564 -0.000491 -0.002701 0.000000 0.001085 0.000000
# 2 -0.000491 0.008019 -0.001764 0.000000 0.001159 0.000000
# 3 -0.002701 -0.001764 0.006026 0.000000 -0.000644 0.000000
# 4 0.000000 0.000000 0.000000 0.024573 0.000000 -0.001384
# 5 0.001085 0.001159 -0.000644 0.000000 0.017618 0.000000
# 6 0.000000 0.000000 0.000000 -0.001384 0.000000 0.030790
#
#
# Mechanical properties :
#
#
# Convention : Reuss Voigt Hill
#
# Bulk Modulus (GPa) = 78.75791 87.09712 82.92751
# Shear Modulus (GPa) = 45.56517 49.31857 47.44187
#
# Velocity S-wave (km/s) = 4.23534 4.40633 4.32168
# Velocity P-wave (km/s) = 7.41099 7.75732 7.58613
#
# Compressibility (1/GPa) = 0.01269714
#
# Stress axis : x y z
#
# Youngs Moduli (GPa) = 116.76417 124.70678 165.95825
#
# Poissons Ratio (x) = 0.06122 0.44818
# Poissons Ratio (y) = 0.05732 0.29280
# Poissons Ratio (z) = 0.31533 0.22002
#
# Static dielectric constant tensor:
#      x y z
#    x 1.988590 0.000000 0.001520 
#    y 0.000000 1.979300 0.000000 
#    z 0.001520 0.000000 2.008350 
# 
# From -- ./inp_files/65729.got.cif
#   From: 2010.05.17/outbox.cif.g08.bks.cpg/sg5_33_cif.got.tgz:65729.got - 2010.06.03 18:56:24.
