data_PCOD9130090
_publ_section_title
;
Structure prediction by ZEFSAII (Michael W. Deem and Ramdas Pophale) SiO2 
 PCOD9130090
Probable space group: C 2
;
_chemical_formula_sum "Si O2"
_cell_formula_units_Z 20
_cell_length_a 17.699114
_cell_length_b 10.406227
_cell_length_c 8.933126
_cell_angle_alpha 90.000000
_cell_angle_beta 150.101102
_cell_angle_gamma 90.000000
_cell_volume 820.140458
_symmetry_space_group_name_H-M "C 2"
_symmetry_group_IT_number 5
_symmetry_cell_setting 'monoclinic'
loop_
_space_group_symop_operation_xyz
x,y,z
-x,y,-z
1/2+x,1/2+y,z
1/2-x,1/2+y,-z
loop_
_atom_site_type_symbol
_atom_site_label
_atom_site_fract_x
_atom_site_fract_y
_atom_site_fract_z
Si Si1 0.174598 0.347120 0.305285
Si Si2 0.158060 0.652723 0.581383
Si Si3 0.663609 0.014433 0.990510
Si Si4 0.367441 0.439423 0.893756
Si Si5 0.280979 0.281068 0.011439
O O1 0.295579 0.235396 0.482399
O O2 0.220152 0.400010 0.543880
O O3 0.191673 0.452152 0.201712
O O4 0.000000 0.304367 0.000000
O O5 0.313037 0.571922 0.871484
O O6 0.148148 0.742010 0.708809
O O7 0.005242 0.572718 0.305471
O O8 0.768369 0.140788 0.138849
O O9 0.677579 0.901443 0.889414
O O10 0.500000 0.449580 0.000000
O O11 0.385534 0.340336 0.060061
#
# Coordination Sequence:
#
# PCOD9130090 Si02
#       5
#     4   4   4   4   4
#     4  11  25  46  79 117 156 210 266 330 402 474
#     4  11  24  48  78 108 163 205 263 328 395 474
#     4  11  24  48  79 111 156 214 263 328 396 477
#     4  12  26  46  75 119 157 204 261 332 396 470
#     4  11  25  45  78 113 151 212 259 324 395 472
#
# _framework density 24.386066
#
# number of rings (size 3 to 8) (size 9 to 14) (size 15 to 20)
#    0.000    0.800    4.000    2.400    2.800    2.400 
#    0.000    0.000    8.800    0.000    0.000    0.000 
#    0.000    0.000    0.000    0.000    0.000    0.000 
#
# Total GULP energy -55824.874540 kJ/mol
# GULP energy per Si atom -5582.487454 kJ/mol
# Density = 2.433056 g / cm^3
# Si number density = 24.386066 Si / 1000 Ang^3
#
#
#
# Elastic Constant Matrix: (Units=GPa)
#
#
# Indices 1 2 3 4 5 6 
#
# 1 148.5910 66.2017 37.6687 0.0000 7.5997 0.0000
# 2 66.2017 146.1594 22.1092 0.0000 19.7031 0.0000
# 3 37.6687 22.1092 70.2211 0.0000 15.3877 0.0000
# 4 0.0000 0.0000 0.0000 31.7743 0.0000 8.1244
# 5 7.5997 19.7031 15.3877 0.0000 40.7642 0.0000
# 6 0.0000 0.0000 0.0000 8.1244 0.0000 55.0021
#
#
#
# Elastic Compliance Matrix: (Units=1/GPa)
#
#
# Indices 1 2 3 4 5 6 
#
# 1 0.009433 -0.003864 -0.004216 0.000000 0.001701 0.000000
# 2 -0.003864 0.009085 0.000018 0.000000 -0.003678 0.000000
# 3 -0.004216 0.000018 0.017799 0.000000 -0.005941 0.000000
# 4 0.000000 0.000000 0.000000 0.032707 0.000000 -0.004831
# 5 0.001701 -0.003678 -0.005941 0.000000 0.028235 0.000000
# 6 0.000000 0.000000 0.000000 -0.004831 0.000000 0.018895
#
#
# Mechanical properties :
#
#
# Convention : Reuss Voigt Hill
#
# Bulk Modulus (GPa) = 49.52285 68.54786 59.03536
# Shear Modulus (GPa) = 35.96878 41.44091 38.70484
#
# Velocity S-wave (km/s) = 3.84470 4.12681 3.98825
# Velocity P-wave (km/s) = 6.32937 7.13287 6.74310
#
# Compressibility (1/GPa) = 0.02019270
#
# Stress axis : x y z
#
# Youngs Moduli (GPa) = 106.00614 110.06989 56.18385
#
# Poissons Ratio (x) = 0.42534 0.23689
# Poissons Ratio (y) = 0.40963 -0.00103
# Poissons Ratio (z) = 0.44696 -0.00202
#
# Static dielectric constant tensor:
#      x y z
#    x 1.951720 0.000000 0.045950 
#    y 0.000000 2.063410 0.000000 
#    z 0.045950 0.000000 1.939120 
# 
# From -- ./inp_files/14241.got.cif
#   From: 2010.05.17/outbox.cif.g08.bks.cpg/sg5_8_cif.got.tgz:14241.got - 2010.06.03 18:56:24.
