data_PCOD9130678
_publ_section_title
;
Structure prediction by ZEFSAII (Michael W. Deem and Ramdas Pophale) SiO2 
 PCOD9130678
Probable space group: C 2
;
_chemical_formula_sum "Si O2"
_cell_formula_units_Z 14
_cell_length_a 15.000000
_cell_length_b 12.000000
_cell_length_c 9.000000
_cell_angle_alpha 90.000000
_cell_angle_beta 120.000000
_cell_angle_gamma 90.000000
_cell_volume 1402.961154
_symmetry_space_group_name_H-M "C 2"
_symmetry_group_IT_number 5
_symmetry_cell_setting 'monoclinic'
loop_
_space_group_symop_operation_xyz
x,y,z
-x,y,-z
1/2+x,1/2+y,z
1/2-x,1/2+y,-z
loop_
_atom_site_type_symbol
_atom_site_label
_atom_site_fract_x
_atom_site_fract_y
_atom_site_fract_z
Si Si1 0.742645 0.158010 0.196267
Si Si2 0.149979 0.845867 0.951769
Si Si3 0.836613 0.497951 0.117988
Si Si4 0.677181 0.205530 0.686749
Si Si5 0.554920 0.392825 0.396311
Si Si6 0.043184 0.274646 0.701973
Si Si7 0.844631 0.122447 0.599667
O O1 0.853714 0.197209 0.219708
O O2 0.773919 0.141342 0.393096
O O3 0.664092 0.258849 0.097209
O O4 0.688299 0.056179 0.062529
O O5 0.199159 0.789139 0.842993
O O6 0.034424 0.867857 0.798641
O O7 0.222875 0.948052 0.058309
O O8 0.867365 0.596089 0.261678
O O9 0.916337 0.392754 0.193357
O O10 0.610393 0.281394 0.512674
O O11 0.775465 0.159744 0.680680
O O12 0.500000 0.442299 0.500000
O O13 0.624723 0.491611 0.387600
O O14 0.000000 0.300943 0.500000
O O15 0.948158 0.200176 0.686606
#
# Coordination Sequence:
#
# PCOD9130678 Si02
#       7
#     4   4   4   4   4   4   4
#     4   9  18  34  56  81 113 155 195 236 295 362
#     4   9  19  38  60  81 111 159 204 237 289 367
#     4  10  19  37  60  85 117 159 203 250 294 358
#     4  10  23  38  61  93 122 154 205 258 303 351
#     4  10  20  39  63  83 115 165 206 237 295 378
#     4   9  19  34  58  85 116 159 203 238 300 373
#     4  11  21  38  61  90 120 153 198 256 303 351
#
# _framework density 9.9788940000000004
#
# number of rings (size 3 to 8) (size 9 to 14) (size 15 to 20)
#    0.000    2.286    0.000    3.857    0.000    6.286 
#    0.000   13.571    0.000   10.286    0.000    0.000 
#    0.000    0.000    0.000    0.000    0.000    0.000 
#
# Total GULP energy -78009.975174 kJ/mol
# GULP energy per Si atom -5572.141084 kJ/mol
# Density = 0.995618 g / cm^3
# Si number density = 9.978894 Si / 1000 Ang^3
#
#
#
# Elastic Constant Matrix: (Units=GPa)
#
#
# Indices 1 2 3 4 5 6 
#
# 1 58.4201 20.6394 20.4713 0.0000 -1.4807 0.0000
# 2 20.6394 113.1582 42.0242 0.0000 7.3744 0.0000
# 3 20.4713 42.0242 118.1448 0.0000 31.2024 0.0000
# 4 0.0000 0.0000 0.0000 44.9548 0.0000 14.2319
# 5 -1.4807 7.3744 31.2024 0.0000 27.8943 0.0000
# 6 0.0000 0.0000 0.0000 14.2319 0.0000 32.4289
#
#
#
# Elastic Compliance Matrix: (Units=1/GPa)
#
#
# Indices 1 2 3 4 5 6 
#
# 1 0.019620 -0.002425 -0.004231 0.000000 0.006416 0.000000
# 2 -0.002425 0.010556 -0.003638 0.000000 0.001150 0.000000
# 3 -0.004231 -0.003638 0.014614 0.000000 -0.015610 0.000000
# 4 0.000000 0.000000 0.000000 0.025834 0.000000 -0.011338
# 5 0.006416 0.001150 -0.015610 0.000000 0.053348 0.000000
# 6 0.000000 0.000000 0.000000 -0.011338 0.000000 0.035812
#
#
# Mechanical properties :
#
#
# Convention : Reuss Voigt Hill
#
# Bulk Modulus (GPa) = 41.32251 50.66587 45.99419
# Shear Modulus (GPa) = 26.53376 34.82814 30.68095
#
# Velocity S-wave (km/s) = 3.65018 4.18196 3.92509
# Velocity P-wave (km/s) = 6.20604 6.98284 6.60587
#
# Compressibility (1/GPa) = 0.02419988
#
# Stress axis : x y z
#
# Youngs Moduli (GPa) = 50.96968 94.73532 68.42667
#
# Poissons Ratio (x) = 0.22975 0.28953
# Poissons Ratio (y) = 0.12361 0.24896
# Poissons Ratio (z) = 0.21567 0.34467
#
# Static dielectric constant tensor:
#      x y z
#    x 1.729680 0.000000 -0.009300 
#    y 0.000000 1.752700 0.000000 
#    z -0.009300 0.000000 1.691270 
# 
# From -- ./inp_files/23787.got.cif
#   From: 2010.05.17/outbox.ucp.g08.bks.cvg/sg5_12_cif.got.tgz:23787.got - 2010.06.11 12:53:14.
