data_PCOD9130755
_publ_section_title
;
Structure prediction by ZEFSAII (Michael W. Deem and Ramdas Pophale) SiO2 
 PCOD9130755
Probable space group: P M
;
_chemical_formula_sum "Si O2"
_cell_formula_units_Z 16
_cell_length_a 11.960141
_cell_length_b 8.479316
_cell_length_c 9.351621
_cell_angle_alpha 90.000000
_cell_angle_beta 112.596678
_cell_angle_gamma 90.000000
_cell_volume 875.578524
_symmetry_space_group_name_H-M "P M"
_symmetry_group_IT_number 6
_symmetry_cell_setting 'monoclinic'
loop_
_space_group_symop_operation_xyz
x,y,z
x,-y,z
loop_
_atom_site_type_symbol
_atom_site_label
_atom_site_fract_x
_atom_site_fract_y
_atom_site_fract_z
Si Si1 0.881460 0.813539 0.058800
Si Si2 0.137929 0.187247 0.848798
Si Si3 0.376964 0.191738 0.477934
Si Si4 0.642093 0.813998 0.595059
Si Si5 0.632658 0.312587 0.913134
Si Si6 0.889392 0.315367 0.741034
Si Si7 0.145433 0.807948 0.182728
Si Si8 0.367555 0.687242 0.797070
O O1 0.013481 0.758383 0.177567
O O2 0.870257 0.000000 0.075711
O O3 0.758307 0.732072 0.050799
O O4 0.888710 0.779194 0.891417
O O5 0.258271 0.227998 0.822334
O O6 0.015455 0.267824 0.730125
O O7 0.118368 0.000000 0.838966
O O8 0.154604 0.241278 0.021679
O O9 0.508449 0.234854 0.476585
O O10 0.262132 0.242658 0.328492
O O11 0.366647 0.264946 0.630101
O O12 0.376079 0.000000 0.490397
O O13 0.635073 0.776346 0.761729
O O14 0.763726 0.728833 0.602237
O O15 0.657031 0.000000 0.581104
O O16 0.632372 0.500000 0.884477
O O17 0.503390 0.271883 0.919230
O O18 0.888734 0.500000 0.773490
O O19 0.144591 0.000000 0.183169
O O20 0.351673 0.500000 0.803165
#
# Coordination Sequence:
#
# PCOD9130755 Si02
#       8
#     2   2   2   2   2   2   2   2
#     4   9  15  25  43  66  91 117 152 193 228 267
#     4  10  19  32  50  70  93 122 156 192 230 274
#     4   9  17  31  50  70  94 124 156 190 229 273
#     4   9  15  24  42  66  89 115 151 190 227 269
#     4   9  16  26  41  62  90 119 149 188 231 271
#     4  10  17  26  42  64  92 120 149 189 233 272
#     4   8  16  30  48  71  95 119 152 194 232 269
#     4  10  20  32  46  69  98 124 153 190 232 277
#
# _framework density 18.273631999999999
#
# number of rings (size 3 to 8) (size 9 to 14) (size 15 to 20)
#    0.000    2.750    0.000    5.250    0.000    2.000 
#    0.000    3.750    0.000    1.500    0.000    7.000 
#    0.000    0.000    0.000    0.000    0.000    0.000 
#
# Total GULP energy -89072.769067 kJ/mol
# GULP energy per Si atom -5567.048067 kJ/mol
# Density = 1.823204 g / cm^3
# Si number density = 18.273632 Si / 1000 Ang^3
#
#
#
# Elastic Constant Matrix: (Units=GPa)
#
#
# Indices 1 2 3 4 5 6 
#
# 1 138.3758 17.3173 43.0995 0.0000 45.9849 0.0000
# 2 17.3173 24.8848 5.7419 0.0000 7.4626 0.0000
# 3 43.0995 5.7419 53.7329 0.0000 36.7144 0.0000
# 4 0.0000 0.0000 0.0000 8.5274 0.0000 0.6235
# 5 45.9849 7.4626 36.7144 0.0000 35.8591 0.0000
# 6 0.0000 0.0000 0.0000 0.6235 0.0000 37.5706
#
#
#
# Elastic Compliance Matrix: (Units=1/GPa)
#
#
# Indices 1 2 3 4 5 6 
#
# 1 0.013135 -0.004138 0.002754 0.000000 -0.018803 0.000000
# 2 -0.004138 0.044577 0.004223 0.000000 -0.008294 0.000000
# 3 0.002754 0.004223 0.063123 0.000000 -0.069039 0.000000
# 4 0.000000 0.000000 0.000000 0.117412 0.000000 -0.001949
# 5 -0.018803 -0.008294 -0.069039 0.000000 0.124411 0.000000
# 6 0.000000 0.000000 0.000000 -0.001949 0.000000 0.026649
#
#
# Mechanical properties :
#
#
# Convention : Reuss Voigt Hill
#
# Bulk Modulus (GPa) = 7.90432 38.81232 23.35832
# Shear Modulus (GPa) = 11.74258 26.44708 19.09483
#
# Velocity S-wave (km/s) = 2.53770 3.80844 3.23606
# Velocity P-wave (km/s) = 3.59465 6.37374 5.17427
#
# Compressibility (1/GPa) = 0.12651303
#
# Stress axis : x y z
#
# Youngs Moduli (GPa) = 76.13052 22.43286 15.84209
#
# Poissons Ratio (x) = 0.09282 -0.04362
# Poissons Ratio (y) = 0.31500 -0.06689
# Poissons Ratio (z) = -0.20964 -0.09472
#
# Static dielectric constant tensor:
#      x y z
#    x 1.681430 0.000000 0.058320 
#    y 0.000000 1.611930 0.000000 
#    z 0.058320 0.000000 1.643250 
# 
# From -- ./inp_files/4969.got.cif
#   From: 2010.05.17/outbox.cif.g08.bks.cpg/sg6_3_cif.got.tgz:4969.got - 2010.06.03 19:42:10.
