data_PCOD9130768
_publ_section_title
;
Structure prediction by ZEFSAII (Michael W. Deem and Ramdas Pophale) SiO2 
 PCOD9130768
Probable space group: P M
;
_chemical_formula_sum "Si O2"
_cell_formula_units_Z 11
_cell_length_a 5.584996
_cell_length_b 11.251031
_cell_length_c 7.629677
_cell_angle_alpha 90.000000
_cell_angle_beta 112.166817
_cell_angle_gamma 90.000000
_cell_volume 443.991020
_symmetry_space_group_name_H-M "P M"
_symmetry_group_IT_number 6
_symmetry_cell_setting 'monoclinic'
loop_
_space_group_symop_operation_xyz
x,y,z
x,-y,z
loop_
_atom_site_type_symbol
_atom_site_label
_atom_site_fract_x
_atom_site_fract_y
_atom_site_fract_z
Si Si1 0.330190 0.247628 0.239460
Si Si2 0.596446 0.000000 0.861782
Si Si3 0.646575 0.719591 0.832449
Si Si4 0.074430 0.000000 0.575482
Si Si5 0.840649 0.634517 0.253543
Si Si6 0.547175 0.000000 0.255648
Si Si7 0.101152 0.246338 0.777568
O O1 0.597795 0.320241 0.299671
O O2 0.104171 0.289761 0.306621
O O3 0.420270 0.115208 0.302485
O O4 0.214836 0.245410 0.008136
O O5 0.490392 0.000000 0.032055
O O6 0.701988 0.136822 0.882031
O O7 0.384228 0.000000 0.649152
O O8 0.340644 0.706082 0.731187
O O9 0.833427 0.684924 0.725886
O O10 0.730129 0.646278 0.025057
O O11 0.032967 0.881718 0.678919
O O12 0.858085 0.000000 0.366233
O O13 0.905963 0.500000 0.314548
#
# Coordination Sequence:
#
# PCOD9130768 Si02
#       7
#     2   1   2   1   2   1   2
#     4  10  20  35  54  82 116 150 180 243 286 332
#     4  10  17  36  52  82 122 146 176 236 290 340
#     4   9  17  29  56  72 108 150 173 224 284 324
#     4  10  19  31  54  82 114 158 180 224 290 350
#     4  10  19  33  55  84 110 147 200 233 279 340
#     4  12  20  35  58  88 120 146 200 228 288 364
#     4   9  16  32  49  72 106 145 174 212 283 323
#
# _framework density 24.775272000000001
#
# number of rings (size 3 to 8) (size 9 to 14) (size 15 to 20)
#    0.000    2.182    5.455    1.091    0.000    2.909 
#    0.000    7.273    0.000    0.000    0.000   48.364 
#    0.000    0.000    0.000    0.000    0.000    0.000 
#
# Total GULP energy -61372.145311 kJ/mol
# GULP energy per Si atom -5579.285937 kJ/mol
# Density = 2.471888 g / cm^3
# Si number density = 24.775272 Si / 1000 Ang^3
#
#
#
# Elastic Constant Matrix: (Units=GPa)
#
#
# Indices 1 2 3 4 5 6 
#
# 1 203.5402 26.7439 12.1265 0.0000 26.2472 0.0000
# 2 26.7439 76.2749 1.8407 0.0000 19.4374 0.0000
# 3 12.1265 1.8407 118.1219 0.0000 15.0139 0.0000
# 4 0.0000 0.0000 0.0000 0.1040 0.0000 8.0123
# 5 26.2472 19.4374 15.0139 0.0000 0.2469 0.0000
# 6 0.0000 0.0000 0.0000 8.0123 0.0000 15.0416
#
#
#
# Elastic Compliance Matrix: (Units=1/GPa)
#
#
# Indices 1 2 3 4 5 6 
#
# 1 0.004115 -0.004307 -0.001806 0.000000 0.011410 0.000000
# 2 -0.004307 0.007861 -0.003089 0.000000 0.026817 0.000000
# 3 -0.001806 -0.003089 0.006926 0.000000 0.013950 0.000000
# 4 0.000000 0.000000 0.000000 -0.240157 0.000000 0.127926
# 5 0.011410 0.026817 0.013950 0.000000 -0.122254 0.000000
# 6 0.000000 0.000000 0.000000 0.127926 0.000000 -0.001661
#
#
# Mechanical properties :
#
#
# Convention : Reuss Voigt Hill
#
# Bulk Modulus (GPa) = 2001.94795 53.26215 1027.60505
# Shear Modulus (GPa) = -15.30931 26.89354 5.79212
#
# Velocity S-wave (km/s) = -2.48851 3.29827 1.53067
# Velocity P-wave (km/s) = 28.31148 6.00413 20.46448
#
# Compressibility (1/GPa) = 0.00049951
#
# Stress axis : x y z
#
# Youngs Moduli (GPa) = 243.00546 127.20533 144.37821
#
# Poissons Ratio (x) = 0.54788 0.26070
# Poissons Ratio (y) = 1.04663 0.44597
# Poissons Ratio (z) = 0.43878 0.39293
#
# Static dielectric constant tensor:
#      x y z
#    x 2.071160 0.000000 -0.018930 
#    y 0.000000 1.909580 0.000000 
#    z -0.018930 0.000000 1.923750 
# 
# From -- ./inp_files/930.got.cif
#   From: 2010.05.17/outbox.cif.g08.bks.cpg/sg6_1_cif.got.tgz:930.got - 2010.06.03 19:42:10.
