data_PCOD9130391
_publ_section_title
;
Structure prediction by ZEFSAII (Michael W. Deem and Ramdas Pophale) SiO2 
 PCOD9130391
Probable space group: C 2
;
_chemical_formula_sum "Si O2"
_cell_formula_units_Z 28
_cell_length_a 21.804030
_cell_length_b 7.625079
_cell_length_c 7.322846
_cell_angle_alpha 90.000000
_cell_angle_beta 77.400930
_cell_angle_gamma 90.000000
_cell_volume 1188.161217
_symmetry_space_group_name_H-M "C 2"
_symmetry_group_IT_number 5
_symmetry_cell_setting 'monoclinic'
loop_
_space_group_symop_operation_xyz
x,y,z
-x,y,-z
1/2+x,1/2+y,z
1/2-x,1/2+y,-z
loop_
_atom_site_type_symbol
_atom_site_label
_atom_site_fract_x
_atom_site_fract_y
_atom_site_fract_z
Si Si1 0.549555 0.754390 0.098245
Si Si2 0.566160 0.267357 0.559795
Si Si3 0.629337 0.213904 0.871716
Si Si4 0.817309 0.371821 0.343310
Si Si5 0.264248 0.501906 0.269324
Si Si6 0.427038 0.633318 0.305471
Si Si7 0.868195 0.548326 0.776571
O O1 0.502076 0.658335 0.266390
O O2 0.594362 0.877573 0.182187
O O3 0.500000 0.861934 0.000000
O O4 0.578499 0.631908 0.917950
O O5 0.500000 0.251796 0.500000
O O6 0.570480 0.225481 0.772831
O O7 0.613363 0.135734 0.427694
O O8 0.589613 0.468070 0.559341
O O9 0.662528 0.029150 0.799947
O O10 0.680349 0.366076 0.807706
O O11 0.613010 0.199509 0.092523
O O12 0.766966 0.442015 0.519674
O O13 0.881569 0.291878 0.388483
O O14 0.288354 0.700256 0.267608
O O15 0.205254 0.503334 0.172302
#
# Coordination Sequence:
#
# PCOD9130391 Si02
#       7
#     4   4   4   4   4   4   4
#     4   8  21  44  75 106 147 201 247 308 394 440
#     4  12  28  47  75 116 148 198 256 319 389 461
#     4  12  27  52  73 108 162 196 251 337 367 456
#     4  12  22  48  76 100 157 201 245 314 394 442
#     4  12  27  45  75 112 150 200 259 311 386 461
#     4   9  22  45  73 103 149 196 244 314 379 453
#     4  12  27  45  79 118 143 208 260 312 390 469
#
# _framework density 23.565825
#
# number of rings (size 3 to 8) (size 9 to 14) (size 15 to 20)
#    0.857    0.000    5.714    0.000    6.000    3.429 
#    0.000    0.000    0.000    0.000    0.000    0.000 
#    0.000    0.000    0.000    0.000    0.000    0.000 
#
# Total GULP energy -78118.497910 kJ/mol
# GULP energy per Si atom -5579.892708 kJ/mol
# Density = 2.351219 g / cm^3
# Si number density = 23.565825 Si / 1000 Ang^3
#
#
#
# Elastic Constant Matrix: (Units=GPa)
#
#
# Indices 1 2 3 4 5 6 
#
# 1 120.4236 47.6305 23.6938 0.0000 18.9299 0.0000
# 2 47.6305 128.4068 9.8234 0.0000 9.3963 0.0000
# 3 23.6938 9.8234 43.0120 0.0000 17.2868 0.0000
# 4 0.0000 0.0000 0.0000 28.3133 0.0000 5.9030
# 5 18.9299 9.3963 17.2868 0.0000 35.3020 0.0000
# 6 0.0000 0.0000 0.0000 5.9030 0.0000 41.9125
#
#
#
# Elastic Compliance Matrix: (Units=1/GPa)
#
#
# Indices 1 2 3 4 5 6 
#
# 1 0.010965 -0.003542 -0.004043 0.000000 -0.002957 0.000000
# 2 -0.003542 0.009136 0.000098 0.000000 -0.000581 0.000000
# 3 -0.004043 0.000098 0.030619 0.000000 -0.012852 0.000000
# 4 0.000000 0.000000 0.000000 0.036388 0.000000 -0.005125
# 5 -0.002957 -0.000581 -0.012852 0.000000 0.036361 0.000000
# 6 0.000000 0.000000 0.000000 -0.005125 0.000000 0.024581
#
#
# Mechanical properties :
#
#
# Convention : Reuss Voigt Hill
#
# Bulk Modulus (GPa) = 27.97424 50.45978 39.21701
# Shear Modulus (GPa) = 28.58126 35.15186 31.86656
#
# Velocity S-wave (km/s) = 3.48634 3.86637 3.68127
# Velocity P-wave (km/s) = 5.30119 6.43355 5.89462
#
# Compressibility (1/GPa) = 0.03574718
#
# Stress axis : x y z
#
# Youngs Moduli (GPa) = 91.19781 109.45127 32.65915
#
# Poissons Ratio (x) = 0.38764 0.13204
# Poissons Ratio (y) = 0.32299 -0.00319
# Poissons Ratio (z) = 0.36870 -0.01069
#
# Static dielectric constant tensor:
#      x y z
#    x 1.924040 0.000000 0.022680 
#    y 0.000000 1.901020 0.000000 
#    z 0.022680 0.000000 1.930570 
# 
# From -- ./inp_files/26701.got.cif
#   From: 2010.05.17/outbox.cif.g08.bks.cpg/sg5_14_cif.got.tgz:26701.got - 2010.06.03 18:56:24.
