data_PCOD9130509
_publ_section_title
;
Structure prediction by ZEFSAII (Michael W. Deem and Ramdas Pophale) SiO2 
 PCOD9130509
Probable space group: C 2
;
_chemical_formula_sum "Si O2"
_cell_formula_units_Z 24
_cell_length_a 7.917406
_cell_length_b 23.020095
_cell_length_c 5.278877
_cell_angle_alpha 90.000000
_cell_angle_beta 109.443664
_cell_angle_gamma 90.000000
_cell_volume 907.254438
_symmetry_space_group_name_H-M "C 2"
_symmetry_group_IT_number 5
_symmetry_cell_setting 'monoclinic'
loop_
_space_group_symop_operation_xyz
x,y,z
-x,y,-z
1/2+x,1/2+y,z
1/2-x,1/2+y,-z
loop_
_atom_site_type_symbol
_atom_site_label
_atom_site_fract_x
_atom_site_fract_y
_atom_site_fract_z
Si Si1 0.197336 0.836200 0.165443
Si Si2 0.500000 0.900039 0.000000
Si Si3 0.500000 0.111449 0.000000
Si Si4 0.689084 0.037990 0.741292
Si Si5 0.634939 0.220243 0.361341
Si Si6 0.799651 0.933328 0.494632
Si Si7 0.500000 0.678247 0.500000
Si Si8 0.000000 0.117276 0.000000
O O1 0.174589 0.767500 0.163519
O O2 0.222074 0.865221 0.452108
O O3 0.363545 0.859467 0.089322
O O4 0.000000 0.860783 0.000000
O O5 0.365981 0.941529 0.776487
O O6 0.349325 0.065397 0.004807
O O7 0.551458 0.158276 0.240928
O O8 0.500000 0.046059 0.500000
O O9 0.859274 0.078662 0.764990
O O10 0.755613 0.973292 0.715472
O O11 0.500000 0.246104 0.500000
O O12 0.834997 0.209877 0.554746
O O13 0.000000 0.945701 0.500000
O O14 0.586153 0.651373 0.802935
#
# Coordination Sequence:
#
# PCOD9130509 Si02
#       8
#     4   2   2   4   4   4   2   2
#     4  12  27  51  84 125 164 219 279 353 436 527
#     4  12  28  54  84 120 170 215 285 354 436 534
#     4  12  24  55  75 113 162 215 286 340 426 500
#     4  12  29  48  81 114 164 226 281 362 426 516
#     4  12  28  49  82 121 166 221 278 359 430 519
#     4  12  29  54  81 120 169 220 281 357 438 523
#     4  12  28  52  82 122 176 224 292 356 434 526
#     4  12  28  53  79 123 166 226 299 356 430 520
#
# _framework density 26.453440000000001
#
# number of rings (size 3 to 8) (size 9 to 14) (size 15 to 20)
#    0.000    0.000    4.167    4.500    4.667    4.667 
#    0.000    0.000    0.000    0.000    0.000    0.000 
#    0.000    0.000    0.000    0.000    0.000    0.000 
#
# Total GULP energy -66953.534110 kJ/mol
# GULP energy per Si atom -5579.461176 kJ/mol
# Density = 2.639323 g / cm^3
# Si number density = 26.453440 Si / 1000 Ang^3
#
#
#
# Elastic Constant Matrix: (Units=GPa)
#
#
# Indices 1 2 3 4 5 6 
#
# 1 201.3261 57.1726 38.8311 0.0000 2.8837 0.0000
# 2 57.1726 141.9161 24.8155 0.0000 -16.0425 0.0000
# 3 38.8311 24.8155 85.8090 0.0000 9.3998 0.0000
# 4 0.0000 0.0000 0.0000 50.7713 0.0000 -9.4641
# 5 2.8837 -16.0425 9.3998 0.0000 52.1881 0.0000
# 6 0.0000 0.0000 0.0000 -9.4641 0.0000 33.0854
#
#
#
# Elastic Compliance Matrix: (Units=1/GPa)
#
#
# Indices 1 2 3 4 5 6 
#
# 1 0.005968 -0.002121 -0.002020 0.000000 -0.000618 0.000000
# 2 -0.002121 0.008575 -0.001858 0.000000 0.003088 0.000000
# 3 -0.002020 -0.001858 0.013420 0.000000 -0.002877 0.000000
# 4 0.000000 0.000000 0.000000 0.020806 0.000000 0.005951
# 5 -0.000618 0.003088 -0.002877 0.000000 0.020663 0.000000
# 6 0.000000 0.000000 0.000000 0.005951 0.000000 0.031927
#
#
# Mechanical properties :
#
#
# Convention : Reuss Voigt Hill
#
# Bulk Modulus (GPa) = 62.63547 74.52108 68.57827
# Shear Modulus (GPa) = 42.13090 47.75775 44.94432
#
# Velocity S-wave (km/s) = 3.99512 4.25355 4.12636
# Velocity P-wave (km/s) = 6.70898 7.23570 6.97731
#
# Compressibility (1/GPa) = 0.01596539
#
# Stress axis : x y z
#
# Youngs Moduli (GPa) = 167.56793 116.62033 74.51435
#
# Poissons Ratio (x) = 0.24734 0.15048
# Poissons Ratio (y) = 0.35539 0.13847
# Poissons Ratio (z) = 0.33841 0.21671
#
# Static dielectric constant tensor:
#      x y z
#    x 2.112640 0.000000 0.035860 
#    y 0.000000 1.993920 0.000000 
#    z 0.035860 0.000000 2.174240 
# 
# From -- ./inp_files/3476.got.cif
#   From: 2010.05.17/outbox.cif.g08.bks.cpg/sg5_2_cif.got.tgz:3476.got - 2010.06.03 18:56:24.
