data_PCOD9130153
_publ_section_title
;
Structure prediction by ZEFSAII (Michael W. Deem and Ramdas Pophale) SiO2 
 PCOD9130153
Probable space group: C 2
;
_chemical_formula_sum "Si O2"
_cell_formula_units_Z 18
_cell_length_a 5.294531
_cell_length_b 19.885918
_cell_length_c 7.898073
_cell_angle_alpha 90.000000
_cell_angle_beta 112.627047
_cell_angle_gamma 90.000000
_cell_volume 767.554973
_symmetry_space_group_name_H-M "C 2"
_symmetry_group_IT_number 5
_symmetry_cell_setting 'monoclinic'
loop_
_space_group_symop_operation_xyz
x,y,z
-x,y,-z
1/2+x,1/2+y,z
1/2-x,1/2+y,-z
loop_
_atom_site_type_symbol
_atom_site_label
_atom_site_fract_x
_atom_site_fract_y
_atom_site_fract_z
Si Si1 0.500000 0.310110 0.500000
Si Si2 0.320831 0.537678 0.611137
Si Si3 0.493061 0.783108 0.199709
Si Si4 0.307147 0.646979 0.116570
Si Si5 0.661915 0.397679 0.216636
O O1 0.549342 0.357577 0.349652
O O2 0.739470 0.262295 0.629645
O O3 0.500000 0.510304 0.500000
O O4 0.513338 0.598462 0.721125
O O5 0.311373 0.476024 0.740919
O O6 0.000000 0.555892 0.500000
O O7 0.279190 0.723242 0.179636
O O8 0.440074 0.857334 0.257342
O O9 0.500000 0.790168 0.000000
O O10 0.500000 0.652058 0.000000
O O11 0.000000 0.621448 0.000000
O O12 0.500000 0.386436 0.000000
#
# Coordination Sequence:
#
# PCOD9130153 Si02
#       5
#     2   4   4   4   4
#     4  12  24  44  72 112 144 204 248 318 380 470
#     4  12  27  47  76 113 154 202 262 318 390 465
#     4  11  25  45  78 111 157 200 263 317 397 455
#     4  11  26  50  77 110 153 204 259 315 389 468
#     4  12  25  46  74 108 153 201 251 324 385 459
#
# _framework density 23.451087999999999
#
# number of rings (size 3 to 8) (size 9 to 14) (size 15 to 20)
#    0.000    0.444    3.333    4.667    4.667    1.778 
#    0.000    0.000    0.000    0.000    0.000    0.000 
#    0.000    0.000    0.000    0.000    0.000    0.000 
#
# Total GULP energy -50238.854513 kJ/mol
# GULP energy per Si atom -5582.094946 kJ/mol
# Density = 2.339771 g / cm^3
# Si number density = 23.451088 Si / 1000 Ang^3
#
#
#
# Elastic Constant Matrix: (Units=GPa)
#
#
# Indices 1 2 3 4 5 6 
#
# 1 118.3546 17.0791 58.2241 0.0000 27.4089 0.0000
# 2 17.0791 96.9110 24.0892 0.0000 4.2897 0.0000
# 3 58.2241 24.0892 144.9032 0.0000 18.3437 0.0000
# 4 0.0000 0.0000 0.0000 -25.2411 0.0000 13.0815
# 5 27.4089 4.2897 18.3437 0.0000 51.4911 0.0000
# 6 0.0000 0.0000 0.0000 13.0815 0.0000 16.0969
#
#
#
# Elastic Compliance Matrix: (Units=1/GPa)
#
#
# Indices 1 2 3 4 5 6 
#
# 1 0.011590 -0.000860 -0.003919 0.000000 -0.004702 0.000000
# 2 -0.000860 0.010831 -0.001465 0.000000 0.000077 0.000000
# 3 -0.003919 -0.001465 0.008838 0.000000 -0.000941 0.000000
# 4 0.000000 0.000000 0.000000 -0.027877 0.000000 0.022655
# 5 -0.004702 0.000077 -0.000941 0.000000 0.022252 0.000000
# 6 0.000000 0.000000 0.000000 0.022655 0.000000 0.043713
#
#
# Mechanical properties :
#
#
# Convention : Reuss Voigt Hill
#
# Bulk Modulus (GPa) = 53.27163 62.10594 57.68879
# Shear Modulus (GPa) = 56.75850 25.85447 41.30649
#
# Velocity S-wave (km/s) = 4.92498 3.32397 4.20144
# Velocity P-wave (km/s) = 7.42334 6.42436 6.94184
#
# Compressibility (1/GPa) = 0.01877172
#
# Stress axis : x y z
#
# Youngs Moduli (GPa) = 86.28123 92.32739 113.14316
#
# Poissons Ratio (x) = 0.07943 0.44339
# Poissons Ratio (y) = 0.07423 0.16572
# Poissons Ratio (z) = 0.33812 0.13523
#
# Static dielectric constant tensor:
#      x y z
#    x 2.104640 0.000000 -0.042130 
#    y 0.000000 1.866950 0.000000 
#    z -0.042130 0.000000 1.938440 
# 
# From -- ./inp_files/12212.got.cif
#   From: 2010.05.17/outbox.cif.g08.bks.cpg/sg5_7_cif.got.tgz:12212.got - 2010.06.03 18:56:24.
