data_PCOD9130505
_publ_section_title
;
Structure prediction by ZEFSAII (Michael W. Deem and Ramdas Pophale) SiO2 
 PCOD9130505
Probable space group: C 2
;
_chemical_formula_sum "Si O2"
_cell_formula_units_Z 14
_cell_length_a 8.766536
_cell_length_b 12.685219
_cell_length_c 5.334728
_cell_angle_alpha 90.000000
_cell_angle_beta 108.184102
_cell_angle_gamma 90.000000
_cell_volume 563.622992
_symmetry_space_group_name_H-M "C 2"
_symmetry_group_IT_number 5
_symmetry_cell_setting 'monoclinic'
loop_
_space_group_symop_operation_xyz
x,y,z
-x,y,-z
1/2+x,1/2+y,z
1/2-x,1/2+y,-z
loop_
_atom_site_type_symbol
_atom_site_label
_atom_site_fract_x
_atom_site_fract_y
_atom_site_fract_z
Si Si1 0.173502 0.002190 0.218691
Si Si2 0.103748 0.685745 0.803021
Si Si3 0.500000 0.640521 0.500000
Si Si4 0.137510 0.326671 0.901690
O O1 0.282635 0.084107 0.122190
O O2 0.134163 0.063397 0.454620
O O3 0.280813 0.897654 0.269854
O O4 0.000000 0.984254 0.000000
O O5 0.000000 0.677338 0.500000
O O6 0.218120 0.787626 0.848411
O O7 0.000000 0.695006 0.000000
O O8 0.562195 0.721420 0.742099
O O9 0.000000 0.379041 0.000000
#
# Coordination Sequence:
#
# PCOD9130505 Si02
#       4
#     4   4   2   4
#     4  12  27  50  79 118 165 215 274 339 412 488
#     4  12  26  50  80 123 164 210 277 345 405 489
#     4  12  24  54  80 114 172 206 278 338 402 492
#     4  12  27  52  81 117 160 221 268 343 413 491
#
# _framework density 24.839299
#
# number of rings (size 3 to 8) (size 9 to 14) (size 15 to 20)
#    0.000    0.000    5.714    3.429    2.000    2.286 
#   10.286    0.000    0.000    0.000    0.000    0.000 
#    0.000    0.000    0.000    0.000    0.000    0.000 
#
# Total GULP energy -39214.978320 kJ/mol
# GULP energy per Si atom -5602.139760 kJ/mol
# Density = 2.478276 g / cm^3
# Si number density = 24.839299 Si / 1000 Ang^3
#
#
#
# Elastic Constant Matrix: (Units=GPa)
#
#
# Indices 1 2 3 4 5 6 
#
# 1 186.7089 59.1711 55.0294 0.0000 -29.6011 0.0000
# 2 59.1711 97.9313 14.8732 0.0000 -19.3453 0.0000
# 3 55.0294 14.8732 109.5288 0.0000 -6.9177 0.0000
# 4 0.0000 0.0000 0.0000 8.8868 0.0000 -38.3506
# 5 -29.6011 -19.3453 -6.9177 0.0000 35.1610 0.0000
# 6 0.0000 0.0000 0.0000 -38.3506 0.0000 30.0755
#
#
#
# Elastic Compliance Matrix: (Units=1/GPa)
#
#
# Indices 1 2 3 4 5 6 
#
# 1 0.008145 -0.003578 -0.003339 0.000000 0.004231 0.000000
# 2 -0.003578 0.013179 0.000279 0.000000 0.004293 0.000000
# 3 -0.003339 0.000279 0.010735 0.000000 -0.000545 0.000000
# 4 0.000000 0.000000 0.000000 -0.024990 0.000000 -0.031866
# 5 0.004231 0.004293 -0.000545 0.000000 0.034258 0.000000
# 6 0.000000 0.000000 0.000000 -0.031866 0.000000 -0.007384
#
#
# Mechanical properties :
#
#
# Convention : Reuss Voigt Hill
#
# Bulk Modulus (GPa) = 53.23894 72.47961 62.85927
# Shear Modulus (GPa) = 93.49380 32.49770 62.99575
#
# Velocity S-wave (km/s) = 6.14176 3.62099 5.04147
# Velocity P-wave (km/s) = 8.47200 6.83556 7.69739
#
# Compressibility (1/GPa) = 0.01878324
#
# Stress axis : x y z
#
# Youngs Moduli (GPa) = 122.77613 75.87848 93.15121
#
# Poissons Ratio (x) = 0.27151 0.31103
# Poissons Ratio (y) = 0.43933 -0.02602
# Poissons Ratio (z) = 0.40995 -0.02120
#
# Static dielectric constant tensor:
#      x y z
#    x 1.970660 0.000000 0.061810 
#    y 0.000000 1.963000 0.000000 
#    z 0.061810 0.000000 2.120770 
# 
# From -- ./inp_files/1540.got.cif
#   From: 2010.05.17/outbox.cif.g08.bks.cpg/sg5_1_cif.got.tgz:1540.got - 2010.06.03 18:56:24.
