data_PCOD9130470
_publ_section_title
;
Structure prediction by ZEFSAII (Michael W. Deem and Ramdas Pophale) SiO2 
 PCOD9130470
Probable space group: C 2
;
_chemical_formula_sum "Si O2"
_cell_formula_units_Z 26
_cell_length_a 22.415155
_cell_length_b 10.053153
_cell_length_c 14.742325
_cell_angle_alpha 90.000000
_cell_angle_beta 158.502064
_cell_angle_gamma 90.000000
_cell_volume 1217.434861
_symmetry_space_group_name_H-M "C 2"
_symmetry_group_IT_number 5
_symmetry_cell_setting 'monoclinic'
loop_
_space_group_symop_operation_xyz
x,y,z
-x,y,-z
1/2+x,1/2+y,z
1/2-x,1/2+y,-z
loop_
_atom_site_type_symbol
_atom_site_label
_atom_site_fract_x
_atom_site_fract_y
_atom_site_fract_z
Si Si1 0.561186 0.388400 0.835586
Si Si2 0.176538 0.640388 0.501226
Si Si3 0.829051 0.527020 0.305417
Si Si4 0.852694 0.007901 0.224719
Si Si5 0.070732 0.169569 0.825570
Si Si6 0.500000 0.782925 0.000000
Si Si7 0.971555 0.431318 0.138482
O O1 0.442143 0.266813 0.675341
O O2 0.644799 0.400754 0.854179
O O3 0.472584 0.534101 0.711993
O O4 0.703600 0.405117 0.111403
O O5 0.151342 0.572443 0.564131
O O6 0.121851 0.531234 0.351534
O O7 0.359878 0.692067 0.759027
O O8 0.000000 0.500915 0.500000
O O9 0.735963 0.645430 0.118214
O O10 0.000000 0.979320 0.500000
O O11 0.885514 0.145563 0.217376
O O12 0.683794 0.004150 0.037818
O O13 0.993938 0.305739 0.747095
O O14 0.431308 0.872983 0.983461
#
# Coordination Sequence:
#
# PCOD9130470 Si02
#       7
#     4   4   4   4   4   2   4
#     4   8  21  37  67 105 138 171 223 281 351 421
#     4  12  24  45  73  93 133 187 240 282 339 397
#     4   9  19  39  68  99 139 175 209 281 354 406
#     4   9  20  37  67 105 140 168 216 283 358 415
#     4   8  21  38  65 101 140 173 225 274 347 415
#     4  12  28  48  66  96 142 194 238 284 330 400
#     4  12  25  44  72 103 132 191 231 278 349 413
#
# _framework density 21.356377999999999
#
# number of rings (size 3 to 8) (size 9 to 14) (size 15 to 20)
#    1.846    0.000    1.538    2.769    4.308    2.462 
#    2.769    0.000    0.000    0.923    0.000    0.000 
#    0.000    0.000    0.000    0.000    0.000    0.000 
#
# Total GULP energy -72480.260849 kJ/mol
# GULP energy per Si atom -5575.404681 kJ/mol
# Density = 2.130777 g / cm^3
# Si number density = 21.356378 Si / 1000 Ang^3
#
#
#
# Elastic Constant Matrix: (Units=GPa)
#
#
# Indices 1 2 3 4 5 6 
#
# 1 40.9578 25.7710 -8.0319 0.0000 4.8297 0.0000
# 2 25.7710 90.9136 50.2065 0.0000 -7.3530 0.0000
# 3 -8.0319 50.2065 83.5949 0.0000 0.9684 0.0000
# 4 0.0000 0.0000 0.0000 19.5130 0.0000 -4.4338
# 5 4.8297 -7.3530 0.9684 0.0000 21.5558 0.0000
# 6 0.0000 0.0000 0.0000 -4.4338 0.0000 7.3671
#
#
#
# Elastic Compliance Matrix: (Units=1/GPa)
#
#
# Indices 1 2 3 4 5 6 
#
# 1 0.047842 -0.026807 0.020938 0.000000 -0.020804 0.000000
# 2 -0.026807 0.032310 -0.022190 0.000000 0.018025 0.000000
# 3 0.020938 -0.022190 0.027458 0.000000 -0.013494 0.000000
# 4 0.000000 0.000000 0.000000 0.059366 0.000000 0.035729
# 5 -0.020804 0.018025 -0.013494 0.000000 0.057807 0.000000
# 6 0.000000 0.000000 0.000000 0.035729 0.000000 0.157241
#
#
# Mechanical properties :
#
#
# Convention : Reuss Voigt Hill
#
# Bulk Modulus (GPa) = 19.42063 39.03973 29.23018
# Shear Modulus (GPa) = 10.98160 19.52189 15.25175
#
# Velocity S-wave (km/s) = 2.27007 3.02669 2.67527
# Velocity P-wave (km/s) = 3.99804 5.52578 4.82279
#
# Compressibility (1/GPa) = 0.05149163
#
# Stress axis : x y z
#
# Youngs Moduli (GPa) = 20.90224 30.94974 36.41979
#
# Poissons Ratio (x) = 0.82967 -0.76255
# Poissons Ratio (y) = 0.56033 0.80815
# Poissons Ratio (z) = -0.43765 0.68677
#
# Static dielectric constant tensor:
#      x y z
#    x 1.798080 0.000000 0.006710 
#    y 0.000000 1.820030 0.000000 
#    z 0.006710 0.000000 1.769660 
# 
# From -- ./inp_files/57073.got.cif
#   From: 2010.05.17/outbox.cif.g08.bks.cpg/sg5_29_cif.got.tgz:57073.got - 2010.06.03 18:56:24.
