data_PCOD9130395
_publ_section_title
;
Structure prediction by ZEFSAII (Michael W. Deem and Ramdas Pophale) SiO2 
 PCOD9130395
Probable space group: C 2
;
_chemical_formula_sum "Si O2"
_cell_formula_units_Z 24
_cell_length_a 24.255008
_cell_length_b 5.001304
_cell_length_c 13.231507
_cell_angle_alpha 90.000000
_cell_angle_beta 148.804642
_cell_angle_gamma 90.000000
_cell_volume 831.358395
_symmetry_space_group_name_H-M "C 2"
_symmetry_group_IT_number 5
_symmetry_cell_setting 'monoclinic'
loop_
_space_group_symop_operation_xyz
x,y,z
-x,y,-z
1/2+x,1/2+y,z
1/2-x,1/2+y,-z
loop_
_atom_site_type_symbol
_atom_site_label
_atom_site_fract_x
_atom_site_fract_y
_atom_site_fract_z
Si Si1 0.604257 0.025690 0.790907
Si Si2 0.870358 0.946838 0.932251
Si Si3 0.046466 0.299210 0.283054
Si Si4 0.500000 0.496385 0.500000
Si Si5 0.192335 0.151569 0.776921
Si Si6 0.750460 0.602492 0.431569
Si Si7 0.500000 0.044361 0.000000
O O1 0.575976 0.284016 0.684073
O O2 0.527622 0.979745 0.762782
O O3 0.596558 0.780952 0.698113
O O4 0.723223 0.998113 0.021335
O O5 0.774141 0.853935 0.853233
O O6 0.824345 0.167219 0.782514
O O7 0.914269 0.728454 0.923137
O O8 0.971187 0.039395 0.155903
O O9 0.163377 0.409376 0.488659
O O10 0.048132 0.377130 0.166521
O O11 0.599812 0.531831 0.563620
O O12 0.788520 0.883021 0.543196
#
# Coordination Sequence:
#
# PCOD9130395 Si02
#       7
#     4   4   4   2   4   4   2
#     4  12  27  51  78 113 159 210 270 343 414 494
#     4  12  28  47  79 115 160 214 270 338 420 495
#     4  12  28  47  79 115 160 214 270 338 420 495
#     4  12  30  50  80 116 156 206 282 340 422 500
#     4  12  27  51  78 113 159 210 270 343 414 494
#     4  12  28  51  79 122 173 215 284 348 416 506
#     4  12  22  52  72 110 154 204 262 326 398 488
#
# _framework density 28.868416
#
# number of rings (size 3 to 8) (size 9 to 14) (size 15 to 20)
#    0.000    0.000    5.000    4.000    4.667    1.333 
#    0.000    0.000    0.000    0.000    0.000    0.000 
#    0.000    0.000    0.000    0.000    0.000    0.000 
#
# Total GULP energy -66936.152484 kJ/mol
# GULP energy per Si atom -5578.012707 kJ/mol
# Density = 2.880271 g / cm^3
# Si number density = 28.868416 Si / 1000 Ang^3
#
#
#
# Elastic Constant Matrix: (Units=GPa)
#
#
# Indices 1 2 3 4 5 6 
#
# 1 132.4783 4.2372 13.1403 0.0000 38.5667 0.0000
# 2 4.2372 110.9921 -7.0816 0.0000 4.3812 0.0000
# 3 13.1403 -7.0816 156.2668 0.0000 22.9399 0.0000
# 4 0.0000 0.0000 0.0000 25.2966 0.0000 14.5824
# 5 38.5667 4.3812 22.9399 0.0000 67.5780 0.0000
# 6 0.0000 0.0000 0.0000 14.5824 0.0000 37.7749
#
#
#
# Elastic Compliance Matrix: (Units=1/GPa)
#
#
# Indices 1 2 3 4 5 6 
#
# 1 0.009055 -0.000143 -0.000011 0.000000 -0.005154 0.000000
# 2 -0.000143 0.009076 0.000524 0.000000 -0.000685 0.000000
# 3 -0.000011 0.000524 0.006765 0.000000 -0.002324 0.000000
# 4 0.000000 0.000000 0.000000 0.050846 0.000000 -0.019628
# 5 -0.005154 -0.000685 -0.002324 0.000000 0.018573 0.000000
# 6 0.000000 0.000000 0.000000 -0.019628 0.000000 0.034050
#
#
# Mechanical properties :
#
#
# Convention : Reuss Voigt Hill
#
# Bulk Modulus (GPa) = 39.00967 46.70322 42.85645
# Shear Modulus (GPa) = 36.71900 52.09264 44.40582
#
# Velocity S-wave (km/s) = 3.57030 4.25253 3.92626
# Velocity P-wave (km/s) = 5.52615 6.35021 5.95246
#
# Compressibility (1/GPa) = 0.02563467
#
# Stress axis : x y z
#
# Youngs Moduli (GPa) = 110.44085 110.18618 147.81613
#
# Poissons Ratio (x) = 0.01575 0.00166
# Poissons Ratio (y) = 0.01578 -0.07743
# Poissons Ratio (z) = 0.00124 -0.05772
#
# Static dielectric constant tensor:
#      x y z
#    x 2.371460 0.000000 -0.006650 
#    y 0.000000 2.445980 0.000000 
#    z -0.006650 0.000000 2.667060 
# 
# From -- ./inp_files/58021.got.cif
#   From: 2010.05.17/outbox.cif.g08.bks.cpg/sg5_30_cif.got.tgz:58021.got - 2010.06.03 18:56:24.
