data_PCOD9130290
_publ_section_title
;
Structure prediction by ZEFSAII (Michael W. Deem and Ramdas Pophale) SiO2 
 PCOD9130290
Probable space group: C 2
;
_chemical_formula_sum "Si O2"
_cell_formula_units_Z 18
_cell_length_a 7.867956
_cell_length_b 6.511997
_cell_length_c 16.754460
_cell_angle_alpha 90.000000
_cell_angle_beta 61.137201
_cell_angle_gamma 90.000000
_cell_volume 751.797097
_symmetry_space_group_name_H-M "C 2"
_symmetry_group_IT_number 5
_symmetry_cell_setting 'monoclinic'
loop_
_space_group_symop_operation_xyz
x,y,z
-x,y,-z
1/2+x,1/2+y,z
1/2-x,1/2+y,-z
loop_
_atom_site_type_symbol
_atom_site_label
_atom_site_fract_x
_atom_site_fract_y
_atom_site_fract_z
Si Si1 0.500000 0.042421 0.500000
Si Si2 0.430665 0.398238 0.098057
Si Si3 0.245710 0.575454 0.741771
Si Si4 0.861169 0.308369 0.378018
Si Si5 0.303730 0.827790 0.094296
O O1 0.659864 0.185862 0.422199
O O2 0.399062 0.901295 0.456630
O O3 0.344359 0.263326 0.187953
O O4 0.636005 0.461225 0.090640
O O5 0.288509 0.579879 0.103086
O O6 0.500000 0.292575 0.000000
O O7 0.152622 0.498820 0.680483
O O8 0.466873 0.647100 0.679334
O O9 0.204278 0.391260 0.812192
O O10 0.500000 0.853969 0.000000
#
# Coordination Sequence:
#
# PCOD9130290 Si02
#       5
#     2   4   4   4   4
#     4  12  28  56  72 116 140 194 232 318 388 462
#     4  11  27  45  71 106 157 201 247 299 359 423
#     4  12  27  45  78 114 140 202 244 313 345 458
#     4  12  28  48  84 104 154 182 252 302 388 438
#     4  11  27  45  71 106 157 201 247 299 359 423
#
# _framework density 23.942630000000001
#
# number of rings (size 3 to 8) (size 9 to 14) (size 15 to 20)
#    0.000    0.444    0.000    6.000   24.889    0.000 
#    0.000    0.000    0.000    0.000    0.000    0.000 
#    0.000    0.000    0.000    0.000    0.000    0.000 
#
# Total GULP energy -50329.594562 kJ/mol
# GULP energy per Si atom -5592.177174 kJ/mol
# Density = 2.388814 g / cm^3
# Si number density = 23.942630 Si / 1000 Ang^3
#
#
#
# Elastic Constant Matrix: (Units=GPa)
#
#
# Indices 1 2 3 4 5 6 
#
# 1 54.7175 -8.8090 8.3466 0.0000 -0.2240 0.0000
# 2 -8.8090 83.6245 13.5595 0.0000 -8.8181 0.0000
# 3 8.3466 13.5595 91.6696 0.0000 -6.4794 0.0000
# 4 0.0000 0.0000 0.0000 43.7505 0.0000 2.6876
# 5 -0.2240 -8.8181 -6.4794 0.0000 46.0336 0.0000
# 6 0.0000 0.0000 0.0000 2.6876 0.0000 26.7760
#
#
#
# Elastic Compliance Matrix: (Units=1/GPa)
#
#
# Indices 1 2 3 4 5 6 
#
# 1 0.018970 0.002359 -0.002058 0.000000 0.000254 0.000000
# 2 0.002359 0.012752 -0.001947 0.000000 0.002180 0.000000
# 3 -0.002058 -0.001947 0.011471 0.000000 0.001232 0.000000
# 4 0.000000 0.000000 0.000000 0.022999 0.000000 -0.002308
# 5 0.000254 0.002180 0.001232 0.000000 0.022315 0.000000
# 6 0.000000 0.000000 0.000000 -0.002308 0.000000 0.037579
#
#
# Mechanical properties :
#
#
# Convention : Reuss Voigt Hill
#
# Bulk Modulus (GPa) = 25.06178 28.46732 26.76455
# Shear Modulus (GPa) = 35.04355 37.77300 36.40827
#
# Velocity S-wave (km/s) = 3.82991 3.97627 3.90378
# Velocity P-wave (km/s) = 5.48159 5.74426 5.61446
#
# Compressibility (1/GPa) = 0.03990140
#
# Stress axis : x y z
#
# Youngs Moduli (GPa) = 52.71358 78.41721 87.17492
#
# Poissons Ratio (x) = -0.18498 0.17942
# Poissons Ratio (y) = -0.12435 0.16973
# Poissons Ratio (z) = 0.10850 0.15268
#
# Static dielectric constant tensor:
#      x y z
#    x 1.965790 0.000000 -0.013040 
#    y 0.000000 1.955590 0.000000 
#    z -0.013040 0.000000 1.867350 
# 
# From -- ./inp_files/59121.got.cif
#   From: 2010.05.17/outbox.cif.g08.bks.cpg/sg5_30_cif.got.tgz:59121.got - 2010.06.03 18:56:24.
