data_PCOD9130477
_publ_section_title
;
Structure prediction by ZEFSAII (Michael W. Deem and Ramdas Pophale) SiO2 
 PCOD9130477
Probable space group: C 2
;
_chemical_formula_sum "Si O2"
_cell_formula_units_Z 24
_cell_length_a 7.931265
_cell_length_b 17.766694
_cell_length_c 8.453597
_cell_angle_alpha 90.000000
_cell_angle_beta 116.807078
_cell_angle_gamma 90.000000
_cell_volume 1063.196409
_symmetry_space_group_name_H-M "C 2"
_symmetry_group_IT_number 5
_symmetry_cell_setting 'monoclinic'
loop_
_space_group_symop_operation_xyz
x,y,z
-x,y,-z
1/2+x,1/2+y,z
1/2-x,1/2+y,-z
loop_
_atom_site_type_symbol
_atom_site_label
_atom_site_fract_x
_atom_site_fract_y
_atom_site_fract_z
Si Si1 0.478000 0.813920 0.301507
Si Si2 0.474766 0.971465 0.171610
Si Si3 0.856995 0.761926 0.294149
Si Si4 0.217060 0.073268 0.545984
Si Si5 0.864879 0.714132 0.810767
Si Si6 0.202704 0.097378 0.166825
O O1 0.500000 0.804844 0.500000
O O2 0.408224 0.897469 0.235038
O O3 0.672518 0.804600 0.283554
O O4 0.322768 0.750867 0.194284
O O5 0.663882 0.004712 0.331538
O O6 0.327931 0.039024 0.123517
O O7 0.500000 0.951490 0.000000
O O8 0.778791 0.681780 0.205252
O O9 0.000000 0.755324 0.500000
O O10 0.005126 0.779722 0.214987
O O11 0.299969 0.150790 0.657082
O O12 0.220916 0.073439 0.358269
O O13 0.000000 0.068776 0.500000
O O14 0.000000 0.678849 0.000000
O O15 0.000000 0.096977 0.000000
#
# Coordination Sequence:
#
# PCOD9130477 Si02
#       6
#     4   4   4   4   4   4
#     4  12  27  49  73 106 148 193 240 300 362 427
#     4  12  28  49  70 104 147 189 238 297 361 428
#     4  12  24  46  76 109 144 188 242 296 358 429
#     4  12  24  46  74 107 140 190 239 297 358 425
#     4  12  27  44  77 111 146 188 244 297 357 430
#     4  12  25  44  76 106 142 187 241 296 357 426
#
# _framework density 22.573440999999999
#
# number of rings (size 3 to 8) (size 9 to 14) (size 15 to 20)
#    0.000    0.000    5.000    4.500    7.000    1.333 
#    3.000    0.000    0.000    0.000    0.000    0.000 
#    0.000    0.000    0.000    0.000    0.000    0.000 
#
# Total GULP energy -67120.855781 kJ/mol
# GULP energy per Si atom -5593.404648 kJ/mol
# Density = 2.252206 g / cm^3
# Si number density = 22.573441 Si / 1000 Ang^3
#
#
#
# Elastic Constant Matrix: (Units=GPa)
#
#
# Indices 1 2 3 4 5 6 
#
# 1 87.7220 -1.4990 17.9411 0.0000 9.7203 0.0000
# 2 -1.4990 67.5373 11.0605 0.0000 6.5636 0.0000
# 3 17.9411 11.0605 132.7615 0.0000 15.4486 0.0000
# 4 0.0000 0.0000 0.0000 28.1465 0.0000 -3.8871
# 5 9.7203 6.5636 15.4486 0.0000 39.1082 0.0000
# 6 0.0000 0.0000 0.0000 -3.8871 0.0000 36.1916
#
#
#
# Elastic Compliance Matrix: (Units=1/GPa)
#
#
# Indices 1 2 3 4 5 6 
#
# 1 0.011978 0.000741 -0.001383 0.000000 -0.002555 0.000000
# 2 0.000741 0.015227 -0.001100 0.000000 -0.002305 0.000000
# 3 -0.001383 -0.001100 0.008123 0.000000 -0.002680 0.000000
# 4 0.000000 0.000000 0.000000 0.036063 0.000000 0.003873
# 5 -0.002555 -0.002305 -0.002680 0.000000 0.027651 0.000000
# 6 0.000000 0.000000 0.000000 0.003873 0.000000 0.028047
#
#
# Mechanical properties :
#
#
# Convention : Reuss Voigt Hill
#
# Bulk Modulus (GPa) = 31.40450 38.11403 34.75927
# Shear Modulus (GPa) = 35.41348 38.05714 36.73531
#
# Velocity S-wave (km/s) = 3.96512 4.11046 4.03844
# Velocity P-wave (km/s) = 5.90807 6.28084 6.09730
#
# Compressibility (1/GPa) = 0.03184257
#
# Stress axis : x y z
#
# Youngs Moduli (GPa) = 83.48425 65.67154 123.11068
#
# Poissons Ratio (x) = -0.04864 0.17027
# Poissons Ratio (y) = -0.06184 0.13548
# Poissons Ratio (z) = 0.11547 0.07227
#
# Static dielectric constant tensor:
#      x y z
#    x 1.934700 0.000000 -0.011930 
#    y 0.000000 1.778820 0.000000 
#    z -0.011930 0.000000 1.739180 
# 
# From -- ./inp_files/16858.got.cif
#   From: 2010.05.17/outbox.cif.g08.bks.cpg/sg5_9_cif.got.tgz:16858.got - 2010.06.03 18:56:24.
