data_PCOD9130102
_publ_section_title
;
Structure prediction by ZEFSAII (Michael W. Deem and Ramdas Pophale) SiO2 
 PCOD9130102
Probable space group: C 2
;
_chemical_formula_sum "Si O2"
_cell_formula_units_Z 20
_cell_length_a 17.657053
_cell_length_b 5.249021
_cell_length_c 17.757742
_cell_angle_alpha 90.000000
_cell_angle_beta 150.247799
_cell_angle_gamma 90.000000
_cell_volume 816.741579
_symmetry_space_group_name_H-M "C 2"
_symmetry_group_IT_number 5
_symmetry_cell_setting 'monoclinic'
loop_
_space_group_symop_operation_xyz
x,y,z
-x,y,-z
1/2+x,1/2+y,z
1/2-x,1/2+y,-z
loop_
_atom_site_type_symbol
_atom_site_label
_atom_site_fract_x
_atom_site_fract_y
_atom_site_fract_z
Si Si1 0.788614 0.421170 0.783194
Si Si2 0.050423 0.606077 0.653055
Si Si3 0.519499 0.392500 0.776358
Si Si4 0.273493 0.205817 0.909256
Si Si5 0.725451 0.436334 0.322332
O O1 0.617116 0.346228 0.664637
O O2 0.853495 0.509876 0.920397
O O3 0.793945 0.657557 0.730643
O O4 0.840781 0.164468 0.786752
O O5 0.904970 0.484025 0.488595
O O6 0.003964 0.687821 0.696993
O O7 0.194836 0.420493 0.789908
O O8 0.632454 0.595109 0.835698
O O9 0.356719 0.468016 0.668228
O O10 0.607410 0.299645 0.926766
#
# Coordination Sequence:
#
# PCOD9130102 Si02
#       5
#     4   4   4   4   4
#     4  11  27  49  74 110 148 194 237 303 374 434
#     4  11  26  47  77 102 151 194 242 295 373 435
#     4  11  27  47  77 109 147 194 251 301 362 436
#     4  11  24  50  73 105 147 201 238 293 377 437
#     4  12  29  46  78 113 146 187 254 308 355 431
#
# _framework density 24.487549999999999
#
# number of rings (size 3 to 8) (size 9 to 14) (size 15 to 20)
#    0.000    0.800    4.000    0.600   14.000    0.800 
#    3.600    0.000    0.000    0.000    0.000    0.000 
#    0.000    0.000    0.000    0.000    0.000    0.000 
#
# Total GULP energy -55938.139196 kJ/mol
# GULP energy per Si atom -5593.813920 kJ/mol
# Density = 2.443181 g / cm^3
# Si number density = 24.487550 Si / 1000 Ang^3
#
#
#
# Elastic Constant Matrix: (Units=GPa)
#
#
# Indices 1 2 3 4 5 6 
#
# 1 115.9277 34.6838 -8.0921 0.0000 17.4336 0.0000
# 2 34.6838 123.5536 22.0529 0.0000 -8.1712 0.0001
# 3 -8.0921 22.0529 68.5932 0.0000 -0.8065 0.0000
# 4 0.0000 0.0000 0.0000 28.3466 0.0000 -13.1970
# 5 17.4336 -8.1712 -0.8065 0.0000 30.9604 0.0000
# 6 0.0000 0.0001 0.0000 -13.1970 0.0000 51.1571
#
#
#
# Elastic Compliance Matrix: (Units=1/GPa)
#
#
# Indices 1 2 3 4 5 6 
#
# 1 0.011105 -0.004048 0.002526 0.000000 -0.007256 0.000000
# 2 -0.004048 0.010214 -0.003704 0.000000 0.004879 0.000000
# 3 0.002526 -0.003704 0.016044 0.000000 -0.001982 0.000000
# 4 0.000000 0.000000 0.000000 0.040093 0.000000 0.010343
# 5 -0.007256 0.004879 -0.001982 0.000000 0.037621 0.000000
# 6 0.000000 0.000000 0.000000 0.010343 0.000000 0.022216
#
#
# Mechanical properties :
#
#
# Convention : Reuss Voigt Hill
#
# Bulk Modulus (GPa) = 37.15943 45.04039 41.09991
# Shear Modulus (GPa) = 31.90529 39.38815 35.64672
#
# Velocity S-wave (km/s) = 3.61351 4.01496 3.81951
# Velocity P-wave (km/s) = 5.71119 6.31873 6.02263
#
# Compressibility (1/GPa) = 0.02691107
#
# Stress axis : x y z
#
# Youngs Moduli (GPa) = 90.05265 97.90706 62.32763
#
# Poissons Ratio (x) = 0.39633 -0.15745
# Poissons Ratio (y) = 0.36453 0.23086
# Poissons Ratio (z) = -0.22749 0.36264
#
# Static dielectric constant tensor:
#      x y z
#    x 1.912660 0.000000 -0.004870 
#    y 0.000000 1.976700 0.000000 
#    z -0.004870 0.000000 1.951040 
# 
# From -- ./inp_files/62061.got.cif
#   From: 2010.05.17/outbox.cif.g08.bks.cpg/sg5_32_cif.got.tgz:62061.got - 2010.06.03 18:56:24.
