data_PCOD9130641
_publ_section_title
;
Structure prediction by ZEFSAII (Michael W. Deem and Ramdas Pophale) SiO2 
 PCOD9130641
Probable space group: C 2
;
_chemical_formula_sum "Si O2"
_cell_formula_units_Z 16
_cell_length_a 17.704758
_cell_length_b 5.363779
_cell_length_c 9.227905
_cell_angle_alpha 90.000000
_cell_angle_beta 44.566073
_cell_angle_gamma 90.000000
_cell_volume 614.942970
_symmetry_space_group_name_H-M "C 2"
_symmetry_group_IT_number 5
_symmetry_cell_setting 'monoclinic'
loop_
_space_group_symop_operation_xyz
x,y,z
-x,y,-z
1/2+x,1/2+y,z
1/2-x,1/2+y,-z
loop_
_atom_site_type_symbol
_atom_site_label
_atom_site_fract_x
_atom_site_fract_y
_atom_site_fract_z
Si Si1 0.230085 0.421280 0.117472
Si Si2 0.183270 0.616209 0.766878
Si Si3 0.500000 0.115651 0.500000
Si Si4 0.000000 0.249709 0.000000
Si Si5 0.597130 0.394296 0.621848
O O1 0.307416 0.360902 0.147620
O O2 0.108104 0.456857 0.338400
O O3 0.260549 0.675580 0.994675
O O4 0.301890 0.503083 0.603488
O O5 0.148949 0.679085 0.650568
O O6 0.091810 0.427919 0.942253
O O7 0.512496 0.286596 0.624840
O O8 0.950689 0.087563 0.197501
#
# Coordination Sequence:
#
# PCOD9130641 Si02
#       5
#     4   4   2   2   4
#     4  12  32  56  90 131 178 231 291 364 436 529
#     4  12  28  54  85 125 175 231 300 354 434 526
#     4  12  32  56  86 132 176 228 290 370 448 504
#     4  12  30  52  92 122 174 242 290 360 440 516
#     4  12  28  55  87 125 179 232 293 362 433 529
#
# _framework density 26.018675000000002
#
# number of rings (size 3 to 8) (size 9 to 14) (size 15 to 20)
#    0.000    0.000    2.500    3.750   10.500    6.000 
#    0.000    0.000    0.000    0.000    0.000    0.000 
#    0.000    0.000    0.000    0.000    0.000    0.000 
#
# Total GULP energy -44975.744779 kJ/mol
# GULP energy per Si atom -5621.968097 kJ/mol
# Density = 2.595946 g / cm^3
# Si number density = 26.018675 Si / 1000 Ang^3
#
#
#
# Elastic Constant Matrix: (Units=GPa)
#
#
# Indices 1 2 3 4 5 6 
#
# 1 164.4399 59.5252 43.2938 0.0000 11.7455 0.0001
# 2 59.5252 126.7492 54.8704 -0.0014 -9.7436 0.0008
# 3 43.2938 54.8704 131.6662 -0.0002 -28.0470 0.0001
# 4 0.0000 -0.0014 -0.0002 51.3850 -0.0001 -8.3658
# 5 11.7455 -9.7436 -28.0470 -0.0001 53.2631 0.0002
# 6 0.0001 0.0008 0.0001 -8.3658 0.0002 64.5596
#
#
#
# Elastic Compliance Matrix: (Units=1/GPa)
#
#
# Indices 1 2 3 4 5 6 
#
# 1 0.007999 -0.003130 -0.002054 0.000000 -0.003418 0.000000
# 2 -0.003130 0.010859 -0.003295 0.000000 0.000941 0.000000
# 3 -0.002054 -0.003295 0.010826 0.000000 0.005551 0.000000
# 4 0.000000 0.000000 0.000000 0.019880 0.000000 0.002576
# 5 -0.003418 0.000941 0.005551 0.000000 0.022624 0.000000
# 6 0.000000 0.000000 0.000000 0.002576 0.000000 0.015823
#
#
# Mechanical properties :
#
#
# Convention : Reuss Voigt Hill
#
# Bulk Modulus (GPa) = 78.58673 82.02601 80.30637
# Shear Modulus (GPa) = 45.78246 51.51926 48.65086
#
# Velocity S-wave (km/s) = 4.19931 4.45465 4.32886
# Velocity P-wave (km/s) = 7.33361 7.61924 7.47779
#
# Compressibility (1/GPa) = 0.01272479
#
# Stress axis : x y z
#
# Youngs Moduli (GPa) = 125.01118 92.09241 92.36997
#
# Poissons Ratio (x) = 0.28828 0.18972
# Poissons Ratio (y) = 0.39133 0.30439
# Poissons Ratio (z) = 0.25676 0.30348
#
# Static dielectric constant tensor:
#      x y z
#    x 1.977570 0.000000 0.024490 
#    y 0.000000 2.051390 0.000000 
#    z 0.024490 0.000000 2.023330 
# 
# From -- ./inp_files/22342.got.cif
#   From: 2010.05.17/outbox.cif.g08.bks.cpg/sg5_12_cif.got.tgz:22342.got - 2010.06.03 18:56:24.
