data_PCOD9130615
_publ_section_title
;
Structure prediction by ZEFSAII (Michael W. Deem and Ramdas Pophale) SiO2 
 PCOD9130615
Probable space group: C 2
;
_chemical_formula_sum "Si O2"
_cell_formula_units_Z 22
_cell_length_a 17.622896
_cell_length_b 4.958174
_cell_length_c 10.551105
_cell_angle_alpha 90.000000
_cell_angle_beta 77.499176
_cell_angle_gamma 90.000000
_cell_volume 900.071718
_symmetry_space_group_name_H-M "C 2"
_symmetry_group_IT_number 5
_symmetry_cell_setting 'monoclinic'
loop_
_space_group_symop_operation_xyz
x,y,z
-x,y,-z
1/2+x,1/2+y,z
1/2-x,1/2+y,-z
loop_
_atom_site_type_symbol
_atom_site_label
_atom_site_fract_x
_atom_site_fract_y
_atom_site_fract_z
Si Si1 0.617118 0.959840 0.301721
Si Si2 0.000000 0.834252 0.500000
Si Si3 0.248984 0.687881 0.586016
Si Si4 0.518876 0.614087 0.745007
Si Si5 0.803757 0.615103 0.964423
Si Si6 0.601339 0.133632 0.818951
O O1 0.677385 0.791688 0.362514
O O2 0.564612 0.754172 0.238240
O O3 0.561482 0.140830 0.409026
O O4 0.661931 0.149838 0.187317
O O5 0.962609 0.022145 0.405724
O O6 0.258409 0.385031 0.532210
O O7 0.173360 0.713198 0.702057
O O8 0.531831 0.344333 0.820456
O O9 0.574294 0.840319 0.783340
O O10 0.868053 0.639061 0.049803
O O11 0.734916 0.822568 0.014881
#
# Coordination Sequence:
#
# PCOD9130615 Si02
#       6
#     4   2   4   4   4   4
#     4  12  30  53  85 115 163 212 263 328 404 469
#     4  12  28  52  82 118 166 202 266 318 416 464
#     4  12  29  45  79 118 156 207 264 323 395 467
#     4  12  28  50  78 119 160 207 256 332 397 468
#     4  12  29  56  84 116 159 211 271 329 394 471
#     4  12  27  53  78 116 160 205 270 327 390 475
#
# _framework density 24.442495999999998
#
# number of rings (size 3 to 8) (size 9 to 14) (size 15 to 20)
#    0.000    0.000    3.636    3.818   15.273    0.727 
#    3.273    0.000    0.000    0.000    0.000    0.000 
#    0.000    0.000    0.000    0.000    0.000    0.000 
#
# Total GULP energy -61769.641214 kJ/mol
# GULP energy per Si atom -5615.421929 kJ/mol
# Density = 2.438686 g / cm^3
# Si number density = 24.442496 Si / 1000 Ang^3
#
#
#
# Elastic Constant Matrix: (Units=GPa)
#
#
# Indices 1 2 3 4 5 6 
#
# 1 64.0672 -3.4431 29.1855 0.0000 5.3122 0.0000
# 2 -3.4431 71.0338 6.7383 0.0000 3.5528 0.0000
# 3 29.1855 6.7383 97.9546 0.0000 5.4792 0.0000
# 4 0.0000 0.0000 0.0000 22.5494 0.0000 7.2562
# 5 5.3122 3.5528 5.4792 0.0000 58.7927 0.0000
# 6 0.0000 0.0000 0.0000 7.2562 0.0000 29.9993
#
#
#
# Elastic Compliance Matrix: (Units=1/GPa)
#
#
# Indices 1 2 3 4 5 6 
#
# 1 0.018286 0.001468 -0.005480 0.000000 -0.001230 0.000000
# 2 0.001468 0.014323 -0.001374 0.000000 -0.000870 0.000000
# 3 -0.005480 -0.001374 0.011966 0.000000 -0.000537 0.000000
# 4 0.000000 0.000000 0.000000 0.048090 0.000000 -0.011632
# 5 -0.001230 -0.000870 -0.000537 0.000000 0.017223 0.000000
# 6 0.000000 0.000000 0.000000 -0.011632 0.000000 0.036148
#
#
# Mechanical properties :
#
#
# Convention : Reuss Voigt Hill
#
# Bulk Modulus (GPa) = 29.58414 33.11299 31.34857
# Shear Modulus (GPa) = 29.74839 35.63993 32.69416
#
# Velocity S-wave (km/s) = 3.49245 3.82267 3.66128
# Velocity P-wave (km/s) = 5.32849 5.74982 5.54316
#
# Compressibility (1/GPa) = 0.03380189
#
# Stress axis : x y z
#
# Youngs Moduli (GPa) = 54.68635 69.81879 83.56821
#
# Poissons Ratio (x) = -0.10248 0.45799
# Poissons Ratio (y) = -0.08027 0.11482
# Poissons Ratio (z) = 0.29971 0.09592
#
# Static dielectric constant tensor:
#      x y z
#    x 1.911670 0.000000 0.004280 
#    y 0.000000 1.882880 0.000000 
#    z 0.004280 0.000000 1.902110 
# 
# From -- ./inp_files/28332.got.cif
#   From: 2010.05.17/outbox.cif.g08.bks.cpg/sg5_15_cif.got.tgz:28332.got - 2010.06.03 18:56:24.
