data_PCOD9130004
_publ_section_title
;
Structure prediction by ZEFSAII (Michael W. Deem and Ramdas Pophale) SiO2 
 PCOD9130004
Probable space group: C 2
;
_chemical_formula_sum "Si O2"
_cell_formula_units_Z 32
_cell_length_a 27.930740
_cell_length_b 11.590249
_cell_length_c 8.672552
_cell_angle_alpha 90.000000
_cell_angle_beta 33.049263
_cell_angle_gamma 90.000000
_cell_volume 1531.106292
_symmetry_space_group_name_H-M "C 2"
_symmetry_group_IT_number 5
_symmetry_cell_setting 'monoclinic'
loop_
_space_group_symop_operation_xyz
x,y,z
-x,y,-z
1/2+x,1/2+y,z
1/2-x,1/2+y,-z
loop_
_atom_site_type_symbol
_atom_site_label
_atom_site_fract_x
_atom_site_fract_y
_atom_site_fract_z
Si Si1 0.163958 0.429280 0.115209
Si Si2 0.758762 0.794795 0.306687
Si Si3 0.086207 0.639493 0.175260
Si Si4 0.591960 0.677672 0.343496
Si Si5 0.589230 0.155234 0.805195
Si Si6 0.239569 0.538966 0.211431
Si Si7 0.901833 0.129961 0.315942
Si Si8 0.672691 0.380781 0.544138
O O1 0.105432 0.506266 0.159060
O O2 0.113728 0.313872 0.300733
O O3 0.189075 0.515934 0.186699
O O4 0.251896 0.390838 0.788115
O O5 0.666319 0.728589 0.552540
O O6 0.785880 0.831850 0.407737
O O7 0.762370 0.911817 0.203558
O O8 0.825255 0.710859 0.035470
O O9 0.000000 0.676826 0.500000
O O10 0.078128 0.660822 0.016725
O O11 0.500000 0.661855 0.500000
O O12 0.594060 0.624271 0.509255
O O13 0.674305 0.617244 0.036374
O O14 0.674268 0.090051 0.515252
O O15 0.600545 0.282897 0.701705
O O16 0.500000 0.093581 0.000000
O O17 0.869272 0.007793 0.333520
O O18 0.000000 0.156602 0.000000
#
# Coordination Sequence:
#
# PCOD9130004 Si02
#       8
#     4   4   4   4   4   4   4   4
#     4  12  23  46  74  97 140 187 235 294 358 418
#     4  11  26  45  71 103 136 191 233 286 360 421
#     4  11  24  45  71 102 139 179 232 291 353 423
#     4  12  28  46  72 108 142 190 239 296 362 430
#     4  11  25  44  70 106 136 182 236 289 353 426
#     4  12  25  45  71  99 142 183 237 290 351 424
#     4  12  27  49  70 105 149 187 237 299 358 431
#     4  11  24  44  76  98 139 188 235 290 360 420
#
# _framework density 20.899920000000002
#
# number of rings (size 3 to 8) (size 9 to 14) (size 15 to 20)
#    0.000    0.500    5.000    2.250    5.250    2.000 
#    4.500    0.000    0.000    0.000    0.000    0.000 
#    0.000    0.000    0.000    0.000    0.000    0.000 
#
# Total GULP energy -89380.431555 kJ/mol
# GULP energy per Si atom -5586.276972 kJ/mol
# Density = 2.085235 g / cm^3
# Si number density = 20.899920 Si / 1000 Ang^3
#
#
#
# Elastic Constant Matrix: (Units=GPa)
#
#
# Indices 1 2 3 4 5 6 
#
# 1 63.5290 15.6387 37.0462 0.0000 -6.5501 0.0000
# 2 15.6387 93.5875 21.8869 0.0000 -9.8323 0.0000
# 3 37.0462 21.8869 164.0198 0.0000 -8.4328 0.0000
# 4 0.0000 0.0000 0.0000 83.5384 0.0000 -42.6006
# 5 -6.5501 -9.8323 -8.4328 0.0000 37.3717 0.0000
# 6 0.0000 0.0000 0.0000 -42.6006 0.0000 67.9791
#
#
#
# Elastic Compliance Matrix: (Units=1/GPa)
#
#
# Indices 1 2 3 4 5 6 
#
# 1 0.018679 -0.002024 -0.003853 0.000000 0.001872 0.000000
# 2 -0.002024 0.011504 -0.000952 0.000000 0.002457 0.000000
# 3 -0.003853 -0.000952 0.007129 0.000000 0.000683 0.000000
# 4 0.000000 0.000000 0.000000 0.017593 0.000000 0.011025
# 5 0.001872 0.002457 0.000683 0.000000 0.027887 0.000000
# 6 0.000000 0.000000 0.000000 0.011025 0.000000 0.021619
#
#
# Mechanical properties :
#
#
# Convention : Reuss Voigt Hill
#
# Bulk Modulus (GPa) = 42.27251 52.25333 47.26292
# Shear Modulus (GPa) = 39.69772 54.21546 46.95659
#
# Velocity S-wave (km/s) = 4.36296 5.09871 4.74512
# Velocity P-wave (km/s) = 6.75653 7.72777 7.25841
#
# Compressibility (1/GPa) = 0.02365603
#
# Stress axis : x y z
#
# Youngs Moduli (GPa) = 53.53727 86.92575 140.27028
#
# Poissons Ratio (x) = 0.17590 0.54040
# Poissons Ratio (y) = 0.10834 0.13350
# Poissons Ratio (z) = 0.20625 0.08273
#
# Static dielectric constant tensor:
#      x y z
#    x 1.859960 0.000000 -0.104590 
#    y 0.000000 1.729530 0.000000 
#    z -0.104590 0.000000 1.662440 
# 
# From -- ./inp_files/32629.got.cif
#   From: 2010.05.17/outbox.cif.g08.bks.cpg/sg5_17_cif.got.tgz:32629.got - 2010.06.03 18:56:24.
