data_PCOD9130705
_publ_section_title
;
Structure prediction by ZEFSAII (Michael W. Deem and Ramdas Pophale) SiO2 
 PCOD9130705
Probable space group: C 2
;
_chemical_formula_sum "Si O2"
_cell_formula_units_Z 14
_cell_length_a 30.000000
_cell_length_b 12.000000
_cell_length_c 24.000000
_cell_angle_alpha 90.000000
_cell_angle_beta 170.000000
_cell_angle_gamma 90.000000
_cell_volume 1500.320255
_symmetry_space_group_name_H-M "C 2"
_symmetry_group_IT_number 5
_symmetry_cell_setting 'monoclinic'
loop_
_space_group_symop_operation_xyz
x,y,z
-x,y,-z
1/2+x,1/2+y,z
1/2-x,1/2+y,-z
loop_
_atom_site_type_symbol
_atom_site_label
_atom_site_fract_x
_atom_site_fract_y
_atom_site_fract_z
Si Si1 0.342651 0.019890 0.553442
Si Si2 0.272150 0.208203 0.105535
Si Si3 0.968354 0.456860 0.336978
Si Si4 0.446471 0.852375 0.779809
Si Si5 0.283205 0.543008 0.819525
Si Si6 0.591536 0.264865 0.850481
Si Si7 0.303505 0.792034 0.806151
O O1 0.480968 0.141319 0.729795
O O2 0.445187 0.968287 0.621050
O O3 0.423040 0.950473 0.706547
O O4 0.031066 0.012094 0.161681
O O5 0.276319 0.245115 0.046659
O O6 0.514294 0.276737 0.429130
O O7 0.321862 0.075449 0.167553
O O8 0.033058 0.246563 0.848372
O O9 0.209820 0.464278 0.676796
O O10 0.794608 0.346418 0.132051
O O11 0.174548 0.833582 0.475462
O O12 0.650337 0.861562 0.081008
O O13 0.369548 0.663856 0.903153
O O14 0.000000 0.554739 0.500000
O O15 0.500000 0.828431 0.000000
#
# Coordination Sequence:
#
# PCOD9130705 Si02
#       7
#     4   4   4   4   4   4   4
#     4  11  23  38  60  96 130 171 211 258 324 386
#     4  10  21  38  59  89 122 163 208 265 318 372
#     4  10  21  39  63  89 129 161 209 266 320 367
#     4  12  22  35  59  89 129 163 207 262 321 375
#     4  11  20  36  62  95 128 159 213 267 317 373
#     4  11  22  38  59  96 128 164 209 260 318 383
#     4  11  19  35  58  90 120 159 207 270 313 364
#
# _framework density 9.3313410000000001
#
# number of rings (size 3 to 8) (size 9 to 14) (size 15 to 20)
#    0.000    1.143    4.286    5.143    2.000    0.000 
#    0.000    0.000    0.000    5.143    0.000    0.000 
#    0.000    0.000    0.000    0.000    0.000    0.000 
#
# Total GULP energy -78000.207530 kJ/mol
# GULP energy per Si atom -5571.443395 kJ/mol
# Density = 0.931010 g / cm^3
# Si number density = 9.331341 Si / 1000 Ang^3
#
#
#
# Elastic Constant Matrix: (Units=GPa)
#
#
# Indices 1 2 3 4 5 6 
#
# 1 101.7844 39.1108 25.4872 0.1043 -3.1627 0.0570
# 2 39.1108 81.2216 44.5589 0.0738 -19.7380 0.0550
# 3 25.4872 44.5589 86.3036 0.2666 -9.3617 0.1292
# 4 0.1043 0.0738 0.2666 30.1673 0.0485 -6.7691
# 5 -3.1627 -19.7380 -9.3617 0.0485 41.3733 0.0354
# 6 0.0570 0.0550 0.1292 -6.7691 0.0354 30.8554
#
#
#
# Elastic Compliance Matrix: (Units=1/GPa)
#
#
# Indices 1 2 3 4 5 6 
#
# 1 0.012252 -0.005998 -0.000749 -0.000020 -0.002094 -0.000011
# 2 -0.005998 0.021908 -0.008669 0.000032 0.008031 0.000006
# 3 -0.000749 -0.008669 0.016228 -0.000137 -0.000521 -0.000081
# 4 -0.000020 0.000032 -0.000137 0.034866 -0.000065 0.007650
# 5 -0.002094 0.008031 -0.000521 -0.000065 0.027724 -0.000054
# 6 -0.000011 0.000006 -0.000081 0.007650 -0.000054 0.034088
#
#
# Mechanical properties :
#
#
# Convention : Reuss Voigt Hill
#
# Bulk Modulus (GPa) = 51.13233 54.18037 52.65635
# Shear Modulus (GPa) = 27.11290 31.15604 29.13447
#
# Velocity S-wave (km/s) = 3.81568 4.09030 3.95537
# Velocity P-wave (km/s) = 6.84618 7.16951 7.00971
#
# Compressibility (1/GPa) = 0.01955710
#
# Stress axis : x y z
#
# Youngs Moduli (GPa) = 81.62093 45.64646 61.62279
#
# Poissons Ratio (x) = 0.27378 0.04613
# Poissons Ratio (y) = 0.48955 0.53418
# Poissons Ratio (z) = 0.06110 0.39569
#
# Static dielectric constant tensor:
#      x y z
#    x 1.706030 -0.000010 -0.002030 
#    y -0.000010 1.645090 -0.000020 
#    z -0.002030 -0.000020 1.677250 
# 
# From -- ./inp_files/62854.got.cif
#   From: 2010.05.17/outbox.ucp.g08.bks.cvg/sg5_32_cif.got.tgz:62854.got - 2010.06.11 12:53:14.
