data_PCOD9130869
_publ_section_title
;
Structure prediction by ZEFSAII (Michael W. Deem and Ramdas Pophale) SiO2 
 PCOD9130869
Probable space group: P M
;
_chemical_formula_sum "Si O2"
_cell_formula_units_Z 16
_cell_length_a 10.479913
_cell_length_b 8.666315
_cell_length_c 12.485737
_cell_angle_alpha 90.000000
_cell_angle_beta 127.875937
_cell_angle_gamma 90.000000
_cell_volume 895.099972
_symmetry_space_group_name_H-M "P M"
_symmetry_group_IT_number 6
_symmetry_cell_setting 'monoclinic'
loop_
_space_group_symop_operation_xyz
x,y,z
x,-y,z
loop_
_atom_site_type_symbol
_atom_site_label
_atom_site_fract_x
_atom_site_fract_y
_atom_site_fract_z
Si Si1 0.787060 0.685493 0.481680
Si Si2 0.099721 0.315438 0.038580
Si Si3 0.877977 0.183189 0.751552
Si Si4 0.295646 0.183503 0.490794
Si Si5 0.599817 0.315658 0.761706
Si Si6 0.936485 0.684984 0.329762
Si Si7 0.414514 0.315078 0.326874
Si Si8 0.825747 0.815734 0.053277
O O1 0.801006 0.500000 0.501583
O O2 0.872738 0.765512 0.626231
O O3 0.862718 0.727566 0.406719
O O4 0.596803 0.724732 0.388999
O O5 0.078449 0.500000 0.021656
O O6 0.282586 0.281360 0.167400
O O7 0.982066 0.250994 0.070905
O O8 0.035959 0.240180 0.896650
O O9 0.726798 0.261909 0.735382
O O10 0.861644 0.000000 0.753460
O O11 0.426467 0.247606 0.642107
O O12 0.361638 0.230133 0.407656
O O13 0.120938 0.259009 0.416771
O O14 0.282936 0.000000 0.492087
O O15 0.594909 0.500000 0.761061
O O16 0.673325 0.250791 0.909787
O O17 0.930765 0.500000 0.315314
O O18 0.838979 0.760238 0.181598
O O19 0.407857 0.500000 0.344203
O O20 0.827703 0.000000 0.047166
#
# Coordination Sequence:
#
# PCOD9130869 Si02
#       8
#     2   2   2   2   2   2   2   2
#     4  10  22  40  61  84 115 156 199 240 286 348
#     4  10  19  33  57  85 115 149 191 240 290 343
#     4  11  21  34  55  85 119 152 191 238 294 345
#     4  12  23  36  58  89 119 150 192 247 297 343
#     4  11  21  36  59  85 116 152 195 242 289 346
#     4  11  23  40  60  84 117 160 201 239 289 351
#     4  10  20  36  60  87 114 148 195 243 286 343
#     4  11  21  35  56  85 119 151 192 243 295 343
#
# _framework density 17.875098000000001
#
# number of rings (size 3 to 8) (size 9 to 14) (size 15 to 20)
#    0.000    1.250    2.500    6.750    0.000    1.500 
#    0.000    1.250    0.000    6.000    0.000    0.000 
#    0.000    0.000    0.000    0.000    0.000    0.000 
#
# Total GULP energy -89427.352955 kJ/mol
# GULP energy per Si atom -5589.209560 kJ/mol
# Density = 1.783441 g / cm^3
# Si number density = 17.875098 Si / 1000 Ang^3
#
#
#
# Elastic Constant Matrix: (Units=GPa)
#
#
# Indices 1 2 3 4 5 6 
#
# 1 79.4955 29.9865 50.6310 0.0000 -9.3095 0.0000
# 2 29.9865 76.1415 44.0151 0.0000 -6.7924 0.0000
# 3 50.6310 44.0151 147.9558 0.0000 -9.4472 0.0000
# 4 0.0000 0.0000 0.0000 541.2850 0.0000 -411.5978
# 5 -9.3095 -6.7924 -9.4472 0.0000 24.2874 0.0000
# 6 0.0000 0.0000 0.0000 -411.5978 0.0000 304.6989
#
#
#
# Elastic Compliance Matrix: (Units=1/GPa)
#
#
# Indices 1 2 3 4 5 6 
#
# 1 0.017388 -0.003875 -0.004554 0.000000 0.003810 0.000000
# 2 -0.003875 0.016895 -0.003582 0.000000 0.001846 0.000000
# 3 -0.004554 -0.003582 0.009442 0.000000 0.000925 0.000000
# 4 0.000000 0.000000 0.000000 -0.067955 0.000000 -0.091796
# 5 0.003810 0.001846 0.000925 0.000000 0.043510 0.000000
# 6 0.000000 0.000000 0.000000 -0.091796 0.000000 -0.120720
#
#
# Mechanical properties :
#
#
# Convention : Reuss Voigt Hill
#
# Bulk Modulus (GPa) = 50.75672 61.42867 56.09269
# Shear Modulus (GPa) = -70.57165 185.98494 57.70664
#
# Velocity S-wave (km/s) = -6.29016 10.21141 5.68800
# Velocity P-wave (km/s) = 4.92930 13.17082 8.63633
#
# Compressibility (1/GPa) = 0.01970182
#
# Stress axis : x y z
#
# Youngs Moduli (GPa) = 57.51172 59.18908 105.91122
#
# Poissons Ratio (x) = 0.22938 0.48232
# Poissons Ratio (y) = 0.22288 0.37938
# Poissons Ratio (z) = 0.26191 0.21202
#
# Static dielectric constant tensor:
#      x y z
#    x 1.580450 0.000000 0.006340 
#    y 0.000000 1.582620 0.000000 
#    z 0.006340 0.000000 1.619150 
# 
# From -- ./inp_files/4657.got.cif
#   From: 2010.05.17/outbox.cif.g08.bks.cpg/sg6_3_cif.got.tgz:4657.got - 2010.06.03 19:42:10.
