data_PCOD9130766
_publ_section_title
;
Structure prediction by ZEFSAII (Michael W. Deem and Ramdas Pophale) SiO2 
 PCOD9130766
Probable space group: P M
;
_chemical_formula_sum "Si O2"
_cell_formula_units_Z 16
_cell_length_a 20.117080
_cell_length_b 7.940673
_cell_length_c 8.016521
_cell_angle_alpha 90.000000
_cell_angle_beta 37.537492
_cell_angle_gamma 90.000000
_cell_volume 780.234991
_symmetry_space_group_name_H-M "P M"
_symmetry_group_IT_number 6
_symmetry_cell_setting 'monoclinic'
loop_
_space_group_symop_operation_xyz
x,y,z
x,-y,z
loop_
_atom_site_type_symbol
_atom_site_label
_atom_site_fract_x
_atom_site_fract_y
_atom_site_fract_z
Si Si1 0.361190 0.205614 0.611970
Si Si2 0.595661 0.199844 0.264380
Si Si3 0.983951 0.799494 0.169875
Si Si4 0.119969 0.206320 0.583391
Si Si5 0.734244 0.300992 0.670156
Si Si6 0.123330 0.206289 0.206045
Si Si7 0.357613 0.202995 0.232901
Si Si8 0.592749 0.299793 0.639751
O O1 0.471773 0.263408 0.480989
O O2 0.363586 0.258790 0.413743
O O3 0.360873 0.000000 0.615472
O O4 0.247906 0.258367 0.920768
O O5 0.629837 0.236592 0.385303
O O6 0.593939 0.000000 0.244634
O O7 0.672699 0.269920 0.966561
O O8 0.855653 0.770420 0.430089
O O9 0.045522 0.733911 0.211982
O O10 0.003090 0.000000 0.131462
O O11 0.040489 0.734248 0.888483
O O12 0.089310 0.260746 0.458394
O O13 0.243882 0.258921 0.378609
O O14 0.119011 0.000000 0.585700
O O15 0.743970 0.500000 0.627452
O O16 0.662367 0.232119 0.658342
O O17 0.122226 0.000000 0.207210
O O18 0.355423 0.000000 0.238090
O O19 0.466292 0.255418 0.921283
O O20 0.602318 0.500000 0.620410
#
# Coordination Sequence:
#
# PCOD9130766 Si02
#       8
#     2   2   2   2   2   2   2   2
#     4   9  16  29  55  89 119 144 178 232 292 340
#     4  11  22  38  64  92 116 147 192 245 289 340
#     4  10  20  35  56  81 108 145 196 245 280 328
#     4   9  17  30  54  85 116 145 179 233 291 336
#     4  11  25  43  59  79 115 160 198 239 291 346
#     4   9  16  29  51  84 118 143 174 228 293 338
#     4  10  17  32  59  88 117 150 189 234 283 340
#     4  11  24  40  58  84 121 160 192 232 289 352
#
# _framework density 20.506640999999998
#
# number of rings (size 3 to 8) (size 9 to 14) (size 15 to 20)
#    0.000    2.000    2.500    1.875    0.000    4.500 
#    0.000    1.875    0.000    3.750    0.000    0.000 
#    0.000    0.000    0.000    0.000    0.000    0.000 
#
# Total GULP energy -89370.865113 kJ/mol
# GULP energy per Si atom -5585.679070 kJ/mol
# Density = 2.045997 g / cm^3
# Si number density = 20.506641 Si / 1000 Ang^3
#
#
#
# Elastic Constant Matrix: (Units=GPa)
#
#
# Indices 1 2 3 4 5 6 
#
# 1 129.4056 -1.8082 106.4788 0.0000 30.8522 0.0000
# 2 -1.8082 10.8956 -11.6066 0.0000 1.0016 0.0000
# 3 106.4788 -11.6066 114.2008 0.0000 -7.2766 0.0000
# 4 0.0000 0.0000 0.0000 -156.6927 0.0000 90.5627
# 5 30.8522 1.0016 -7.2766 0.0000 29.9130 0.0000
# 6 0.0000 0.0000 0.0000 90.5627 0.0000 -33.3476
#
#
#
# Elastic Compliance Matrix: (Units=1/GPa)
#
#
# Indices 1 2 3 4 5 6 
#
# 1 -0.038868 0.034727 0.042915 0.000000 0.049366 0.000000
# 2 0.034727 0.071921 -0.027938 0.000000 -0.045022 0.000000
# 3 0.042915 -0.027938 -0.037437 0.000000 -0.052434 0.000000
# 4 0.000000 0.000000 0.000000 0.011204 0.000000 0.030428
# 5 0.049366 -0.045022 -0.052434 0.000000 -0.028733 0.000000
# 6 0.000000 0.000000 0.000000 0.030428 0.000000 0.052647
#
#
# Mechanical properties :
#
#
# Convention : Reuss Voigt Hill
#
# Bulk Modulus (GPa) = 10.52369 48.95888 29.74129
# Shear Modulus (GPa) = -135.13616 -21.26292 -78.19954
#
# Velocity S-wave (km/s) = -8.12661 -3.22356 -6.18195
# Velocity P-wave (km/s) = 9.10564 3.17355 6.03495
#
# Compressibility (1/GPa) = 0.09502370
#
# Stress axis : x y z
#
# Youngs Moduli (GPa) = -25.72779 13.90415 -26.71137
#
# Poissons Ratio (x) = -0.48285 1.14632
# Poissons Ratio (y) = 0.89345 -0.74626
# Poissons Ratio (z) = 1.10411 0.38845
#
# Static dielectric constant tensor:
#      x y z
#    x 1.747920 0.000000 0.012020 
#    y 0.000000 1.737990 0.000000 
#    z 0.012020 0.000000 1.694260 
# 
# From -- ./inp_files/4267.got.cif
#   From: 2010.05.17/outbox.cif.g08.bks.cpg/sg6_3_cif.got.tgz:4267.got - 2010.06.03 19:42:10.
