data_PCOD9130720
_publ_section_title
;
Structure prediction by ZEFSAII (Michael W. Deem and Ramdas Pophale) SiO2 
 PCOD9130720
Probable space group: C 2
;
_chemical_formula_sum "Si O2"
_cell_formula_units_Z 14
_cell_length_a 21.000000
_cell_length_b 9.000000
_cell_length_c 9.000000
_cell_angle_alpha 90.000000
_cell_angle_beta 50.000000
_cell_angle_gamma 90.000000
_cell_volume 1303.041598
_symmetry_space_group_name_H-M "C 2"
_symmetry_group_IT_number 5
_symmetry_cell_setting 'monoclinic'
loop_
_space_group_symop_operation_xyz
x,y,z
-x,y,-z
1/2+x,1/2+y,z
1/2-x,1/2+y,-z
loop_
_atom_site_type_symbol
_atom_site_label
_atom_site_fract_x
_atom_site_fract_y
_atom_site_fract_z
Si Si1 0.500000 0.867861 0.000000
Si Si2 0.742533 0.483860 0.870136
Si Si3 0.101584 0.976155 0.340648
Si Si4 0.500000 0.373338 0.000000
Si Si5 0.887841 0.621207 0.296915
Si Si6 0.212284 0.186060 0.394353
Si Si7 0.626663 0.641205 0.839759
Si Si8 0.095568 0.621906 0.386520
O O1 0.439842 0.758934 0.997716
O O2 0.436833 0.977515 0.171539
O O3 0.765428 0.332406 0.741554
O O4 0.708618 0.612081 0.810514
O O5 0.829227 0.540679 0.815019
O O6 0.663127 0.478119 0.102233
O O7 0.157434 0.070856 0.375641
O O8 0.000000 0.022339 0.500000
O O9 0.097288 0.799481 0.371566
O O10 0.452249 0.260412 0.182505
O O11 0.424762 0.486116 0.076193
O O12 0.803331 0.640274 0.326934
O O13 0.877840 0.592962 0.484803
O O14 0.155499 0.192931 0.630965
O O15 0.000000 0.572250 0.500000
#
# Coordination Sequence:
#
# PCOD9130720 Si02
#       8
#     2   4   4   2   4   4   4   4
#     4  10  26  38  68 108 142 174 246 296 370 410
#     4  12  26  48  72 109 146 199 242 307 377 429
#     4  11  29  48  74 105 149 196 248 302 377 440
#     4  10  22  38  70 100 144 178 240 294 356 420
#     4  11  23  45  71 106 135 196 240 306 353 438
#     4  12  26  46  75 105 145 189 249 301 367 440
#     4  11  24  42  71 107 143 184 243 306 355 439
#     4  11  26  47  72 101 152 193 245 296 374 438
#
# _framework density 10.744092999999999
#
# number of rings (size 3 to 8) (size 9 to 14) (size 15 to 20)
#    0.000    0.857    2.857    2.571   10.000    2.857 
#    2.571    0.000    0.000    0.000    0.000    0.000 
#    0.000    0.000    0.000    0.000    0.000    0.000 
#
# Total GULP energy -77946.930737 kJ/mol
# GULP energy per Si atom -5567.637910 kJ/mol
# Density = 1.071964 g / cm^3
# Si number density = 10.744093 Si / 1000 Ang^3
#
#
#
# Elastic Constant Matrix: (Units=GPa)
#
#
# Indices 1 2 3 4 5 6 
#
# 1 136.2596 40.0774 73.7032 0.0000 -35.2749 0.0000
# 2 40.0774 98.2476 35.5787 0.0000 -18.6118 0.0000
# 3 73.7032 35.5787 95.1530 0.0000 -33.4602 0.0000
# 4 0.0000 0.0000 0.0000 35.0978 0.0000 -24.7788
# 5 -35.2749 -18.6118 -33.4602 0.0000 45.8724 0.0000
# 6 0.0000 0.0000 0.0000 -24.7788 0.0000 27.1226
#
#
#
# Elastic Compliance Matrix: (Units=1/GPa)
#
#
# Indices 1 2 3 4 5 6 
#
# 1 0.013298 -0.001720 -0.008482 0.000000 0.003341 0.000000
# 2 -0.001720 0.012148 -0.002612 0.000000 0.001701 0.000000
# 3 -0.008482 -0.002612 0.020699 0.000000 0.007516 0.000000
# 4 0.000000 0.000000 0.000000 0.080255 0.000000 0.073319
# 5 0.003341 0.001701 0.007516 0.000000 0.030541 0.000000
# 6 0.000000 0.000000 0.000000 0.073319 0.000000 0.103853
#
#
# Mechanical properties :
#
#
# Convention : Reuss Voigt Hill
#
# Bulk Modulus (GPa) = 48.74064 69.81988 59.28026
# Shear Modulus (GPa) = 17.04971 33.63863 25.34417
#
# Velocity S-wave (km/s) = 2.81987 3.96087 3.43803
# Velocity P-wave (km/s) = 5.77356 7.31305 6.58843
#
# Compressibility (1/GPa) = 0.02051676
#
# Stress axis : x y z
#
# Youngs Moduli (GPa) = 75.20088 82.31770 48.31126
#
# Poissons Ratio (x) = 0.14158 0.40979
# Poissons Ratio (y) = 0.12934 0.12619
# Poissons Ratio (z) = 0.63787 0.21501
#
# Static dielectric constant tensor:
#      x y z
#    x 1.823950 0.000000 0.023770 
#    y 0.000000 1.807330 0.000000 
#    z 0.023770 0.000000 1.886760 
# 
# From -- ./inp_files/29119.got.cif
#   From: 2010.05.17/outbox.ucp.g08.bks.cvg/sg5_15_cif.got.tgz:29119.got - 2010.06.11 12:53:14.
