data_PCOD9130607
_publ_section_title
;
Structure prediction by ZEFSAII (Michael W. Deem and Ramdas Pophale) SiO2 
 PCOD9130607
Probable space group: C 2
;
_chemical_formula_sum "Si O2"
_cell_formula_units_Z 18
_cell_length_a 12.171025
_cell_length_b 10.269472
_cell_length_c 5.567507
_cell_angle_alpha 90.000000
_cell_angle_beta 78.441007
_cell_angle_gamma 90.000000
_cell_volume 681.769444
_symmetry_space_group_name_H-M "C 2"
_symmetry_group_IT_number 5
_symmetry_cell_setting 'monoclinic'
loop_
_space_group_symop_operation_xyz
x,y,z
-x,y,-z
1/2+x,1/2+y,z
1/2-x,1/2+y,-z
loop_
_atom_site_type_symbol
_atom_site_label
_atom_site_fract_x
_atom_site_fract_y
_atom_site_fract_z
Si Si1 0.385467 0.216720 0.643904
Si Si2 0.000000 0.264082 0.000000
Si Si3 0.846917 0.186823 0.497422
Si Si4 0.618700 0.471393 0.087033
Si Si5 0.650082 0.945218 0.217339
O O1 0.500000 0.278667 0.500000
O O2 0.276899 0.496356 0.136243
O O3 0.346897 0.326690 0.841950
O O4 0.418666 0.078009 0.737733
O O5 0.100005 0.359003 0.028697
O O6 0.063008 0.182272 0.761590
O O7 0.862461 0.338038 0.570862
O O8 0.868607 0.076250 0.695965
O O9 0.714331 0.185925 0.496196
O O10 0.500000 0.458402 0.000000
#
# Coordination Sequence:
#
# PCOD9130607 Si02
#       5
#     4   2   4   4   4
#     4  12  27  51  82 121 173 218 285 361 428 504
#     4  12  28  52  86 120 168 238 294 344 404 556
#     4  12  28  55  85 129 170 231 294 346 435 522
#     4  12  29  53  85 132 176 218 283 367 446 500
#     4  12  28  51  84 120 167 227 291 346 429 518
#
# _framework density 26.401885
#
# number of rings (size 3 to 8) (size 9 to 14) (size 15 to 20)
#    0.000    0.000    2.222    6.000    6.222    3.556 
#    0.000    0.000    0.000    0.000    0.000    0.000 
#    0.000    0.000    0.000    0.000    0.000    0.000 
#
# Total GULP energy -50258.687542 kJ/mol
# GULP energy per Si atom -5584.298616 kJ/mol
# Density = 2.634179 g / cm^3
# Si number density = 26.401885 Si / 1000 Ang^3
#
#
#
# Elastic Constant Matrix: (Units=GPa)
#
#
# Indices 1 2 3 4 5 6 
#
# 1 182.0475 7.0446 62.1157 0.0000 23.1684 0.0000
# 2 7.0446 162.8467 34.8509 0.0000 4.6562 0.0000
# 3 62.1157 34.8509 84.5438 0.0000 11.0930 0.0000
# 4 0.0000 0.0000 0.0000 31.4998 0.0000 12.2276
# 5 23.1684 4.6562 11.0930 0.0000 50.6326 0.0000
# 6 0.0000 0.0000 0.0000 12.2276 0.0000 51.4416
#
#
#
# Elastic Compliance Matrix: (Units=1/GPa)
#
#
# Indices 1 2 3 4 5 6 
#
# 1 0.007722 0.000967 -0.005762 0.000000 -0.002360 0.000000
# 2 0.000967 0.006856 -0.003496 0.000000 -0.000307 0.000000
# 3 -0.005762 -0.003496 0.017622 0.000000 -0.000902 0.000000
# 4 0.000000 0.000000 0.000000 0.034973 0.000000 -0.008313
# 5 -0.002360 -0.000307 -0.000902 0.000000 0.021056 0.000000
# 6 0.000000 0.000000 0.000000 -0.008313 0.000000 0.021416
#
#
# Mechanical properties :
#
#
# Convention : Reuss Voigt Hill
#
# Bulk Modulus (GPa) = 64.03770 70.82894 67.43332
# Shear Modulus (GPa) = 38.04210 48.40992 43.22601
#
# Velocity S-wave (km/s) = 3.80002 4.28668 4.05066
# Velocity P-wave (km/s) = 6.60009 7.16842 6.89012
#
# Compressibility (1/GPa) = 0.01561580
#
# Stress axis : x y z
#
# Youngs Moduli (GPa) = 129.49710 145.85964 56.74878
#
# Poissons Ratio (x) = -0.14099 0.32701
# Poissons Ratio (y) = -0.12518 0.19840
# Poissons Ratio (z) = 0.74622 0.50994
#
# Static dielectric constant tensor:
#      x y z
#    x 1.934060 0.000000 0.063050 
#    y 0.000000 1.980260 0.000000 
#    z 0.063050 0.000000 2.294690 
# 
# From -- ./inp_files/7899.got.cif
#   From: 2010.05.17/outbox.cif.g08.bks.cpg/sg5_4_cif.got.tgz:7899.got - 2010.06.03 18:56:24.
