data_PCOD9130313
_publ_section_title
;
Structure prediction by ZEFSAII (Michael W. Deem and Ramdas Pophale) SiO2 
 PCOD9130313
Probable space group: C 2
;
_chemical_formula_sum "Si O2"
_cell_formula_units_Z 14
_cell_length_a 19.594645
_cell_length_b 5.065797
_cell_length_c 13.804261
_cell_angle_alpha 90.000000
_cell_angle_beta 24.928539
_cell_angle_gamma 90.000000
_cell_volume 577.541378
_symmetry_space_group_name_H-M "C 2"
_symmetry_group_IT_number 5
_symmetry_cell_setting 'monoclinic'
loop_
_space_group_symop_operation_xyz
x,y,z
-x,y,-z
1/2+x,1/2+y,z
1/2-x,1/2+y,-z
loop_
_atom_site_type_symbol
_atom_site_label
_atom_site_fract_x
_atom_site_fract_y
_atom_site_fract_z
Si Si1 0.000000 0.088431 0.500000
Si Si2 0.692623 0.730102 0.849842
Si Si3 0.207827 0.393092 0.112910
Si Si4 0.672693 0.789171 0.648548
O O1 0.034702 0.272771 0.363067
O O2 0.155618 0.909161 0.316188
O O3 0.711648 0.464102 0.888003
O O4 0.698199 0.702880 0.727430
O O5 0.519993 0.844024 0.106607
O O6 0.201873 0.663457 0.061275
O O7 0.728003 0.548586 0.509069
#
# Coordination Sequence:
#
# PCOD9130313 Si02
#       4
#     2   4   4   4
#     4  12  28  48  80 118 160 196 254 328 378 464
#     4  11  29  51  78 116 154 198 266 310 384 463
#     4  12  28  46  75 118 157 201 246 317 391 452
#     4  11  30  51  80 107 154 210 256 315 379 452
#
# _framework density 24.240687999999999
#
# number of rings (size 3 to 8) (size 9 to 14) (size 15 to 20)
#    0.000    0.571    2.857    0.857   12.000    4.571 
#    0.000    0.000    0.000    0.000    0.000    0.000 
#    0.000    0.000    0.000    0.000    0.000    0.000 
#
# Total GULP energy -39216.485871 kJ/mol
# GULP energy per Si atom -5602.355124 kJ/mol
# Density = 2.418552 g / cm^3
# Si number density = 24.240688 Si / 1000 Ang^3
#
#
#
# Elastic Constant Matrix: (Units=GPa)
#
#
# Indices 1 2 3 4 5 6 
#
# 1 112.3565 59.4546 77.2377 -0.0033 10.5481 0.0060
# 2 59.4546 148.2962 67.4917 -0.0454 9.3057 0.0072
# 3 77.2377 67.4917 175.8577 -0.0363 7.4001 -0.0048
# 4 -0.0033 -0.0454 -0.0363 28.1706 0.0072 -6.1384
# 5 10.5481 9.3057 7.4001 0.0072 39.6004 0.0039
# 6 0.0060 0.0072 -0.0048 -6.1384 0.0039 17.9347
#
#
#
# Elastic Compliance Matrix: (Units=1/GPa)
#
#
# Indices 1 2 3 4 5 6 
#
# 1 0.014219 -0.003353 -0.004870 -0.000011 -0.002089 -0.000008
# 2 -0.003353 0.009033 -0.001958 0.000012 -0.000864 0.000001
# 3 -0.004870 -0.001958 0.008570 0.000009 0.000156 0.000008
# 4 -0.000011 0.000012 0.000009 0.038359 -0.000010 0.013129
# 5 -0.002089 -0.000864 0.000156 -0.000010 0.025983 -0.000008
# 6 -0.000008 0.000001 0.000008 0.013129 -0.000008 0.060251
#
#
# Mechanical properties :
#
#
# Convention : Reuss Voigt Hill
#
# Bulk Modulus (GPa) = 87.26020 93.87537 90.56779
# Shear Modulus (GPa) = 27.68619 32.62957 30.15788
#
# Velocity S-wave (km/s) = 3.38322 3.67286 3.53101
# Velocity P-wave (km/s) = 7.16499 7.53637 7.35303
#
# Compressibility (1/GPa) = 0.01145998
#
# Stress axis : x y z
#
# Youngs Moduli (GPa) = 70.33087 110.70957 116.68370
#
# Poissons Ratio (x) = 0.37120 0.56827
# Poissons Ratio (y) = 0.23581 0.22843
# Poissons Ratio (z) = 0.34252 0.21673
#
# Static dielectric constant tensor:
#      x y z
#    x 1.995030 -0.000010 0.031190 
#    y -0.000010 1.925900 -0.000010 
#    z 0.031190 -0.000010 1.996140 
# 
# From -- ./inp_files/17762.got.cif
#   From: 2010.05.17/outbox.cif.g08.bks.cpg/sg5_9_cif.got.tgz:17762.got - 2010.06.03 18:56:24.
