data_PCOD9130858
_publ_section_title
;
Structure prediction by ZEFSAII (Michael W. Deem and Ramdas Pophale) SiO2 
 PCOD9130858
Probable space group: P M
;
_chemical_formula_sum "Si O2"
_cell_formula_units_Z 16
_cell_length_a 10.582937
_cell_length_b 8.022767
_cell_length_c 12.622703
_cell_angle_alpha 90.000000
_cell_angle_beta 52.412847
_cell_angle_gamma 90.000000
_cell_volume 849.262029
_symmetry_space_group_name_H-M "P M"
_symmetry_group_IT_number 6
_symmetry_cell_setting 'monoclinic'
loop_
_space_group_symop_operation_xyz
x,y,z
x,-y,z
loop_
_atom_site_type_symbol
_atom_site_label
_atom_site_fract_x
_atom_site_fract_y
_atom_site_fract_z
Si Si1 0.440960 0.701240 0.716100
Si Si2 0.959067 0.197495 0.695340
Si Si3 0.279677 0.202349 0.429087
Si Si4 0.081558 0.304453 0.859044
Si Si5 0.500985 0.796709 0.132698
Si Si6 0.600898 0.201294 0.853323
Si Si7 0.793626 0.803134 0.133023
Si Si8 0.572626 0.698754 0.429013
O O1 0.437699 0.500000 0.714004
O O2 0.258873 0.760118 0.792555
O O3 0.511800 0.752368 0.791955
O O4 0.547434 0.759104 0.561884
O O5 0.105822 0.265501 0.550868
O O6 0.005540 0.220743 0.794287
O O7 0.783257 0.265506 0.762284
O O8 0.951718 0.000000 0.678192
O O9 0.349051 0.256200 0.279882
O O10 0.410531 0.257335 0.448514
O O11 0.277667 0.000000 0.431790
O O12 0.094256 0.500000 0.828281
O O13 0.960323 0.279521 0.018139
O O14 0.658231 0.744472 0.118391
O O15 0.501574 0.000000 0.132891
O O16 0.514496 0.739837 0.005207
O O17 0.606736 0.000000 0.856667
O O18 0.718430 0.771148 0.286573
O O19 0.813095 0.000000 0.108231
O O20 0.590354 0.500000 0.420432
#
# Coordination Sequence:
#
# PCOD9130858 Si02
#       8
#     2   2   2   2   2   2   2   2
#     4  10  23  39  53  76 114 151 184 223 269 326
#     4  10  19  33  54  82 110 138 181 234 276 317
#     4   9  17  30  53  80 107 138 175 224 277 321
#     4  11  21  35  55  81 111 145 184 227 274 326
#     4   8  15  30  50  76 107 135 167 218 272 316
#     4  10  20  35  54  76 108 147 185 224 271 326
#     4  10  19  34  56  83 111 137 178 231 278 323
#     4  10  19  34  53  78 112 145 180 223 273 325
#
# _framework density 18.839887000000001
#
# number of rings (size 3 to 8) (size 9 to 14) (size 15 to 20)
#    0.000    2.250    2.500    1.875    0.000    2.500 
#    0.000    1.875    0.000    1.500    0.000    0.000 
#    0.000    0.000    0.000    0.000    0.000    0.000 
#
# Total GULP energy -89256.039786 kJ/mol
# GULP energy per Si atom -5578.502487 kJ/mol
# Density = 1.879701 g / cm^3
# Si number density = 18.839887 Si / 1000 Ang^3
#
#
#
# Elastic Constant Matrix: (Units=GPa)
#
#
# Indices 1 2 3 4 5 6 
#
# 1 77.2273 -6.7377 50.1323 0.0000 5.5591 0.0000
# 2 -6.7377 11.3383 -5.2698 0.0000 -0.7318 0.0000
# 3 50.1323 -5.2698 152.2296 0.0000 6.1119 0.0000
# 4 0.0000 0.0000 0.0000 24.6653 0.0000 7.6761
# 5 5.5591 -0.7318 6.1119 0.0000 28.4189 0.0000
# 6 0.0000 0.0000 0.0000 7.6761 0.0000 23.9342
#
#
#
# Elastic Compliance Matrix: (Units=1/GPa)
#
#
# Indices 1 2 3 4 5 6 
#
# 1 0.017216 0.007625 -0.005324 0.000000 -0.002026 0.000000
# 2 0.007625 0.093094 0.000681 0.000000 0.000759 0.000000
# 3 -0.005324 0.000681 0.008376 0.000000 -0.000742 0.000000
# 4 0.000000 0.000000 0.000000 0.045038 0.000000 -0.014444
# 5 -0.002026 0.000759 -0.000742 0.000000 0.035763 0.000000
# 6 0.000000 0.000000 0.000000 -0.014444 0.000000 0.046414
#
#
# Mechanical properties :
#
#
# Convention : Reuss Voigt Hill
#
# Bulk Modulus (GPa) = 8.02248 35.22718 21.62483
# Shear Modulus (GPa) = 17.76280 28.91502 23.33891
#
# Velocity S-wave (km/s) = 3.07388 3.92187 3.52348
# Velocity P-wave (km/s) = 4.10680 6.26473 5.29683
#
# Compressibility (1/GPa) = 0.12464976
#
# Stress axis : x y z
#
# Youngs Moduli (GPa) = 58.08474 10.74185 119.39135
#
# Poissons Ratio (x) = -0.08191 0.63568
# Poissons Ratio (y) = -0.44291 -0.08131
# Poissons Ratio (z) = 0.30926 -0.00732
#
# Static dielectric constant tensor:
#      x y z
#    x 1.614060 0.000000 -0.016470 
#    y 0.000000 1.666690 0.000000 
#    z -0.016470 0.000000 1.688380 
# 
# From -- ./inp_files/3508.got.cif
#   From: 2010.05.17/outbox.cif.g08.bks.cpg/sg6_2_cif.got.tgz:3508.got - 2010.06.03 19:42:10.
