data_PCOD9130747
_publ_section_title
;
Structure prediction by ZEFSAII (Michael W. Deem and Ramdas Pophale) SiO2 
 PCOD9130747
Probable space group: C 2
;
_chemical_formula_sum "Si O2"
_cell_formula_units_Z 14
_cell_length_a 15.000000
_cell_length_b 12.000000
_cell_length_c 9.000000
_cell_angle_alpha 90.000000
_cell_angle_beta 120.000000
_cell_angle_gamma 90.000000
_cell_volume 1402.961154
_symmetry_space_group_name_H-M "C 2"
_symmetry_group_IT_number 5
_symmetry_cell_setting 'monoclinic'
loop_
_space_group_symop_operation_xyz
x,y,z
-x,y,-z
1/2+x,1/2+y,z
1/2-x,1/2+y,-z
loop_
_atom_site_type_symbol
_atom_site_label
_atom_site_fract_x
_atom_site_fract_y
_atom_site_fract_z
Si Si1 0.422331 0.037970 0.563467
Si Si2 0.375143 0.568340 0.884238
Si Si3 0.056283 0.697358 0.889609
Si Si4 0.734339 0.230619 0.604301
Si Si5 0.267773 0.853206 0.333559
Si Si6 0.294508 0.640615 0.138752
Si Si7 0.894493 0.896864 0.312032
O O1 0.500000 0.006522 0.500000
O O2 0.487156 0.100830 0.748683
O O3 0.351238 0.136538 0.442879
O O4 0.348641 0.928320 0.500366
O O5 0.338851 0.660989 0.730141
O O6 0.311992 0.449316 0.800335
O O7 0.500000 0.551127 0.000000
O O8 0.337239 0.628563 0.005355
O O9 0.075028 0.810459 0.801494
O O10 0.169370 0.644192 0.018692
O O11 0.000000 0.725256 0.000000
O O12 0.723350 0.273266 0.425791
O O13 0.697509 0.331332 0.679239
O O14 0.310121 0.760163 0.245435
O O15 0.347912 0.523996 0.247168
O O16 0.000000 0.904261 0.500000
#
# Coordination Sequence:
#
# PCOD9130747 Si02
#       7
#     4   4   4   4   4   4   4
#     4  11  22  47  73  99 138 194 238 294 359 440
#     4  11  27  50  75 106 151 195 242 312 376 427
#     4  12  24  47  76 110 144 191 252 303 372 436
#     4  11  23  47  72 104 143 189 248 296 356 445
#     4  11  28  46  74 103 150 191 247 297 364 447
#     4  12  28  46  70 114 149 184 247 310 366 427
#     4  12  26  47  76 103 148 201 243 299 366 451
#
# _framework density 9.9788940000000004
#
# number of rings (size 3 to 8) (size 9 to 14) (size 15 to 20)
#    0.000    0.571    4.286    2.571    8.000    4.000 
#    2.571    0.000    0.000    0.000    0.000    0.000 
#    0.000    0.000    0.000    0.000    0.000    0.000 
#
# Total GULP energy -77937.167518 kJ/mol
# GULP energy per Si atom -5566.940537 kJ/mol
# Density = 0.995618 g / cm^3
# Si number density = 9.978894 Si / 1000 Ang^3
#
#
#
# Elastic Constant Matrix: (Units=GPa)
#
#
# Indices 1 2 3 4 5 6 
#
# 1 102.6319 25.9261 35.1174 0.0000 2.8151 0.0000
# 2 25.9261 147.3130 50.6463 0.0000 10.1160 0.0000
# 3 35.1174 50.6463 114.3568 0.0000 12.0667 0.0000
# 4 0.0000 0.0000 0.0000 52.3728 0.0000 5.3067
# 5 2.8151 10.1160 12.0667 0.0000 52.3398 0.0000
# 6 0.0000 0.0000 0.0000 5.3067 0.0000 32.4651
#
#
#
# Elastic Compliance Matrix: (Units=1/GPa)
#
#
# Indices 1 2 3 4 5 6 
#
# 1 0.010995 -0.000924 -0.002996 0.000000 0.000278 0.000000
# 2 -0.000924 0.008114 -0.003228 0.000000 -0.000774 0.000000
# 3 -0.002996 -0.003228 0.011286 0.000000 -0.001817 0.000000
# 4 0.000000 0.000000 0.000000 0.019415 0.000000 -0.003174
# 5 0.000278 -0.000774 -0.001817 0.000000 0.019659 0.000000
# 6 0.000000 0.000000 0.000000 -0.003174 0.000000 0.031321
#
#
# Mechanical properties :
#
#
# Convention : Reuss Voigt Hill
#
# Bulk Modulus (GPa) = 62.12044 65.29793 63.70919
# Shear Modulus (GPa) = 41.50988 44.27633 42.89310
#
# Velocity S-wave (km/s) = 4.56552 4.71520 4.64097
# Velocity P-wave (km/s) = 7.68020 7.90147 7.79162
#
# Compressibility (1/GPa) = 0.01609776
#
# Stress axis : x y z
#
# Youngs Moduli (GPa) = 90.95363 123.24623 88.60470
#
# Poissons Ratio (x) = 0.11387 0.26550
# Poissons Ratio (y) = 0.08403 0.28602
# Poissons Ratio (z) = 0.27254 0.39784
#
# Static dielectric constant tensor:
#      x y z
#    x 1.753500 0.000000 0.011210 
#    y 0.000000 1.713030 0.000000 
#    z 0.011210 0.000000 1.788730 
# 
# From -- ./inp_files/23946.got.cif
#   From: 2010.05.17/outbox.ucp.g08.bks.cvg/sg5_12_cif.got.tgz:23946.got - 2010.06.11 12:53:14.
