data_PCOD9130677
_publ_section_title
;
Structure prediction by ZEFSAII (Michael W. Deem and Ramdas Pophale) SiO2 
 PCOD9130677
Probable space group: C 2
;
_chemical_formula_sum "Si O2"
_cell_formula_units_Z 14
_cell_length_a 9.000000
_cell_length_b 12.000000
_cell_length_c 15.000000
_cell_angle_alpha 90.000000
_cell_angle_beta 60.000000
_cell_angle_gamma 90.000000
_cell_volume 1402.961154
_symmetry_space_group_name_H-M "C 2"
_symmetry_group_IT_number 5
_symmetry_cell_setting 'monoclinic'
loop_
_space_group_symop_operation_xyz
x,y,z
-x,y,-z
1/2+x,1/2+y,z
1/2-x,1/2+y,-z
loop_
_atom_site_type_symbol
_atom_site_label
_atom_site_fract_x
_atom_site_fract_y
_atom_site_fract_z
Si Si1 0.520340 0.233280 0.400900
Si Si2 0.708891 0.468209 0.371070
Si Si3 0.348478 0.675143 0.484153
Si Si4 0.062215 0.119904 0.255725
Si Si5 0.558305 0.479353 0.880661
Si Si6 0.565846 0.061734 0.233462
Si Si7 0.428436 0.221468 0.120567
O O1 0.500000 0.166921 0.500000
O O2 0.623493 0.346409 0.390642
O O3 0.318034 0.247899 0.441544
O O4 0.589097 0.154710 0.303528
O O5 0.676877 0.548731 0.467392
O O6 0.635459 0.532043 0.306349
O O7 0.913088 0.475910 0.300747
O O8 0.500000 0.721617 0.500000
O O9 0.407857 0.672150 0.362822
O O10 0.222544 0.201935 0.188199
O O11 0.010490 0.058236 0.179121
O O12 0.760658 0.495711 0.825624
O O13 0.522514 0.349099 0.870894
O O14 0.500000 0.505247 0.000000
O O15 0.513250 0.133302 0.162616
O O16 0.500000 0.200522 0.000000
#
# Coordination Sequence:
#
# PCOD9130677 Si02
#       7
#     4   4   4   4   4   4   4
#     4  11  20  34  58  85 116 152 187 226 277 336
#     4   9  20  37  58  84 117 153 187 226 276 338
#     4   9  19  35  55  83 117 149 186 230 276 333
#     4  10  19  37  60  82 114 150 186 233 284 332
#     4  11  23  38  59  86 112 144 191 240 284 332
#     4  10  22  39  58  84 115 148 189 233 279 335
#     4  10  22  40  59  80 111 150 189 234 286 334
#
# _framework density 9.9788940000000004
#
# number of rings (size 3 to 8) (size 9 to 14) (size 15 to 20)
#    0.000    2.000    0.000    4.714    0.000    2.286 
#    0.000    0.000    0.000   16.286    0.000    0.000 
#    0.000    0.000    0.000    0.000    0.000    0.000 
#
# Total GULP energy -78048.907430 kJ/mol
# GULP energy per Si atom -5574.921959 kJ/mol
# Density = 0.995618 g / cm^3
# Si number density = 9.978894 Si / 1000 Ang^3
#
#
#
# Elastic Constant Matrix: (Units=GPa)
#
#
# Indices 1 2 3 4 5 6 
#
# 1 71.3449 18.1095 22.7440 0.0000 -3.4459 0.0000
# 2 18.1095 65.2725 25.7962 0.0000 4.8242 0.0000
# 3 22.7440 25.7962 124.2720 0.0000 2.7306 0.0000
# 4 0.0000 0.0000 0.0000 16.8091 0.0000 -3.6229
# 5 -3.4459 4.8242 2.7306 0.0000 37.5128 0.0000
# 6 0.0000 0.0000 0.0000 -3.6229 0.0000 34.8613
#
#
#
# Elastic Compliance Matrix: (Units=1/GPa)
#
#
# Indices 1 2 3 4 5 6 
#
# 1 0.015737 -0.003664 -0.002165 0.000000 0.002074 0.000000
# 2 -0.003664 0.017678 -0.002946 0.000000 -0.002396 0.000000
# 3 -0.002165 -0.002946 0.009065 0.000000 -0.000480 0.000000
# 4 0.000000 0.000000 0.000000 0.060855 0.000000 0.006324
# 5 0.002074 -0.002396 -0.000480 0.000000 0.027191 0.000000
# 6 0.000000 0.000000 0.000000 0.006324 0.000000 0.029342
#
#
# Mechanical properties :
#
#
# Convention : Reuss Voigt Hill
#
# Bulk Modulus (GPa) = 40.11277 43.79877 41.95577
# Shear Modulus (GPa) = 26.92090 30.78596 28.85343
#
# Velocity S-wave (km/s) = 3.67671 3.93180 3.80639
# Velocity P-wave (km/s) = 6.17792 6.52728 6.35500
#
# Compressibility (1/GPa) = 0.02492972
#
# Stress axis : x y z
#
# Youngs Moduli (GPa) = 63.54525 56.56622 110.31072
#
# Poissons Ratio (x) = 0.20724 0.23884
# Poissons Ratio (y) = 0.23281 0.32503
# Poissons Ratio (z) = 0.13759 0.16667
#
# Static dielectric constant tensor:
#      x y z
#    x 1.805700 0.000000 -0.032760 
#    y 0.000000 1.698180 0.000000 
#    z -0.032760 0.000000 1.733430 
# 
# From -- ./inp_files/50418.got.cif
#   From: 2010.05.17/outbox.ucp.g08.bks.cvg/sg5_26_cif.got.tgz:50418.got - 2010.06.11 12:53:14.
