data_PCOD9130113
_publ_section_title
;
Structure prediction by ZEFSAII (Michael W. Deem and Ramdas Pophale) SiO2 
 PCOD9130113
Probable space group: C 2
;
_chemical_formula_sum "Si O2"
_cell_formula_units_Z 20
_cell_length_a 10.383228
_cell_length_b 8.204520
_cell_length_c 12.377353
_cell_angle_alpha 90.000000
_cell_angle_beta 39.966589
_cell_angle_gamma 90.000000
_cell_volume 677.296530
_symmetry_space_group_name_H-M "C 2"
_symmetry_group_IT_number 5
_symmetry_cell_setting 'monoclinic'
loop_
_space_group_symop_operation_xyz
x,y,z
-x,y,-z
1/2+x,1/2+y,z
1/2-x,1/2+y,-z
loop_
_atom_site_type_symbol
_atom_site_label
_atom_site_fract_x
_atom_site_fract_y
_atom_site_fract_z
Si Si1 0.757706 0.790190 0.133177
Si Si2 0.713691 0.368756 0.306175
Si Si3 0.714945 0.053803 0.425058
Si Si4 0.789576 0.159204 0.072326
Si Si5 0.234740 0.686644 0.655000
O O1 0.722091 0.694663 0.046115
O O2 0.633327 0.728316 0.318571
O O3 0.000000 0.787787 0.000000
O O4 0.708544 0.979550 0.148088
O O5 0.500000 0.413513 0.500000
O O6 0.853914 0.525338 0.224623
O O7 0.801652 0.217097 0.315303
O O8 0.677417 0.302279 0.209912
O O9 0.500000 0.050252 0.500000
O O10 0.811516 0.877799 0.339467
O O11 0.726526 0.101620 0.542782
O O12 0.000000 0.164153 0.000000
#
# Coordination Sequence:
#
# PCOD9130113 Si02
#       5
#     4   4   4   4   4
#     4  11  27  46  78 108 151 203 261 310 380 459
#     4  11  25  46  77 108 150 194 253 313 375 449
#     4  11  25  43  68 102 146 189 241 305 374 438
#     4  11  26  52  75 112 154 202 253 316 382 462
#     4  12  24  47  71 108 146 198 246 314 376 448
#
# _framework density 29.529161999999999
#
# number of rings (size 3 to 8) (size 9 to 14) (size 15 to 20)
#    0.000    0.800    4.000    1.800    5.600    4.800 
#    3.600    0.000    0.000    0.000    0.000    0.000 
#    0.000    0.000    0.000    0.000    0.000    0.000 
#
# Total GULP energy -55784.387277 kJ/mol
# GULP energy per Si atom -5578.438728 kJ/mol
# Density = 2.946195 g / cm^3
# Si number density = 29.529162 Si / 1000 Ang^3
#
#
#
# Elastic Constant Matrix: (Units=GPa)
#
#
# Indices 1 2 3 4 5 6 
#
# 1 221.6836 62.5968 69.9799 -0.0002 28.0296 0.0001
# 2 62.5968 298.0918 52.9904 0.0000 36.4461 0.0000
# 3 69.9799 52.9904 121.5862 -0.0002 67.7192 0.0003
# 4 -0.0002 0.0000 -0.0002 55.1255 0.0002 34.1707
# 5 28.0296 36.4461 67.7192 0.0002 93.1670 -0.0002
# 6 0.0001 0.0000 0.0003 34.1707 -0.0002 37.7823
#
#
#
# Elastic Compliance Matrix: (Units=1/GPa)
#
#
# Indices 1 2 3 4 5 6 
#
# 1 0.005709 -0.000697 -0.003658 0.000000 0.001214 0.000000
# 2 -0.000697 0.003733 -0.000889 0.000000 -0.000604 0.000000
# 3 -0.003658 -0.000889 0.016653 0.000000 -0.010656 -0.000001
# 4 0.000000 0.000000 0.000000 0.041286 0.000000 -0.037340
# 5 0.001214 -0.000604 -0.010656 0.000000 0.018350 0.000001
# 6 0.000000 0.000000 -0.000001 -0.037340 0.000001 0.060238
#
#
# Mechanical properties :
#
#
# Convention : Reuss Voigt Hill
#
# Bulk Modulus (GPa) = 64.08038 112.49955 88.28997
# Shear Modulus (GPa) = 30.92924 67.60126 49.26525
#
# Velocity S-wave (km/s) = 3.23989 4.78986 4.08899
# Velocity P-wave (km/s) = 5.97860 8.29282 7.22892
#
# Compressibility (1/GPa) = 0.01560540
#
# Stress axis : x y z
#
# Youngs Moduli (GPa) = 175.15938 267.88214 60.05088
#
# Poissons Ratio (x) = 0.18671 0.21969
# Poissons Ratio (y) = 0.12208 0.05340
# Poissons Ratio (z) = 0.64081 0.23820
#
# Static dielectric constant tensor:
#      x y z
#    x 2.377120 0.000000 -0.264240 
#    y 0.000000 2.252280 0.000000 
#    z -0.264240 0.000000 2.704900 
# 
# From -- ./inp_files/38228.got.cif
#   From: 2010.05.17/outbox.cif.g08.bks.cpg/sg5_20_cif.got.tgz:38228.got - 2010.06.03 18:56:24.
