data_PCOD9130839
_publ_section_title
;
Structure prediction by ZEFSAII (Michael W. Deem and Ramdas Pophale) SiO2 
 PCOD9130839
Probable space group: P M
;
_chemical_formula_sum "Si O2"
_cell_formula_units_Z 16
_cell_length_a 12.571499
_cell_length_b 8.940035
_cell_length_c 10.548003
_cell_angle_alpha 90.000000
_cell_angle_beta 127.786649
_cell_angle_gamma 90.000000
_cell_volume 936.887204
_symmetry_space_group_name_H-M "P M"
_symmetry_group_IT_number 6
_symmetry_cell_setting 'monoclinic'
loop_
_space_group_symop_operation_xyz
x,y,z
x,-y,z
loop_
_atom_site_type_symbol
_atom_site_label
_atom_site_fract_x
_atom_site_fract_y
_atom_site_fract_z
Si Si1 0.400600 0.178863 0.644290
Si Si2 0.119512 0.678968 0.435719
Si Si3 0.666909 0.321211 0.239720
Si Si4 0.813637 0.819729 0.587908
Si Si5 0.692486 0.819278 0.768722
Si Si6 0.839255 0.319967 0.116164
Si Si7 0.402400 0.821598 0.946612
Si Si8 0.101856 0.179846 0.700338
O O1 0.264159 0.257875 0.500921
O O2 0.536356 0.225112 0.672275
O O3 0.418989 0.210473 0.808132
O O4 0.383452 0.000000 0.620051
O O5 0.124331 0.500000 0.446689
O O6 0.091362 0.743700 0.555448
O O7 0.994249 0.721892 0.255559
O O8 0.670599 0.500000 0.251792
O O9 0.733234 0.250340 0.412209
O O10 0.753429 0.276854 0.178337
O O11 0.515794 0.264249 0.106420
O O12 0.753304 0.772114 0.678531
O O13 0.971303 0.781127 0.686760
O O14 0.802733 0.000000 0.572050
O O15 0.697020 0.000000 0.779099
O O16 0.776609 0.754178 0.946832
O O17 0.831435 0.500000 0.098907
O O18 0.247693 0.781074 0.864270
O O19 0.419915 0.000000 0.976790
O O20 0.103502 0.000000 0.681849
#
# Coordination Sequence:
#
# PCOD9130839 Si02
#       8
#     2   2   2   2   2   2   2   2
#     4   9  18  33  52  78 108 137 173 218 266 313
#     4  10  19  32  52  79 108 137 174 219 263 312
#     4  11  21  34  53  80 109 139 179 221 262 315
#     4  10  21  37  57  80 107 142 179 219 267 317
#     4  10  21  37  57  80 107 141 181 219 264 319
#     4  10  21  35  52  79 110 139 177 221 264 312
#     4   9  17  31  52  78 106 136 171 221 269 309
#     4   9  18  33  53  78 107 137 174 218 267 313
#
# _framework density 17.077829999999999
#
# number of rings (size 3 to 8) (size 9 to 14) (size 15 to 20)
#    0.000    2.250    2.500    1.500    0.000    4.500 
#    0.000    1.250    0.000    6.000    0.000    0.000 
#    0.000    0.000    0.000    0.000    0.000    0.000 
#
# Total GULP energy -89257.218072 kJ/mol
# GULP energy per Si atom -5578.576129 kJ/mol
# Density = 1.703896 g / cm^3
# Si number density = 17.077830 Si / 1000 Ang^3
#
#
#
# Elastic Constant Matrix: (Units=GPa)
#
#
# Indices 1 2 3 4 5 6 
#
# 1 172.3704 43.0994 96.6349 0.0000 17.1969 0.0000
# 2 43.0994 17.3985 36.4348 0.0000 5.1644 0.0000
# 3 96.6349 36.4348 122.0940 0.0000 11.5764 0.0000
# 4 0.0000 0.0000 0.0000 -759.0835 0.0000 -346.4028
# 5 17.1969 5.1644 11.5764 0.0000 30.6521 0.0000
# 6 0.0000 0.0000 0.0000 -346.4028 0.0000 -138.6258
#
#
#
# Elastic Compliance Matrix: (Units=1/GPa)
#
#
# Indices 1 2 3 4 5 6 
#
# 1 0.015605 -0.033500 -0.002135 0.000000 -0.002304 0.000000
# 2 -0.033500 0.227514 -0.040994 0.000000 -0.004055 0.000000
# 3 -0.002135 -0.040994 0.022138 0.000000 -0.000256 0.000000
# 4 0.000000 0.000000 0.000000 0.009388 0.000000 -0.023459
# 5 -0.002304 -0.004055 -0.000256 0.000000 0.034697 0.000000
# 6 0.000000 0.000000 0.000000 -0.023459 0.000000 0.051406
#
#
# Mechanical properties :
#
#
# Convention : Reuss Voigt Hill
#
# Bulk Modulus (GPa) = 8.92885 73.80013 41.36449
# Shear Modulus (GPa) = 9.06881 -164.36517 -77.64818
#
# Velocity S-wave (km/s) = 2.30690 -9.82108 -6.75026
# Velocity P-wave (km/s) = 3.51218 9.23564 6.03994
#
# Compressibility (1/GPa) = 0.11199644
#
# Stress axis : x y z
#
# Youngs Moduli (GPa) = 64.08214 4.39534 45.17079
#
# Poissons Ratio (x) = 0.14725 0.09646
# Poissons Ratio (y) = 2.14678 1.85174
# Poissons Ratio (z) = 0.13685 0.18018
#
# Static dielectric constant tensor:
#      x y z
#    x 1.595350 0.000000 0.016450 
#    y 0.000000 1.600790 0.000000 
#    z 0.016450 0.000000 1.540880 
# 
# From -- ./inp_files/3503.got.cif
#   From: 2010.05.17/outbox.cif.g08.bks.cpg/sg6_2_cif.got.tgz:3503.got - 2010.06.03 19:42:10.
