data_PCOD9130465
_publ_section_title
;
Structure prediction by ZEFSAII (Michael W. Deem and Ramdas Pophale) SiO2 
 PCOD9130465
Probable space group: C 2
;
_chemical_formula_sum "Si O2"
_cell_formula_units_Z 20
_cell_length_a 17.633365
_cell_length_b 9.392375
_cell_length_c 5.332197
_cell_angle_alpha 90.000000
_cell_angle_beta 107.603206
_cell_angle_gamma 90.000000
_cell_volume 841.761153
_symmetry_space_group_name_H-M "C 2"
_symmetry_group_IT_number 5
_symmetry_cell_setting 'monoclinic'
loop_
_space_group_symop_operation_xyz
x,y,z
-x,y,-z
1/2+x,1/2+y,z
1/2-x,1/2+y,-z
loop_
_atom_site_type_symbol
_atom_site_label
_atom_site_fract_x
_atom_site_fract_y
_atom_site_fract_z
Si Si1 0.426059 0.068800 0.560320
Si Si2 0.312985 0.271057 0.680156
Si Si3 0.073935 0.275949 0.208221
Si Si4 0.802435 0.422361 0.052411
Si Si5 0.812977 0.073709 0.445885
O O1 0.500000 0.143295 0.500000
O O2 0.388923 0.168641 0.739832
O O3 0.457634 0.922375 0.707622
O O4 0.359671 0.011841 0.295905
O O5 0.257884 0.319742 0.856946
O O6 0.250001 0.172405 0.466484
O O7 0.334982 0.422400 0.585085
O O8 0.111079 0.176114 0.462009
O O9 0.140315 0.332901 0.076562
O O10 0.000000 0.201449 0.000000
O O11 0.742121 0.524967 0.841081
#
# Coordination Sequence:
#
# PCOD9130465 Si02
#       5
#     4   4   4   4   4
#     4  12  26  47  76 119 154 203 256 319 403 463
#     4  12  25  44  74 114 149 203 267 310 382 468
#     4  12  26  47  76 119 154 203 256 319 403 463
#     4  12  24  44  82 104 158 200 258 332 364 468
#     4  12  25  44  74 114 149 203 267 310 382 468
#
# _framework density 23.759710999999999
#
# number of rings (size 3 to 8) (size 9 to 14) (size 15 to 20)
#    0.000    0.000   10.000    0.000    5.600    0.000 
#    0.000    6.000    0.000    0.000    0.000    0.000 
#    0.000    0.000    0.000    0.000    0.000    0.000 
#
# Total GULP energy -55726.584418 kJ/mol
# GULP energy per Si atom -5572.658442 kJ/mol
# Density = 2.370563 g / cm^3
# Si number density = 23.759711 Si / 1000 Ang^3
#
#
#
# Elastic Constant Matrix: (Units=GPa)
#
#
# Indices 1 2 3 4 5 6 
#
# 1 114.4328 36.3744 45.8605 0.0000 -6.0634 0.0000
# 2 36.3744 130.3120 16.2968 0.0000 5.5125 0.0000
# 3 45.8605 16.2968 94.7159 0.0000 11.4956 0.0000
# 4 0.0000 0.0000 0.0000 35.5864 0.0000 -2.6639
# 5 -6.0634 5.5125 11.4956 0.0000 40.3711 0.0000
# 6 0.0000 0.0000 0.0000 -2.6639 0.0000 25.9665
#
#
#
# Elastic Compliance Matrix: (Units=1/GPa)
#
#
# Indices 1 2 3 4 5 6 
#
# 1 0.012210 -0.002836 -0.005898 0.000000 0.003900 0.000000
# 2 -0.002836 0.008521 0.000103 0.000000 -0.001619 0.000000
# 3 -0.005898 0.000103 0.013988 0.000000 -0.004883 0.000000
# 4 0.000000 0.000000 0.000000 0.028318 0.000000 0.002905
# 5 0.003900 -0.001619 -0.004883 0.000000 0.026968 0.000000
# 6 0.000000 0.000000 0.000000 0.002905 0.000000 0.038809
#
#
# Mechanical properties :
#
#
# Convention : Reuss Voigt Hill
#
# Bulk Modulus (GPa) = 57.27459 59.61377 58.44418
# Shear Modulus (GPa) = 32.91762 36.44673 34.68218
#
# Velocity S-wave (km/s) = 3.72619 3.92084 3.82475
# Velocity P-wave (km/s) = 6.53228 6.75589 6.64503
#
# Compressibility (1/GPa) = 0.01745975
#
# Stress axis : x y z
#
# Youngs Moduli (GPa) = 81.89758 117.35713 71.48820
#
# Poissons Ratio (x) = 0.33280 0.42161
# Poissons Ratio (y) = 0.23224 -0.00739
# Poissons Ratio (z) = 0.48300 -0.01214
#
# Static dielectric constant tensor:
#      x y z
#    x 1.942170 0.000000 -0.015690 
#    y 0.000000 1.973330 0.000000 
#    z -0.015690 0.000000 1.998850 
# 
# From -- ./inp_files/8061.got.cif
#   From: 2010.05.17/outbox.cif.g08.bks.cpg/sg5_5_cif.got.tgz:8061.got - 2010.06.03 18:56:24.
