data_PCOD9130859
_publ_section_title
;
Structure prediction by ZEFSAII (Michael W. Deem and Ramdas Pophale) SiO2 
 PCOD9130859
Probable space group: P M
;
_chemical_formula_sum "Si O2"
_cell_formula_units_Z 16
_cell_length_a 21.156087
_cell_length_b 9.247607
_cell_length_c 9.209792
_cell_angle_alpha 90.000000
_cell_angle_beta 149.882021
_cell_angle_gamma 90.000000
_cell_volume 904.127699
_symmetry_space_group_name_H-M "P M"
_symmetry_group_IT_number 6
_symmetry_cell_setting 'monoclinic'
loop_
_space_group_symop_operation_xyz
x,y,z
x,-y,z
loop_
_atom_site_type_symbol
_atom_site_label
_atom_site_fract_x
_atom_site_fract_y
_atom_site_fract_z
Si Si1 0.259800 0.666261 0.693020
Si Si2 0.007415 0.827730 0.168965
Si Si3 0.273514 0.665656 0.367025
Si Si4 0.524026 0.828808 0.871599
Si Si5 0.511914 0.828663 0.193002
Si Si6 0.760712 0.172309 0.871121
Si Si7 0.751004 0.327580 0.158708
Si Si8 0.996304 0.673116 0.838177
O O1 0.251192 0.500000 0.722727
O O2 0.265529 0.667771 0.527575
O O3 0.134536 0.754776 0.482511
O O4 0.389375 0.740425 0.999127
O O5 0.025068 0.000000 0.190436
O O6 0.886680 0.799548 0.029174
O O7 0.983433 0.759075 0.962849
O O8 0.299390 0.500000 0.374216
O O9 0.388001 0.768507 0.552491
O O10 0.132770 0.708829 0.040120
O O11 0.533123 0.000000 0.864726
O O12 0.533617 0.802361 0.064336
O O13 0.634848 0.745610 0.011079
O O14 0.637299 0.792143 0.530714
O O15 0.486902 0.000000 0.159207
O O16 0.756477 0.000000 0.893728
O O17 0.760130 0.261392 0.017285
O O18 0.734108 0.500000 0.120045
O O19 0.879626 0.296988 0.502132
O O20 0.999768 0.500000 0.876380
#
# Coordination Sequence:
#
# PCOD9130859 Si02
#       8
#     2   2   2   2   2   2   2   2
#     4   9  17  30  51  80 110 137 168 210 258 307
#     4  10  19  33  56  82 106 136 173 213 260 311
#     4   8  15  30  51  76 105 133 165 210 258 302
#     4  10  19  33  55  81 106 134 170 212 259 310
#     4   9  18  34  56  80 105 135 173 216 260 306
#     4  10  22  38  53  74 106 140 176 218 259 304
#     4  11  23  37  53  75 105 141 177 214 260 311
#     4   9  19  35  55  80 107 134 170 217 262 307
#
# _framework density 17.696615999999999
#
# number of rings (size 3 to 8) (size 9 to 14) (size 15 to 20)
#    0.000    2.500    0.000    3.000    0.000    7.000 
#    0.000    1.250    0.000    3.000    0.000    0.000 
#    0.000    0.000    0.000    0.000    0.000    0.000 
#
# Total GULP energy -89264.217295 kJ/mol
# GULP energy per Si atom -5579.013581 kJ/mol
# Density = 1.765634 g / cm^3
# Si number density = 17.696616 Si / 1000 Ang^3
#
#
#
# Elastic Constant Matrix: (Units=GPa)
#
#
# Indices 1 2 3 4 5 6 
#
# 1 72.6207 75.5974 102.1914 0.0000 16.2057 0.0000
# 2 75.5974 95.3248 97.1427 0.0000 18.8726 0.0000
# 3 102.1914 97.1427 137.0962 0.0000 45.6650 0.0000
# 4 0.0000 0.0000 0.0000 25.5242 0.0000 4.9798
# 5 16.2057 18.8726 45.6650 0.0000 21.1060 0.0000
# 6 0.0000 0.0000 0.0000 4.9798 0.0000 26.1348
#
#
#
# Elastic Compliance Matrix: (Units=1/GPa)
#
#
# Indices 1 2 3 4 5 6 
#
# 1 0.003738 -0.032311 0.040958 0.000000 -0.062596 0.000000
# 2 -0.032311 0.049405 -0.016008 0.000000 0.015267 0.000000
# 3 0.040958 -0.016008 -0.022145 0.000000 0.030778 0.000000
# 4 0.000000 0.000000 0.000000 0.040691 0.000000 -0.007753
# 5 -0.062596 0.015267 0.030778 0.000000 0.015199 0.000000
# 6 0.000000 0.000000 0.000000 -0.007753 0.000000 0.039740
#
#
# Mechanical properties :
#
#
# Convention : Reuss Voigt Hill
#
# Bulk Modulus (GPa) = 61.43750 94.98941 78.21345
# Shear Modulus (GPa) = 34.06543 16.56037 25.31290
#
# Velocity S-wave (km/s) = 4.39221 3.06239 3.78614
# Velocity P-wave (km/s) = 7.77910 8.14232 7.96278
#
# Compressibility (1/GPa) = 0.01627671
#
# Stress axis : x y z
#
# Youngs Moduli (GPa) = 267.54516 20.24067 -45.15742
#
# Poissons Ratio (x) = 0.65399 1.84957
# Poissons Ratio (y) = 8.64456 -0.72290
# Poissons Ratio (z) = -10.95817 0.32402
#
# Static dielectric constant tensor:
#      x y z
#    x 1.573160 0.000000 0.010040 
#    y 0.000000 1.591690 0.000000 
#    z 0.010040 0.000000 1.602860 
# 
# From -- ./inp_files/4127.got.cif
#   From: 2010.05.17/outbox.cif.g08.bks.cpg/sg6_3_cif.got.tgz:4127.got - 2010.06.03 19:42:10.
