data_PCOD9130240
_publ_section_title
;
Structure prediction by ZEFSAII (Michael W. Deem and Ramdas Pophale) SiO2 
 PCOD9130240
Probable space group: C 2
;
_chemical_formula_sum "Si O2"
_cell_formula_units_Z 24
_cell_length_a 15.217207
_cell_length_b 8.652061
_cell_length_c 8.426730
_cell_angle_alpha 90.000000
_cell_angle_beta 73.935051
_cell_angle_gamma 90.000000
_cell_volume 1066.138849
_symmetry_space_group_name_H-M "C 2"
_symmetry_group_IT_number 5
_symmetry_cell_setting 'monoclinic'
loop_
_space_group_symop_operation_xyz
x,y,z
-x,y,-z
1/2+x,1/2+y,z
1/2-x,1/2+y,-z
loop_
_atom_site_type_symbol
_atom_site_label
_atom_site_fract_x
_atom_site_fract_y
_atom_site_fract_z
Si Si1 0.846622 0.021310 0.883579
Si Si2 0.992630 0.228293 0.243868
Si Si3 0.654871 0.177530 0.977736
Si Si4 0.848303 0.664927 0.403052
Si Si5 0.000000 0.465222 0.000000
Si Si6 0.846791 0.019521 0.501542
Si Si7 0.000000 0.458495 0.500000
O O1 0.750800 0.100386 0.978161
O O2 0.853163 0.022077 0.688920
O O3 0.932991 0.126219 0.884849
O O4 0.852370 0.849650 0.950942
O O5 0.947201 0.350543 0.146006
O O6 0.922784 0.119280 0.371903
O O7 0.040985 0.339838 0.349377
O O8 0.647605 0.172211 0.790083
O O9 0.568770 0.071145 0.065719
O O10 0.751121 0.589967 0.495212
O O11 0.925508 0.564002 0.450722
O O12 0.854713 0.841360 0.452641
#
# Coordination Sequence:
#
# PCOD9130240 Si02
#       7
#     4   4   4   4   2   4   2
#     4  11  26  47  73 104 147 189 240 296 358 433
#     4  12  26  47  74 107 145 192 241 295 362 428
#     4  11  27  48  70 108 145 191 240 293 367 424
#     4  11  27  45  75 105 144 190 242 300 356 425
#     4  12  28  46  72 104 150 192 240 298 358 426
#     4  11  26  46  73 107 142 190 242 296 360 423
#     4  12  24  48  72 106 144 188 244 292 354 430
#
# _framework density 22.511137999999999
#
# number of rings (size 3 to 8) (size 9 to 14) (size 15 to 20)
#    0.000    0.667    3.333    2.000   14.000    1.333 
#    0.000    0.000    0.000    0.000    0.000    0.000 
#    0.000    0.000    0.000    0.000    0.000    0.000 
#
# Total GULP energy -67153.456308 kJ/mol
# GULP energy per Si atom -5596.121359 kJ/mol
# Density = 2.245990 g / cm^3
# Si number density = 22.511138 Si / 1000 Ang^3
#
#
#
# Elastic Constant Matrix: (Units=GPa)
#
#
# Indices 1 2 3 4 5 6 
#
# 1 155.5646 101.9225 47.2900 0.0000 -9.8101 0.0000
# 2 101.9225 236.0605 67.6036 0.0000 -7.1422 0.0000
# 3 47.2900 67.6036 50.6013 0.0000 -5.4656 0.0000
# 4 0.0000 0.0000 0.0000 46.9841 0.0000 -0.8836
# 5 -9.8101 -7.1422 -5.4656 0.0000 29.7146 0.0000
# 6 0.0000 0.0000 0.0000 -0.8836 0.0000 45.8340
#
#
#
# Elastic Compliance Matrix: (Units=1/GPa)
#
#
# Indices 1 2 3 4 5 6 
#
# 1 0.009970 -0.002652 -0.005599 0.000000 0.001624 0.000000
# 2 -0.002652 0.007567 -0.007682 0.000000 -0.000470 0.000000
# 3 -0.005599 -0.007682 0.035565 0.000000 0.002847 0.000000
# 4 0.000000 0.000000 0.000000 0.021292 0.000000 0.000410
# 5 0.001624 -0.000470 0.002847 0.000000 0.034601 0.000000
# 6 0.000000 0.000000 0.000000 0.000410 0.000000 0.021826
#
#
# Mechanical properties :
#
#
# Convention : Reuss Voigt Hill
#
# Bulk Modulus (GPa) = 47.08825 97.31762 72.20293
# Shear Modulus (GPa) = 29.45243 39.53388 34.49316
#
# Velocity S-wave (km/s) = 3.62104 4.19524 3.91867
# Velocity P-wave (km/s) = 6.20046 8.17260 7.25387
#
# Compressibility (1/GPa) = 0.02123672
#
# Stress axis : x y z
#
# Youngs Moduli (GPa) = 100.29715 132.15251 28.11734
#
# Poissons Ratio (x) = 0.35050 0.15743
# Poissons Ratio (y) = 0.26601 0.21599
# Poissons Ratio (z) = 0.56157 1.01515
#
# Static dielectric constant tensor:
#      x y z
#    x 1.822670 0.000000 0.007100 
#    y 0.000000 1.785330 0.000000 
#    z 0.007100 0.000000 1.911890 
# 
# From -- ./inp_files/22829.got.cif
#   From: 2010.05.17/outbox.cif.g08.bks.cpg/sg5_12_cif.got.tgz:22829.got - 2010.06.03 18:56:24.
