data_PCOD9130976
_publ_section_title
;
Structure prediction by ZEFSAII (Michael W. Deem and Ramdas Pophale) SiO2 
 PCOD9130976
Probable space group: P M
;
_chemical_formula_sum "Si O2"
_cell_formula_units_Z 10
_cell_length_a 9.786610
_cell_length_b 11.900908
_cell_length_c 5.618835
_cell_angle_alpha 90.000000
_cell_angle_beta 140.729243
_cell_angle_gamma 90.000000
_cell_volume 414.240587
_symmetry_space_group_name_H-M "P M"
_symmetry_group_IT_number 6
_symmetry_cell_setting 'monoclinic'
loop_
_space_group_symop_operation_xyz
x,y,z
x,-y,z
loop_
_atom_site_type_symbol
_atom_site_label
_atom_site_fract_x
_atom_site_fract_y
_atom_site_fract_z
Si Si1 0.379720 0.124630 0.107530
Si Si2 0.130455 0.500000 0.112192
Si Si3 0.395125 0.500000 0.966157
Si Si4 0.811884 0.129879 0.009250
Si Si5 0.547591 0.721369 0.949089
Si Si6 0.118639 0.262582 0.079904
O O1 0.583372 0.125231 0.560008
O O2 0.295984 0.000000 0.979611
O O3 0.473403 0.168772 0.990634
O O4 0.187570 0.204606 0.929730
O O5 0.220687 0.500000 0.509645
O O6 0.290884 0.500000 0.091503
O O7 0.003702 0.382578 0.913718
O O8 0.532563 0.613012 0.098564
O O9 0.766477 0.235027 0.125377
O O10 0.995668 0.172833 0.076597
O O11 0.848704 0.000000 0.140969
O O12 0.353946 0.703335 0.501689
#
# Coordination Sequence:
#
# PCOD9130976 Si02
#       6
#     2   1   1   2   2   2
#     4  10  20  36  58  85 117 158 200 251 307 366
#     4  10  20  39  65  94 123 160 212 258 306 377
#     4  10  20  39  67  92 123 162 208 260 312 369
#     4  10  22  38  57  89 123 156 205 256 303 369
#     4  10  21  38  61  85 119 158 203 252 310 367
#     4  10  21  38  61  84 121 159 202 252 311 364
#
# _framework density 24.140559
#
# number of rings (size 3 to 8) (size 9 to 14) (size 15 to 20)
#    0.000    2.000    2.000    1.200    0.000    4.800 
#    0.000    2.000    0.000    0.000    0.000    0.000 
#    0.000    0.000    0.000    0.000    0.000    0.000 
#
# Total GULP energy -55764.711850 kJ/mol
# GULP energy per Si atom -5576.471185 kJ/mol
# Density = 2.408561 g / cm^3
# Si number density = 24.140559 Si / 1000 Ang^3
#
#
#
# Elastic Constant Matrix: (Units=GPa)
#
#
# Indices 1 2 3 4 5 6 
#
# 1 80.0954 -8.8253 19.9983 0.0000 -4.1446 0.0000
# 2 -8.8253 120.4080 5.5016 0.0000 5.4548 0.0000
# 3 19.9983 5.5016 80.2803 0.0000 13.4857 0.0000
# 4 0.0000 0.0000 0.0000 18.3578 0.0000 -13.8047
# 5 -4.1446 5.4548 13.4857 0.0000 34.2539 0.0000
# 6 0.0000 0.0000 0.0000 -13.8047 0.0000 35.9420
#
#
#
# Elastic Compliance Matrix: (Units=1/GPa)
#
#
# Indices 1 2 3 4 5 6 
#
# 1 0.013764 0.001053 -0.004018 0.000000 0.003080 0.000000
# 2 0.001053 0.008457 -0.000682 0.000000 -0.000951 0.000000
# 3 -0.004018 -0.000682 0.014528 0.000000 -0.006097 0.000000
# 4 0.000000 0.000000 0.000000 0.076595 0.000000 0.029419
# 5 0.003080 -0.000951 -0.006097 0.000000 0.032118 0.000000
# 6 0.000000 0.000000 0.000000 0.029419 0.000000 0.039122
#
#
# Mechanical properties :
#
#
# Convention : Reuss Voigt Hill
#
# Bulk Modulus (GPa) = 33.95140 34.90368 34.42754
# Shear Modulus (GPa) = 24.78975 35.31801 30.05388
#
# Velocity S-wave (km/s) = 3.20799 3.82909 3.53222
# Velocity P-wave (km/s) = 5.27411 5.83431 5.56126
#
# Compressibility (1/GPa) = 0.02945387
#
# Stress axis : x y z
#
# Youngs Moduli (GPa) = 72.65477 118.25223 68.83131
#
# Poissons Ratio (x) = -0.12451 0.27657
# Poissons Ratio (y) = -0.07650 0.04695
# Poissons Ratio (z) = 0.29193 0.08066
#
# Static dielectric constant tensor:
#      x y z
#    x 1.853350 0.000000 0.026500 
#    y 0.000000 1.945960 0.000000 
#    z 0.026500 0.000000 1.996870 
# 
# From -- ./inp_files/850.got.cif
#   From: 2010.05.17/outbox.cif.g08.bks.cpg/sg6_1_cif.got.tgz:850.got - 2010.06.03 19:42:10.
