data_PCOD9130721
_publ_section_title
;
Structure prediction by ZEFSAII (Michael W. Deem and Ramdas Pophale) SiO2 
 PCOD9130721
Probable space group: C 2
;
_chemical_formula_sum "Si O2"
_cell_formula_units_Z 16
_cell_length_a 12.000000
_cell_length_b 12.000000
_cell_length_c 21.000000
_cell_angle_alpha 90.000000
_cell_angle_beta 150.000000
_cell_angle_gamma 90.000000
_cell_volume 1512.000000
_symmetry_space_group_name_H-M "C 2"
_symmetry_group_IT_number 5
_symmetry_cell_setting 'monoclinic'
loop_
_space_group_symop_operation_xyz
x,y,z
-x,y,-z
1/2+x,1/2+y,z
1/2-x,1/2+y,-z
loop_
_atom_site_type_symbol
_atom_site_label
_atom_site_fract_x
_atom_site_fract_y
_atom_site_fract_z
Si Si1 0.553951 0.445610 0.367698
Si Si2 0.593257 0.084319 0.389529
Si Si3 0.793306 0.951320 0.865295
Si Si4 0.745942 0.762418 0.619441
Si Si5 0.979029 0.767054 0.865786
Si Si6 0.594725 0.035497 0.113870
Si Si7 0.885282 0.766500 0.376100
Si Si8 0.414753 0.846256 0.116160
O O1 0.777569 0.505515 0.498560
O O2 0.596007 0.352208 0.335790
O O3 0.361038 0.526053 0.248394
O O4 0.472320 0.383010 0.390822
O O5 0.760914 0.152985 0.427835
O O6 0.462999 0.172407 0.366940
O O7 0.416775 0.022347 0.258516
O O8 0.871472 0.876898 0.844385
O O9 0.717702 0.871985 0.885077
O O10 0.000000 0.016262 0.000000
O O11 0.500000 0.811022 0.500000
O O12 0.842262 0.736282 0.735742
O O13 0.970940 0.662417 0.908288
O O14 0.238497 0.790211 0.981659
O O15 0.499970 0.957698 0.123445
O O16 0.500000 0.994262 0.000000
O O17 0.620988 0.772849 0.240614
O O18 0.000000 0.748061 0.500000
#
# Coordination Sequence:
#
# PCOD9130721 Si02
#       8
#     4   4   4   4   4   4   4   4
#     4  10  23  41  59  84 119 154 193 240 289 347
#     4  11  23  38  60  87 116 151 193 242 292 342
#     4  10  22  40  59  85 118 153 192 237 288 345
#     4  11  23  40  60  87 118 154 196 242 291 347
#     4  11  23  39  61  89 119 154 195 241 289 346
#     4  11  22  39  62  88 117 155 195 238 292 347
#     4  10  23  39  59  85 115 151 193 238 289 344
#     4  10  22  40  61  85 117 156 193 236 289 346
#
# _framework density 10.582011
#
# number of rings (size 3 to 8) (size 9 to 14) (size 15 to 20)
#    0.000    1.500    0.000    4.875    0.000   11.000 
#    0.000    1.250    0.000    0.000    0.000    0.000 
#    0.000    0.000    0.000    0.000    0.000    0.000 
#
# Total GULP energy -89288.881740 kJ/mol
# GULP energy per Si atom -5580.555109 kJ/mol
# Density = 1.055793 g / cm^3
# Si number density = 10.582011 Si / 1000 Ang^3
#
#
#
# Elastic Constant Matrix: (Units=GPa)
#
#
# Indices 1 2 3 4 5 6 
#
# 1 34.5689 -13.1055 7.1531 0.0002 -4.3232 -0.0001
# 2 -13.1055 34.5193 3.7956 0.0001 4.5556 -0.0001
# 3 7.1531 3.7956 95.6102 0.0003 6.9077 0.0000
# 4 0.0002 0.0001 0.0003 64.0310 0.0002 0.7799
# 5 -4.3232 4.5556 6.9077 0.0002 29.6515 0.0000
# 6 -0.0001 -0.0001 0.0000 0.7799 0.0000 -3.2606
#
#
#
# Elastic Compliance Matrix: (Units=1/GPa)
#
#
# Indices 1 2 3 4 5 6 
#
# 1 0.035130 0.013201 -0.003434 0.000000 0.003894 -0.000002
# 2 0.013201 0.034599 -0.002152 0.000000 -0.002890 -0.000001
# 3 -0.003434 -0.002152 0.010999 0.000000 -0.002732 0.000000
# 4 0.000000 0.000000 0.000000 0.015572 0.000000 0.003725
# 5 0.003894 -0.002890 -0.002732 0.000000 0.035373 0.000000
# 6 -0.000002 -0.000001 0.000000 0.003725 0.000000 -0.305804
#
#
# Mechanical properties :
#
#
# Convention : Reuss Voigt Hill
#
# Bulk Modulus (GPa) = 10.42126 17.82055 14.12090
# Shear Modulus (GPa) = -31.77125 29.20805 -1.28160
#
# Velocity S-wave (km/s) = -3.87872 3.71897 -0.77902
# Velocity P-wave (km/s) = 3.88904 5.18455 2.42435
#
# Compressibility (1/GPa) = 0.09595770
#
# Stress axis : x y z
#
# Youngs Moduli (GPa) = 28.46582 28.90244 90.91837
#
# Poissons Ratio (x) = -0.38154 0.31218
# Poissons Ratio (y) = -0.37578 0.19570
# Poissons Ratio (z) = 0.09774 0.06221
#
# Static dielectric constant tensor:
#      x y z
#    x 1.749550 0.000000 0.071550 
#    y 0.000000 1.722590 0.000000 
#    z 0.071550 0.000000 2.011550 
# 
# From -- ./inp_files/65347.got.cif
#   From: 2010.05.17/outbox.ucp.g08.bks.cvg/sg5_33_cif.got.tgz:65347.got - 2010.06.11 12:53:14.
