data_PCOD9130939
_publ_section_title
;
Structure prediction by ZEFSAII (Michael W. Deem and Ramdas Pophale) SiO2 
 PCOD9130939
Probable space group: P M
;
_chemical_formula_sum "Si O2"
_cell_formula_units_Z 12
_cell_length_a 9.888600
_cell_length_b 7.677344
_cell_length_c 12.708158
_cell_angle_alpha 90.000000
_cell_angle_beta 142.339841
_cell_angle_gamma 90.000000
_cell_volume 589.458279
_symmetry_space_group_name_H-M "P M"
_symmetry_group_IT_number 6
_symmetry_cell_setting 'monoclinic'
loop_
_space_group_symop_operation_xyz
x,y,z
x,-y,z
loop_
_atom_site_type_symbol
_atom_site_label
_atom_site_fract_x
_atom_site_fract_y
_atom_site_fract_z
Si Si1 0.457810 0.296809 0.008650
Si Si2 0.177614 0.286164 0.032712
Si Si3 0.280278 0.289911 0.330211
Si Si4 0.370497 0.291807 0.723508
Si Si5 0.962860 0.795574 0.324330
Si Si6 0.671767 0.287080 0.720130
O O1 0.392705 0.500000 0.964874
O O2 0.721917 0.287778 0.183541
O O3 0.331852 0.223878 0.032625
O O4 0.390809 0.220085 0.853792
O O5 0.183532 0.500000 0.038421
O O6 0.923192 0.233072 0.860401
O O7 0.252864 0.227102 0.194710
O O8 0.286691 0.500000 0.331423
O O9 0.504540 0.229956 0.525534
O O10 0.078729 0.243323 0.283694
O O11 0.401673 0.500000 0.749311
O O12 0.562034 0.227296 0.762330
O O13 0.137942 0.261616 0.521453
O O14 0.931611 0.000000 0.314837
O O15 0.669868 0.500000 0.720057
#
# Coordination Sequence:
#
# PCOD9130939 Si02
#       6
#     2   2   2   2   2   2
#     4  10  20  34  55  82 109 138 174 217 264 314
#     4   9  17  29  50  80 106 129 164 214 267 312
#     4   9  17  32  54  77 102 132 171 218 262 308
#     4   9  18  34  56  78 103 137 178 223 264 306
#     4  11  22  35  53  77 108 144 180 217 258 310
#     4   8  14  26  46  72  98 126 163 209 257 298
#
# _framework density 20.357675
#
# number of rings (size 3 to 8) (size 9 to 14) (size 15 to 20)
#    0.000    2.667    0.000    3.500    0.000    4.667 
#    0.000    5.833    0.000    4.000    0.000    0.000 
#    0.000    0.000    0.000    0.000    0.000    0.000 
#
# Total GULP energy -66972.298279 kJ/mol
# GULP energy per Si atom -5581.024857 kJ/mol
# Density = 2.031134 g / cm^3
# Si number density = 20.357675 Si / 1000 Ang^3
#
#
#
# Elastic Constant Matrix: (Units=GPa)
#
#
# Indices 1 2 3 4 5 6 
#
# 1 187.3646 -3.8707 127.5103 0.0000 -11.0916 0.0000
# 2 -3.8707 24.8635 -14.8885 0.0000 14.0888 0.0000
# 3 127.5103 -14.8885 122.8639 0.0000 3.5858 0.0000
# 4 0.0000 0.0000 0.0000 41.5077 0.0000 -15.2469
# 5 -11.0916 14.0888 3.5858 0.0000 -30.3866 0.0000
# 6 0.0000 0.0000 0.0000 -15.2469 0.0000 -10.9444
#
#
#
# Elastic Compliance Matrix: (Units=1/GPa)
#
#
# Indices 1 2 3 4 5 6 
#
# 1 0.016248 -0.002453 -0.016895 0.000000 -0.009062 0.000000
# 2 -0.002453 0.033729 0.006129 0.000000 0.017257 0.000000
# 3 -0.016895 0.006129 0.026064 0.000000 0.012085 0.000000
# 4 0.000000 0.000000 0.000000 0.015937 0.000000 -0.022202
# 5 -0.009062 0.017257 0.012085 0.000000 -0.020174 0.000000
# 6 0.000000 0.000000 0.000000 -0.022202 0.000000 -0.060441
#
#
# Mechanical properties :
#
#
# Convention : Reuss Voigt Hill
#
# Bulk Modulus (GPa) = 20.16009 61.39935 40.77972
# Shear Modulus (GPa) = 92.02241 15.12474 53.57357
#
# Velocity S-wave (km/s) = 6.73060 2.72867 5.13549
# Velocity P-wave (km/s) = 8.38604 6.33666 7.43233
#
# Compressibility (1/GPa) = 0.04960294
#
# Stress axis : x y z
#
# Youngs Moduli (GPa) = 61.54524 29.64782 38.36778
#
# Poissons Ratio (x) = 0.07272 0.64824
# Poissons Ratio (y) = 0.15096 -0.23517
# Poissons Ratio (z) = 1.03983 -0.18172
#
# Static dielectric constant tensor:
#      x y z
#    x 1.706750 0.000000 -0.020790 
#    y 0.000000 1.724330 0.000000 
#    z -0.020790 0.000000 1.719720 
# 
# From -- ./inp_files/2487.got.cif
#   From: 2010.05.17/outbox.cif.g08.bks.cpg/sg6_2_cif.got.tgz:2487.got - 2010.06.03 19:42:10.
