data_PCOD9130893
_publ_section_title
;
Structure prediction by ZEFSAII (Michael W. Deem and Ramdas Pophale) SiO2 
 PCOD9130893
Probable space group: P M
;
_chemical_formula_sum "Si O2"
_cell_formula_units_Z 14
_cell_length_a 8.082868
_cell_length_b 17.040753
_cell_length_c 9.340359
_cell_angle_alpha 90.000000
_cell_angle_beta 31.948196
_cell_angle_gamma 90.000000
_cell_volume 680.767027
_symmetry_space_group_name_H-M "P M"
_symmetry_group_IT_number 6
_symmetry_cell_setting 'monoclinic'
loop_
_space_group_symop_operation_xyz
x,y,z
x,-y,z
loop_
_atom_site_type_symbol
_atom_site_label
_atom_site_fract_x
_atom_site_fract_y
_atom_site_fract_z
Si Si1 0.875000 0.092345 0.363700
Si Si2 0.516083 0.822023 0.858089
Si Si3 0.273135 0.907837 0.604656
Si Si4 0.359234 0.331171 0.808700
Si Si5 0.475433 0.500000 0.685900
Si Si6 0.758311 0.500000 0.175714
Si Si7 0.629566 0.822383 0.110577
Si Si8 0.635711 0.330835 0.296594
O O1 0.769794 0.122705 0.596069
O O2 0.573986 0.106668 0.484282
O O3 0.943269 0.000000 0.313099
O O4 0.175597 0.138944 0.089037
O O5 0.519074 0.738926 0.775773
O O6 0.571606 0.813817 0.985301
O O7 0.977052 0.857802 0.872113
O O8 0.196027 0.000000 0.666942
O O9 0.387323 0.881362 0.364310
O O10 0.487318 0.417225 0.757095
O O11 0.987437 0.327906 0.101660
O O12 0.415407 0.323693 0.596564
O O13 0.722591 0.500000 0.375548
O O14 0.126311 0.500000 0.870923
O O15 0.608335 0.416882 0.244039
O O16 0.594341 0.740191 0.218496
#
# Coordination Sequence:
#
# PCOD9130893 Si02
#       8
#     2   2   2   2   1   1   2   2
#     4  11  24  42  62  82 108 148 195 236 277 331
#     4  12  24  37  57  87 119 149 183 229 287 338
#     4  11  24  42  62  82 108 148 195 236 277 331
#     4  10  19  35  58  81 110 147 189 229 271 327
#     4   8  16  30  53  82 105 138 187 232 267 314
#     4   8  16  30  53  82 105 138 187 232 267 314
#     4  12  24  37  57  87 119 149 183 229 287 338
#     4  10  19  35  58  81 110 147 189 229 271 327
#
# _framework density 20.565038000000001
#
# number of rings (size 3 to 8) (size 9 to 14) (size 15 to 20)
#    0.000    1.429    0.000    6.857    0.000    5.714 
#    0.000    0.714    0.000    0.000    0.000   16.000 
#    0.000    0.000    0.000    0.000    0.000    0.000 
#
# Total GULP energy -78287.516871 kJ/mol
# GULP energy per Si atom -5591.965491 kJ/mol
# Density = 2.051823 g / cm^3
# Si number density = 20.565038 Si / 1000 Ang^3
#
#
#
# Elastic Constant Matrix: (Units=GPa)
#
#
# Indices 1 2 3 4 5 6 
#
# 1 54.4110 49.5386 7.0346 0.0000 12.4368 0.0000
# 2 49.5386 151.3952 26.2387 0.0000 2.0896 0.0000
# 3 7.0346 26.2387 93.2374 0.0000 -0.6030 0.0000
# 4 0.0000 0.0000 0.0000 28.5134 0.0000 4.5944
# 5 12.4368 2.0896 -0.6030 0.0000 28.3857 0.0000
# 6 0.0000 0.0000 0.0000 4.5944 0.0000 -4.1549
#
#
#
# Elastic Compliance Matrix: (Units=1/GPa)
#
#
# Indices 1 2 3 4 5 6 
#
# 1 0.030016 -0.009718 0.000390 0.000000 -0.012428 0.000000
# 2 -0.009718 0.010099 -0.002086 0.000000 0.003470 0.000000
# 3 0.000390 -0.002086 0.011284 0.000000 0.000223 0.000000
# 4 0.000000 0.000000 0.000000 0.029767 0.000000 0.032916
# 5 -0.012428 0.003470 0.000223 0.000000 0.040423 0.000000
# 6 0.000000 0.000000 0.000000 0.032916 0.000000 -0.204283
#
#
# Mechanical properties :
#
#
# Convention : Reuss Voigt Hill
#
# Bulk Modulus (GPa) = 35.00079 51.62970 43.31525
# Shear Modulus (GPa) = -99.32531 24.96429 -37.18051
#
# Velocity S-wave (km/s) = -6.95723 3.48791 -4.25661
# Velocity P-wave (km/s) = 6.89063 6.43279 1.74643
#
# Compressibility (1/GPa) = 0.02857078
#
# Stress axis : x y z
#
# Youngs Moduli (GPa) = 33.31507 99.02250 88.61733
#
# Poissons Ratio (x) = 0.96228 -0.03453
# Poissons Ratio (y) = 0.32375 0.18488
# Poissons Ratio (z) = -0.01298 0.20659
#
# Static dielectric constant tensor:
#      x y z
#    x 1.709700 0.000000 -0.003780 
#    y 0.000000 1.764720 0.000000 
#    z -0.003780 0.000000 1.714570 
# 
# From -- ./inp_files/3208.got.cif
#   From: 2010.05.17/outbox.cif.g08.bks.cpg/sg6_2_cif.got.tgz:3208.got - 2010.06.03 19:42:10.
