data_PCOD9130849
_publ_section_title
;
Structure prediction by ZEFSAII (Michael W. Deem and Ramdas Pophale) SiO2 
 PCOD9130849
Probable space group: P M
;
_chemical_formula_sum "Si O2"
_cell_formula_units_Z 14
_cell_length_a 4.755455
_cell_length_b 20.576169
_cell_length_c 5.239082
_cell_angle_alpha 90.000000
_cell_angle_beta 89.041390
_cell_angle_gamma 90.000000
_cell_volume 512.567426
_symmetry_space_group_name_H-M "P M"
_symmetry_group_IT_number 6
_symmetry_cell_setting 'monoclinic'
loop_
_space_group_symop_operation_xyz
x,y,z
x,-y,z
loop_
_atom_site_type_symbol
_atom_site_label
_atom_site_fract_x
_atom_site_fract_y
_atom_site_fract_z
Si Si1 0.444210 0.677334 0.255930
Si Si2 0.255538 0.200813 0.474172
Si Si3 0.211353 0.930260 0.626376
Si Si4 0.109210 0.427721 0.946781
Si Si5 0.597873 0.069331 0.121299
Si Si6 0.587530 0.199425 0.979513
Si Si7 0.616002 0.571357 0.598747
O O1 0.239815 0.721405 0.442851
O O2 0.634234 0.727466 0.081201
O O3 0.648038 0.631568 0.414182
O O4 0.242285 0.630672 0.100169
O O5 0.069781 0.140211 0.575918
O O6 0.326992 0.186495 0.178459
O O7 0.501650 0.199055 0.687163
O O8 0.446600 0.930237 0.397498
O O9 0.058338 0.000000 0.602556
O O10 0.371545 0.931090 0.893200
O O11 0.150427 0.500000 0.061819
O O12 0.290810 0.428700 0.683359
O O13 0.792117 0.420739 0.855969
O O14 0.763367 0.135952 0.060411
O O15 0.753378 0.000000 0.100277
O O16 0.687280 0.500000 0.492068
#
# Coordination Sequence:
#
# PCOD9130849 Si02
#       7
#     2   2   2   2   2   2   2
#     4  10  19  32  55  80 118 156 198 250 305 366
#     4   8  15  25  42  69 104 147 194 242 297 357
#     4   8  12  19  32  55  92 137 185 236 287 343
#     4  10  22  40  62  89 121 159 204 252 305 367
#     4   8  12  19  32  55  92 137 185 236 287 343
#     4   8  15  25  42  69 104 147 194 242 297 357
#     4  10  22  40  62  89 121 159 204 252 305 367
#
# _framework density 27.313483000000002
#
# number of rings (size 3 to 8) (size 9 to 14) (size 15 to 20)
#    0.857    2.286    0.000    1.286    0.000    1.143 
#    0.000    4.286    0.000    0.000    0.000    0.000 
#    0.000    4.571    0.000   29.714    0.000    6.571 
#
# Total GULP energy -77973.096161 kJ/mol
# GULP energy per Si atom -5569.506869 kJ/mol
# Density = 2.725132 g / cm^3
# Si number density = 27.313483 Si / 1000 Ang^3
#
#
#
# Elastic Constant Matrix: (Units=GPa)
#
#
# Indices 1 2 3 4 5 6 
#
# 1 65.5958 27.5850 34.8572 0.0000 0.2761 0.0000
# 2 27.5850 285.5200 51.7952 0.0000 26.6196 0.0000
# 3 34.8572 51.7952 142.7224 0.0000 5.1864 0.0000
# 4 0.0000 0.0000 0.0000 35.7562 0.0000 13.5215
# 5 0.2761 26.6196 5.1864 0.0000 44.3030 0.0000
# 6 0.0000 0.0000 0.0000 13.5215 0.0000 -9.1303
#
#
#
# Elastic Compliance Matrix: (Units=1/GPa)
#
#
# Indices 1 2 3 4 5 6 
#
# 1 0.017822 -0.001092 -0.003993 0.000000 0.001012 0.000000
# 2 -0.001092 0.004022 -0.001110 0.000000 -0.002280 0.000000
# 3 -0.003993 -0.001110 0.008395 0.000000 -0.000291 0.000000
# 4 0.000000 0.000000 0.000000 0.017927 0.000000 0.026549
# 5 0.001012 -0.002280 -0.000291 0.000000 0.023969 0.000000
# 6 0.000000 0.000000 0.000000 0.026549 0.000000 -0.070207
#
#
# Mechanical properties :
#
#
# Convention : Reuss Voigt Hill
#
# Bulk Modulus (GPa) = 56.02642 80.25699 68.14171
# Shear Modulus (GPa) = 246.69698 39.49250 143.09474
#
# Velocity S-wave (km/s) = 9.51402 3.80662 7.24593
# Velocity P-wave (km/s) = 11.88469 6.98340 9.74715
#
# Compressibility (1/GPa) = 0.01784872
#
# Stress axis : x y z
#
# Youngs Moduli (GPa) = 56.11133 248.64622 119.11451
#
# Poissons Ratio (x) = 0.27147 0.47564
# Poissons Ratio (y) = 0.06126 0.13222
# Poissons Ratio (z) = 0.22406 0.27601
#
# Static dielectric constant tensor:
#      x y z
#    x 2.175550 0.000000 -0.066770 
#    y 0.000000 2.330940 0.000000 
#    z -0.066770 0.000000 2.078510 
# 
# From -- ./inp_files/621.got.cif
#   From: 2010.05.17/outbox.cif.g08.bks.cpg/sg6_1_cif.got.tgz:621.got - 2010.06.03 19:42:10.
