data_PCOD9130866
_publ_section_title
;
Structure prediction by ZEFSAII (Michael W. Deem and Ramdas Pophale) SiO2 
 PCOD9130866
Probable space group: P M
;
_chemical_formula_sum "Si O2"
_cell_formula_units_Z 16
_cell_length_a 10.341143
_cell_length_b 8.739633
_cell_length_c 12.528580
_cell_angle_alpha 90.000000
_cell_angle_beta 126.335530
_cell_angle_gamma 90.000000
_cell_volume 912.141107
_symmetry_space_group_name_H-M "P M"
_symmetry_group_IT_number 6
_symmetry_cell_setting 'monoclinic'
loop_
_space_group_symop_operation_xyz
x,y,z
x,-y,z
loop_
_atom_site_type_symbol
_atom_site_label
_atom_site_fract_x
_atom_site_fract_y
_atom_site_fract_z
Si Si1 0.879000 0.316269 0.501450
Si Si2 0.560543 0.684681 0.462140
Si Si3 0.037549 0.816098 0.956508
Si Si4 0.388261 0.816468 0.737962
Si Si5 0.208855 0.184733 0.259397
Si Si6 0.098474 0.816251 0.436000
Si Si7 0.681216 0.683701 0.758478
Si Si8 0.166616 0.316445 0.804571
O O1 0.878422 0.500000 0.494328
O O2 0.703535 0.265383 0.453055
O O3 0.946988 0.249752 0.425054
O O4 0.008424 0.275271 0.656826
O O5 0.550935 0.500000 0.453796
O O6 0.389597 0.753925 0.350059
O O7 0.612885 0.727228 0.608078
O O8 0.140986 0.752283 0.908562
O O9 0.858113 0.751155 0.858741
O O10 0.032959 0.000000 0.949091
O O11 0.115582 0.769030 0.107232
O O12 0.256792 0.773662 0.582393
O O13 0.557190 0.747277 0.784967
O O14 0.316539 0.750518 0.812491
O O15 0.397250 0.000000 0.747263
O O16 0.122076 0.236104 0.326274
O O17 0.214359 0.000000 0.264618
O O18 0.088073 0.000000 0.432244
O O19 0.688603 0.500000 0.766717
O O20 0.176404 0.500000 0.814221
#
# Coordination Sequence:
#
# PCOD9130866 Si02
#       8
#     2   2   2   2   2   2   2   2
#     4   9  18  33  53  81 111 139 176 227 276 324
#     4  10  20  35  56  83 111 143 185 232 278 328
#     4  11  23  38  57  81 113 153 192 232 280 335
#     4  10  19  33  56  86 114 143 185 233 280 333
#     4  10  22  39  56  80 114 149 186 228 277 333
#     4   9  18  33  53  80 110 142 179 223 274 328
#     4  11  21  36  57  84 114 147 190 235 280 330
#     4  10  19  35  56  81 115 148 183 232 283 333
#
# _framework density 17.541143999999999
#
# number of rings (size 3 to 8) (size 9 to 14) (size 15 to 20)
#    0.000    2.000    2.500    1.500    0.000    3.500 
#    0.000    1.250    0.000    4.500    0.000    0.000 
#    0.000    0.000    0.000    0.000    0.000    0.000 
#
# Total GULP energy -89316.704864 kJ/mol
# GULP energy per Si atom -5582.294054 kJ/mol
# Density = 1.750122 g / cm^3
# Si number density = 17.541144 Si / 1000 Ang^3
#
#
#
# Elastic Constant Matrix: (Units=GPa)
#
#
# Indices 1 2 3 4 5 6 
#
# 1 168.5402 36.8288 70.8235 0.0000 -20.7334 0.0000
# 2 36.8288 31.0445 33.3982 0.0000 -5.5739 0.0000
# 3 70.8235 33.3982 105.0655 0.0000 -11.7234 0.0000
# 4 0.0000 0.0000 0.0000 3.9534 0.0000 0.0571
# 5 -20.7334 -5.5739 -11.7234 0.0000 27.3366 0.0000
# 6 0.0000 0.0000 0.0000 0.0571 0.0000 36.1043
#
#
#
# Elastic Compliance Matrix: (Units=1/GPa)
#
#
# Indices 1 2 3 4 5 6 
#
# 1 0.009468 -0.006253 -0.003923 0.000000 0.004223 0.000000
# 2 -0.006253 0.053398 -0.012680 0.000000 0.000707 0.000000
# 3 -0.003923 -0.012680 0.016355 0.000000 0.001453 0.000000
# 4 0.000000 0.000000 0.000000 0.252951 0.000000 -0.000400
# 5 0.004223 0.000707 0.001453 0.000000 0.040552 0.000000
# 6 0.000000 0.000000 0.000000 -0.000400 0.000000 0.027698
#
#
# Mechanical properties :
#
#
# Convention : Reuss Voigt Hill
#
# Bulk Modulus (GPa) = 29.84294 65.19458 47.51876
# Shear Modulus (GPa) = 10.93363 24.38550 17.65956
#
# Velocity S-wave (km/s) = 2.49933 3.73257 3.17638
# Velocity P-wave (km/s) = 5.03775 7.47151 6.37191
#
# Compressibility (1/GPa) = 0.03350877
#
# Stress axis : x y z
#
# Youngs Moduli (GPa) = 105.62067 18.72712 61.14183
#
# Poissons Ratio (x) = 0.11710 0.23987
# Poissons Ratio (y) = 0.66044 0.77530
# Poissons Ratio (z) = 0.41437 0.23747
#
# Static dielectric constant tensor:
#      x y z
#    x 1.588500 0.000000 -0.013480 
#    y 0.000000 1.589050 0.000000 
#    z -0.013480 0.000000 1.579110 
# 
# From -- ./inp_files/3469.got.cif
#   From: 2010.05.17/outbox.cif.g08.bks.cpg/sg6_2_cif.got.tgz:3469.got - 2010.06.03 19:42:10.
