data_PCOD9130537
_publ_section_title
;
Structure prediction by ZEFSAII (Michael W. Deem and Ramdas Pophale) SiO2 
 PCOD9130537
Probable space group: C 2
;
_chemical_formula_sum "Si O2"
_cell_formula_units_Z 20
_cell_length_a 19.303028
_cell_length_b 5.348908
_cell_length_c 7.808420
_cell_angle_alpha 90.000000
_cell_angle_beta 82.071227
_cell_angle_gamma 90.000000
_cell_volume 798.513098
_symmetry_space_group_name_H-M "C 2"
_symmetry_group_IT_number 5
_symmetry_cell_setting 'monoclinic'
loop_
_space_group_symop_operation_xyz
x,y,z
-x,y,-z
1/2+x,1/2+y,z
1/2-x,1/2+y,-z
loop_
_atom_site_type_symbol
_atom_site_label
_atom_site_fract_x
_atom_site_fract_y
_atom_site_fract_z
Si Si1 0.131427 0.696200 0.637478
Si Si2 0.544059 0.700441 0.650038
Si Si3 0.823546 0.706451 0.751762
Si Si4 0.563766 0.507704 0.073708
Si Si5 0.824002 0.389842 0.059222
O O1 0.080076 0.465918 0.615874
O O2 0.181013 0.693378 0.451811
O O3 0.156583 0.620276 0.820568
O O4 0.095948 0.965207 0.647342
O O5 0.500000 0.639490 0.500000
O O6 0.485988 0.707941 0.816806
O O7 0.753009 0.823638 0.851977
O O8 0.891774 0.851221 0.802320
O O9 0.825548 0.448629 0.856665
O O10 0.500000 0.356058 0.000000
O O11 0.620189 0.666304 0.946025
#
# Coordination Sequence:
#
# PCOD9130537 Si02
#       5
#     4   4   4   4   4
#     4  12  29  50  83 116 163 215 279 332 411 490
#     4  12  25  49  78 119 159 208 271 344 402 482
#     4  12  28  51  80 116 167 215 270 346 409 487
#     4  12  25  50  82 114 162 214 273 337 413 483
#     4  12  28  50  80 116 163 219 275 335 413 492
#
# _framework density 25.046552999999999
#
# number of rings (size 3 to 8) (size 9 to 14) (size 15 to 20)
#    0.000    0.000    6.000    3.000    2.800    4.000 
#    0.000    0.000    0.000    0.000    0.000    0.000 
#    0.000    0.000    0.000    0.000    0.000    0.000 
#
# Total GULP energy -55892.561482 kJ/mol
# GULP energy per Si atom -5589.256148 kJ/mol
# Density = 2.498955 g / cm^3
# Si number density = 25.046553 Si / 1000 Ang^3
#
#
#
# Elastic Constant Matrix: (Units=GPa)
#
#
# Indices 1 2 3 4 5 6 
#
# 1 89.6439 2.1323 -1.9391 0.0000 -13.7592 0.0000
# 2 2.1323 47.8148 27.1498 0.0000 -11.2953 0.0000
# 3 -1.9391 27.1498 118.7642 0.0000 -8.8251 0.0000
# 4 0.0000 0.0000 0.0000 29.5885 0.0000 -9.0876
# 5 -13.7592 -11.2953 -8.8251 0.0000 39.4492 0.0000
# 6 0.0000 0.0000 0.0000 -9.0876 0.0000 30.7187
#
#
#
# Elastic Compliance Matrix: (Units=1/GPa)
#
#
# Indices 1 2 3 4 5 6 
#
# 1 0.011818 0.000225 0.000460 0.000000 0.004289 0.000000
# 2 0.000225 0.025392 -0.005344 0.000000 0.006153 0.000000
# 3 0.000460 -0.005344 0.009709 0.000000 0.000802 0.000000
# 4 0.000000 0.000000 0.000000 0.037175 0.000000 0.010998
# 5 0.004289 0.006153 0.000802 0.000000 0.028786 0.000000
# 6 0.000000 0.000000 0.000000 0.010998 0.000000 0.035807
#
#
# Mechanical properties :
#
#
# Convention : Reuss Voigt Hill
#
# Bulk Modulus (GPa) = 26.59454 34.54543 30.56998
# Shear Modulus (GPa) = 29.31902 35.20995 32.26448
#
# Velocity S-wave (km/s) = 3.42509 3.75344 3.59302
# Velocity P-wave (km/s) = 5.12667 5.71024 5.42631
#
# Compressibility (1/GPa) = 0.03760171
#
# Stress axis : x y z
#
# Youngs Moduli (GPa) = 84.61509 39.38275 102.99965
#
# Poissons Ratio (x) = -0.00886 -0.04741
# Poissons Ratio (y) = -0.01903 0.55040
# Poissons Ratio (z) = -0.03895 0.21045
#
# Static dielectric constant tensor:
#      x y z
#    x 1.999630 0.000000 0.089800 
#    y 0.000000 2.021220 0.000000 
#    z 0.089800 0.000000 2.132560 
# 
# From -- ./inp_files/25935.got.cif
#   From: 2010.05.17/outbox.cif.g08.bks.cpg/sg5_13_cif.got.tgz:25935.got - 2010.06.03 18:56:24.
