data_PCOD9130820
_publ_section_title
;
Structure prediction by ZEFSAII (Michael W. Deem and Ramdas Pophale) SiO2 
 PCOD9130820
Probable space group: P M
;
_chemical_formula_sum "Si O2"
_cell_formula_units_Z 9
_cell_length_a 14.212092
_cell_length_b 7.840536
_cell_length_c 9.324893
_cell_angle_alpha 90.000000
_cell_angle_beta 150.892998
_cell_angle_gamma 90.000000
_cell_volume 505.450729
_symmetry_space_group_name_H-M "P M"
_symmetry_group_IT_number 6
_symmetry_cell_setting 'monoclinic'
loop_
_space_group_symop_operation_xyz
x,y,z
x,-y,z
loop_
_atom_site_type_symbol
_atom_site_label
_atom_site_fract_x
_atom_site_fract_y
_atom_site_fract_z
Si Si1 0.387630 0.194084 0.550510
Si Si2 0.444802 0.500000 0.121194
Si Si3 0.839327 0.500000 0.483571
Si Si4 0.263945 0.500000 0.183841
Si Si5 0.243969 0.194381 0.683091
Si Si6 0.816563 0.694055 0.170599
O O1 0.300853 0.333720 0.329075
O O2 0.311980 0.227375 0.611040
O O3 0.337290 0.000000 0.444324
O O4 0.619596 0.216045 0.864200
O O5 0.409254 0.500000 0.242677
O O6 0.816467 0.500000 0.109951
O O7 0.340523 0.334701 0.913714
O O8 0.818892 0.659280 0.345728
O O9 0.048155 0.500000 0.832818
O O10 0.013014 0.215684 0.387074
O O11 0.298146 0.000000 0.792587
O O12 0.665972 0.500000 0.364997
#
# Coordination Sequence:
#
# PCOD9130820 Si02
#       6
#     2   1   1   1   2   2
#     4  11  24  41  63  91 123 160 199 248 303 357
#     4  12  21  41  61  91 122 157 206 244 305 350
#     4  10  21  37  65  89 118 163 196 250 301 350
#     4  12  24  40  58  92 132 160 188 248 312 364
#     4  11  21  37  66  92 117 156 207 252 289 355
#     4  10  18  38  66  89 115 156 207 250 290 350
#
# _framework density 17.805890000000002
#
# number of rings (size 3 to 8) (size 9 to 14) (size 15 to 20)
#    0.667    0.444    6.667    1.333    0.000    2.667 
#    0.000    1.111    0.000    0.000    0.000    0.000 
#    0.000    0.000    0.000    0.000    0.000    0.000 
#
# Total GULP energy -50228.529560 kJ/mol
# GULP energy per Si atom -5580.947729 kJ/mol
# Density = 1.776536 g / cm^3
# Si number density = 17.805890 Si / 1000 Ang^3
#
#
#
# Elastic Constant Matrix: (Units=GPa)
#
#
# Indices 1 2 3 4 5 6 
#
# 1 64.7767 26.5146 2.1579 0.0000 9.2128 0.0000
# 2 26.5146 103.8022 14.1401 0.0000 -29.4280 0.0000
# 3 2.1579 14.1401 62.3234 0.0000 5.2637 0.0000
# 4 0.0000 0.0000 0.0000 -4.4993 0.0000 5.0803
# 5 9.2128 -29.4280 5.2637 0.0000 33.4751 0.0000
# 6 0.0000 0.0000 0.0000 5.0803 0.0000 21.7599
#
#
#
# Elastic Compliance Matrix: (Units=1/GPa)
#
#
# Indices 1 2 3 4 5 6 
#
# 1 0.021812 -0.010391 0.002920 0.000000 -0.015596 0.000000
# 2 -0.010391 0.018800 -0.005617 0.000000 0.020270 0.000000
# 3 0.002920 -0.005617 0.017942 0.000000 -0.008563 0.000000
# 4 0.000000 0.000000 0.000000 -0.175889 0.000000 0.041065
# 5 -0.015596 0.020270 -0.008563 0.000000 0.053331 0.000000
# 6 0.000000 0.000000 0.000000 0.041065 0.000000 0.036369
#
#
# Mechanical properties :
#
#
# Convention : Reuss Voigt Hill
#
# Bulk Modulus (GPa) = 30.88720 35.16971 33.02846
# Shear Modulus (GPa) = 535.70046 22.68646 279.19346
#
# Velocity S-wave (km/s) = 17.36401 3.57332 12.53550
# Velocity P-wave (km/s) = 20.47916 6.06791 15.10324
#
# Compressibility (1/GPa) = 0.03237587
#
# Stress axis : x y z
#
# Youngs Moduli (GPa) = 45.84685 53.19279 55.73523
#
# Poissons Ratio (x) = 0.55271 -0.16272
# Poissons Ratio (y) = 0.47638 0.31309
# Poissons Ratio (z) = -0.13385 0.29881
#
# Static dielectric constant tensor:
#      x y z
#    x 1.597120 0.000000 0.003880 
#    y 0.000000 1.617800 0.000000 
#    z 0.003880 0.000000 1.572590 
# 
# From -- ./inp_files/4072.got.cif
#   From: 2010.05.17/outbox.cif.g08.bks.cpg/sg6_3_cif.got.tgz:4072.got - 2010.06.03 19:42:10.
