data_PCOD9130594
_publ_section_title
;
Structure prediction by ZEFSAII (Michael W. Deem and Ramdas Pophale) SiO2 
 PCOD9130594
Probable space group: C 2
;
_chemical_formula_sum "Si O2"
_cell_formula_units_Z 24
_cell_length_a 14.223273
_cell_length_b 4.730944
_cell_length_c 13.772072
_cell_angle_alpha 90.000000
_cell_angle_beta 73.126974
_cell_angle_gamma 90.000000
_cell_volume 886.821140
_symmetry_space_group_name_H-M "C 2"
_symmetry_group_IT_number 5
_symmetry_cell_setting 'monoclinic'
loop_
_space_group_symop_operation_xyz
x,y,z
-x,y,-z
1/2+x,1/2+y,z
1/2-x,1/2+y,-z
loop_
_atom_site_type_symbol
_atom_site_label
_atom_site_fract_x
_atom_site_fract_y
_atom_site_fract_z
Si Si1 0.216796 0.129790 0.951904
Si Si2 0.015303 0.924023 0.779856
Si Si3 0.897659 0.382792 0.352769
Si Si4 0.000000 0.991908 0.000000
Si Si5 0.804035 0.781231 0.630069
Si Si6 0.500000 0.583003 0.500000
Si Si7 0.322711 0.755224 0.758369
O O1 0.270002 0.949444 0.853203
O O2 0.101066 0.165118 0.971595
O O3 0.266842 0.424587 0.960196
O O4 0.098794 0.155501 0.736417
O O5 0.003402 0.832326 0.895219
O O6 0.921026 0.108269 0.772911
O O7 0.050239 0.665205 0.702388
O O8 0.783826 0.357277 0.417248
O O9 0.960456 0.268051 0.423251
O O10 0.174337 0.470759 0.334577
O O11 0.907638 0.895104 0.560422
O O12 0.770184 0.983392 0.729979
#
# Coordination Sequence:
#
# PCOD9130594 Si02
#       7
#     4   4   4   2   4   2   4
#     4  12  27  46  76 114 160 213 276 336 399 492
#     4  12  28  53  82 122 173 223 277 351 417 505
#     4  12  29  55  84 123 169 222 280 345 432 505
#     4  12  28  50  84 118 166 224 280 330 420 494
#     4  12  28  53  85 117 166 218 278 348 428 510
#     4  12  32  56  92 118 168 214 282 354 426 504
#     4  12  26  54  78 117 174 219 273 353 422 492
#
# _framework density 27.062954999999999
#
# number of rings (size 3 to 8) (size 9 to 14) (size 15 to 20)
#    0.000    0.000    3.333    5.000    2.333    8.000 
#    0.000    0.000    0.000    0.000    0.000    0.000 
#    0.000    0.000    0.000    0.000    0.000    0.000 
#
# Total GULP energy -67217.909248 kJ/mol
# GULP energy per Si atom -5601.492437 kJ/mol
# Density = 2.700136 g / cm^3
# Si number density = 27.062955 Si / 1000 Ang^3
#
#
#
# Elastic Constant Matrix: (Units=GPa)
#
#
# Indices 1 2 3 4 5 6 
#
# 1 234.1965 70.5184 61.8594 0.0000 -1.6128 0.0000
# 2 70.5184 197.0873 57.4473 0.0000 -3.1486 0.0000
# 3 61.8594 57.4473 136.7277 0.0000 -3.1648 0.0000
# 4 0.0000 0.0000 0.0000 39.1295 0.0000 -2.8349
# 5 -1.6128 -3.1486 -3.1648 0.0000 25.2459 0.0000
# 6 0.0000 0.0000 0.0000 -2.8349 0.0000 29.6784
#
#
#
# Elastic Compliance Matrix: (Units=1/GPa)
#
#
# Indices 1 2 3 4 5 6 
#
# 1 0.005135 -0.001323 -0.001769 0.000000 -0.000059 0.000000
# 2 -0.001323 0.006127 -0.001966 0.000000 0.000433 0.000000
# 3 -0.001769 -0.001966 0.008958 0.000000 0.000765 0.000000
# 4 0.000000 0.000000 0.000000 0.025734 0.000000 0.002458
# 5 -0.000059 0.000433 0.000765 0.000000 0.039756 0.000000
# 6 0.000000 0.000000 0.000000 0.002458 0.000000 0.033929
#
#
# Mechanical properties :
#
#
# Convention : Reuss Voigt Hill
#
# Bulk Modulus (GPa) = 98.96069 105.29575 102.12822
# Shear Modulus (GPa) = 37.55922 44.02319 40.79121
#
# Velocity S-wave (km/s) = 3.72942 4.03761 3.88657
# Velocity P-wave (km/s) = 7.42907 7.79285 7.61313
#
# Compressibility (1/GPa) = 0.01010502
#
# Stress axis : x y z
#
# Youngs Moduli (GPa) = 194.74229 163.20939 111.63484
#
# Poissons Ratio (x) = 0.21587 0.19746
# Poissons Ratio (y) = 0.25758 0.21946
# Poissons Ratio (z) = 0.34447 0.32086
#
# Static dielectric constant tensor:
#      x y z
#    x 2.234010 0.000000 -0.009050 
#    y 0.000000 2.022430 0.000000 
#    z -0.009050 0.000000 2.208290 
# 
# From -- ./inp_files/51908.got.cif
#   From: 2010.05.17/outbox.cif.g08.bks.cpg/sg5_26_cif.got.tgz:51908.got - 2010.06.03 18:56:24.
