data_PCOD9130997
_publ_section_title
;
Structure prediction by ZEFSAII (Michael W. Deem and Ramdas Pophale) SiO2 
 PCOD9130997
Probable space group: P M
;
_chemical_formula_sum "Si O2"
_cell_formula_units_Z 12
_cell_length_a 12.268599
_cell_length_b 8.929442
_cell_length_c 9.671398
_cell_angle_alpha 90.000000
_cell_angle_beta 141.229238
_cell_angle_gamma 90.000000
_cell_volume 663.476884
_symmetry_space_group_name_H-M "P M"
_symmetry_group_IT_number 6
_symmetry_cell_setting 'monoclinic'
loop_
_space_group_symop_operation_xyz
x,y,z
x,-y,z
loop_
_atom_site_type_symbol
_atom_site_label
_atom_site_fract_x
_atom_site_fract_y
_atom_site_fract_z
Si Si1 0.304660 0.320294 0.232820
Si Si2 0.995066 0.821767 0.431331
Si Si3 0.628972 0.320864 0.743567
Si Si4 0.296098 0.679043 0.902303
Si Si5 0.003718 0.179088 0.119116
Si Si6 0.589422 0.821186 0.000925
O O1 0.279397 0.500000 0.217379
O O2 0.488338 0.285034 0.486946
O O3 0.152797 0.240599 0.167906
O O4 0.302263 0.278436 0.069590
O O5 0.116730 0.732313 0.655305
O O6 0.041564 0.784348 0.317862
O O7 0.789297 0.791171 0.243179
O O8 0.022489 0.000000 0.477186
O O9 0.643315 0.500000 0.770145
O O10 0.566490 0.252901 0.827823
O O11 0.817592 0.251514 0.900308
O O12 0.312302 0.500000 0.908066
O O13 0.451894 0.755485 0.971737
O O14 0.989835 0.000000 0.096070
O O15 0.568942 0.000000 0.967866
#
# Coordination Sequence:
#
# PCOD9130997 Si02
#       6
#     2   2   2   2   2   2
#     4  10  23  39  54  79 114 149 184 223 270 325
#     4   9  20  38  58  82 110 141 180 227 275 324
#     4  10  20  37  61  84 109 143 183 227 273 323
#     4  11  23  37  55  81 113 148 184 224 272 325
#     4  10  21  37  59  85 111 141 181 229 276 323
#     4  10  21  38  59  83 111 142 182 230 274 322
#
# _framework density 18.086538000000001
#
# number of rings (size 3 to 8) (size 9 to 14) (size 15 to 20)
#    0.000    2.000    0.000    4.000    0.000   10.667 
#    0.000    5.000    0.000    0.000    0.000    0.000 
#    0.000    0.000    0.000    0.000    0.000    0.000 
#
# Total GULP energy -67045.114370 kJ/mol
# GULP energy per Si atom -5587.092864 kJ/mol
# Density = 1.804537 g / cm^3
# Si number density = 18.086538 Si / 1000 Ang^3
#
#
#
# Elastic Constant Matrix: (Units=GPa)
#
#
# Indices 1 2 3 4 5 6 
#
# 1 7.3577 28.3290 80.5918 0.0000 -10.6890 0.0000
# 2 28.3290 52.8918 73.9886 0.0000 -6.8829 0.0000
# 3 80.5918 73.9886 166.7627 0.0000 -16.5820 0.0000
# 4 0.0000 0.0000 0.0000 20.8412 0.0000 10.9098
# 5 -10.6890 -6.8829 -16.5820 0.0000 11.0910 0.0000
# 6 0.0000 0.0000 0.0000 10.9098 0.0000 12.2575
#
#
#
# Elastic Compliance Matrix: (Units=1/GPa)
#
#
# Indices 1 2 3 4 5 6 
#
# 1 -0.028570 -0.010397 0.017667 0.000000 -0.007573 0.000000
# 2 -0.010397 0.046114 -0.015958 0.000000 -0.005262 0.000000
# 3 0.017667 -0.015958 0.006164 0.000000 0.016338 0.000000
# 4 0.000000 0.000000 0.000000 0.089840 0.000000 -0.079961
# 5 -0.007573 -0.005262 0.016338 0.000000 0.104026 0.000000
# 6 0.000000 0.000000 0.000000 -0.079961 0.000000 0.152752
#
#
# Mechanical properties :
#
#
# Convention : Reuss Voigt Hill
#
# Bulk Modulus (GPa) = 157.95376 65.87010 111.91193
# Shear Modulus (GPa) = 12.82665 11.77814 12.30240
#
# Velocity S-wave (km/s) = 2.66594 2.55465 2.61089
# Velocity P-wave (km/s) = 9.84876 6.72310 8.43203
#
# Compressibility (1/GPa) = 0.00633097
#
# Stress axis : x y z
#
# Youngs Moduli (GPa) = -35.00232 21.68535 162.24284
#
# Poissons Ratio (x) = 0.22546 -2.86630
# Poissons Ratio (y) = -0.36392 2.58912
# Poissons Ratio (z) = 0.61838 0.34606
#
# Static dielectric constant tensor:
#      x y z
#    x 1.587370 0.000000 0.003070 
#    y 0.000000 1.602870 0.000000 
#    z 0.003070 0.000000 1.606130 
# 
# From -- ./inp_files/2490.got.cif
#   From: 2010.05.17/outbox.cif.g08.bks.cpg/sg6_2_cif.got.tgz:2490.got - 2010.06.03 19:42:10.
