data_PCOD9130991
_publ_section_title
;
Structure prediction by ZEFSAII (Michael W. Deem and Ramdas Pophale) SiO2 
 PCOD9130991
Probable space group: P M
;
_chemical_formula_sum "Si O2"
_cell_formula_units_Z 13
_cell_length_a 13.150158
_cell_length_b 7.928479
_cell_length_c 11.247561
_cell_angle_alpha 90.000000
_cell_angle_beta 146.630676
_cell_angle_gamma 90.000000
_cell_volume 645.013042
_symmetry_space_group_name_H-M "P M"
_symmetry_group_IT_number 6
_symmetry_cell_setting 'monoclinic'
loop_
_space_group_symop_operation_xyz
x,y,z
x,-y,z
loop_
_atom_site_type_symbol
_atom_site_label
_atom_site_fract_x
_atom_site_fract_y
_atom_site_fract_z
Si Si1 0.440370 0.805344 0.018330
Si Si2 0.312569 0.500000 0.314791
Si Si3 0.941628 0.192649 0.717826
Si Si4 0.605638 0.500000 0.779252
Si Si5 0.047325 0.797873 0.558279
Si Si6 0.879131 0.500000 0.824126
Si Si7 0.719124 0.315329 0.110366
Si Si8 0.379311 0.806354 0.212300
O O1 0.597678 0.802864 0.073830
O O2 0.481013 0.742415 0.191086
O O3 0.394331 0.000000 0.999338
O O4 0.253698 0.729269 0.779686
O O5 0.396690 0.500000 0.528723
O O6 0.389798 0.667515 0.324830
O O7 0.090774 0.500000 0.081594
O O8 0.857612 0.333776 0.721052
O O9 0.937452 0.236890 0.573960
O O10 0.872419 0.000000 0.665858
O O11 0.161521 0.190200 0.962971
O O12 0.738610 0.500000 0.795871
O O13 0.653663 0.341240 0.911751
O O14 0.932869 0.726037 0.336911
O O15 0.053917 0.000000 0.550951
O O16 0.685516 0.500000 0.132714
O O17 0.430751 0.000000 0.294841
#
# Coordination Sequence:
#
# PCOD9130991 Si02
#       8
#     2   1   2   1   2   1   2   2
#     4   9  18  35  59  86 114 141 174 223 285 346
#     4  10  20  37  59  77 109 150 181 228 278 320
#     4   8  16  32  57  89 114 136 174 222 280 345
#     4  10  26  40  48  76 108 144 202 232 250 318
#     4   9  18  35  59  86 114 141 174 223 285 346
#     4  10  20  37  59  77 109 150 181 228 278 320
#     4  10  23  36  51  76 111 150 184 232 268 314
#     4   8  16  32  57  89 114 136 174 222 280 345
#
# _framework density 20.154630000000001
#
# number of rings (size 3 to 8) (size 9 to 14) (size 15 to 20)
#    0.462    2.462    0.000    2.308    2.154    3.077 
#    0.000    5.385    0.000    3.692    0.000    0.000 
#    0.000    0.000    0.000    0.000    0.000    0.000 
#
# Total GULP energy -72423.733271 kJ/mol
# GULP energy per Si atom -5571.056405 kJ/mol
# Density = 2.010876 g / cm^3
# Si number density = 20.154630 Si / 1000 Ang^3
#
#
#
# Elastic Constant Matrix: (Units=GPa)
#
#
# Indices 1 2 3 4 5 6 
#
# 1 36.6216 9.3177 3.5491 0.0000 4.2313 0.0000
# 2 9.3177 60.3195 9.7041 0.0000 -9.4769 0.0000
# 3 3.5491 9.7041 103.0544 0.0000 -13.3989 0.0000
# 4 0.0000 0.0000 0.0000 11.4544 0.0000 3.4039
# 5 4.2313 -9.4769 -13.3989 0.0000 25.8780 0.0000
# 6 0.0000 0.0000 0.0000 3.4039 0.0000 14.6742
#
#
#
# Elastic Compliance Matrix: (Units=1/GPa)
#
#
# Indices 1 2 3 4 5 6 
#
# 1 0.029754 -0.005561 -0.001499 0.000000 -0.007678 0.000000
# 2 -0.005561 0.018704 -0.000601 0.000000 0.007448 0.000000
# 3 -0.001499 -0.000601 0.010524 0.000000 0.005474 0.000000
# 4 0.000000 0.000000 0.000000 0.093767 0.000000 -0.021751
# 5 -0.007678 0.007448 0.005474 0.000000 0.045460 0.000000
# 6 0.000000 0.000000 0.000000 -0.021751 0.000000 0.073192
#
#
# Mechanical properties :
#
#
# Convention : Reuss Voigt Hill
#
# Bulk Modulus (GPa) = 22.90547 27.23748 25.07148
# Shear Modulus (GPa) = 16.59603 22.22961 19.41282
#
# Velocity S-wave (km/s) = 2.87267 3.32468 3.10690
# Velocity P-wave (km/s) = 4.73207 5.31804 5.03359
#
# Compressibility (1/GPa) = 0.04365769
#
# Stress axis : x y z
#
# Youngs Moduli (GPa) = 33.60928 53.46361 95.02490
#
# Poissons Ratio (x) = 0.29732 0.14247
# Poissons Ratio (y) = 0.18691 0.05715
# Poissons Ratio (z) = 0.05039 0.03215
#
# Static dielectric constant tensor:
#      x y z
#    x 1.692640 0.000000 0.031680 
#    y 0.000000 1.588420 0.000000 
#    z 0.031680 0.000000 1.768830 
# 
# From -- ./inp_files/5238.got.cif
#   From: 2010.05.17/outbox.cif.g08.bks.cpg/sg6_3_cif.got.tgz:5238.got - 2010.06.03 19:42:10.
