data_PCOD9130021
_publ_section_title
;
Structure prediction by ZEFSAII (Michael W. Deem and Ramdas Pophale) SiO2 
 PCOD9130021
Probable space group: C 2
;
_chemical_formula_sum "Si O2"
_cell_formula_units_Z 28
_cell_length_a 10.068769
_cell_length_b 10.286238
_cell_length_c 20.679263
_cell_angle_alpha 90.000000
_cell_angle_beta 144.036305
_cell_angle_gamma 90.000000
_cell_volume 1257.788654
_symmetry_space_group_name_H-M "C 2"
_symmetry_group_IT_number 5
_symmetry_cell_setting 'monoclinic'
loop_
_space_group_symop_operation_xyz
x,y,z
-x,y,-z
1/2+x,1/2+y,z
1/2-x,1/2+y,-z
loop_
_atom_site_type_symbol
_atom_site_label
_atom_site_fract_x
_atom_site_fract_y
_atom_site_fract_z
Si Si1 0.394665 0.099760 0.054043
Si Si2 0.746095 0.710525 0.128084
Si Si3 0.874196 0.981427 0.241607
Si Si4 0.367401 0.967887 0.255902
Si Si5 0.157046 0.591174 0.622487
Si Si6 0.662717 0.399481 0.625644
Si Si7 0.569287 0.373169 0.956903
O O1 0.388552 0.148621 0.125830
O O2 0.320057 0.232159 0.989395
O O3 0.643120 0.055454 0.133278
O O4 0.232939 0.974832 0.986810
O O5 0.849088 0.839137 0.199759
O O6 0.745932 0.598967 0.181990
O O7 0.500000 0.736414 0.000000
O O8 0.888234 0.967804 0.325570
O O9 0.088783 0.052614 0.296154
O O10 0.429841 0.003269 0.352988
O O11 0.856477 0.744973 0.369249
O O12 0.168459 0.861994 0.173801
O O13 0.000000 0.564172 0.500000
O O14 0.917481 0.431033 0.702192
O O15 0.500000 0.431998 0.500000
O O16 0.500000 0.424561 0.000000
#
# Coordination Sequence:
#
# PCOD9130021 Si02
#       7
#     4   4   4   4   4   4   4
#     4  12  25  42  67 101 139 182 235 279 338 416
#     4  12  23  44  68  99 140 185 221 279 340 416
#     4  12  25  44  70 101 139 177 232 285 347 404
#     4  12  22  45  70  94 140 181 221 283 352 397
#     4  11  26  46  69 100 135 177 231 291 351 404
#     4  11  24  45  73 100 131 179 235 288 344 408
#     4  12  25  42  67 100 140 185 230 279 342 416
#
# _framework density 22.261292999999998
#
# number of rings (size 3 to 8) (size 9 to 14) (size 15 to 20)
#    0.000    0.286    5.714    3.429    0.000    4.000 
#    0.000    0.714    0.000    0.000    0.000    0.000 
#    0.000    0.000    0.000    0.000    0.000    0.000 
#
# Total GULP energy -78352.330622 kJ/mol
# GULP energy per Si atom -5596.595044 kJ/mol
# Density = 2.221062 g / cm^3
# Si number density = 22.261293 Si / 1000 Ang^3
#
#
#
# Elastic Constant Matrix: (Units=GPa)
#
#
# Indices 1 2 3 4 5 6 
#
# 1 50.3289 -8.6407 -17.4928 0.0000 -3.3371 0.0000
# 2 -8.6407 66.4521 2.6181 0.0000 4.1448 0.0000
# 3 -17.4928 2.6181 53.9429 0.0000 0.7966 0.0000
# 4 0.0000 0.0000 0.0000 28.9324 0.0000 0.4980
# 5 -3.3371 4.1448 0.7966 0.0000 43.0154 0.0000
# 6 0.0000 0.0000 0.0000 0.4980 0.0000 39.4408
#
#
#
# Elastic Compliance Matrix: (Units=1/GPa)
#
#
# Indices 1 2 3 4 5 6 
#
# 1 0.022945 0.002609 0.007293 0.000000 0.001394 0.000000
# 2 0.002609 0.015464 0.000115 0.000000 -0.001290 0.000000
# 3 0.007293 0.000115 0.020895 0.000000 0.000168 0.000000
# 4 0.000000 0.000000 0.000000 0.034571 0.000000 -0.000437
# 5 0.001394 -0.001290 0.000168 0.000000 0.023477 0.000000
# 6 0.000000 0.000000 0.000000 -0.000437 0.000000 0.025360
#
#
# Mechanical properties :
#
#
# Convention : Reuss Voigt Hill
#
# Bulk Modulus (GPa) = 12.60433 13.74368 13.17400
# Shear Modulus (GPa) = 33.52947 35.22701 34.37824
#
# Velocity S-wave (km/s) = 3.88516 3.98230 3.93403
# Velocity P-wave (km/s) = 5.07940 5.22801 5.15424
#
# Compressibility (1/GPa) = 0.07933783
#
# Stress axis : x y z
#
# Youngs Moduli (GPa) = 43.58325 64.66787 47.85785
#
# Poissons Ratio (x) = -0.16873 -0.34904
# Poissons Ratio (y) = -0.11372 -0.00549
# Poissons Ratio (z) = -0.31787 -0.00741
#
# Static dielectric constant tensor:
#      x y z
#    x 1.834090 0.000000 -0.035260 
#    y 0.000000 1.845050 0.000000 
#    z -0.035260 0.000000 1.829780 
# 
# From -- ./inp_files/64587.got.cif
#   From: 2010.05.17/outbox.cif.g08.bks.cpg/sg5_33_cif.got.tgz:64587.got - 2010.06.03 18:56:24.
