data_PCOD9130418
_publ_section_title
;
Structure prediction by ZEFSAII (Michael W. Deem and Ramdas Pophale) SiO2 
 PCOD9130418
Probable space group: C 2
;
_chemical_formula_sum "Si O2"
_cell_formula_units_Z 18
_cell_length_a 12.136858
_cell_length_b 7.652597
_cell_length_c 7.981571
_cell_angle_alpha 90.000000
_cell_angle_beta 75.212998
_cell_angle_gamma 90.000000
_cell_volume 716.764788
_symmetry_space_group_name_H-M "C 2"
_symmetry_group_IT_number 5
_symmetry_cell_setting 'monoclinic'
loop_
_space_group_symop_operation_xyz
x,y,z
-x,y,-z
1/2+x,1/2+y,z
1/2-x,1/2+y,-z
loop_
_atom_site_type_symbol
_atom_site_label
_atom_site_fract_x
_atom_site_fract_y
_atom_site_fract_z
Si Si1 0.716565 0.120310 0.617869
Si Si2 0.000000 0.116455 0.000000
Si Si3 0.566779 0.524873 0.301128
Si Si4 0.738388 0.506046 0.759474
Si Si5 0.526714 0.133332 0.186022
O O1 0.730568 0.310809 0.692348
O O2 0.585310 0.063564 0.675366
O O3 0.801466 0.010424 0.700400
O O4 0.757779 0.120010 0.411344
O O5 0.967407 0.172759 0.821816
O O6 0.125183 0.037236 0.910210
O O7 0.500000 0.552593 0.500000
O O8 0.533199 0.337749 0.236174
O O9 0.853272 0.547738 0.814871
O O10 0.500000 0.117581 0.000000
#
# Coordination Sequence:
#
# PCOD9130418 Si02
#       5
#     4   2   4   4   4
#     4  12  25  48  76 111 149 200 254 314 374 448
#     4  12  24  48  74 112 148 204 242 304 384 450
#     4  12  23  47  79 106 155 198 245 312 379 443
#     4  12  26  48  80 107 155 199 254 312 380 450
#     4  12  25  48  74 112 155 200 251 316 377 451
#
# _framework density 25.112841
#
# number of rings (size 3 to 8) (size 9 to 14) (size 15 to 20)
#    0.000    0.000    5.556    4.667    0.000    1.778 
#    6.000    0.000    0.000    0.000    0.000    0.000 
#    0.000    0.000    0.000    0.000    0.000    0.000 
#
# Total GULP energy -50339.128073 kJ/mol
# GULP energy per Si atom -5593.236453 kJ/mol
# Density = 2.505568 g / cm^3
# Si number density = 25.112841 Si / 1000 Ang^3
#
#
#
# Elastic Constant Matrix: (Units=GPa)
#
#
# Indices 1 2 3 4 5 6 
#
# 1 247.9667 43.6589 73.1568 0.0000 18.3030 0.0000
# 2 43.6589 33.7104 17.9452 0.0000 1.0633 0.0000
# 3 73.1568 17.9452 183.4199 0.0000 -0.9204 0.0000
# 4 0.0000 0.0000 0.0000 20.6512 0.0000 12.3773
# 5 18.3030 1.0633 -0.9204 0.0000 50.1833 0.0000
# 6 0.0000 0.0000 0.0000 12.3773 0.0000 40.7208
#
#
#
# Elastic Compliance Matrix: (Units=1/GPa)
#
#
# Indices 1 2 3 4 5 6 
#
# 1 0.005845 -0.006604 -0.001695 0.000000 -0.002023 0.000000
# 2 -0.006604 0.038781 -0.001153 0.000000 0.001566 0.000000
# 3 -0.001695 -0.001153 0.006245 0.000000 0.000757 0.000000
# 4 0.000000 0.000000 0.000000 0.059210 0.000000 -0.017997
# 5 -0.002023 0.001566 0.000757 0.000000 0.020646 0.000000
# 6 0.000000 0.000000 0.000000 -0.017997 0.000000 0.030028
#
#
# Mechanical properties :
#
#
# Convention : Reuss Voigt Hill
#
# Bulk Modulus (GPa) = 31.28149 81.62431 56.45290
# Shear Modulus (GPa) = 26.27253 44.33346 35.30299
#
# Velocity S-wave (km/s) = 3.23798 4.20619 3.75343
# Velocity P-wave (km/s) = 5.14420 7.49419 6.42751
#
# Compressibility (1/GPa) = 0.03196778
#
# Stress axis : x y z
#
# Youngs Moduli (GPa) = 171.08721 25.78581 160.13553
#
# Poissons Ratio (x) = 0.17028 0.27148
# Poissons Ratio (y) = 1.12980 0.18456
# Poissons Ratio (z) = 0.29005 0.02972
#
# Static dielectric constant tensor:
#      x y z
#    x 1.946800 0.000000 0.029130 
#    y 0.000000 2.077000 0.000000 
#    z 0.029130 0.000000 1.797210 
# 
# From -- ./inp_files/17981.got.cif
#   From: 2010.05.17/outbox.cif.g08.bks.cpg/sg5_9_cif.got.tgz:17981.got - 2010.06.03 18:56:24.
