data_PCOD9130972
_publ_section_title
;
Structure prediction by ZEFSAII (Michael W. Deem and Ramdas Pophale) SiO2 
 PCOD9130972
Probable space group: P M
;
_chemical_formula_sum "Si O2"
_cell_formula_units_Z 16
_cell_length_a 16.455842
_cell_length_b 8.904817
_cell_length_c 10.451581
_cell_angle_alpha 90.000000
_cell_angle_beta 36.671102
_cell_angle_gamma 90.000000
_cell_volume 914.664742
_symmetry_space_group_name_H-M "P M"
_symmetry_group_IT_number 6
_symmetry_cell_setting 'monoclinic'
loop_
_space_group_symop_operation_xyz
x,y,z
x,-y,z
loop_
_atom_site_type_symbol
_atom_site_label
_atom_site_fract_x
_atom_site_fract_y
_atom_site_fract_z
Si Si1 0.235140 0.179210 0.753870
Si Si2 0.801636 0.320538 0.650613
Si Si3 0.093695 0.680461 0.177690
Si Si4 0.514704 0.821089 0.013240
Si Si5 0.078569 0.821544 0.689161
Si Si6 0.250995 0.320438 0.241214
Si Si7 0.810463 0.678074 0.942735
Si Si8 0.500617 0.320203 0.313229
O O1 0.147785 0.215639 0.736990
O O2 0.381087 0.257708 0.551972
O O3 0.252439 0.000000 0.737291
O O4 0.157792 0.238312 0.975769
O O5 0.778190 0.500000 0.668687
O O6 0.936285 0.279414 0.402626
O O7 0.828225 0.292128 0.768131
O O8 0.665165 0.234005 0.785656
O O9 0.099706 0.500000 0.152314
O O10 0.177883 0.716058 0.200024
O O11 0.398036 0.754755 0.070303
O O12 0.488098 0.754897 0.189111
O O13 0.507059 0.000000 0.027458
O O14 0.922537 0.769624 0.877903
O O15 0.089305 0.000000 0.656195
O O16 0.263038 0.500000 0.235753
O O17 0.159053 0.261213 0.474061
O O18 0.832526 0.500000 0.934301
O O19 0.652974 0.713193 0.170610
O O20 0.490216 0.500000 0.311440
#
# Coordination Sequence:
#
# PCOD9130972 Si02
#       8
#     2   2   2   2   2   2   2   2
#     4  11  24  39  56  84 120 153 189 234 289 348
#     4   9  18  36  57  82 113 148 190 235 282 339
#     4  10  22  40  61  84 112 150 197 236 281 342
#     4  11  21  33  54  88 119 146 185 236 291 340
#     4  11  22  35  55  86 118 148 187 234 285 342
#     4  11  21  37  60  85 112 148 193 241 281 333
#     4   9  18  34  57  85 112 142 188 238 281 330
#     4  10  20  36  58  82 112 153 195 234 280 336
#
# _framework density 17.492747000000001
#
# number of rings (size 3 to 8) (size 9 to 14) (size 15 to 20)
#    0.000    1.750    2.500    3.375    0.000    5.500 
#    0.000    1.250    0.000    1.500    0.000    0.000 
#    0.000    0.000    0.000    0.000    0.000    0.000 
#
# Total GULP energy -89363.544451 kJ/mol
# GULP energy per Si atom -5585.221528 kJ/mol
# Density = 1.745293 g / cm^3
# Si number density = 17.492747 Si / 1000 Ang^3
#
#
#
# Elastic Constant Matrix: (Units=GPa)
#
#
# Indices 1 2 3 4 5 6 
#
# 1 90.1165 59.4639 71.3462 0.0000 -9.3731 0.0000
# 2 59.4639 72.2527 67.1297 0.0000 -5.8050 0.0000
# 3 71.3462 67.1297 155.5677 0.0000 -10.0763 0.0000
# 4 0.0000 0.0000 0.0000 12.8275 0.0000 2.6911
# 5 -9.3731 -5.8050 -10.0763 0.0000 27.9453 0.0000
# 6 0.0000 0.0000 0.0000 2.6911 0.0000 15.2471
#
#
#
# Elastic Compliance Matrix: (Units=1/GPa)
#
#
# Indices 1 2 3 4 5 6 
#
# 1 0.026406 -0.017371 -0.004377 0.000000 0.003670 0.000000
# 2 -0.017371 0.034571 -0.007028 0.000000 -0.001179 0.000000
# 3 -0.004377 -0.007028 0.011548 0.000000 0.001236 0.000000
# 4 0.000000 0.000000 0.000000 0.080955 0.000000 -0.014289
# 5 0.003670 -0.001179 0.001236 0.000000 0.037216 0.000000
# 6 0.000000 0.000000 0.000000 -0.014289 0.000000 0.068108
#
#
# Mechanical properties :
#
#
# Convention : Reuss Voigt Hill
#
# Bulk Modulus (GPa) = 66.78029 79.31295 73.04662
# Shear Modulus (GPa) = 15.55957 19.20379 17.38168
#
# Velocity S-wave (km/s) = 2.98566 3.31692 3.15564
# Velocity P-wave (km/s) = 7.08127 7.75295 7.42471
#
# Compressibility (1/GPa) = 0.01497448
#
# Stress axis : x y z
#
# Youngs Moduli (GPa) = 37.87066 28.92597 86.59512
#
# Poissons Ratio (x) = 0.50246 0.37901
# Poissons Ratio (y) = 0.65783 0.60857
# Poissons Ratio (z) = 0.16575 0.20329
#
# Static dielectric constant tensor:
#      x y z
#    x 1.576500 0.000000 -0.019780 
#    y 0.000000 1.581530 0.000000 
#    z -0.019780 0.000000 1.592220 
# 
# From -- ./inp_files/5340.got.cif
#   From: 2010.05.17/outbox.cif.g08.bks.cpg/sg6_3_cif.got.tgz:5340.got - 2010.06.03 19:42:10.
