data_PCOD9130270
_publ_section_title
;
Structure prediction by ZEFSAII (Michael W. Deem and Ramdas Pophale) SiO2 
 PCOD9130270
Probable space group: C 2
;
_chemical_formula_sum "Si O2"
_cell_formula_units_Z 22
_cell_length_a 15.037432
_cell_length_b 7.697361
_cell_length_c 22.872022
_cell_angle_alpha 90.000000
_cell_angle_beta 159.103483
_cell_angle_gamma 90.000000
_cell_volume 944.278978
_symmetry_space_group_name_H-M "C 2"
_symmetry_group_IT_number 5
_symmetry_cell_setting 'monoclinic'
loop_
_space_group_symop_operation_xyz
x,y,z
-x,y,-z
1/2+x,1/2+y,z
1/2-x,1/2+y,-z
loop_
_atom_site_type_symbol
_atom_site_label
_atom_site_fract_x
_atom_site_fract_y
_atom_site_fract_z
Si Si1 0.077786 0.699490 0.986848
Si Si2 0.340631 0.804698 0.956398
Si Si3 0.432036 0.791949 0.777459
Si Si4 0.000000 0.515281 0.500000
Si Si5 0.464313 0.787634 0.362667
Si Si6 0.899040 0.543855 0.659720
O O1 0.805104 0.698827 0.791231
O O2 0.196256 0.511559 0.074329
O O3 0.287534 0.787801 0.077276
O O4 0.000000 0.786725 0.000000
O O5 0.094907 0.688483 0.802951
O O6 0.500000 0.740153 0.000000
O O7 0.507615 0.797628 0.117093
O O8 0.250404 0.630490 0.656217
O O9 0.312804 0.944653 0.665471
O O10 0.987699 0.404480 0.551251
O O11 0.673073 0.639923 0.488968
O O12 0.493084 0.906524 0.321855
#
# Coordination Sequence:
#
# PCOD9130270 Si02
#       6
#     4   4   4   2   4   4
#     4  11  26  49  74 108 150 204 262 316 386 455
#     4  11  27  46  80 107 149 200 263 318 387 453
#     4  12  27  49  77 112 156 203 263 317 384 464
#     4  12  30  46  76 114 162 204 262 314 392 464
#     4  12  29  48  77 115 157 207 257 320 392 459
#     4  12  28  49  79 110 160 202 258 320 387 458
#
# _framework density 23.298197999999999
#
# number of rings (size 3 to 8) (size 9 to 14) (size 15 to 20)
#    0.000    0.364    1.818    4.364   20.364    0.000 
#    0.000    0.000    0.000    0.000    0.000    0.000 
#    0.000    0.000    0.000    0.000    0.000    0.000 
#
# Total GULP energy -61482.832862 kJ/mol
# GULP energy per Si atom -5589.348442 kJ/mol
# Density = 2.324517 g / cm^3
# Si number density = 23.298198 Si / 1000 Ang^3
#
#
#
# Elastic Constant Matrix: (Units=GPa)
#
#
# Indices 1 2 3 4 5 6 
#
# 1 146.4392 27.0931 34.1101 -0.0061 -23.0759 -0.0010
# 2 27.0931 68.8662 39.8109 -0.0039 7.3884 -0.0012
# 3 34.1101 39.8109 101.8138 -0.0062 3.4491 -0.0048
# 4 -0.0061 -0.0039 -0.0062 52.9292 0.0021 1.2183
# 5 -23.0759 7.3884 3.4491 0.0021 33.1834 -0.0003
# 6 -0.0010 -0.0012 -0.0048 1.2183 -0.0003 24.7187
#
#
#
# Elastic Compliance Matrix: (Units=1/GPa)
#
#
# Indices 1 2 3 4 5 6 
#
# 1 0.009015 -0.003140 -0.002036 0.000000 0.007180 0.000000
# 2 -0.003140 0.020252 -0.006664 0.000001 -0.006000 0.000000
# 3 -0.002036 -0.006664 0.013153 0.000001 -0.001299 0.000002
# 4 0.000000 0.000001 0.000001 0.018915 -0.000001 -0.000932
# 5 0.007180 -0.006000 -0.001299 -0.000001 0.036600 0.000000
# 6 0.000000 0.000000 0.000002 -0.000932 0.000000 0.040501
#
#
# Mechanical properties :
#
#
# Convention : Reuss Voigt Hill
#
# Bulk Modulus (GPa) = 53.35650 57.68304 55.51977
# Shear Modulus (GPa) = 29.69772 36.57328 33.13550
#
# Velocity S-wave (km/s) = 3.57414 3.96636 3.77534
# Velocity P-wave (km/s) = 6.32328 6.76671 6.54875
#
# Compressibility (1/GPa) = 0.01874186
#
# Stress axis : x y z
#
# Youngs Moduli (GPa) = 110.92144 49.37710 76.02555
#
# Poissons Ratio (x) = 0.15506 0.15476
# Poissons Ratio (y) = 0.34833 0.50661
# Poissons Ratio (z) = 0.22580 0.32903
#
# Static dielectric constant tensor:
#      x y z
#    x 1.886110 0.000000 0.001250 
#    y 0.000000 1.899370 0.000000 
#    z 0.001250 0.000000 1.935650 
# 
# From -- ./inp_files/68743.got.cif
#   From: 2010.05.17/outbox.cif.g08.bks.cpg/sg5_35_cif.got.tgz:68743.got - 2010.06.03 18:56:24.
