data_PCOD9130493
_publ_section_title
;
Structure prediction by ZEFSAII (Michael W. Deem and Ramdas Pophale) SiO2 
 PCOD9130493
Probable space group: C 2
;
_chemical_formula_sum "Si O2"
_cell_formula_units_Z 20
_cell_length_a 15.109313
_cell_length_b 12.086542
_cell_length_c 12.160355
_cell_angle_alpha 90.000000
_cell_angle_beta 154.225017
_cell_angle_gamma 90.000000
_cell_volume 965.651633
_symmetry_space_group_name_H-M "C 2"
_symmetry_group_IT_number 5
_symmetry_cell_setting 'monoclinic'
loop_
_space_group_symop_operation_xyz
x,y,z
-x,y,-z
1/2+x,1/2+y,z
1/2-x,1/2+y,-z
loop_
_atom_site_type_symbol
_atom_site_label
_atom_site_fract_x
_atom_site_fract_y
_atom_site_fract_z
Si Si1 0.221958 0.119740 0.378449
Si Si2 0.790614 0.986030 0.200621
Si Si3 0.885851 0.935857 0.056138
Si Si4 0.500000 0.812554 0.000000
Si Si5 0.000000 0.521787 0.500000
Si Si6 0.005839 0.695874 0.880376
O O1 0.399237 0.090729 0.488088
O O2 0.315874 0.140981 0.604235
O O3 0.060966 0.018886 0.207489
O O4 0.113117 0.229712 0.210846
O O5 0.831762 0.964785 0.119682
O O6 0.000000 0.990918 0.500000
O O7 0.651375 0.892191 0.101908
O O8 0.676819 0.102617 0.074560
O O9 0.951117 0.809054 0.133323
O O10 0.685454 0.952095 0.757686
O O11 0.000000 0.731716 0.000000
#
# Coordination Sequence:
#
# PCOD9130493 Si02
#       6
#     4   4   4   2   2   4
#     4  12  27  49  78 108 145 195 250 295 364 441
#     4  12  28  48  72 108 149 195 245 296 371 431
#     4  12  28  47  77 109 145 194 245 304 363 434
#     4  12  28  48  78 104 148 200 244 298 356 452
#     4  12  24  50  74 110 144 190 252 292 370 434
#     4  12  27  48  73 107 150 186 240 310 362 425
#
# _framework density 20.711400999999999
#
# number of rings (size 3 to 8) (size 9 to 14) (size 15 to 20)
#    0.000    0.000    5.000    3.600   11.200    1.600 
#    0.000    0.000    0.000    0.000    0.000    0.000 
#    0.000    0.000    0.000    0.000    0.000    0.000 
#
# Total GULP energy -55937.091564 kJ/mol
# GULP energy per Si atom -5593.709156 kJ/mol
# Density = 2.066426 g / cm^3
# Si number density = 20.711401 Si / 1000 Ang^3
#
#
#
# Elastic Constant Matrix: (Units=GPa)
#
#
# Indices 1 2 3 4 5 6 
#
# 1 390.8509 224.3173 106.5474 0.0005 -39.7315 0.0014
# 2 224.3173 266.5043 87.5238 0.0004 2.7531 0.0011
# 3 106.5474 87.5238 164.1145 0.0000 -10.9692 0.0001
# 4 0.0005 0.0004 0.0000 -3.9884 -0.0001 -91.5269
# 5 -39.7315 2.7531 -10.9692 -0.0001 43.3914 -0.0002
# 6 0.0014 0.0011 0.0001 -91.5269 -0.0002 -146.9374
#
#
#
# Elastic Compliance Matrix: (Units=1/GPa)
#
#
# Indices 1 2 3 4 5 6 
#
# 1 0.006337 -0.005058 -0.001025 0.000000 0.005864 0.000000
# 2 -0.005058 0.008622 -0.001689 0.000000 -0.005605 0.000000
# 3 -0.001025 -0.001689 0.007735 0.000000 0.001124 0.000000
# 4 0.000000 0.000000 0.000000 0.018860 0.000000 -0.011748
# 5 0.005864 -0.005605 0.001124 0.000000 0.029055 0.000000
# 6 0.000000 0.000000 0.000000 -0.011748 0.000000 0.000512
#
#
# Mechanical properties :
#
#
# Convention : Reuss Voigt Hill
#
# Bulk Modulus (GPa) = 139.85927 184.24961 162.05444
# Shear Modulus (GPa) = 56.15052 5.36523 30.75787
#
# Velocity S-wave (km/s) = 5.21246 1.61124 3.85784
# Velocity P-wave (km/s) = 10.19317 9.62367 9.91251
#
# Compressibility (1/GPa) = 0.00715004
#
# Stress axis : x y z
#
# Youngs Moduli (GPa) = 157.81321 115.98287 129.28895
#
# Poissons Ratio (x) = 0.58659 0.13248
# Poissons Ratio (y) = 0.79815 0.21841
# Poissons Ratio (z) = 0.16171 0.19593
#
# Static dielectric constant tensor:
#      x y z
#    x 1.758260 0.000000 0.008420 
#    y 0.000000 1.619510 0.000000 
#    z 0.008420 0.000000 1.720600 
# 
# From -- ./inp_files/38991.got.cif
#   From: 2010.05.17/outbox.cif.g08.bks.cpg/sg5_20_cif.got.tgz:38991.got - 2010.06.03 18:56:24.
