data_PCOD9130912
_publ_section_title
;
Structure prediction by ZEFSAII (Michael W. Deem and Ramdas Pophale) SiO2 
 PCOD9130912
Probable space group: P M
;
_chemical_formula_sum "Si O2"
_cell_formula_units_Z 16
_cell_length_a 10.166056
_cell_length_b 8.291268
_cell_length_c 12.384756
_cell_angle_alpha 90.000000
_cell_angle_beta 51.185847
_cell_angle_gamma 90.000000
_cell_volume 813.393061
_symmetry_space_group_name_H-M "P M"
_symmetry_group_IT_number 6
_symmetry_cell_setting 'monoclinic'
loop_
_space_group_symop_operation_xyz
x,y,z
x,-y,z
loop_
_atom_site_type_symbol
_atom_site_label
_atom_site_fract_x
_atom_site_fract_y
_atom_site_fract_z
Si Si1 0.970670 0.694956 0.797680
Si Si2 0.976179 0.189110 0.256634
Si Si3 0.593391 0.697286 0.931984
Si Si4 0.280529 0.807316 0.490968
Si Si5 0.487798 0.686997 0.749688
Si Si6 0.597458 0.190043 0.466268
Si Si7 0.284000 0.307915 0.242856
Si Si8 0.085056 0.687368 0.973523
O O1 0.972953 0.500000 0.797569
O O2 0.781590 0.747973 0.866474
O O3 0.114451 0.747798 0.639817
O O4 0.014422 0.749311 0.896356
O O5 0.786402 0.258237 0.360384
O O6 0.113994 0.268847 0.263977
O O7 0.972299 0.000000 0.286787
O O8 0.032650 0.213276 0.104500
O O9 0.587672 0.500000 0.935025
O O10 0.556397 0.748401 0.828546
O O11 0.445756 0.751282 0.089692
O O12 0.449800 0.743152 0.464471
O O13 0.279475 0.760906 0.365906
O O14 0.281864 0.000000 0.499009
O O15 0.542510 0.500000 0.706941
O O16 0.541582 0.785666 0.618002
O O17 0.286392 0.687508 0.861215
O O18 0.610664 0.000000 0.434102
O O19 0.298939 0.500000 0.244051
O O20 0.031242 0.500000 0.016563
#
# Coordination Sequence:
#
# PCOD9130912 Si02
#       8
#     2   2   2   2   2   2   2   2
#     4  10  21  39  62  89 119 155 199 247 296 350
#     4  11  24  41  61  88 122 160 201 245 297 357
#     4   9  20  38  60  88 118 149 193 247 298 348
#     4  11  24  42  60  86 124 162 199 244 296 358
#     4  10  19  37  62  87 115 149 198 252 295 345
#     4  10  24  42  59  85 123 161 200 243 294 356
#     4  11  23  42  64  88 120 158 199 248 300 354
#     4  10  20  37  62  89 117 150 199 252 296 348
#
# _framework density 19.670687000000001
#
# number of rings (size 3 to 8) (size 9 to 14) (size 15 to 20)
#    0.000    1.750    2.500    1.125    3.500    2.500 
#    0.000    1.250    0.000    0.000    0.000    0.000 
#    0.000    0.000    0.000    0.000    0.000    0.000 
#
# Total GULP energy -89341.821058 kJ/mol
# GULP energy per Si atom -5583.863816 kJ/mol
# Density = 1.962592 g / cm^3
# Si number density = 19.670687 Si / 1000 Ang^3
#
#
#
# Elastic Constant Matrix: (Units=GPa)
#
#
# Indices 1 2 3 4 5 6 
#
# 1 192.4784 9.5424 85.6425 0.0000 4.6197 0.0000
# 2 9.5424 10.2599 1.1441 0.0000 -6.2521 0.0000
# 3 85.6425 1.1441 118.1445 0.0000 -1.9757 0.0000
# 4 0.0000 0.0000 0.0000 87.6675 0.0000 -2.3436
# 5 4.6197 -6.2521 -1.9757 0.0000 38.3453 0.0000
# 6 0.0000 0.0000 0.0000 -2.3436 0.0000 21.0265
#
#
#
# Elastic Compliance Matrix: (Units=1/GPa)
#
#
# Indices 1 2 3 4 5 6 
#
# 1 0.008385 -0.008806 -0.006039 0.000000 -0.002757 0.000000
# 2 -0.008806 0.117533 0.005588 0.000000 0.020512 0.000000
# 3 -0.006039 0.005588 0.012826 0.000000 0.002300 0.000000
# 4 0.000000 0.000000 0.000000 0.011441 0.000000 0.001275
# 5 -0.002757 0.020512 0.002300 0.000000 0.029874 0.000000
# 6 0.000000 0.000000 0.000000 0.001275 0.000000 0.047701
#
#
# Mechanical properties :
#
#
# Convention : Reuss Voigt Hill
#
# Bulk Modulus (GPa) = 8.31733 57.06009 32.68871
# Shear Modulus (GPa) = 17.46107 44.37812 30.91960
#
# Velocity S-wave (km/s) = 2.98261 4.75495 3.96897
# Velocity P-wave (km/s) = 4.01233 7.69524 6.13659
#
# Compressibility (1/GPa) = 0.12023092
#
# Stress axis : x y z
#
# Youngs Moduli (GPa) = 119.25694 8.50825 77.96424
#
# Poissons Ratio (x) = 0.07492 0.47085
# Poissons Ratio (y) = 1.05012 -0.43566
# Poissons Ratio (z) = 0.72023 -0.04754
#
# Static dielectric constant tensor:
#      x y z
#    x 1.679810 0.000000 -0.029140 
#    y 0.000000 1.705500 0.000000 
#    z -0.029140 0.000000 1.644610 
# 
# From -- ./inp_files/3727.got.cif
#   From: 2010.05.17/outbox.cif.g08.bks.cpg/sg6_2_cif.got.tgz:3727.got - 2010.06.03 19:42:10.
