data_PCOD9130550
_publ_section_title
;
Structure prediction by ZEFSAII (Michael W. Deem and Ramdas Pophale) SiO2 
 PCOD9130550
Probable space group: C 2
;
_chemical_formula_sum "Si O2"
_cell_formula_units_Z 10
_cell_length_a 8.436584
_cell_length_b 4.979937
_cell_length_c 8.357278
_cell_angle_alpha 90.000000
_cell_angle_beta 87.790114
_cell_angle_gamma 90.000000
_cell_volume 350.858674
_symmetry_space_group_name_H-M "C 2"
_symmetry_group_IT_number 5
_symmetry_cell_setting 'monoclinic'
loop_
_space_group_symop_operation_xyz
x,y,z
-x,y,-z
1/2+x,1/2+y,z
1/2-x,1/2+y,-z
loop_
_atom_site_type_symbol
_atom_site_label
_atom_site_fract_x
_atom_site_fract_y
_atom_site_fract_z
Si Si1 0.665246 0.737290 0.062487
Si Si2 0.362721 0.380791 0.622538
Si Si3 0.000000 0.379466 0.500000
O O1 0.647486 0.576937 0.228120
O O2 0.500000 0.837872 0.000000
O O3 0.722035 0.495902 0.941782
O O4 0.500000 0.523192 0.500000
O O5 0.447956 0.097781 0.645597
O O6 0.191242 0.345412 0.555382
#
# Coordination Sequence:
#
# PCOD9130550 Si02
#       3
#     4   4   2
#     4  12  26  45  70 101 138 177 223 280 340 398
#     4   8  16  36  63  89 129 168 222 263 329 390
#     4   6  14  28  62  78 128 150 228 240 334 352
#
# _framework density 28.501507
#
# number of rings (size 3 to 8) (size 9 to 14) (size 15 to 20)
#    2.400    0.000    0.000    3.600    0.000    0.000 
#    0.000    4.000    0.000    0.000    0.000    0.000 
#    0.000    0.000    0.000    0.000    0.000    0.000 
#
# Total GULP energy -27975.964964 kJ/mol
# GULP energy per Si atom -5595.192993 kJ/mol
# Density = 2.843664 g / cm^3
# Si number density = 28.501507 Si / 1000 Ang^3
#
#
#
# Elastic Constant Matrix: (Units=GPa)
#
#
# Indices 1 2 3 4 5 6 
#
# 1 233.4071 54.0050 32.7446 0.0000 2.9241 0.0000
# 2 54.0050 197.4938 -11.9423 0.0000 -14.2878 0.0000
# 3 32.7446 -11.9423 101.0916 0.0000 -17.6216 0.0000
# 4 0.0000 0.0000 0.0000 23.6898 0.0000 23.4614
# 5 2.9241 -14.2878 -17.6216 0.0000 43.2455 0.0000
# 6 0.0000 0.0000 0.0000 23.4614 0.0000 4.7859
#
#
#
# Elastic Compliance Matrix: (Units=1/GPa)
#
#
# Indices 1 2 3 4 5 6 
#
# 1 0.004974 -0.001612 -0.002102 0.000000 -0.001726 0.000000
# 2 -0.001612 0.005802 0.001680 0.000000 0.002710 0.000000
# 3 -0.002102 0.001680 0.011726 0.000000 0.005475 0.000000
# 4 0.000000 0.000000 0.000000 -0.010950 0.000000 0.053680
# 5 -0.001726 0.002710 0.005475 0.000000 0.026367 0.000000
# 6 0.000000 0.000000 0.000000 0.053680 0.000000 -0.054202
#
#
# Mechanical properties :
#
#
# Convention : Reuss Voigt Hill
#
# Bulk Modulus (GPa) = 54.25054 75.73410 64.99232
# Shear Modulus (GPa) = -823.63367 44.82324 -389.40521
#
# Velocity S-wave (km/s) = -17.01782 3.96998 -11.70140
# Velocity P-wave (km/s) = 19.15897 6.90246 12.63769
#
# Compressibility (1/GPa) = 0.01843299
#
# Stress axis : x y z
#
# Youngs Moduli (GPa) = 201.04893 172.35556 85.28155
#
# Poissons Ratio (x) = 0.27785 0.17929
# Poissons Ratio (y) = 0.32411 -0.14328
# Poissons Ratio (z) = 0.42267 -0.28957
#
# Static dielectric constant tensor:
#      x y z
#    x 2.183900 0.000000 -0.246770 
#    y 0.000000 2.241240 0.000000 
#    z -0.246770 0.000000 2.424340 
# 
# From -- ./inp_files/11374.got.cif
#   From: 2010.05.17/outbox.cif.g08.bks.cpg/sg5_6_cif.got.tgz:11374.got - 2010.06.03 18:56:24.
