data_PCOD9130751
_publ_section_title
;
Structure prediction by ZEFSAII (Michael W. Deem and Ramdas Pophale) SiO2 
 PCOD9130751
Probable space group: C 2
;
_chemical_formula_sum "Si O2"
_cell_formula_units_Z 11
_cell_length_a 15.000000
_cell_length_b 12.000000
_cell_length_c 6.000000
_cell_angle_alpha 90.000000
_cell_angle_beta 100.000000
_cell_angle_gamma 90.000000
_cell_volume 1063.592373
_symmetry_space_group_name_H-M "C 2"
_symmetry_group_IT_number 5
_symmetry_cell_setting 'monoclinic'
loop_
_space_group_symop_operation_xyz
x,y,z
-x,y,-z
1/2+x,1/2+y,z
1/2-x,1/2+y,-z
loop_
_atom_site_type_symbol
_atom_site_label
_atom_site_fract_x
_atom_site_fract_y
_atom_site_fract_z
Si Si1 0.774658 0.641550 0.608736
Si Si2 0.665991 0.920849 0.090162
Si Si3 0.000000 0.018745 0.000000
Si Si4 0.145213 0.815072 0.012314
Si Si5 0.578189 0.718514 0.353211
Si Si6 0.913343 0.599219 0.289132
O O1 0.792192 0.527296 0.755838
O O2 0.826722 0.745646 0.751165
O O3 0.670473 0.676811 0.518303
O O4 0.823552 0.613003 0.398793
O O5 0.609225 0.826099 0.209691
O O6 0.755604 0.854643 0.038638
O O7 0.603959 0.989665 0.878367
O O8 0.082821 0.927989 0.996411
O O9 0.037551 0.109767 0.200366
O O10 0.090238 0.717281 0.850778
O O11 0.500000 0.750394 0.500000
O O12 0.000000 0.590440 0.500000
#
# Coordination Sequence:
#
# PCOD9130751 Si02
#       6
#     4   4   2   4   4   4
#     4  11  26  48  76 108 151 208 243 305 384 445
#     4  11  27  47  76 109 156 196 253 311 371 455
#     4  12  28  46  78 114 148 194 254 316 370 458
#     4  11  25  48  76 110 150 197 256 303 374 460
#     4  12  29  48  76 113 153 199 254 313 382 435
#     4  11  25  47  77 111 148 197 252 309 377 442
#
# _framework density 10.342307999999999
#
# number of rings (size 3 to 8) (size 9 to 14) (size 15 to 20)
#    0.000    0.727    1.818    3.273   10.182    8.000 
#    0.000    0.000    0.000    0.000    0.000    0.000 
#    0.000    0.000    0.000    0.000    0.000    0.000 
#
# Total GULP energy -61401.156718 kJ/mol
# GULP energy per Si atom -5581.923338 kJ/mol
# Density = 1.031877 g / cm^3
# Si number density = 10.342308 Si / 1000 Ang^3
#
#
#
# Elastic Constant Matrix: (Units=GPa)
#
#
# Indices 1 2 3 4 5 6 
#
# 1 166.1785 61.1717 59.0466 0.0000 2.4560 0.0000
# 2 61.1717 196.1105 71.3909 0.0000 -1.0802 0.0000
# 3 59.0466 71.3909 118.4667 0.0000 20.0425 0.0000
# 4 0.0000 0.0000 0.0000 55.6951 0.0000 0.9797
# 5 2.4560 -1.0802 20.0425 0.0000 54.8360 0.0000
# 6 0.0000 0.0000 0.0000 0.9797 0.0000 56.2489
#
#
#
# Elastic Compliance Matrix: (Units=1/GPa)
#
#
# Indices 1 2 3 4 5 6 
#
# 1 0.007581 -0.001198 -0.003193 0.000000 0.000804 0.000000
# 2 -0.001198 0.006868 -0.003809 0.000000 0.001581 0.000000
# 3 -0.003193 -0.003809 0.013128 0.000000 -0.004730 0.000000
# 4 0.000000 0.000000 0.000000 0.017960 0.000000 -0.000313
# 5 0.000804 0.001581 -0.004730 0.000000 0.019960 0.000000
# 6 0.000000 0.000000 0.000000 -0.000313 0.000000 0.017784
#
#
# Mechanical properties :
#
#
# Convention : Reuss Voigt Hill
#
# Bulk Modulus (GPa) = 89.46378 95.99714 92.73046
# Shear Modulus (GPa) = 48.35199 52.63242 50.49221
#
# Velocity S-wave (km/s) = 4.84010 5.04980 4.94606
# Velocity P-wave (km/s) = 8.63601 8.97281 8.80602
#
# Compressibility (1/GPa) = 0.01117771
#
# Stress axis : x y z
#
# Youngs Moduli (GPa) = 131.90561 145.59560 76.17074
#
# Poissons Ratio (x) = 0.17444 0.24318
# Poissons Ratio (y) = 0.15804 0.29016
# Poissons Ratio (z) = 0.42112 0.55463
#
# Static dielectric constant tensor:
#      x y z
#    x 1.754390 0.000000 -0.019900 
#    y 0.000000 1.735630 0.000000 
#    z -0.019900 0.000000 1.828090 
# 
# From -- ./inp_files/6656.got.cif
#   From: 2010.05.17/outbox.ucp.g08.bks.cvg/sg5_4_cif.got.tgz:6656.got - 2010.06.11 12:53:14.
