data_PCOD9130093
_publ_section_title
;
Structure prediction by ZEFSAII (Michael W. Deem and Ramdas Pophale) SiO2 
 PCOD9130093
Probable space group: C 2
;
_chemical_formula_sum "Si O2"
_cell_formula_units_Z 18
_cell_length_a 12.194862
_cell_length_b 7.246460
_cell_length_c 8.043433
_cell_angle_alpha 90.000000
_cell_angle_beta 113.203379
_cell_angle_gamma 90.000000
_cell_volume 653.300099
_symmetry_space_group_name_H-M "C 2"
_symmetry_group_IT_number 5
_symmetry_cell_setting 'monoclinic'
loop_
_space_group_symop_operation_xyz
x,y,z
-x,y,-z
1/2+x,1/2+y,z
1/2-x,1/2+y,-z
loop_
_atom_site_type_symbol
_atom_site_label
_atom_site_fract_x
_atom_site_fract_y
_atom_site_fract_z
Si Si1 0.254372 0.264500 0.565827
Si Si2 0.277344 0.125555 0.238243
Si Si3 0.983521 0.532051 0.799661
Si Si4 0.000000 0.083714 0.500000
Si Si5 0.562890 0.608621 0.879390
O O1 0.264525 0.282443 0.371107
O O2 0.268129 0.447268 0.684711
O O3 0.360130 0.121146 0.668446
O O4 0.122892 0.194010 0.538230
O O5 0.410697 0.094297 0.258075
O O6 0.196859 0.145254 0.023946
O O7 0.002140 0.309192 0.815378
O O8 0.000000 0.589126 0.000000
O O9 0.964974 0.994935 0.302645
O O10 0.500000 0.520982 0.000000
#
# Coordination Sequence:
#
# PCOD9130093 Si02
#       5
#     4   4   4   2   4
#     4  12  27  50  84 122 174 215 285 341 422 510
#     4  12  27  51  83 129 168 224 286 345 427 511
#     4  11  26  49  84 118 169 222 277 350 423 497
#     4  12  22  50  78 118 166 216 264 352 412 502
#     4  11  24  48  78 118 168 216 275 344 422 494
#
# _framework density 27.552423000000001
#
# number of rings (size 3 to 8) (size 9 to 14) (size 15 to 20)
#    0.000    0.444    4.444    3.333    3.111    0.889 
#    4.000    0.000    0.000    0.000    0.000    0.000 
#    0.000    0.000    0.000    0.000    0.000    0.000 
#
# Total GULP energy -50439.958275 kJ/mol
# GULP energy per Si atom -5604.439808 kJ/mol
# Density = 2.748971 g / cm^3
# Si number density = 27.552423 Si / 1000 Ang^3
#
#
#
# Elastic Constant Matrix: (Units=GPa)
#
#
# Indices 1 2 3 4 5 6 
#
# 1 195.2332 42.4947 72.6434 0.0000 -3.6429 0.0000
# 2 42.4947 145.6566 48.1760 0.0000 5.4110 0.0000
# 3 72.6434 48.1760 243.5715 0.0000 3.8005 0.0000
# 4 0.0000 0.0000 0.0000 25.0545 0.0000 3.8786
# 5 -3.6429 5.4110 3.8005 0.0000 68.7918 0.0000
# 6 0.0000 0.0000 0.0000 3.8786 0.0000 28.3557
#
#
#
# Elastic Compliance Matrix: (Units=1/GPa)
#
#
# Indices 1 2 3 4 5 6 
#
# 1 0.005978 -0.001252 -0.001543 0.000000 0.000500 0.000000
# 2 -0.001252 0.007625 -0.001125 0.000000 -0.000604 0.000000
# 3 -0.001543 -0.001125 0.004792 0.000000 -0.000258 0.000000
# 4 0.000000 0.000000 0.000000 0.040776 0.000000 -0.005578
# 5 0.000500 -0.000604 -0.000258 0.000000 0.014625 0.000000
# 6 0.000000 0.000000 0.000000 -0.005578 0.000000 0.036029
#
#
# Mechanical properties :
#
#
# Convention : Reuss Voigt Hill
#
# Bulk Modulus (GPa) = 94.74542 101.23217 97.98880
# Shear Modulus (GPa) = 41.25887 52.51687 46.88787
#
# Velocity S-wave (km/s) = 3.87391 4.37059 4.12973
# Velocity P-wave (km/s) = 7.38049 7.89246 7.64076
#
# Compressibility (1/GPa) = 0.01055460
#
# Stress axis : x y z
#
# Youngs Moduli (GPa) = 167.27607 131.13959 208.66475
#
# Poissons Ratio (x) = 0.16423 0.32198
# Poissons Ratio (y) = 0.20948 0.23481
# Poissons Ratio (z) = 0.25811 0.14757
#
# Static dielectric constant tensor:
#      x y z
#    x 2.118120 0.000000 -0.015470 
#    y 0.000000 2.190870 0.000000 
#    z -0.015470 0.000000 2.205510 
# 
# From -- ./inp_files/18409.got.cif
#   From: 2010.05.17/outbox.cif.g08.bks.cpg/sg5_10_cif.got.tgz:18409.got - 2010.06.03 18:56:24.
