data_PCOD9130187
_publ_section_title
;
Structure prediction by ZEFSAII (Michael W. Deem and Ramdas Pophale) SiO2 
 PCOD9130187
Probable space group: C 2
;
_chemical_formula_sum "Si O2"
_cell_formula_units_Z 20
_cell_length_a 9.638933
_cell_length_b 10.398721
_cell_length_c 12.994411
_cell_angle_alpha 90.000000
_cell_angle_beta 146.400758
_cell_angle_gamma 90.000000
_cell_volume 720.757818
_symmetry_space_group_name_H-M "C 2"
_symmetry_group_IT_number 5
_symmetry_cell_setting 'monoclinic'
loop_
_space_group_symop_operation_xyz
x,y,z
-x,y,-z
1/2+x,1/2+y,z
1/2-x,1/2+y,-z
loop_
_atom_site_type_symbol
_atom_site_label
_atom_site_fract_x
_atom_site_fract_y
_atom_site_fract_z
Si Si1 0.112459 0.175710 0.298101
Si Si2 0.697960 0.617441 0.716371
Si Si3 0.875670 0.834430 0.285700
Si Si4 0.419338 0.936648 0.565801
Si Si5 0.305343 0.100213 0.099987
O O1 0.916243 0.212661 0.268528
O O2 0.252077 0.280016 0.314286
O O3 0.309012 0.080796 0.472931
O O4 0.951720 0.086169 0.120398
O O5 0.500000 0.603460 0.500000
O O6 0.716170 0.478946 0.780873
O O7 0.968063 0.636611 0.836460
O O8 0.779203 0.732356 0.145576
O O9 0.175186 0.855359 0.451280
O O10 0.500000 0.891583 0.500000
O O11 0.611739 0.982134 0.775199
#
# Coordination Sequence:
#
# PCOD9130187 Si02
#       5
#     4   4   4   4   4
#     4  11  25  47  79 111 156 203 261 321 386 461
#     4  11  25  48  77 114 155 205 260 320 386 466
#     4  11  26  47  77 113 149 201 260 318 387 459
#     4  11  25  47  76 116 154 204 262 321 386 467
#     4  12  25  46  80 111 156 206 254 321 391 461
#
# _framework density 27.748573
#
# number of rings (size 3 to 8) (size 9 to 14) (size 15 to 20)
#    0.000    0.800    6.000    1.200    2.800    7.200 
#    3.600    0.000    8.800    0.000    0.000    0.000 
#    0.000    0.000    0.000    0.000    0.000    0.000 
#
# Total GULP energy -56018.615775 kJ/mol
# GULP energy per Si atom -5601.861577 kJ/mol
# Density = 2.768542 g / cm^3
# Si number density = 27.748573 Si / 1000 Ang^3
#
#
#
# Elastic Constant Matrix: (Units=GPa)
#
#
# Indices 1 2 3 4 5 6 
#
# 1 260.2056 48.5213 24.8192 0.0048 7.7677 -0.0001
# 2 48.5213 100.5232 5.8805 0.0060 -2.3736 0.0015
# 3 24.8192 5.8805 132.9726 0.0186 -1.8908 0.0037
# 4 0.0048 0.0060 0.0186 3.9254 0.0074 14.0597
# 5 7.7677 -2.3736 -1.8908 0.0074 43.8736 0.0010
# 6 -0.0001 0.0015 0.0037 14.0597 0.0010 68.7019
#
#
#
# Elastic Compliance Matrix: (Units=1/GPa)
#
#
# Indices 1 2 3 4 5 6 
#
# 1 0.004325 -0.002067 -0.000729 0.000010 -0.000909 -0.000002
# 2 -0.002067 0.010973 -0.000086 -0.000055 0.000956 0.000011
# 3 -0.000729 -0.000086 0.007667 -0.000130 0.000455 0.000026
# 4 0.000010 -0.000055 -0.000130 0.954123 -0.000167 -0.195259
# 5 -0.000909 0.000956 0.000455 -0.000167 0.023025 0.000034
# 6 -0.000002 0.000011 0.000026 -0.195259 0.000034 0.054515
#
#
# Mechanical properties :
#
#
# Convention : Reuss Voigt Hill
#
# Bulk Modulus (GPa) = 58.13193 72.46040 65.29617
# Shear Modulus (GPa) = 4.68988 50.93219 27.81104
#
# Velocity S-wave (km/s) = 1.30146 4.28891 3.16927
# Velocity P-wave (km/s) = 4.82218 7.12013 6.08069
#
# Compressibility (1/GPa) = 0.01720225
#
# Stress axis : x y z
#
# Youngs Moduli (GPa) = 231.20777 91.13255 130.43484
#
# Poissons Ratio (x) = 0.18833 0.09506
# Poissons Ratio (y) = 0.47779 0.01121
# Poissons Ratio (z) = 0.16851 0.00783
#
# Static dielectric constant tensor:
#      x y z
#    x 2.213580 0.000000 -0.057230 
#    y 0.000000 2.172570 -0.000010 
#    z -0.057230 -0.000010 2.251720 
# 
# From -- ./inp_files/38666.got.cif
#   From: 2010.05.17/outbox.cif.g08.bks.cpg/sg5_20_cif.got.tgz:38666.got - 2010.06.03 18:56:24.
