data_PCOD9130181
_publ_section_title
;
Structure prediction by ZEFSAII (Michael W. Deem and Ramdas Pophale) SiO2 
 PCOD9130181
Probable space group: C 2
;
_chemical_formula_sum "Si O2"
_cell_formula_units_Z 18
_cell_length_a 6.570299
_cell_length_b 26.585045
_cell_length_c 5.064552
_cell_angle_alpha 90.000000
_cell_angle_beta 108.057219
_cell_angle_gamma 90.000000
_cell_volume 841.063396
_symmetry_space_group_name_H-M "C 2"
_symmetry_group_IT_number 5
_symmetry_cell_setting 'monoclinic'
loop_
_space_group_symop_operation_xyz
x,y,z
-x,y,-z
1/2+x,1/2+y,z
1/2-x,1/2+y,-z
loop_
_atom_site_type_symbol
_atom_site_label
_atom_site_fract_x
_atom_site_fract_y
_atom_site_fract_z
Si Si1 0.500000 0.410341 0.000000
Si Si2 0.652091 0.995199 0.809117
Si Si3 0.643096 0.754911 0.305026
Si Si4 0.500000 0.338282 0.500000
Si Si5 0.000000 0.075889 0.000000
Si Si6 0.137462 0.653210 0.803658
O O1 0.708914 0.446027 0.067036
O O2 0.506275 0.374474 0.253073
O O3 0.500000 0.986608 0.500000
O O4 0.500000 0.009853 0.000000
O O5 0.835211 0.036147 0.798934
O O6 0.500000 0.744547 0.500000
O O7 0.759562 0.703177 0.275436
O O8 0.800988 0.800479 0.424950
O O9 0.500000 0.769687 0.000000
O O10 0.815300 0.115994 0.002082
O O11 0.000000 0.630614 0.500000
O O12 0.000000 0.668559 0.000000
#
# Coordination Sequence:
#
# PCOD9130181 Si02
#       6
#     2   4   4   2   2   4
#     4  11  26  44  72 102 132 180 224 291 340 412
#     4  11  25  47  72 102 135 175 226 286 346 413
#     4  12  26  44  68  99 140 187 233 276 336 402
#     4  12  26  44  70 102 140 176 234 280 340 400
#     4  11  26  44  72 104 140 176 234 273 348 400
#     4  12  26  43  69  99 141 188 229 277 335 403
#
# _framework density 21.401479999999999
#
# number of rings (size 3 to 8) (size 9 to 14) (size 15 to 20)
#    0.000    0.444    2.222    5.333    1.556    9.778 
#    0.000    0.000    0.000    0.000    0.000    0.000 
#    0.000    0.000    0.000    0.000    0.000    0.000 
#
# Total GULP energy -50223.360972 kJ/mol
# GULP energy per Si atom -5580.373441 kJ/mol
# Density = 2.135277 g / cm^3
# Si number density = 21.401480 Si / 1000 Ang^3
#
#
#
# Elastic Constant Matrix: (Units=GPa)
#
#
# Indices 1 2 3 4 5 6 
#
# 1 137.5840 59.9556 72.7546 0.0000 1.8021 0.0000
# 2 59.9556 136.9896 34.6664 0.0000 7.0833 0.0000
# 3 72.7546 34.6664 138.7917 0.0000 -7.5333 0.0000
# 4 0.0000 0.0000 0.0000 126.9601 0.0000 45.8830
# 5 1.8021 7.0833 -7.5333 0.0000 46.9837 0.0000
# 6 0.0000 0.0000 0.0000 45.8830 0.0000 51.5676
#
#
#
# Elastic Compliance Matrix: (Units=1/GPa)
#
#
# Indices 1 2 3 4 5 6 
#
# 1 0.011673 -0.003750 -0.005221 0.000000 -0.000720 0.000000
# 2 -0.003750 0.009104 -0.000378 0.000000 -0.001289 0.000000
# 3 -0.005221 -0.000378 0.010139 0.000000 0.001883 0.000000
# 4 0.000000 0.000000 0.000000 0.011610 0.000000 -0.010330
# 5 -0.000720 -0.001289 0.001883 0.000000 0.021808 0.000000
# 6 0.000000 0.000000 0.000000 -0.010330 0.000000 0.028583
#
#
# Mechanical properties :
#
#
# Convention : Reuss Voigt Hill
#
# Bulk Modulus (GPa) = 81.85911 83.12429 82.49170
# Shear Modulus (GPa) = 43.22003 61.50151 52.36077
#
# Velocity S-wave (km/s) = 4.49875 5.36651 4.95167
# Velocity P-wave (km/s) = 8.08191 8.79341 8.44515
#
# Compressibility (1/GPa) = 0.01221611
#
# Stress axis : x y z
#
# Youngs Moduli (GPa) = 85.66716 109.84765 98.63266
#
# Poissons Ratio (x) = 0.41197 0.51499
# Poissons Ratio (y) = 0.32129 0.03727
# Poissons Ratio (z) = 0.44730 0.04150
#
# Static dielectric constant tensor:
#      x y z
#    x 1.773950 0.000000 0.022990 
#    y 0.000000 1.763730 0.000000 
#    z 0.022990 0.000000 1.717020 
# 
# From -- ./inp_files/936.got.cif
#   From: 2010.05.17/outbox.cif.g08.bks.cpg/sg5_1_cif.got.tgz:936.got - 2010.06.03 18:56:24.
