data_PCOD9130905
_publ_section_title
;
Structure prediction by ZEFSAII (Michael W. Deem and Ramdas Pophale) SiO2 
 PCOD9130905
Probable space group: P M
;
_chemical_formula_sum "Si O2"
_cell_formula_units_Z 16
_cell_length_a 16.190991
_cell_length_b 8.311216
_cell_length_c 8.090315
_cell_angle_alpha 90.000000
_cell_angle_beta 143.392886
_cell_angle_gamma 90.000000
_cell_volume 649.211376
_symmetry_space_group_name_H-M "P M"
_symmetry_group_IT_number 6
_symmetry_cell_setting 'monoclinic'
loop_
_space_group_symop_operation_xyz
x,y,z
x,-y,z
loop_
_atom_site_type_symbol
_atom_site_label
_atom_site_fract_x
_atom_site_fract_y
_atom_site_fract_z
Si Si1 0.566630 0.695919 0.347530
Si Si2 0.826602 0.311777 0.956909
Si Si3 0.395216 0.305092 0.400333
Si Si4 0.137795 0.814878 0.157801
Si Si5 0.077031 0.814579 0.552870
Si Si6 0.644839 0.687108 0.005728
Si Si7 0.314224 0.687324 0.742792
Si Si8 0.906825 0.690968 0.592592
O O1 0.575657 0.500000 0.352765
O O2 0.721343 0.748654 0.645785
O O3 0.472839 0.736135 0.356575
O O4 0.468022 0.746703 0.037794
O O5 0.861312 0.500000 0.983956
O O6 0.734328 0.309974 0.978498
O O7 0.963744 0.215736 0.225308
O O8 0.385253 0.500000 0.392134
O O9 0.245826 0.231317 0.186719
O O10 0.497378 0.246147 0.712057
O O11 0.227676 0.774999 0.462795
O O12 0.102551 0.000000 0.095013
O O13 0.995246 0.720474 0.898866
O O14 0.210890 0.706044 0.733179
O O15 0.995770 0.769632 0.588449
O O16 0.118999 0.000000 0.621580
O O17 0.619382 0.500000 0.006513
O O18 0.749497 0.752135 0.313034
O O19 0.323629 0.500000 0.713194
O O20 0.901382 0.500000 0.555820
#
# Coordination Sequence:
#
# PCOD9130905 Si02
#       8
#     2   2   2   2   2   2   2   2
#     4   8  16  32  59  86 104 128 177 230 264 304
#     4   8  14  30  54  81 108 136 171 217 264 314
#     4   9  16  33  59  84 106 134 171 216 266 323
#     4  12  25  38  50  75 112 146 179 225 275 320
#     4  11  21  34  54  85 116 141 171 218 271 320
#     4   7  13  27  53  83 106 128 169 221 262 305
#     4  11  22  38  57  77 103 145 190 226 264 316
#     4  10  19  36  60  83 105 140 184 223 262 316
#
# _framework density 24.645288999999998
#
# number of rings (size 3 to 8) (size 9 to 14) (size 15 to 20)
#    0.000    2.500    0.000    6.000    0.000    1.000 
#    0.000    9.375    0.000    3.000    0.000    0.000 
#    0.000    0.000    0.000    0.000    0.000    0.000 
#
# Total GULP energy -89443.558530 kJ/mol
# GULP energy per Si atom -5590.222408 kJ/mol
# Density = 2.458920 g / cm^3
# Si number density = 24.645289 Si / 1000 Ang^3
#
#
#
# Elastic Constant Matrix: (Units=GPa)
#
#
# Indices 1 2 3 4 5 6 
#
# 1 69.5700 2.7831 26.0407 0.0000 12.2655 0.0000
# 2 2.7831 40.0791 8.5044 0.0000 3.9397 0.0000
# 3 26.0407 8.5044 211.0440 0.0000 15.1439 0.0000
# 4 0.0000 0.0000 0.0000 0.4254 0.0000 -6.5982
# 5 12.2655 3.9397 15.1439 0.0000 51.5812 0.0000
# 6 0.0000 0.0000 0.0000 -6.5982 0.0000 24.6894
#
#
#
# Elastic Compliance Matrix: (Units=1/GPa)
#
#
# Indices 1 2 3 4 5 6 
#
# 1 0.015579 -0.000413 -0.001677 0.000000 -0.003181 0.000000
# 2 -0.000413 0.025317 -0.000856 0.000000 -0.001584 0.000000
# 3 -0.001677 -0.000856 0.005053 0.000000 -0.001019 0.000000
# 4 0.000000 0.000000 0.000000 -0.747406 0.000000 -0.199742
# 5 -0.003181 -0.001584 -0.001019 0.000000 0.020563 0.000000
# 6 0.000000 0.000000 0.000000 -0.199742 0.000000 -0.012877
#
#
# Mechanical properties :
#
#
# Convention : Reuss Voigt Hill
#
# Bulk Modulus (GPa) = 24.96486 43.92773 34.44629
# Shear Modulus (GPa) = -7.41260 34.23020 13.40880
#
# Velocity S-wave (km/s) = -1.73616 3.73086 2.33506
# Velocity P-wave (km/s) = 2.47642 6.03504 4.61272
#
# Compressibility (1/GPa) = 0.04005631
#
# Stress axis : x y z
#
# Youngs Moduli (GPa) = 64.18833 39.49978 197.90450
#
# Poissons Ratio (x) = 0.01632 0.33197
# Poissons Ratio (y) = 0.02653 0.16931
# Poissons Ratio (z) = 0.10767 0.03379
#
# Static dielectric constant tensor:
#      x y z
#    x 2.050970 0.000000 -0.078570 
#    y 0.000000 1.810940 0.000000 
#    z -0.078570 0.000000 2.019560 
# 
# From -- ./inp_files/3785.got.cif
#   From: 2010.05.17/outbox.cif.g08.bks.cpg/sg6_2_cif.got.tgz:3785.got - 2010.06.03 19:42:10.
