data_PCOD9130220
_publ_section_title
;
Structure prediction by ZEFSAII (Michael W. Deem and Ramdas Pophale) SiO2 
 PCOD9130220
Probable space group: C 2
;
_chemical_formula_sum "Si O2"
_cell_formula_units_Z 18
_cell_length_a 14.430680
_cell_length_b 7.233384
_cell_length_c 18.531866
_cell_angle_alpha 90.000000
_cell_angle_beta 19.010740
_cell_angle_gamma 90.000000
_cell_volume 630.123592
_symmetry_space_group_name_H-M "C 2"
_symmetry_group_IT_number 5
_symmetry_cell_setting 'monoclinic'
loop_
_space_group_symop_operation_xyz
x,y,z
-x,y,-z
1/2+x,1/2+y,z
1/2-x,1/2+y,-z
loop_
_atom_site_type_symbol
_atom_site_label
_atom_site_fract_x
_atom_site_fract_y
_atom_site_fract_z
Si Si1 0.886474 0.228760 0.500451
Si Si2 0.500000 0.628568 0.000000
Si Si3 0.107920 0.002586 0.146242
Si Si4 0.245062 0.840292 0.904806
Si Si5 0.575792 0.294454 0.528227
O O1 0.314266 0.932735 0.930560
O O2 0.000000 0.254257 0.500000
O O3 0.067034 0.333645 0.305493
O O4 0.887215 0.011357 0.482594
O O5 0.497625 0.490029 0.934381
O O6 0.208416 0.739793 0.218209
O O7 0.921029 0.818034 0.287910
O O8 0.327229 0.123584 0.032544
O O9 0.845342 0.156095 0.341930
O O10 0.500000 0.277260 0.500000
#
# Coordination Sequence:
#
# PCOD9130220 Si02
#       5
#     4   2   4   4   4
#     4  11  27  52  85 118 163 229 279 338 416 499
#     4  12  24  52  86 122 160 226 284 342 418 496
#     4  12  28  50  77 124 174 216 271 347 423 497
#     4  12  29  49  86 119 172 220 278 349 415 503
#     4  11  25  49  85 119 165 216 283 343 417 499
#
# _framework density 28.565826000000001
#
# number of rings (size 3 to 8) (size 9 to 14) (size 15 to 20)
#    0.000    0.444    4.444    2.000    6.222    6.222 
#    0.000    0.000    0.000    0.000    0.000    0.000 
#    0.000    0.000    0.000    0.000    0.000    0.000 
#
# Total GULP energy -50211.946840 kJ/mol
# GULP energy per Si atom -5579.105204 kJ/mol
# Density = 2.850081 g / cm^3
# Si number density = 28.565826 Si / 1000 Ang^3
#
#
#
# Elastic Constant Matrix: (Units=GPa)
#
#
# Indices 1 2 3 4 5 6 
#
# 1 73.6581 40.4766 45.5408 0.0053 18.3023 -0.0011
# 2 40.4766 236.8160 106.7495 0.0033 -5.4505 -0.0079
# 3 45.5408 106.7495 178.5889 -0.0407 10.9131 0.0081
# 4 0.0053 0.0033 -0.0407 67.3230 0.0119 9.2196
# 5 18.3023 -5.4505 10.9131 0.0119 34.8678 -0.0012
# 6 -0.0011 -0.0079 0.0081 9.2196 -0.0012 56.4039
#
#
#
# Elastic Compliance Matrix: (Units=1/GPa)
#
#
# Indices 1 2 3 4 5 6 
#
# 1 0.018892 -0.002091 -0.002999 -0.000002 -0.009305 0.000001
# 2 -0.002091 0.006155 -0.003336 -0.000003 0.003104 0.000002
# 3 -0.002999 -0.003336 0.008455 0.000006 -0.001594 -0.000003
# 4 -0.000002 -0.000003 0.000006 0.015194 -0.000007 -0.002484
# 5 -0.009305 0.003104 -0.001594 -0.000007 0.034548 0.000002
# 6 0.000001 0.000002 -0.000003 -0.002484 0.000002 0.018135
#
#
# Mechanical properties :
#
#
# Convention : Reuss Voigt Hill
#
# Bulk Modulus (GPa) = 60.05749 97.17740 78.61745
# Shear Modulus (GPa) = 40.39411 51.47201 45.93306
#
# Velocity S-wave (km/s) = 3.76449 4.24945 4.01430
# Velocity P-wave (km/s) = 6.32180 7.62691 7.00481
#
# Compressibility (1/GPa) = 0.01665071
#
# Stress axis : x y z
#
# Youngs Moduli (GPa) = 52.93386 162.46579 118.26881
#
# Poissons Ratio (x) = 0.33977 0.35466
# Poissons Ratio (y) = 0.11070 0.39449
# Poissons Ratio (z) = 0.15873 0.54191
#
# Static dielectric constant tensor:
#      x y z
#    x 2.731410 0.000000 -0.265390 
#    y 0.000000 2.207500 0.000010 
#    z -0.265390 0.000010 2.623880 
# 
# From -- ./inp_files/61353.got.cif
#   From: 2010.05.17/outbox.cif.g08.bks.cpg/sg5_31_cif.got.tgz:61353.got - 2010.06.03 18:56:24.
