data_PCOD9130194
_publ_section_title
;
Structure prediction by ZEFSAII (Michael W. Deem and Ramdas Pophale) SiO2 
 PCOD9130194
Probable space group: C 2
;
_chemical_formula_sum "Si O2"
_cell_formula_units_Z 28
_cell_length_a 30.517804
_cell_length_b 5.506593
_cell_length_c 8.115992
_cell_angle_alpha 90.000000
_cell_angle_beta 116.354750
_cell_angle_gamma 90.000000
_cell_volume 1222.126713
_symmetry_space_group_name_H-M "C 2"
_symmetry_group_IT_number 5
_symmetry_cell_setting 'monoclinic'
loop_
_space_group_symop_operation_xyz
x,y,z
-x,y,-z
1/2+x,1/2+y,z
1/2-x,1/2+y,-z
loop_
_atom_site_type_symbol
_atom_site_label
_atom_site_fract_x
_atom_site_fract_y
_atom_site_fract_z
Si Si1 0.304747 0.667700 0.435673
Si Si2 0.947250 0.224882 0.990105
Si Si3 0.887816 0.516237 0.454049
Si Si4 0.343840 0.392561 0.196164
Si Si5 0.551997 0.661599 0.628658
Si Si6 0.198720 0.891368 0.229133
Si Si7 0.103510 0.722392 0.202464
O O1 0.312141 0.469457 0.302504
O O2 0.253646 0.797085 0.315558
O O3 0.303598 0.577299 0.621698
O O4 0.351568 0.837636 0.489230
O O5 0.951761 0.252008 0.192326
O O6 0.925639 0.479174 0.890333
O O7 0.000000 0.186159 0.000000
O O8 0.916871 0.978448 0.899627
O O9 0.857097 0.609896 0.245259
O O10 0.936326 0.381535 0.476673
O O11 0.897417 0.729563 0.600615
O O12 0.397997 0.508859 0.292023
O O13 0.318058 0.462508 0.982727
O O14 0.500000 0.540334 0.500000
O O15 0.158032 0.697282 0.220576
#
# Coordination Sequence:
#
# PCOD9130194 Si02
#       7
#     4   4   4   4   4   4   4
#     4  11  27  46  73 111 149 205 258 325 392 469
#     4  12  27  48  75 115 145 211 260 329 394 476
#     4  11  25  48  72 107 152 200 255 325 394 468
#     4  11  26  48  72 110 151 199 259 322 387 479
#     4  11  26  46  75 107 152 200 261 325 397 462
#     4  12  25  48  77 109 155 201 263 320 397 467
#     4  12  25  48  78 107 158 199 262 325 395 465
#
# _framework density 22.910879000000001
#
# number of rings (size 3 to 8) (size 9 to 14) (size 15 to 20)
#    0.000    0.571    2.857    3.857    6.000    0.571 
#    2.571    0.000    0.000    0.000    0.000    0.000 
#    0.000    0.000    0.000    0.000    0.000    0.000 
#
# Total GULP energy -78266.448845 kJ/mol
# GULP energy per Si atom -5590.460632 kJ/mol
# Density = 2.285873 g / cm^3
# Si number density = 22.910879 Si / 1000 Ang^3
#
#
#
# Elastic Constant Matrix: (Units=GPa)
#
#
# Indices 1 2 3 4 5 6 
#
# 1 122.3552 29.8159 40.9947 0.0000 4.3486 0.0000
# 2 29.8159 70.8597 42.9316 0.0000 -0.5040 0.0000
# 3 40.9947 42.9316 157.7996 0.0000 -3.7828 0.0000
# 4 0.0000 0.0000 0.0000 4.2467 0.0000 -15.3803
# 5 4.3486 -0.5040 -3.7828 0.0000 32.3108 0.0000
# 6 0.0000 0.0000 0.0000 -15.3803 0.0000 18.1322
#
#
#
# Elastic Compliance Matrix: (Units=1/GPa)
#
#
# Indices 1 2 3 4 5 6 
#
# 1 0.009525 -0.002990 -0.001698 0.000000 -0.001527 0.000000
# 2 -0.002990 0.017839 -0.004072 0.000000 0.000204 0.000000
# 3 -0.001698 -0.004072 0.007912 0.000000 0.001091 0.000000
# 4 0.000000 0.000000 0.000000 -0.113644 0.000000 -0.096396
# 5 -0.001527 0.000204 0.001091 0.000000 0.031286 0.000000
# 6 0.000000 0.000000 0.000000 -0.096396 0.000000 -0.026616
#
#
# Mechanical properties :
#
#
# Convention : Reuss Voigt Hill
#
# Bulk Modulus (GPa) = 56.31571 64.27769 60.29670
# Shear Modulus (GPa) = -99.48095 26.75609 -36.36243
#
# Velocity S-wave (km/s) = -6.59660 3.42106 -3.98820
# Velocity P-wave (km/s) = 5.77810 6.61221 2.27320
#
# Compressibility (1/GPa) = 0.01775704
#
# Stress axis : x y z
#
# Youngs Moduli (GPa) = 104.99144 56.05739 126.38953
#
# Poissons Ratio (x) = 0.16762 0.21455
# Poissons Ratio (y) = 0.31393 0.51461
# Poissons Ratio (z) = 0.17822 0.22824
#
# Static dielectric constant tensor:
#      x y z
#    x 1.816090 0.000000 0.002610 
#    y 0.000000 1.939900 0.000000 
#    z 0.002610 0.000000 1.900020 
# 
# From -- ./inp_files/32328.got.cif
#   From: 2010.05.17/outbox.cif.g08.bks.cpg/sg5_17_cif.got.tgz:32328.got - 2010.06.03 18:56:24.
