data_PCOD9130883
_publ_section_title
;
Structure prediction by ZEFSAII (Michael W. Deem and Ramdas Pophale) SiO2 
 PCOD9130883
Probable space group: P M
;
_chemical_formula_sum "Si O2"
_cell_formula_units_Z 16
_cell_length_a 12.963892
_cell_length_b 7.746201
_cell_length_c 12.714396
_cell_angle_alpha 90.000000
_cell_angle_beta 144.764387
_cell_angle_gamma 90.000000
_cell_volume 736.632092
_symmetry_space_group_name_H-M "P M"
_symmetry_group_IT_number 6
_symmetry_cell_setting 'monoclinic'
loop_
_space_group_symop_operation_xyz
x,y,z
x,-y,z
loop_
_atom_site_type_symbol
_atom_site_label
_atom_site_fract_x
_atom_site_fract_y
_atom_site_fract_z
Si Si1 0.592230 0.294159 0.837900
Si Si2 0.814651 0.297077 0.219547
Si Si3 0.088406 0.211181 0.920620
Si Si4 0.455205 0.200125 0.327967
Si Si5 0.199158 0.203838 0.563895
Si Si6 0.721837 0.207443 0.718527
Si Si7 0.630930 0.299676 0.265873
Si Si8 0.256477 0.790132 0.848765
O O1 0.594720 0.500000 0.847018
O O2 0.386611 0.237290 0.663839
O O3 0.695258 0.243268 0.818537
O O4 0.688776 0.223061 0.023361
O O5 0.771735 0.500000 0.192852
O O6 0.775253 0.225560 0.303793
O O7 0.021902 0.279426 0.364621
O O8 0.112609 0.258364 0.818216
O O9 0.907844 0.272004 0.824846
O O10 0.090541 0.000000 0.924930
O O11 0.267038 0.273658 0.130196
O O12 0.555013 0.277127 0.511470
O O13 0.592801 0.208231 0.344395
O O14 0.417541 0.000000 0.320235
O O15 0.216144 0.270949 0.697920
O O16 0.171034 0.000000 0.545790
O O17 0.723262 0.000000 0.705911
O O18 0.667053 0.500000 0.320107
O O19 0.445382 0.282246 0.046395
O O20 0.271670 0.000000 0.860469
#
# Coordination Sequence:
#
# PCOD9130883 Si02
#       8
#     2   2   2   2   2   2   2   2
#     4  11  24  44  62  81 122 165 201 245 298 357
#     4  10  23  40  58  84 120 163 199 240 302 358
#     4   8  16  33  54  80 113 146 181 232 291 343
#     4   9  19  35  56  83 117 152 188 241 300 344
#     4  11  23  37  62  93 117 151 203 253 298 354
#     4  10  21  37  60  84 112 153 201 247 291 344
#     4  10  19  34  57  85 120 158 195 235 289 358
#     4   9  18  34  57  86 119 152 190 241 301 352
#
# _framework density 21.720476999999999
#
# number of rings (size 3 to 8) (size 9 to 14) (size 15 to 20)
#    0.000    2.250    1.250    1.875    1.750    4.000 
#    0.000    3.750    0.000    0.000    0.000    0.000 
#    0.000    0.000    0.000    0.000    0.000    0.000 
#
# Total GULP energy -89341.490915 kJ/mol
# GULP energy per Si atom -5583.843182 kJ/mol
# Density = 2.167104 g / cm^3
# Si number density = 21.720477 Si / 1000 Ang^3
#
#
#
# Elastic Constant Matrix: (Units=GPa)
#
#
# Indices 1 2 3 4 5 6 
#
# 1 90.4367 -3.3187 5.4902 0.0000 13.1600 0.0000
# 2 -3.3187 34.0187 -3.0688 0.0000 -0.7001 0.0000
# 3 5.4902 -3.0688 32.7498 0.0000 5.1635 0.0000
# 4 0.0000 0.0000 0.0000 22.0248 0.0000 -6.4244
# 5 13.1600 -0.7001 5.1635 0.0000 29.9344 0.0000
# 6 0.0000 0.0000 0.0000 -6.4244 0.0000 26.4152
#
#
#
# Elastic Compliance Matrix: (Units=1/GPa)
#
#
# Indices 1 2 3 4 5 6 
#
# 1 0.011890 0.000956 -0.001113 0.000000 -0.005013 0.000000
# 2 0.000956 0.029725 0.002654 0.000000 -0.000183 0.000000
# 3 -0.001113 0.002654 0.031746 0.000000 -0.004925 0.000000
# 4 0.000000 0.000000 0.000000 0.048870 0.000000 0.011886
# 5 -0.005013 -0.000183 -0.004925 0.000000 0.036455 0.000000
# 6 0.000000 0.000000 0.000000 0.011886 0.000000 0.040748
#
#
# Mechanical properties :
#
#
# Convention : Reuss Voigt Hill
#
# Bulk Modulus (GPa) = 12.76259 17.26786 15.01522
# Shear Modulus (GPa) = 22.66980 26.21505 24.44243
#
# Velocity S-wave (km/s) = 3.23415 3.47786 3.35821
# Velocity P-wave (km/s) = 4.45364 4.90863 4.68666
#
# Compressibility (1/GPa) = 0.07835403
#
# Stress axis : x y z
#
# Youngs Moduli (GPa) = 84.10742 33.64222 31.49981
#
# Poissons Ratio (x) = -0.03217 0.03507
# Poissons Ratio (y) = -0.08043 -0.08359
# Poissons Ratio (z) = 0.09363 -0.08928
#
# Static dielectric constant tensor:
#      x y z
#    x 1.781450 0.000000 0.003720 
#    y 0.000000 1.768200 0.000000 
#    z 0.003720 0.000000 1.803110 
# 
# From -- ./inp_files/5072.got.cif
#   From: 2010.05.17/outbox.cif.g08.bks.cpg/sg6_3_cif.got.tgz:5072.got - 2010.06.03 19:42:10.
