data_PCOD9130981
_publ_section_title
;
Structure prediction by ZEFSAII (Michael W. Deem and Ramdas Pophale) SiO2 
 PCOD9130981
Probable space group: P M
;
_chemical_formula_sum "Si O2"
_cell_formula_units_Z 16
_cell_length_a 11.469585
_cell_length_b 8.755680
_cell_length_c 9.484117
_cell_angle_alpha 90.000000
_cell_angle_beta 114.386013
_cell_angle_gamma 90.000000
_cell_volume 867.461302
_symmetry_space_group_name_H-M "P M"
_symmetry_group_IT_number 6
_symmetry_cell_setting 'monoclinic'
loop_
_space_group_symop_operation_xyz
x,y,z
x,-y,z
loop_
_atom_site_type_symbol
_atom_site_label
_atom_site_fract_x
_atom_site_fract_y
_atom_site_fract_z
Si Si1 0.248070 0.183015 0.928150
Si Si2 0.762444 0.816458 0.009572
Si Si3 0.998345 0.317027 0.303554
Si Si4 0.004762 0.184560 0.619453
Si Si5 0.761306 0.816016 0.683637
Si Si6 0.526974 0.316962 0.062234
Si Si7 0.530204 0.683060 0.392320
Si Si8 0.238249 0.684018 0.230996
O O1 0.135865 0.226599 0.764481
O O2 0.260750 0.000000 0.934545
O O3 0.384233 0.257950 0.959806
O O4 0.212565 0.238618 0.067625
O O5 0.770421 0.766201 0.850531
O O6 0.765955 0.000000 0.016255
O O7 0.880706 0.750784 0.156839
O O8 0.632049 0.757523 0.014892
O O9 0.987844 0.500000 0.300580
O O10 0.997250 0.254371 0.461042
O O11 0.130319 0.275644 0.289874
O O12 0.884024 0.234396 0.653995
O O13 0.000923 0.000000 0.607018
O O14 0.632812 0.758648 0.544979
O O15 0.760865 0.000000 0.683164
O O16 0.530646 0.500000 0.052180
O O17 0.554932 0.277017 0.240376
O O18 0.540361 0.500000 0.409886
O O19 0.382634 0.726452 0.348576
O O20 0.237426 0.500000 0.210287
#
# Coordination Sequence:
#
# PCOD9130981 Si02
#       8
#     2   2   2   2   2   2   2   2
#     4  10  20  36  60  87 113 147 190 232 279 333
#     4  11  23  39  58  82 113 147 187 235 284 335
#     4  11  23  38  58  84 112 147 191 235 283 336
#     4  10  22  39  57  80 113 149 186 232 284 337
#     4  10  22  38  56  80 110 145 185 230 279 332
#     4  10  21  38  59  85 116 149 186 228 279 337
#     4   9  19  36  57  81 110 144 182 225 273 330
#     4   9  20  38  57  81 115 150 185 229 281 336
#
# _framework density 18.444626
#
# number of rings (size 3 to 8) (size 9 to 14) (size 15 to 20)
#    0.000    2.000    0.000    3.750    0.000   10.000 
#    0.000    2.500    0.000    0.000    0.000    0.000 
#    0.000    0.000    0.000    0.000    0.000    0.000 
#
# Total GULP energy -89389.317770 kJ/mol
# GULP energy per Si atom -5586.832361 kJ/mol
# Density = 1.840265 g / cm^3
# Si number density = 18.444626 Si / 1000 Ang^3
#
#
#
# Elastic Constant Matrix: (Units=GPa)
#
#
# Indices 1 2 3 4 5 6 
#
# 1 173.0869 48.7409 120.9732 0.0000 -17.4224 0.0000
# 2 48.7409 31.7563 51.8178 0.0000 -2.6593 0.0000
# 3 120.9732 51.8178 192.3519 0.0000 7.0014 0.0000
# 4 0.0000 0.0000 0.0000 82.6293 0.0000 -4.4310
# 5 -17.4224 -2.6593 7.0014 0.0000 24.9969 0.0000
# 6 0.0000 0.0000 0.0000 -4.4310 0.0000 32.8021
#
#
#
# Elastic Compliance Matrix: (Units=1/GPa)
#
#
# Indices 1 2 3 4 5 6 
#
# 1 0.014480 -0.010366 -0.006710 0.000000 0.010869 0.000000
# 2 -0.010366 0.066376 -0.011473 0.000000 0.003050 0.000000
# 3 -0.006710 -0.011473 0.012855 0.000000 -0.009498 0.000000
# 4 0.000000 0.000000 0.000000 0.012191 0.000000 0.001647
# 5 0.010869 0.003050 -0.009498 0.000000 0.050565 0.000000
# 6 0.000000 0.000000 0.000000 0.001647 0.000000 0.030708
#
#
# Mechanical properties :
#
#
# Convention : Reuss Voigt Hill
#
# Bulk Modulus (GPa) = 27.31198 93.36210 60.33704
# Shear Modulus (GPa) = 19.49491 39.79653 29.64572
#
# Velocity S-wave (km/s) = 3.25459 4.65006 4.01344
# Velocity P-wave (km/s) = 5.38172 8.91954 7.36617
#
# Compressibility (1/GPa) = 0.03661397
#
# Stress axis : x y z
#
# Youngs Moduli (GPa) = 69.05984 15.06577 77.78909
#
# Poissons Ratio (x) = 0.15617 0.52197
# Poissons Ratio (y) = 0.71585 0.89247
# Poissons Ratio (z) = 0.46339 0.17285
#
# Static dielectric constant tensor:
#      x y z
#    x 1.623750 0.000000 -0.001460 
#    y 0.000000 1.620890 0.000000 
#    z -0.001460 0.000000 1.599510 
# 
# From -- ./inp_files/3772.got.cif
#   From: 2010.05.17/outbox.cif.g08.bks.cpg/sg6_2_cif.got.tgz:3772.got - 2010.06.03 19:42:10.
