data_PCOD9130179
_publ_section_title
;
Structure prediction by ZEFSAII (Michael W. Deem and Ramdas Pophale) SiO2 
 PCOD9130179
Probable space group: C 2
;
_chemical_formula_sum "Si O2"
_cell_formula_units_Z 24
_cell_length_a 13.588860
_cell_length_b 6.559251
_cell_length_c 12.438338
_cell_angle_alpha 90.000000
_cell_angle_beta 63.756871
_cell_angle_gamma 90.000000
_cell_volume 994.388592
_symmetry_space_group_name_H-M "C 2"
_symmetry_group_IT_number 5
_symmetry_cell_setting 'monoclinic'
loop_
_space_group_symop_operation_xyz
x,y,z
-x,y,-z
1/2+x,1/2+y,z
1/2-x,1/2+y,-z
loop_
_atom_site_type_symbol
_atom_site_label
_atom_site_fract_x
_atom_site_fract_y
_atom_site_fract_z
Si Si1 0.823741 0.748110 0.032046
Si Si2 0.003673 0.429163 0.854371
Si Si3 0.745062 0.896250 0.841450
Si Si4 0.813150 0.693777 0.599164
Si Si5 0.908741 0.344778 0.406343
Si Si6 0.000000 0.019966 0.500000
Si Si7 0.500000 0.559295 0.000000
O O1 0.764603 0.823193 0.952972
O O2 0.919248 0.597366 0.937782
O O3 0.733883 0.638874 0.151821
O O4 0.892183 0.919646 0.062415
O O5 0.122783 0.429183 0.854028
O O6 0.030096 0.465607 0.717462
O O7 0.974419 0.200669 0.908841
O O8 0.797272 0.734926 0.734248
O O9 0.865966 0.489668 0.523683
O O10 0.698011 0.738530 0.595571
O O11 0.896109 0.877393 0.534742
O O12 0.992737 0.173033 0.404212
#
# Coordination Sequence:
#
# PCOD9130179 Si02
#       7
#     4   4   4   4   4   2   2
#     4  12  25  46  73 110 145 191 239 296 366 441
#     4  11  25  48  69 107 148 191 240 302 359 435
#     4  11  25  47  71 105 148 185 245 292 364 434
#     4  11  26  50  71 109 145 192 243 305 358 434
#     4  11  26  49  74 104 148 191 250 298 360 431
#     4  12  26  46  74 102 144 190 250 296 370 418
#     4  12  22  46  72 106 150 186 238 296 368 420
#
# _framework density 24.135434
#
# number of rings (size 3 to 8) (size 9 to 14) (size 15 to 20)
#    0.000    0.667    5.000    1.500    7.000    0.000 
#    6.000    0.000    0.000    0.000    0.000    0.000 
#    0.000    0.000    0.000    0.000    0.000    0.000 
#
# Total GULP energy -66889.849255 kJ/mol
# GULP energy per Si atom -5574.154105 kJ/mol
# Density = 2.408050 g / cm^3
# Si number density = 24.135434 Si / 1000 Ang^3
#
#
#
# Elastic Constant Matrix: (Units=GPa)
#
#
# Indices 1 2 3 4 5 6 
#
# 1 86.0557 21.2650 10.4531 0.0000 14.9328 0.0000
# 2 21.2650 70.5785 2.5103 0.0000 -2.3291 -0.0001
# 3 10.4531 2.5103 37.6094 0.0000 -6.8254 0.0000
# 4 0.0000 0.0000 0.0000 21.1744 0.0000 19.5242
# 5 14.9328 -2.3291 -6.8254 0.0000 20.8265 0.0000
# 6 0.0000 -0.0001 0.0000 19.5242 0.0000 114.3314
#
#
#
# Elastic Compliance Matrix: (Units=1/GPa)
#
#
# Indices 1 2 3 4 5 6 
#
# 1 0.016211 -0.005119 -0.006781 0.000000 -0.014418 0.000000
# 2 -0.005119 0.015855 0.001438 0.000000 0.005915 0.000000
# 3 -0.006781 0.001438 0.031141 0.000000 0.015228 0.000000
# 4 0.000000 0.000000 0.000000 0.056053 0.000000 -0.009572
# 5 -0.014418 0.005915 0.015228 0.000000 0.064006 0.000000
# 6 0.000000 0.000000 0.000000 -0.009572 0.000000 0.010381
#
#
# Mechanical properties :
#
#
# Convention : Reuss Voigt Hill
#
# Bulk Modulus (GPa) = 23.64959 29.18894 26.41926
# Shear Modulus (GPa) = 21.86610 41.93416 31.90013
#
# Velocity S-wave (km/s) = 3.01321 4.17280 3.63948
# Velocity P-wave (km/s) = 4.68251 5.94444 5.35081
#
# Compressibility (1/GPa) = 0.04228403
#
# Stress axis : x y z
#
# Youngs Moduli (GPa) = 61.68737 63.07179 32.11164
#
# Poissons Ratio (x) = 0.32286 0.21773
# Poissons Ratio (y) = 0.31577 -0.04617
# Poissons Ratio (z) = 0.41827 -0.09069
#
# Static dielectric constant tensor:
#      x y z
#    x 1.628920 0.000000 -0.332590 
#    y 0.000000 2.071930 0.000000 
#    z -0.332590 0.000000 1.724440 
# 
# From -- ./inp_files/53782.got.cif
#   From: 2010.05.17/outbox.cif.g08.bks.cpg/sg5_27_cif.got.tgz:53782.got - 2010.06.03 18:56:24.
