data_PCOD9130933
_publ_section_title
;
Structure prediction by ZEFSAII (Michael W. Deem and Ramdas Pophale) SiO2 
 PCOD9130933
Probable space group: P M
;
_chemical_formula_sum "Si O2"
_cell_formula_units_Z 16
_cell_length_a 13.041554
_cell_length_b 8.533201
_cell_length_c 12.900556
_cell_angle_alpha 90.000000
_cell_angle_beta 35.499938
_cell_angle_gamma 90.000000
_cell_volume 833.687185
_symmetry_space_group_name_H-M "P M"
_symmetry_group_IT_number 6
_symmetry_cell_setting 'monoclinic'
loop_
_space_group_symop_operation_xyz
x,y,z
x,-y,z
loop_
_atom_site_type_symbol
_atom_site_label
_atom_site_fract_x
_atom_site_fract_y
_atom_site_fract_z
Si Si1 0.354890 0.186560 0.964580
Si Si2 0.213578 0.682021 0.872096
Si Si3 0.729428 0.688044 0.581321
Si Si4 0.616151 0.187447 0.224970
Si Si5 0.993617 0.189503 0.865523
Si Si6 0.232034 0.808119 0.476610
Si Si7 0.610736 0.682825 0.457081
Si Si8 0.100250 0.810239 0.359222
O O1 0.237470 0.230854 0.961101
O O2 0.549216 0.258582 0.786557
O O3 0.376096 0.000000 0.952168
O O4 0.248566 0.240059 0.153764
O O5 0.174456 0.500000 0.924202
O O6 0.405016 0.691946 0.659028
O O7 0.074311 0.752851 0.907269
O O8 0.729127 0.500000 0.579571
O O9 0.715079 0.741800 0.472583
O O10 0.907666 0.749491 0.485943
O O11 0.431293 0.248061 0.332995
O O12 0.635251 0.226987 0.330418
O O13 0.997095 0.000000 0.863418
O O14 0.791915 0.244012 0.023179
O O15 0.111867 0.243091 0.671935
O O16 0.610809 0.000000 0.218943
O O17 0.155641 0.759579 0.428835
O O18 0.233421 0.000000 0.476144
O O19 0.654964 0.500000 0.403745
O O20 0.095011 0.000000 0.361675
#
# Coordination Sequence:
#
# PCOD9130933 Si02
#       8
#     2   2   2   2   2   2   2   2
#     4  10  21  37  59  88 118 151 196 244 289 343
#     4  10  20  35  56  82 117 155 189 231 289 349
#     4  10  22  39  58  85 120 157 194 236 294 351
#     4  10  20  33  55  84 110 143 185 231 284 340
#     4  10  20  34  56  85 112 146 189 235 288 345
#     4   9  19  38  58  81 115 149 188 241 290 332
#     4   9  19  35  54  79 112 149 185 226 280 341
#     4  10  22  39  62  88 114 154 202 244 288 343
#
# _framework density 19.191851
#
# number of rings (size 3 to 8) (size 9 to 14) (size 15 to 20)
#    0.000    2.250    1.250    1.875    1.750    5.000 
#    0.000    5.000    0.000    1.500    0.000    0.000 
#    0.000    0.000    0.000    0.000    0.000    0.000 
#
# Total GULP energy -89314.246602 kJ/mol
# GULP energy per Si atom -5582.140413 kJ/mol
# Density = 1.914817 g / cm^3
# Si number density = 19.191851 Si / 1000 Ang^3
#
#
#
# Elastic Constant Matrix: (Units=GPa)
#
#
# Indices 1 2 3 4 5 6 
#
# 1 158.4680 11.9171 77.1727 0.0000 -20.8597 0.0000
# 2 11.9171 10.9893 11.6682 0.0000 -6.4537 0.0000
# 3 77.1727 11.6682 76.8858 0.0000 -22.6567 0.0000
# 4 0.0000 0.0000 0.0000 -0.3938 0.0000 -7.2065
# 5 -20.8597 -6.4537 -22.6567 0.0000 21.5096 0.0000
# 6 0.0000 0.0000 0.0000 -7.2065 0.0000 -4.1997
#
#
#
# Elastic Compliance Matrix: (Units=1/GPa)
#
#
# Indices 1 2 3 4 5 6 
#
# 1 0.012387 -0.000846 -0.012819 0.000000 -0.001743 0.000000
# 2 -0.000846 0.116261 -0.009799 0.000000 0.023741 0.000000
# 3 -0.012819 -0.009799 0.033106 0.000000 0.019500 0.000000
# 4 0.000000 0.000000 0.000000 0.083527 0.000000 -0.143328
# 5 -0.001743 0.023741 0.019500 0.000000 0.072464 0.000000
# 6 0.000000 0.000000 0.000000 -0.143328 0.000000 0.007832
#
#
# Mechanical properties :
#
#
# Convention : Reuss Voigt Hill
#
# Bulk Modulus (GPa) = 8.70867 49.76213 29.23540
# Shear Modulus (GPa) = 12.17196 13.08890 12.63043
#
# Velocity S-wave (km/s) = 2.52111 2.61435 2.56816
# Velocity P-wave (km/s) = 3.60863 5.92437 4.90512
#
# Compressibility (1/GPa) = 0.11482805
#
# Stress axis : x y z
#
# Youngs Moduli (GPa) = 80.72858 8.60132 30.20579
#
# Poissons Ratio (x) = 0.00728 0.38720
# Poissons Ratio (y) = 0.06830 0.29597
# Poissons Ratio (z) = 1.03484 0.08428
#
# Static dielectric constant tensor:
#      x y z
#    x 1.643740 0.000000 -0.011130 
#    y 0.000000 1.652760 0.000000 
#    z -0.011130 0.000000 1.675440 
# 
# From -- ./inp_files/5019.got.cif
#   From: 2010.05.17/outbox.cif.g08.bks.cpg/sg6_3_cif.got.tgz:5019.got - 2010.06.03 19:42:10.
