data_PCOD9130753
_publ_section_title
;
Structure prediction by ZEFSAII (Michael W. Deem and Ramdas Pophale) SiO2 
 PCOD9130753
Probable space group: P M
;
_chemical_formula_sum "Si O2"
_cell_formula_units_Z 16
_cell_length_a 22.582965
_cell_length_b 8.017399
_cell_length_c 11.989061
_cell_angle_alpha 90.000000
_cell_angle_beta 161.949272
_cell_angle_gamma 90.000000
_cell_volume 672.610463
_symmetry_space_group_name_H-M "P M"
_symmetry_group_IT_number 6
_symmetry_cell_setting 'monoclinic'
loop_
_space_group_symop_operation_xyz
x,y,z
x,-y,z
loop_
_atom_site_type_symbol
_atom_site_label
_atom_site_fract_x
_atom_site_fract_y
_atom_site_fract_z
Si Si1 0.055680 0.687638 0.231200
Si Si2 0.985626 0.308544 0.347357
Si Si3 0.418384 0.309309 0.206493
Si Si4 0.670761 0.813999 0.465031
Si Si5 0.137585 0.194435 0.145940
Si Si6 0.287532 0.700947 0.198011
Si Si7 0.862668 0.704935 0.355133
Si Si8 0.718260 0.306748 0.321808
O O1 0.129586 0.500000 0.381893
O O2 0.024412 0.771402 0.296208
O O3 0.172966 0.766195 0.339147
O O4 0.839625 0.688290 0.798008
O O5 0.919649 0.500000 0.207764
O O6 0.853189 0.238316 0.209486
O O7 0.194841 0.318052 0.776640
O O8 0.491779 0.500000 0.334534
O O9 0.516272 0.207058 0.284216
O O10 0.427341 0.242593 0.349094
O O11 0.607979 0.780523 0.225736
O O12 0.752602 0.000000 0.615496
O O13 0.299458 0.243542 0.346940
O O14 0.097975 0.000000 0.062642
O O15 0.943191 0.290922 0.761288
O O16 0.296242 0.500000 0.211501
O O17 0.074067 0.753343 0.777321
O O18 0.855811 0.500000 0.340424
O O19 0.720219 0.759689 0.198409
O O20 0.663430 0.500000 0.221641
#
# Coordination Sequence:
#
# PCOD9130753 Si02
#       8
#     2   2   2   2   2   2   2   2
#     4  10  18  30  49  70  93 123 158 192 227 270
#     4   8  15  28  49  74  94 114 148 194 235 271
#     4   9  17  32  52  72  93 118 152 193 234 275
#     4  11  21  31  44  67  99 128 155 188 228 275
#     4  10  17  25  40  64  94 121 149 188 230 270
#     4   8  14  26  45  66  88 114 147 187 229 273
#     4   7  11  22  42  68  90 107 137 187 235 267
#     4   9  15  26  45  65  87 117 154 193 230 267
#
# _framework density 23.787914000000001
#
# number of rings (size 3 to 8) (size 9 to 14) (size 15 to 20)
#    0.000    3.000    0.000    6.750    0.000    0.500 
#    0.000    1.250    0.000    9.000    0.000    5.250 
#    0.000    0.000    0.000    0.000    0.000    0.000 
#
# Total GULP energy -89140.143546 kJ/mol
# GULP energy per Si atom -5571.258972 kJ/mol
# Density = 2.373377 g / cm^3
# Si number density = 23.787914 Si / 1000 Ang^3
#
#
#
# Elastic Constant Matrix: (Units=GPa)
#
#
# Indices 1 2 3 4 5 6 
#
# 1 318.2129 27.1900 13.5852 0.0000 -9.4059 0.0000
# 2 27.1900 45.7617 -8.3800 0.0000 4.2679 0.0000
# 3 13.5852 -8.3800 54.6385 0.0000 -6.4695 0.0000
# 4 0.0000 0.0000 0.0000 1.9918 0.0000 10.4149
# 5 -9.4059 4.2679 -6.4695 0.0000 15.6980 0.0000
# 6 0.0000 0.0000 0.0000 10.4149 0.0000 -24.4368
#
#
#
# Elastic Compliance Matrix: (Units=1/GPa)
#
#
# Indices 1 2 3 4 5 6 
#
# 1 0.003462 -0.002452 -0.000959 0.000000 0.002346 0.000000
# 2 -0.002452 0.024589 0.003591 0.000000 -0.006674 0.000000
# 3 -0.000959 0.003591 0.019878 0.000000 0.006641 0.000000
# 4 0.000000 0.000000 0.000000 0.155506 0.000000 0.066277
# 5 0.002346 -0.006674 0.006641 0.000000 0.069659 0.000000
# 6 0.000000 0.000000 0.000000 0.066277 0.000000 -0.012675
#
#
# Mechanical properties :
#
#
# Convention : Reuss Voigt Hill
#
# Bulk Modulus (GPa) = 20.70884 53.71151 37.21018
# Shear Modulus (GPa) = 18.10569 24.39847 21.25208
#
# Velocity S-wave (km/s) = 2.76185 3.20608 2.99222
# Velocity P-wave (km/s) = 4.34683 6.02774 5.25493
#
# Compressibility (1/GPa) = 0.04828856
#
# Stress axis : x y z
#
# Youngs Moduli (GPa) = 288.82414 40.66866 50.30777
#
# Poissons Ratio (x) = 0.09970 0.04825
# Poissons Ratio (y) = 0.70808 -0.18063
# Poissons Ratio (z) = 0.27702 -0.14602
#
# Static dielectric constant tensor:
#      x y z
#    x 2.042940 0.000000 -0.009570 
#    y 0.000000 1.812420 0.000000 
#    z -0.009570 0.000000 1.943680 
# 
# From -- ./inp_files/4966.got.cif
#   From: 2010.05.17/outbox.cif.g08.bks.cpg/sg6_3_cif.got.tgz:4966.got - 2010.06.03 19:42:10.
