data_PCOD9130210
_publ_section_title
;
Structure prediction by ZEFSAII (Michael W. Deem and Ramdas Pophale) SiO2 
 PCOD9130210
Probable space group: C 2
;
_chemical_formula_sum "Si O2"
_cell_formula_units_Z 20
_cell_length_a 14.767860
_cell_length_b 9.046208
_cell_length_c 19.633474
_cell_angle_alpha 90.000000
_cell_angle_beta 17.729893
_cell_angle_gamma 90.000000
_cell_volume 798.751056
_symmetry_space_group_name_H-M "C 2"
_symmetry_group_IT_number 5
_symmetry_cell_setting 'monoclinic'
loop_
_space_group_symop_operation_xyz
x,y,z
-x,y,-z
1/2+x,1/2+y,z
1/2-x,1/2+y,-z
loop_
_atom_site_type_symbol
_atom_site_label
_atom_site_fract_x
_atom_site_fract_y
_atom_site_fract_z
Si Si1 0.270141 0.913780 0.465351
Si Si2 0.304824 0.539258 0.708810
Si Si3 0.738751 0.335475 0.093959
Si Si4 0.684952 0.871002 0.297562
Si Si5 0.800398 0.013024 0.003556
O O1 0.480194 0.911701 0.380664
O O2 0.507181 0.919676 0.234365
O O3 0.007625 0.797064 0.671730
O O4 0.034033 0.036860 0.608138
O O5 0.500000 0.521698 0.500000
O O6 0.180629 0.705027 0.800286
O O7 0.050882 0.412610 0.891376
O O8 0.753685 0.186557 0.040074
O O9 0.606376 0.458383 0.137468
O O10 0.500000 0.875156 0.500000
O O11 0.953047 0.981696 0.116735
#
# Coordination Sequence:
#
# PCOD9130210 Si02
#       5
#     4   4   4   4   4
#     4  12  26  46  78 108 144 198 248 304 366 442
#     4  11  25  49  76 109 151 198 249 305 371 444
#     4  12  27  48  76 112 151 196 251 308 373 443
#     4  11  25  49  76 109 151 198 249 305 371 444
#     4  12  27  48  76 112 151 196 251 308 373 443
#
# _framework density 25.039090000000002
#
# number of rings (size 3 to 8) (size 9 to 14) (size 15 to 20)
#    0.000    0.400    4.000    3.600    0.000   13.600 
#    0.000    0.000    0.000    0.000    0.000    0.000 
#    0.000    0.000    0.000    0.000    0.000    0.000 
#
# Total GULP energy -55785.594794 kJ/mol
# GULP energy per Si atom -5578.559479 kJ/mol
# Density = 2.498210 g / cm^3
# Si number density = 25.039090 Si / 1000 Ang^3
#
#
#
# Elastic Constant Matrix: (Units=GPa)
#
#
# Indices 1 2 3 4 5 6 
#
# 1 124.1749 18.2042 25.4593 -0.0009 -20.6272 0.0006
# 2 18.2042 89.4720 18.4583 -0.1763 7.5772 -0.0130
# 3 25.4593 18.4583 126.2733 -0.2223 4.0501 -0.0304
# 4 -0.0009 -0.1763 -0.2223 14.9728 0.0184 -11.0525
# 5 -20.6272 7.5772 4.0501 0.0184 50.1575 0.0350
# 6 0.0006 -0.0130 -0.0304 -11.0525 0.0350 23.6187
#
#
#
# Elastic Compliance Matrix: (Units=1/GPa)
#
#
# Indices 1 2 3 4 5 6 
#
# 1 0.009408 -0.001917 -0.001755 -0.000093 0.004300 -0.000053
# 2 -0.001917 0.012046 -0.001294 0.000202 -0.002504 0.000103
# 3 -0.001755 -0.001294 0.008502 0.000185 -0.001213 0.000099
# 4 -0.000093 0.000202 0.000185 0.102042 -0.000154 0.047752
# 5 0.004300 -0.002504 -0.001213 -0.000154 0.022182 -0.000108
# 6 -0.000053 0.000103 0.000099 0.047752 -0.000108 0.064685
#
#
# Mechanical properties :
#
#
# Convention : Reuss Voigt Hill
#
# Bulk Modulus (GPa) = 49.93656 51.57375 50.75516
# Shear Modulus (GPa) = 21.23404 36.26969 28.75187
#
# Velocity S-wave (km/s) = 2.91526 3.81008 3.39230
# Velocity P-wave (km/s) = 5.59629 6.32436 5.97143
#
# Compressibility (1/GPa) = 0.02002541
#
# Stress axis : x y z
#
# Youngs Moduli (GPa) = 106.28920 83.01524 117.62615
#
# Poissons Ratio (x) = 0.15911 0.20642
# Poissons Ratio (y) = 0.20371 0.15218
# Poissons Ratio (z) = 0.18652 0.10740
#
# Static dielectric constant tensor:
#      x y z
#    x 2.010920 -0.000010 0.047080 
#    y -0.000010 1.943490 0.000070 
#    z 0.047080 0.000070 2.014930 
# 
# From -- ./inp_files/65849.got.cif
#   From: 2010.05.17/outbox.cif.g08.bks.cpg/sg5_33_cif.got.tgz:65849.got - 2010.06.03 18:56:24.
