data_PCOD9130303
_publ_section_title
;
Structure prediction by ZEFSAII (Michael W. Deem and Ramdas Pophale) SiO2 
 PCOD9130303
Probable space group: C 2
;
_chemical_formula_sum "Si O2"
_cell_formula_units_Z 16
_cell_length_a 7.117807
_cell_length_b 11.978276
_cell_length_c 7.757718
_cell_angle_alpha 90.000000
_cell_angle_beta 69.143864
_cell_angle_gamma 90.000000
_cell_volume 618.077981
_symmetry_space_group_name_H-M "C 2"
_symmetry_group_IT_number 5
_symmetry_cell_setting 'monoclinic'
loop_
_space_group_symop_operation_xyz
x,y,z
-x,y,-z
1/2+x,1/2+y,z
1/2-x,1/2+y,-z
loop_
_atom_site_type_symbol
_atom_site_label
_atom_site_fract_x
_atom_site_fract_y
_atom_site_fract_z
Si Si1 0.302981 0.040670 0.278847
Si Si2 0.345085 0.578912 0.308787
Si Si3 0.627856 0.234457 0.165157
Si Si4 0.000000 0.932209 0.000000
Si Si5 0.500000 0.844564 0.000000
O O1 0.271035 0.026681 0.493335
O O2 0.460142 0.140538 0.194422
O O3 0.081268 0.072999 0.279242
O O4 0.390959 0.928615 0.166704
O O5 0.239325 0.697879 0.305380
O O6 0.329861 0.515308 0.129071
O O7 0.518509 0.350509 0.158293
O O8 0.826619 0.263121 0.985299
#
# Coordination Sequence:
#
# PCOD9130303 Si02
#       5
#     4   4   4   2   2
#     4  11  27  52  79 115 158 200 259 327 386 458
#     4  11  27  52  79 115 158 200 259 327 386 458
#     4  12  27  44  77 116 152 206 251 314 387 458
#     4  12  26  48  82 110 156 206 254 316 388 466
#     4  12  26  48  82 110 156 206 254 316 388 466
#
# _framework density 25.886700999999999
#
# number of rings (size 3 to 8) (size 9 to 14) (size 15 to 20)
#    0.000    0.500    2.500    3.750   10.500    4.000 
#    0.000    0.000    0.000    0.000    0.000    0.000 
#    0.000    0.000    0.000    0.000    0.000    0.000 
#
# Total GULP energy -44600.649609 kJ/mol
# GULP energy per Si atom -5575.081201 kJ/mol
# Density = 2.582778 g / cm^3
# Si number density = 25.886701 Si / 1000 Ang^3
#
#
#
# Elastic Constant Matrix: (Units=GPa)
#
#
# Indices 1 2 3 4 5 6 
#
# 1 176.3055 50.4693 29.1490 0.0000 -29.8400 0.0000
# 2 50.4693 155.7455 81.4742 0.0000 -16.4892 0.0000
# 3 29.1490 81.4742 196.3082 0.0000 -6.4069 0.0000
# 4 0.0000 0.0000 0.0000 25.1194 0.0000 0.0427
# 5 -29.8400 -16.4892 -6.4069 0.0000 38.6343 0.0000
# 6 0.0000 0.0000 0.0000 0.0427 0.0000 46.6179
#
#
#
# Elastic Compliance Matrix: (Units=1/GPa)
#
#
# Indices 1 2 3 4 5 6 
#
# 1 0.006965 -0.001666 -0.000191 0.000000 0.004637 0.000000
# 2 -0.001666 0.008949 -0.003402 0.000000 0.001968 0.000000
# 3 -0.000191 -0.003402 0.006518 0.000000 -0.000519 0.000000
# 4 0.000000 0.000000 0.000000 0.039810 0.000000 -0.000036
# 5 0.004637 0.001968 -0.000519 0.000000 0.030219 0.000000
# 6 0.000000 0.000000 0.000000 -0.000036 0.000000 0.021451
#
#
# Mechanical properties :
#
#
# Convention : Reuss Voigt Hill
#
# Bulk Modulus (GPa) = 83.94888 94.50491 89.22689
# Shear Modulus (GPa) = 38.94001 46.55878 42.74939
#
# Velocity S-wave (km/s) = 3.88267 4.24554 4.06816
# Velocity P-wave (km/s) = 7.25258 7.78584 7.52393
#
# Compressibility (1/GPa) = 0.01191201
#
# Stress axis : x y z
#
# Youngs Moduli (GPa) = 143.56743 111.74534 153.42953
#
# Poissons Ratio (x) = 0.18617 0.02938
# Poissons Ratio (y) = 0.23919 0.52204
# Poissons Ratio (z) = 0.02749 0.38021
#
# Static dielectric constant tensor:
#      x y z
#    x 2.307170 0.000000 0.060810 
#    y 0.000000 2.022700 0.000000 
#    z 0.060810 0.000000 1.999370 
# 
# From -- ./inp_files/13920.got.cif
#   From: 2010.05.17/outbox.cif.g08.bks.cpg/sg5_7_cif.got.tgz:13920.got - 2010.06.03 18:56:24.
