data_PCOD9130302
_publ_section_title
;
Structure prediction by ZEFSAII (Michael W. Deem and Ramdas Pophale) SiO2 
 PCOD9130302
Probable space group: C 2
;
_chemical_formula_sum "Si O2"
_cell_formula_units_Z 26
_cell_length_a 10.651574
_cell_length_b 18.550727
_cell_length_c 5.231908
_cell_angle_alpha 90.000000
_cell_angle_beta 103.014896
_cell_angle_gamma 90.000000
_cell_volume 1007.239321
_symmetry_space_group_name_H-M "C 2"
_symmetry_group_IT_number 5
_symmetry_cell_setting 'monoclinic'
loop_
_space_group_symop_operation_xyz
x,y,z
-x,y,-z
1/2+x,1/2+y,z
1/2-x,1/2+y,-z
loop_
_atom_site_type_symbol
_atom_site_label
_atom_site_fract_x
_atom_site_fract_y
_atom_site_fract_z
Si Si1 0.217104 0.900660 0.319951
Si Si2 0.500000 0.869830 0.500000
Si Si3 0.141720 0.978851 0.779292
Si Si4 0.000000 0.268867 0.000000
Si Si5 0.000000 0.103229 0.500000
Si Si6 0.224363 0.173939 0.293897
Si Si7 0.147456 0.584665 0.030014
Si Si8 0.875669 0.743723 0.763894
O O1 0.369279 0.915320 0.412821
O O2 0.141804 0.923646 0.541817
O O3 0.207297 0.815689 0.260559
O O4 0.153071 0.939013 0.050446
O O5 0.489740 0.819195 0.745969
O O6 0.041918 0.045117 0.731820
O O7 0.272914 0.023297 0.800040
O O8 0.871274 0.219161 0.936717
O O9 0.882451 0.150814 0.544512
O O10 0.288620 0.100759 0.216103
O O11 0.344770 0.222506 0.449614
O O12 0.159909 0.665532 0.143160
O O13 0.000000 0.566240 0.000000
O O14 0.000000 0.761124 0.000000
#
# Coordination Sequence:
#
# PCOD9130302 Si02
#       8
#     4   2   4   2   2   4   4   4
#     4  12  29  50  80 117 166 214 274 337 425 488
#     4  12  25  48  74 120 157 220 268 336 412 503
#     4  12  29  52  79 117 162 218 269 339 418 493
#     4  12  24  42  86 116 170 192 280 348 408 488
#     4  12  27  54  82 120 155 218 276 346 408 497
#     4  12  25  50  84 122 158 212 276 354 409 490
#     4  11  27  51  81 113 161 211 274 334 416 495
#     4  11  27  51  79 121 162 218 274 342 418 497
#
# _framework density 25.813134000000002
#
# number of rings (size 3 to 8) (size 9 to 14) (size 15 to 20)
#    0.000    0.308    3.077    4.154    6.462    3.692 
#    0.000    0.000    0.000    0.000    0.000    0.000 
#    0.000    0.000    0.000    0.000    0.000    0.000 
#
# Total GULP energy -72645.036647 kJ/mol
# GULP energy per Si atom -5588.079742 kJ/mol
# Density = 2.575438 g / cm^3
# Si number density = 25.813134 Si / 1000 Ang^3
#
#
#
# Elastic Constant Matrix: (Units=GPa)
#
#
# Indices 1 2 3 4 5 6 
#
# 1 105.4930 -11.5134 33.4227 0.0000 27.3075 0.0000
# 2 -11.5134 64.4537 15.5892 0.0000 5.0287 0.0000
# 3 33.4227 15.5892 147.0142 0.0000 8.6146 0.0000
# 4 0.0000 0.0000 0.0000 45.4365 0.0000 13.4240
# 5 27.3075 5.0287 8.6146 0.0000 36.5293 0.0000
# 6 0.0000 0.0000 0.0000 13.4240 0.0000 31.0114
#
#
#
# Elastic Compliance Matrix: (Units=1/GPa)
#
#
# Indices 1 2 3 4 5 6 
#
# 1 0.013354 0.003846 -0.002867 0.000000 -0.009836 0.000000
# 2 0.003846 0.017151 -0.002420 0.000000 -0.004666 0.000000
# 3 -0.002867 -0.002420 0.007671 0.000000 0.000667 0.000000
# 4 0.000000 0.000000 0.000000 0.025236 0.000000 -0.010924
# 5 -0.009836 -0.004666 0.000667 0.000000 0.035213 0.000000
# 6 0.000000 0.000000 0.000000 -0.010924 0.000000 0.036975
#
#
# Mechanical properties :
#
#
# Convention : Reuss Voigt Hill
#
# Bulk Modulus (GPa) = 28.33291 43.55087 35.94189
# Shear Modulus (GPa) = 33.27857 41.22628 37.25243
#
# Velocity S-wave (km/s) = 3.59445 4.00071 3.80301
# Velocity P-wave (km/s) = 5.31289 6.18459 5.76524
#
# Compressibility (1/GPa) = 0.03529465
#
# Stress axis : x y z
#
# Youngs Moduli (GPa) = 74.88640 58.30450 130.35416
#
# Poissons Ratio (x) = -0.22425 0.37377
# Poissons Ratio (y) = -0.28803 0.31542
# Poissons Ratio (z) = 0.21473 0.14108
#
# Static dielectric constant tensor:
#      x y z
#    x 2.092190 0.000000 -0.058860 
#    y 0.000000 1.935390 0.000000 
#    z -0.058860 0.000000 2.320050 
# 
# From -- ./inp_files/5527.got.cif
#   From: 2010.05.17/outbox.cif.g08.bks.cpg/sg5_3_cif.got.tgz:5527.got - 2010.06.03 18:56:24.
