data_PCOD9130879
_publ_section_title
;
Structure prediction by ZEFSAII (Michael W. Deem and Ramdas Pophale) SiO2 
 PCOD9130879
Probable space group: P M
;
_chemical_formula_sum "Si O2"
_cell_formula_units_Z 16
_cell_length_a 5.799384
_cell_length_b 17.945880
_cell_length_c 7.164686
_cell_angle_alpha 90.000000
_cell_angle_beta 73.807673
_cell_angle_gamma 90.000000
_cell_volume 716.085291
_symmetry_space_group_name_H-M "P M"
_symmetry_group_IT_number 6
_symmetry_cell_setting 'monoclinic'
loop_
_space_group_symop_operation_xyz
x,y,z
x,-y,z
loop_
_atom_site_type_symbol
_atom_site_label
_atom_site_fract_x
_atom_site_fract_y
_atom_site_fract_z
Si Si1 0.350080 0.410674 0.452900
Si Si2 0.149421 0.081698 0.337437
Si Si3 0.572705 0.082372 0.975404
Si Si4 0.844732 0.410391 0.465156
Si Si5 0.884385 0.770515 0.803347
Si Si6 0.297357 0.871761 0.692928
Si Si7 0.704972 0.671135 0.158131
Si Si8 0.762792 0.196909 0.419986
O O1 0.355004 0.500000 0.437020
O O2 0.560827 0.389572 0.554491
O O3 0.457794 0.374082 0.238988
O O4 0.073804 0.387745 0.537573
O O5 0.147098 0.089298 0.562716
O O6 0.981997 0.146895 0.299599
O O7 0.058466 0.000000 0.305383
O O8 0.418034 0.088990 0.198492
O O9 0.737287 0.154505 0.901884
O O10 0.366842 0.084706 0.861723
O O11 0.689893 0.000000 0.943436
O O12 0.847661 0.500000 0.463554
O O13 0.883860 0.378766 0.245416
O O14 0.846288 0.761958 0.590689
O O15 0.159062 0.795379 0.773619
O O16 0.795787 0.699930 0.940495
O O17 0.548838 0.853923 0.539336
O O18 0.677017 0.746269 0.285101
#
# Coordination Sequence:
#
# PCOD9130879 Si02
#       8
#     2   2   2   2   2   2   2   2
#     4   8  16  31  55  86 114 147 190 230 277 337
#     4  10  21  36  54  75 101 138 186 233 280 334
#     4  10  21  36  54  75 101 138 186 233 280 334
#     4   8  16  31  55  86 114 147 190 230 277 337
#     4  10  22  36  52  80 108 143 183 231 279 341
#     4  10  21  36  52  72 107 140 182 228 283 332
#     4  10  19  34  57  80 110 148 184 230 283 334
#     4  10  22  36  52  80 108 143 183 231 279 341
#
# _framework density 22.343706000000001
#
# number of rings (size 3 to 8) (size 9 to 14) (size 15 to 20)
#    0.750    1.750    0.000    1.875    0.000   10.500 
#    0.000    3.125    0.000    3.000    0.000    7.000 
#    0.000    0.000    0.000    0.000    0.000    0.000 
#
# Total GULP energy -89117.725754 kJ/mol
# GULP energy per Si atom -5569.857860 kJ/mol
# Density = 2.229285 g / cm^3
# Si number density = 22.343706 Si / 1000 Ang^3
#
#
#
# Elastic Constant Matrix: (Units=GPa)
#
#
# Indices 1 2 3 4 5 6 
#
# 1 101.5505 7.6217 5.6854 0.0000 -9.1832 0.0000
# 2 7.6217 53.4346 7.3342 0.0000 -1.6507 0.0000
# 3 5.6854 7.3342 66.4447 0.0000 4.7773 0.0000
# 4 0.0000 0.0000 0.0000 13.6777 0.0000 -12.7973
# 5 -9.1832 -1.6507 4.7773 0.0000 22.8982 0.0000
# 6 0.0000 0.0000 0.0000 -12.7973 0.0000 16.9640
#
#
#
# Elastic Compliance Matrix: (Units=1/GPa)
#
#
# Indices 1 2 3 4 5 6 
#
# 1 0.010386 -0.001202 -0.001065 0.000000 0.004301 0.000000
# 2 -0.001202 0.019218 -0.002115 0.000000 0.001344 0.000000
# 3 -0.001065 -0.002115 0.015651 0.000000 -0.003845 0.000000
# 4 0.000000 0.000000 0.000000 0.248537 0.000000 0.187493
# 5 0.004301 0.001344 -0.003845 0.000000 0.046296 0.000000
# 6 0.000000 0.000000 0.000000 0.187493 0.000000 0.200390
#
#
# Mechanical properties :
#
#
# Convention : Reuss Voigt Hill
#
# Bulk Modulus (GPa) = 27.40489 29.19026 28.29758
# Shear Modulus (GPa) = 8.90620 24.09386 16.50003
#
# Velocity S-wave (km/s) = 1.99866 3.28735 2.72042
# Velocity P-wave (km/s) = 4.19738 5.24419 4.74971
#
# Compressibility (1/GPa) = 0.03648984
#
# Stress axis : x y z
#
# Youngs Moduli (GPa) = 96.28231 52.03509 63.89301
#
# Poissons Ratio (x) = 0.06257 0.06806
# Poissons Ratio (y) = 0.11577 0.13514
# Poissons Ratio (z) = 0.10256 0.11006
#
# Static dielectric constant tensor:
#      x y z
#    x 1.890960 0.000000 0.027270 
#    y 0.000000 1.861680 0.000000 
#    z 0.027270 0.000000 1.821260 
# 
# From -- ./inp_files/2296.got.cif
#   From: 2010.05.17/outbox.cif.g08.bks.cpg/sg6_2_cif.got.tgz:2296.got - 2010.06.03 19:42:10.
