data_PCOD9130372
_publ_section_title
;
Structure prediction by ZEFSAII (Michael W. Deem and Ramdas Pophale) SiO2 
 PCOD9130372
Probable space group: C 2
;
_chemical_formula_sum "Si O2"
_cell_formula_units_Z 24
_cell_length_a 22.600347
_cell_length_b 5.812602
_cell_length_c 22.592765
_cell_angle_alpha 90.000000
_cell_angle_beta 21.914570
_cell_angle_gamma 90.000000
_cell_volume 1107.705494
_symmetry_space_group_name_H-M "C 2"
_symmetry_group_IT_number 5
_symmetry_cell_setting 'monoclinic'
loop_
_space_group_symop_operation_xyz
x,y,z
-x,y,-z
1/2+x,1/2+y,z
1/2-x,1/2+y,-z
loop_
_atom_site_type_symbol
_atom_site_label
_atom_site_fract_x
_atom_site_fract_y
_atom_site_fract_z
Si Si1 0.326179 0.368400 0.449638
Si Si2 0.000000 0.742331 0.000000
Si Si3 0.000000 0.213232 0.500000
Si Si4 0.259759 0.034607 0.748171
Si Si5 0.301223 0.389020 0.924197
Si Si6 0.272762 0.381383 0.639008
Si Si7 0.607577 0.875398 0.983865
O O1 0.246958 0.618195 0.504064
O O2 0.508489 0.378074 0.258813
O O3 0.314735 0.362386 0.531635
O O4 0.887240 0.591139 0.064742
O O5 0.112795 0.897185 0.856454
O O6 0.896028 0.364988 0.641198
O O7 0.872220 0.083269 0.578084
O O8 0.326794 0.177986 0.631940
O O9 0.181177 0.175911 0.874267
O O10 0.254878 0.638593 0.996770
O O11 0.213851 0.397828 0.942283
O O12 0.080401 0.376021 0.825290
#
# Coordination Sequence:
#
# PCOD9130372 Si02
#       7
#     4   2   2   4   4   4   4
#     4  12  30  54  81 113 156 203 261 325 389 452
#     4  12  22  44  72 112 152 204 240 306 380 462
#     4  12  28  42  74 114 158 194 248 314 388 444
#     4  12  25  44  73 112 155 201 244 308 385 454
#     4  12  30  54  82 114 149 209 265 319 382 467
#     4  12  26  48  73 115 154 198 253 317 381 457
#     4  12  25  47  76 113 154 198 259 307 380 465
#
# _framework density 21.666409000000002
#
# number of rings (size 3 to 8) (size 9 to 14) (size 15 to 20)
#    0.000    0.000    5.000    3.500   11.667    1.333 
#    0.000    0.000    0.000    0.000    0.000    0.000 
#    0.000    0.000    0.000    0.000    0.000    0.000 
#
# Total GULP energy -66864.517092 kJ/mol
# GULP energy per Si atom -5572.043091 kJ/mol
# Density = 2.161710 g / cm^3
# Si number density = 21.666409 Si / 1000 Ang^3
#
#
#
# Elastic Constant Matrix: (Units=GPa)
#
#
# Indices 1 2 3 4 5 6 
#
# 1 148.5820 75.1294 60.9199 -0.0001 -2.3102 0.0383
# 2 75.1294 165.5802 108.4151 -0.0203 -6.9032 0.0172
# 3 60.9199 108.4151 192.9228 -0.0294 -8.1845 0.0021
# 4 -0.0001 -0.0203 -0.0294 61.2078 0.0141 67.5082
# 5 -2.3102 -6.9032 -8.1845 0.0141 39.9554 0.0025
# 6 0.0383 0.0172 0.0021 67.5082 0.0025 784.2079
#
#
#
# Elastic Compliance Matrix: (Units=1/GPa)
#
#
# Indices 1 2 3 4 5 6 
#
# 1 0.008824 -0.003454 -0.000857 -0.000001 -0.000262 0.000000
# 2 -0.003454 0.010919 -0.005018 0.000001 0.000659 0.000000
# 3 -0.000857 -0.005018 0.008307 0.000002 0.000785 0.000000
# 4 -0.000001 0.000001 0.000002 0.018052 -0.000006 -0.001554
# 5 -0.000262 0.000659 0.000785 -0.000006 0.025287 0.000000
# 6 0.000000 0.000000 0.000000 -0.001554 0.000000 0.001409
#
#
# Mechanical properties :
#
#
# Convention : Reuss Voigt Hill
#
# Bulk Modulus (GPa) = 106.44992 110.66820 108.55906
# Shear Modulus (GPa) = 52.86230 194.58225 123.72227
#
# Velocity S-wave (km/s) = 4.94482 9.48700 7.56487
# Velocity P-wave (km/s) = 9.04653 13.08409 11.24796
#
# Compressibility (1/GPa) = 0.00939409
#
# Stress axis : x y z
#
# Youngs Moduli (GPa) = 113.33023 91.58121 120.38128
#
# Poissons Ratio (x) = 0.31630 0.10312
# Poissons Ratio (y) = 0.39141 0.60403
# Poissons Ratio (z) = 0.09708 0.45952
#
# Static dielectric constant tensor:
#      x y z
#    x 1.690890 0.000000 0.007330 
#    y 0.000000 1.946550 0.000000 
#    z 0.007330 0.000000 1.807410 
# 
# From -- ./inp_files/30280.got.cif
#   From: 2010.05.17/outbox.cif.g08.bks.cpg/sg5_16_cif.got.tgz:30280.got - 2010.06.03 18:56:24.
