data_PCOD9130028
_publ_section_title
;
Structure prediction by ZEFSAII (Michael W. Deem and Ramdas Pophale) SiO2 
 PCOD9130028
Probable space group: C 2
;
_chemical_formula_sum "Si O2"
_cell_formula_units_Z 28
_cell_length_a 11.813784
_cell_length_b 9.286467
_cell_length_c 13.386322
_cell_angle_alpha 90.000000
_cell_angle_beta 123.033755
_cell_angle_gamma 90.000000
_cell_volume 1231.192474
_symmetry_space_group_name_H-M "C 2"
_symmetry_group_IT_number 5
_symmetry_cell_setting 'monoclinic'
loop_
_space_group_symop_operation_xyz
x,y,z
-x,y,-z
1/2+x,1/2+y,z
1/2-x,1/2+y,-z
loop_
_atom_site_type_symbol
_atom_site_label
_atom_site_fract_x
_atom_site_fract_y
_atom_site_fract_z
Si Si1 0.249972 0.857450 0.215092
Si Si2 0.187105 0.324368 0.215194
Si Si3 0.561400 0.661948 0.813985
Si Si4 0.640321 0.189911 0.523153
Si Si5 0.772958 0.632743 0.088066
Si Si6 0.443454 0.103669 0.871388
Si Si7 0.843834 0.951270 0.618373
O O1 0.380489 0.769469 0.241871
O O2 0.123841 0.753795 0.133603
O O3 0.238602 0.892846 0.325682
O O4 0.238847 0.001863 0.145580
O O5 0.283337 0.256329 0.344520
O O6 0.237402 0.277801 0.130502
O O7 0.168746 0.493837 0.221280
O O8 0.042558 0.250820 0.167136
O O9 0.476812 0.532714 0.723956
O O10 0.685209 0.619002 0.945347
O O11 0.500000 0.130891 0.500000
O O12 0.618971 0.320807 0.436064
O O13 0.740686 0.070772 0.524763
O O14 0.931082 0.625319 0.140611
O O15 0.500000 0.034649 0.000000
#
# Coordination Sequence:
#
# PCOD9130028 Si02
#       7
#     4   4   4   4   4   4   4
#     4  12  27  44  72 109 144 191 237 296 359 435
#     4  11  26  48  70 104 147 191 240 300 362 425
#     4  11  24  45  74 107 149 187 235 300 368 431
#     4  11  28  50  75 102 137 197 248 306 366 421
#     4  12  25  46  73 105 156 190 232 293 368 446
#     4  12  27  41  71 112 144 190 236 289 362 444
#     4  11  29  48  73 106 142 189 249 309 361 432
#
# _framework density 22.742177999999999
#
# number of rings (size 3 to 8) (size 9 to 14) (size 15 to 20)
#    0.000    0.571    5.714    1.286    8.000    2.286 
#    0.000    0.000    0.000    0.000    0.000    0.000 
#    0.000    0.000    0.000    0.000    0.000    0.000 
#
# Total GULP energy -78405.366605 kJ/mol
# GULP energy per Si atom -5600.383329 kJ/mol
# Density = 2.269042 g / cm^3
# Si number density = 22.742178 Si / 1000 Ang^3
#
#
#
# Elastic Constant Matrix: (Units=GPa)
#
#
# Indices 1 2 3 4 5 6 
#
# 1 95.7959 66.5954 21.3142 0.0000 13.3495 0.0000
# 2 66.5954 50.1812 15.5004 0.0000 -16.8098 0.0000
# 3 21.3142 15.5004 42.3539 0.0000 -8.4811 0.0000
# 4 0.0000 0.0000 0.0000 34.7248 0.0000 -8.7668
# 5 13.3495 -16.8098 -8.4811 0.0000 17.0156 0.0000
# 6 0.0000 0.0000 0.0000 -8.7668 0.0000 43.9886
#
#
#
# Elastic Compliance Matrix: (Units=1/GPa)
#
#
# Indices 1 2 3 4 5 6 
#
# 1 -0.009294 0.021491 0.002803 0.000000 0.029919 0.000000
# 2 0.021491 -0.018680 -0.012275 0.000000 -0.041432 0.000000
# 3 0.002803 -0.012275 0.026465 0.000000 -0.001135 0.000000
# 4 0.000000 0.000000 0.000000 0.030324 0.000000 0.006043
# 5 0.029919 -0.041432 -0.001135 0.000000 -0.006200 0.000000
# 6 0.000000 0.000000 0.000000 0.006043 0.000000 0.023938
#
#
# Mechanical properties :
#
#
# Convention : Reuss Voigt Hill
#
# Bulk Modulus (GPa) = 44.38796 43.90567 44.14682
# Shear Modulus (GPa) = 166.52879 24.80722 95.66801
#
# Velocity S-wave (km/s) = 8.56642 3.30631 6.49289
# Velocity P-wave (km/s) = 10.83536 5.82438 8.69852
#
# Compressibility (1/GPa) = 0.02252863
#
# Stress axis : x y z
#
# Youngs Moduli (GPa) = -107.59642 -53.53461 37.78590
#
# Poissons Ratio (x) = 1.15049 -0.10593
# Poissons Ratio (y) = 2.31230 0.46383
# Poissons Ratio (z) = 0.30163 -0.65715
#
# Static dielectric constant tensor:
#      x y z
#    x 1.826390 0.000000 0.008660 
#    y 0.000000 1.886980 0.000000 
#    z 0.008660 0.000000 1.842930 
# 
# From -- ./inp_files/52509.got.cif
#   From: 2010.05.17/outbox.cif.g08.bks.cpg/sg5_27_cif.got.tgz:52509.got - 2010.06.03 18:56:24.
