data_PCOD9130333
_publ_section_title
;
Structure prediction by ZEFSAII (Michael W. Deem and Ramdas Pophale) SiO2 
 PCOD9130333
Probable space group: C 2
;
_chemical_formula_sum "Si O2"
_cell_formula_units_Z 20
_cell_length_a 11.152945
_cell_length_b 17.250721
_cell_length_c 12.338119
_cell_angle_alpha 90.000000
_cell_angle_beta 25.044872
_cell_angle_gamma 90.000000
_cell_volume 1004.899613
_symmetry_space_group_name_H-M "C 2"
_symmetry_group_IT_number 5
_symmetry_cell_setting 'monoclinic'
loop_
_space_group_symop_operation_xyz
x,y,z
-x,y,-z
1/2+x,1/2+y,z
1/2-x,1/2+y,-z
loop_
_atom_site_type_symbol
_atom_site_label
_atom_site_fract_x
_atom_site_fract_y
_atom_site_fract_z
Si Si1 0.765554 0.097100 0.492595
Si Si2 0.397985 0.425375 0.460413
Si Si3 0.351511 0.667801 0.006138
Si Si4 0.500000 0.306269 0.000000
Si Si5 0.500000 0.698156 0.500000
Si Si6 0.305128 0.842548 0.960637
O O1 0.945303 0.121002 0.240810
O O2 0.888918 0.145270 0.493246
O O3 0.799951 0.007050 0.491752
O O4 0.442581 0.122597 0.741377
O O5 0.500000 0.436088 0.500000
O O6 0.129134 0.368059 0.680910
O O7 0.650744 0.390354 0.181517
O O8 0.294230 0.752012 0.000698
O O9 0.500000 0.679005 0.000000
O O10 0.252901 0.252063 0.250181
O O11 0.364908 0.353907 0.012011
#
# Coordination Sequence:
#
# PCOD9130333 Si02
#       6
#     4   4   4   2   2   4
#     4  12  24  45  71  98 131 172 225 274 328 389
#     4  12  26  45  68  99 135 174 220 274 331 392
#     4  12  25  45  70  98 134 175 222 273 325 395
#     4  12  24  44  70  98 134 166 226 274 322 394
#     4  12  20  44  74  98 124 164 228 284 314 390
#     4  12  25  45  69  99 133 176 218 274 332 388
#
# _framework density 19.902486
#
# number of rings (size 3 to 8) (size 9 to 14) (size 15 to 20)
#    0.000    0.000    5.000    6.000    0.000    0.000 
#   10.800    0.000    0.000    0.000    0.000    0.000 
#    0.000    0.000    0.000    0.000    0.000    0.000 
#
# Total GULP energy -56023.076086 kJ/mol
# GULP energy per Si atom -5602.307609 kJ/mol
# Density = 1.985719 g / cm^3
# Si number density = 19.902486 Si / 1000 Ang^3
#
#
#
# Elastic Constant Matrix: (Units=GPa)
#
#
# Indices 1 2 3 4 5 6 
#
# 1 134.7296 2.9188 10.3474 -0.0080 7.7848 -0.0153
# 2 2.9188 59.9805 -4.4261 -0.9659 7.0695 0.4761
# 3 10.3474 -4.4261 101.6167 -0.4922 10.0962 0.6663
# 4 -0.0080 -0.9659 -0.4922 -31.9000 1.5454 9.7780
# 5 7.7848 7.0695 10.0962 1.5454 57.1539 -0.6907
# 6 -0.0153 0.4761 0.6663 9.7780 -0.6907 21.4982
#
#
#
# Elastic Compliance Matrix: (Units=1/GPa)
#
#
# Indices 1 2 3 4 5 6 
#
# 1 0.007532 -0.000317 -0.000695 -0.000019 -0.000863 0.000015
# 2 -0.000317 0.017013 0.000992 -0.000689 -0.002220 -0.000166
# 3 -0.000695 0.000992 0.010135 -0.000347 -0.001812 -0.000237
# 4 -0.000019 -0.000689 -0.000347 -0.027429 0.001042 0.012535
# 5 -0.000863 -0.002220 -0.001812 0.001042 0.018183 0.000215
# 6 0.000015 -0.000166 -0.000237 0.012535 0.000215 0.040832
#
#
# Mechanical properties :
#
#
# Convention : Reuss Voigt Hill
#
# Bulk Modulus (GPa) = 28.86893 34.88966 31.87929
# Shear Modulus (GPa) = 64.22368 28.51619 46.36994
#
# Velocity S-wave (km/s) = 5.68676 3.78933 4.83210
# Velocity P-wave (km/s) = 7.59313 6.05919 6.86911
#
# Compressibility (1/GPa) = 0.03463932
#
# Stress axis : x y z
#
# Youngs Moduli (GPa) = 132.75965 58.78026 98.67024
#
# Poissons Ratio (x) = 0.01860 0.06860
# Poissons Ratio (y) = 0.04202 -0.09784
# Poissons Ratio (z) = 0.09230 -0.05828
#
# Static dielectric constant tensor:
#      x y z
#    x 1.683840 0.000010 -0.005790 
#    y 0.000010 1.660300 -0.000050 
#    z -0.005790 -0.000050 1.660120 
# 
# From -- ./inp_files/4806.got.cif
#   From: 2010.05.17/outbox.cif.g08.bks.cpg/sg5_3_cif.got.tgz:4806.got - 2010.06.03 18:56:24.
