data_PCOD9130085
_publ_section_title
;
Structure prediction by ZEFSAII (Michael W. Deem and Ramdas Pophale) SiO2 
 PCOD9130085
Probable space group: C 2
;
_chemical_formula_sum "Si O2"
_cell_formula_units_Z 28
_cell_length_a 27.849656
_cell_length_b 9.050321
_cell_length_c 5.547199
_cell_angle_alpha 90.000000
_cell_angle_beta 57.332013
_cell_angle_gamma 90.000000
_cell_volume 1176.990438
_symmetry_space_group_name_H-M "C 2"
_symmetry_group_IT_number 5
_symmetry_cell_setting 'monoclinic'
loop_
_space_group_symop_operation_xyz
x,y,z
-x,y,-z
1/2+x,1/2+y,z
1/2-x,1/2+y,-z
loop_
_atom_site_type_symbol
_atom_site_label
_atom_site_fract_x
_atom_site_fract_y
_atom_site_fract_z
Si Si1 0.819899 0.645820 0.412994
Si Si2 0.500000 0.184067 0.500000
Si Si3 0.296812 0.373468 0.858148
Si Si4 0.500000 0.011695 0.000000
Si Si5 0.716290 0.668967 0.378619
Si Si6 0.388685 0.848819 0.233399
Si Si7 0.034736 0.127409 0.157219
Si Si8 0.395981 0.363148 0.891392
O O1 0.824657 0.731223 0.651343
O O2 0.753266 0.661675 0.523736
O O3 0.844141 0.481808 0.321791
O O4 0.858993 0.742320 0.130498
O O5 0.512728 0.099627 0.213898
O O6 0.444508 0.283981 0.604302
O O7 0.275529 0.505033 0.748547
O O8 0.347729 0.446153 0.871722
O O9 0.246904 0.298923 0.145352
O O10 0.442394 0.922051 0.224618
O O11 0.650582 0.715764 0.564944
O O12 0.423448 0.768601 0.925467
O O13 0.000000 0.114787 0.500000
O O14 0.071217 0.978319 0.031757
O O15 0.000000 0.143127 0.000000
#
# Coordination Sequence:
#
# PCOD9130085 Si02
#       8
#     4   2   4   2   4   4   4   4
#     4  11  24  48  73 108 144 196 259 315 386 449
#     4  12  26  48  76 114 148 204 254 314 378 456
#     4  11  25  47  73 109 147 194 259 313 394 448
#     4  12  28  48  76 116 154 200 258 310 390 450
#     4  11  26  46  73 110 144 201 247 325 379 463
#     4  12  26  47  74 107 154 198 252 317 380 460
#     4  12  30  49  72 115 158 201 255 309 391 458
#     4  11  26  43  78 104 150 196 253 320 378 461
#
# _framework density 23.789490000000001
#
# number of rings (size 3 to 8) (size 9 to 14) (size 15 to 20)
#    0.000    0.571    2.857    3.429    6.000    5.714 
#    7.714    0.000    0.000    0.000    0.000    0.000 
#    0.000    0.000    0.000    0.000    0.000    0.000 
#
# Total GULP energy -78163.928701 kJ/mol
# GULP energy per Si atom -5583.137764 kJ/mol
# Density = 2.373534 g / cm^3
# Si number density = 23.789490 Si / 1000 Ang^3
#
#
#
# Elastic Constant Matrix: (Units=GPa)
#
#
# Indices 1 2 3 4 5 6 
#
# 1 84.5322 29.1046 51.1087 0.0000 -17.2117 0.0000
# 2 29.1046 112.7262 20.9176 0.0000 -0.7759 0.0000
# 3 51.1087 20.9176 76.4024 0.0000 -8.9549 0.0000
# 4 0.0000 0.0000 0.0000 29.8647 0.0000 -11.1321
# 5 -17.2117 -0.7759 -8.9549 0.0000 33.9811 0.0000
# 6 0.0000 0.0000 0.0000 -11.1321 0.0000 42.7975
#
#
#
# Elastic Compliance Matrix: (Units=1/GPa)
#
#
# Indices 1 2 3 4 5 6 
#
# 1 0.022615 -0.003317 -0.013297 0.000000 0.007875 0.000000
# 2 -0.003317 0.009840 -0.000666 0.000000 -0.001631 0.000000
# 3 -0.013297 -0.000666 0.022056 0.000000 -0.000938 0.000000
# 4 0.000000 0.000000 0.000000 0.037079 0.000000 0.009645
# 5 0.007875 -0.001631 -0.000938 0.000000 0.033132 0.000000
# 6 0.000000 0.000000 0.000000 0.009645 0.000000 0.025875
#
#
# Mechanical properties :
#
#
# Convention : Reuss Voigt Hill
#
# Bulk Modulus (GPa) = 50.12491 52.88030 51.50260
# Shear Modulus (GPa) = 26.06794 32.83065 29.44930
#
# Velocity S-wave (km/s) = 3.31384 3.71893 3.52221
# Velocity P-wave (km/s) = 5.97980 6.38101 6.18366
#
# Compressibility (1/GPa) = 0.01995016
#
# Stress axis : x y z
#
# Youngs Moduli (GPa) = 44.21935 101.62693 45.33980
#
# Poissons Ratio (x) = 0.33712 0.60287
# Poissons Ratio (y) = 0.14669 0.03020
# Poissons Ratio (z) = 0.58797 0.06769
#
# Static dielectric constant tensor:
#      x y z
#    x 1.881310 0.000000 0.021950 
#    y 0.000000 1.904610 0.000000 
#    z 0.021950 0.000000 1.942660 
# 
# From -- ./inp_files/11119.got.cif
#   From: 2010.05.17/outbox.cif.g08.bks.cpg/sg5_6_cif.got.tgz:11119.got - 2010.06.03 18:56:24.
