data_PCOD9130201
_publ_section_title
;
Structure prediction by ZEFSAII (Michael W. Deem and Ramdas Pophale) SiO2 
 PCOD9130201
Probable space group: C 2
;
_chemical_formula_sum "Si O2"
_cell_formula_units_Z 24
_cell_length_a 16.132055
_cell_length_b 8.432990
_cell_length_c 14.628104
_cell_angle_alpha 90.000000
_cell_angle_beta 151.818814
_cell_angle_gamma 90.000000
_cell_volume 939.813593
_symmetry_space_group_name_H-M "C 2"
_symmetry_group_IT_number 5
_symmetry_cell_setting 'monoclinic'
loop_
_space_group_symop_operation_xyz
x,y,z
-x,y,-z
1/2+x,1/2+y,z
1/2-x,1/2+y,-z
loop_
_atom_site_type_symbol
_atom_site_label
_atom_site_fract_x
_atom_site_fract_y
_atom_site_fract_z
Si Si1 0.559677 0.411950 0.659819
Si Si2 0.692201 0.969375 0.669934
Si Si3 0.272822 0.673590 0.417931
Si Si4 0.279545 0.083224 0.109949
Si Si5 0.928748 0.505739 0.067894
Si Si6 0.902703 0.193489 0.738043
O O1 0.500000 0.373954 0.500000
O O2 0.396935 0.518096 0.536547
O O3 0.621360 0.249363 0.770132
O O4 0.741637 0.513439 0.837182
O O5 0.500000 0.037132 0.500000
O O6 0.664426 0.802825 0.593297
O O7 0.762828 0.979242 0.841530
O O8 0.802128 0.076777 0.707672
O O9 0.289066 0.732589 0.538232
O O10 0.070670 0.642270 0.195678
O O11 0.387725 0.995565 0.136861
O O12 0.965711 0.347372 0.854674
O O13 0.587911 0.622312 0.884833
#
# Coordination Sequence:
#
# PCOD9130201 Si02
#       6
#     4   4   4   4   4   4
#     4  11  27  50  78 116 164 206 263 324 394 470
#     4  12  27  48  75 115 158 206 260 326 391 467
#     4  12  26  48  78 118 157 201 268 323 392 461
#     4  11  25  51  81 114 159 206 261 323 396 469
#     4  11  27  49  86 114 156 212 263 322 395 471
#     4  11  25  48  79 115 155 208 262 317 395 469
#
# _framework density 25.53698
#
# number of rings (size 3 to 8) (size 9 to 14) (size 15 to 20)
#    0.000    0.667    1.667    4.500    9.333    0.667 
#   12.000    0.000    0.000    0.000    0.000    0.000 
#    0.000    0.000    0.000    0.000    0.000    0.000 
#
# Total GULP energy -67210.297647 kJ/mol
# GULP energy per Si atom -5600.858137 kJ/mol
# Density = 2.547886 g / cm^3
# Si number density = 25.536980 Si / 1000 Ang^3
#
#
#
# Elastic Constant Matrix: (Units=GPa)
#
#
# Indices 1 2 3 4 5 6 
#
# 1 116.1998 66.6541 37.5798 0.0000 0.3602 0.0000
# 2 66.6541 75.1206 42.3383 0.0000 0.6110 0.0000
# 3 37.5798 42.3383 162.0636 0.0000 8.6318 0.0000
# 4 0.0000 0.0000 0.0000 39.0839 0.0000 4.6074
# 5 0.3602 0.6110 8.6318 0.0000 45.9460 0.0000
# 6 0.0000 0.0000 0.0000 4.6074 0.0000 32.2769
#
#
#
# Elastic Compliance Matrix: (Units=1/GPa)
#
#
# Indices 1 2 3 4 5 6 
#
# 1 0.017526 -0.015548 -0.000006 0.000000 0.000070 0.000000
# 2 -0.015548 0.029418 -0.004107 0.000000 0.000502 0.000000
# 3 -0.000006 -0.004107 0.007315 0.000000 -0.001320 0.000000
# 4 0.000000 0.000000 0.000000 0.026024 0.000000 -0.003715
# 5 0.000070 0.000502 -0.001320 0.000000 0.022005 0.000000
# 6 0.000000 0.000000 0.000000 -0.003715 0.000000 0.031512
#
#
# Mechanical properties :
#
#
# Convention : Reuss Voigt Hill
#
# Bulk Modulus (GPa) = 66.94454 71.83649 69.39051
# Shear Modulus (GPa) = 28.07384 37.24883 32.66133
#
# Velocity S-wave (km/s) = 3.31923 3.82334 3.58017
# Velocity P-wave (km/s) = 6.40011 6.90521 6.65745
#
# Compressibility (1/GPa) = 0.01493774
#
# Stress axis : x y z
#
# Youngs Moduli (GPa) = 57.05729 33.99251 136.70655
#
# Poissons Ratio (x) = 0.52852 0.00081
# Poissons Ratio (y) = 0.88714 0.56142
# Poissons Ratio (z) = 0.00034 0.13960
#
# Static dielectric constant tensor:
#      x y z
#    x 2.048280 0.000000 -0.081740 
#    y 0.000000 2.037740 0.000000 
#    z -0.081740 0.000000 2.093520 
# 
# From -- ./inp_files/54634.got.cif
#   From: 2010.05.17/outbox.cif.g08.bks.cpg/sg5_28_cif.got.tgz:54634.got - 2010.06.03 18:56:24.
