data_PCOD9130614
_publ_section_title
;
Structure prediction by ZEFSAII (Michael W. Deem and Ramdas Pophale) SiO2 
 PCOD9130614
Probable space group: C 2
;
_chemical_formula_sum "Si O2"
_cell_formula_units_Z 20
_cell_length_a 14.413337
_cell_length_b 4.695912
_cell_length_c 10.877368
_cell_angle_alpha 90.000000
_cell_angle_beta 91.685792
_cell_angle_gamma 90.000000
_cell_volume 735.902542
_symmetry_space_group_name_H-M "C 2"
_symmetry_group_IT_number 5
_symmetry_cell_setting 'monoclinic'
loop_
_space_group_symop_operation_xyz
x,y,z
-x,y,-z
1/2+x,1/2+y,z
1/2-x,1/2+y,-z
loop_
_atom_site_type_symbol
_atom_site_label
_atom_site_fract_x
_atom_site_fract_y
_atom_site_fract_z
Si Si1 0.022889 0.327640 0.879507
Si Si2 0.966351 0.611147 0.366608
Si Si3 0.187770 0.634611 0.030898
Si Si4 0.871365 0.004267 0.744748
Si Si5 0.228417 0.839143 0.572566
O O1 0.064997 0.395819 0.743779
O O2 0.923082 0.260921 0.816998
O O3 0.092639 0.535690 0.959700
O O4 0.000000 0.123972 0.000000
O O5 0.876343 0.799868 0.391119
O O6 0.000000 0.484256 0.500000
O O7 0.047529 0.819429 0.318881
O O8 0.172759 0.797689 0.156964
O O9 0.258471 0.372207 0.047746
O O10 0.799641 0.174964 0.660586
O O11 0.242090 0.660870 0.446631
#
# Coordination Sequence:
#
# PCOD9130614 Si02
#       5
#     4   4   4   4   4
#     4  12  28  51  85 122 173 223 289 359 434 516
#     4  12  27  52  87 120 172 228 286 363 436 511
#     4  12  29  53  85 129 178 230 289 365 442 526
#     4  12  29  53  88 127 175 229 303 354 443 529
#     4  12  29  54  85 126 176 225 291 364 437 525
#
# _framework density 27.177510000000002
#
# number of rings (size 3 to 8) (size 9 to 14) (size 15 to 20)
#    0.000    0.000    4.000    3.600    8.400    2.400 
#    0.000    0.000    0.000    0.000    0.000    0.000 
#    0.000    0.000    0.000    0.000    0.000    0.000 
#
# Total GULP energy -55729.540247 kJ/mol
# GULP energy per Si atom -5572.954025 kJ/mol
# Density = 2.711565 g / cm^3
# Si number density = 27.177510 Si / 1000 Ang^3
#
#
#
# Elastic Constant Matrix: (Units=GPa)
#
#
# Indices 1 2 3 4 5 6 
#
# 1 145.2414 23.1875 32.3069 0.0000 7.1289 0.0000
# 2 23.1875 97.3480 24.9786 0.0000 15.7573 0.0000
# 3 32.3069 24.9786 170.8986 0.0000 19.1354 0.0000
# 4 0.0000 0.0000 0.0000 -78.2994 0.0000 -96.4629
# 5 7.1289 15.7573 19.1354 0.0000 57.6489 0.0000
# 6 0.0000 0.0000 0.0000 -96.4629 0.0000 -33.8010
#
#
#
# Elastic Compliance Matrix: (Units=1/GPa)
#
#
# Indices 1 2 3 4 5 6 
#
# 1 0.007381 -0.001436 -0.001171 0.000000 -0.000132 0.000000
# 2 -0.001436 0.011308 -0.001096 0.000000 -0.002550 0.000000
# 3 -0.001171 -0.001096 0.006422 0.000000 -0.001687 0.000000
# 4 0.000000 0.000000 0.000000 0.005076 0.000000 -0.014487
# 5 -0.000132 -0.002550 -0.001687 0.000000 0.018620 0.000000
# 6 0.000000 0.000000 0.000000 -0.014487 0.000000 0.011759
#
#
# Mechanical properties :
#
#
# Convention : Reuss Voigt Hill
#
# Bulk Modulus (GPa) = 56.47933 63.82600 60.15266
# Shear Modulus (GPa) = 67.68220 11.31070 39.49645
#
# Velocity S-wave (km/s) = 4.99578 2.04226 3.81632
# Velocity P-wave (km/s) = 7.35553 5.39416 6.44984
#
# Compressibility (1/GPa) = 0.01770559
#
# Stress axis : x y z
#
# Youngs Moduli (GPa) = 135.47788 88.42944 155.71906
#
# Poissons Ratio (x) = 0.12703 0.18230
# Poissons Ratio (y) = 0.19461 0.17064
# Poissons Ratio (z) = 0.15860 0.09690
#
# Static dielectric constant tensor:
#      x y z
#    x 2.596440 0.000000 -0.046990 
#    y 0.000000 2.192490 0.000000 
#    z -0.046990 0.000000 2.256910 
# 
# From -- ./inp_files/41112.got.cif
#   From: 2010.05.17/outbox.cif.g08.bks.cpg/sg5_21_cif.got.tgz:41112.got - 2010.06.03 18:56:24.
