data_PCOD9130009
_publ_section_title
;
Structure prediction by ZEFSAII (Michael W. Deem and Ramdas Pophale) SiO2 
 PCOD9130009
Probable space group: C 2
;
_chemical_formula_sum "Si O2"
_cell_formula_units_Z 26
_cell_length_a 13.770515
_cell_length_b 9.018777
_cell_length_c 21.753349
_cell_angle_alpha 90.000000
_cell_angle_beta 155.792279
_cell_angle_gamma 90.000000
_cell_volume 1107.787549
_symmetry_space_group_name_H-M "C 2"
_symmetry_group_IT_number 5
_symmetry_cell_setting 'monoclinic'
loop_
_space_group_symop_operation_xyz
x,y,z
-x,y,-z
1/2+x,1/2+y,z
1/2-x,1/2+y,-z
loop_
_atom_site_type_symbol
_atom_site_label
_atom_site_fract_x
_atom_site_fract_y
_atom_site_fract_z
Si Si1 0.028651 0.695550 0.691873
Si Si2 0.161882 0.825001 0.294063
Si Si3 0.312975 0.892658 0.587483
Si Si4 0.500000 0.584175 0.500000
Si Si5 0.000000 0.587493 0.500000
Si Si6 0.000000 0.119921 0.000000
Si Si7 0.296756 0.495306 0.004051
Si Si8 0.552828 0.759399 0.215319
O O1 0.975870 0.741749 0.731719
O O2 0.851002 0.796828 0.551226
O O3 0.967711 0.521805 0.645177
O O4 0.311190 0.712882 0.851292
O O5 0.339048 0.701688 0.370193
O O6 0.991366 0.884194 0.143728
O O7 0.301189 0.965576 0.404470
O O8 0.451588 0.781999 0.713224
O O9 0.145908 0.985145 0.537606
O O10 0.178581 0.696557 0.640940
O O11 0.856341 0.025828 0.967227
O O12 0.362261 0.642389 0.080029
O O13 0.039972 0.418957 0.862523
#
# Coordination Sequence:
#
# PCOD9130009 Si02
#       8
#     4   4   4   2   2   2   4   4
#     4  11  26  46  72 101 149 178 246 285 360 409
#     4   9  21  45  70 104 134 194 219 303 349 423
#     4  11  25  43  71 104 136 185 237 301 342 429
#     4   9  21  42  68 104 138 172 246 276 362 412
#     4   9  21  40  78  98 134 172 250 270 362 406
#     4  12  26  46  66 110 132 198 224 310 330 428
#     4  11  25  45  75  94 149 181 248 278 369 409
#     4  11  24  45  69 106 130 196 229 295 346 432
#
# _framework density 23.470203999999999
#
# number of rings (size 3 to 8) (size 9 to 14) (size 15 to 20)
#    0.000    1.538    1.538    1.385   12.923    2.462 
#    0.000    0.000    0.000    0.923    0.000    0.000 
#    0.000    0.000    0.000    0.000    0.000    0.000 
#
# Total GULP energy -72521.717044 kJ/mol
# GULP energy per Si atom -5578.593619 kJ/mol
# Density = 2.341678 g / cm^3
# Si number density = 23.470204 Si / 1000 Ang^3
#
#
#
# Elastic Constant Matrix: (Units=GPa)
#
#
# Indices 1 2 3 4 5 6 
#
# 1 31.8652 26.3850 32.4001 0.0002 -9.1388 0.0001
# 2 26.3850 131.5858 80.5665 0.0041 -4.0236 0.0004
# 3 32.4001 80.5665 166.6277 0.0158 -17.0489 0.0023
# 4 0.0002 0.0041 0.0158 71.9413 0.0011 -6.0832
# 5 -9.1388 -4.0236 -17.0489 0.0011 37.9473 -0.0001
# 6 0.0001 0.0004 0.0023 -6.0832 -0.0001 28.2284
#
#
#
# Elastic Compliance Matrix: (Units=1/GPa)
#
#
# Indices 1 2 3 4 5 6 
#
# 1 0.043069 -0.005328 -0.005026 0.000001 0.007549 0.000001
# 2 -0.005328 0.011512 -0.004755 0.000000 -0.002199 0.000000
# 3 -0.005026 -0.004755 0.009541 -0.000002 0.002572 -0.000001
# 4 0.000001 0.000000 -0.000002 0.014158 -0.000001 0.003051
# 5 0.007549 -0.002199 0.002572 -0.000001 0.029093 0.000000
# 6 0.000001 0.000000 -0.000001 0.003051 0.000000 0.036083
#
#
# Mechanical properties :
#
#
# Convention : Reuss Voigt Hill
#
# Bulk Modulus (GPa) = 29.49500 67.64242 48.56871
# Shear Modulus (GPa) = 27.03049 40.33857 33.68453
#
# Velocity S-wave (km/s) = 3.39734 4.15024 3.79252
# Velocity P-wave (km/s) = 5.28995 7.20063 6.31793
#
# Compressibility (1/GPa) = 0.03390406
#
# Stress axis : x y z
#
# Youngs Moduli (GPa) = 23.21840 86.86421 104.80952
#
# Poissons Ratio (x) = 0.46280 0.52679
# Poissons Ratio (y) = 0.12370 0.49840
# Poissons Ratio (z) = 0.11670 0.41307
#
# Static dielectric constant tensor:
#      x y z
#    x 1.912670 0.000000 0.004800 
#    y 0.000000 1.916080 0.000000 
#    z 0.004800 0.000000 1.939890 
# 
# From -- ./inp_files/70884.got.cif
#   From: 2010.05.17/outbox.cif.g08.bks.cpg/sg5_36_cif.got.tgz:70884.got - 2010.06.03 18:56:24.
