data_PCOD9130075
_publ_section_title
;
Structure prediction by ZEFSAII (Michael W. Deem and Ramdas Pophale) SiO2 
 PCOD9130075
Probable space group: C 2
;
_chemical_formula_sum "Si O2"
_cell_formula_units_Z 14
_cell_length_a 9.151380
_cell_length_b 6.937095
_cell_length_c 9.346451
_cell_angle_alpha 90.000000
_cell_angle_beta 98.370404
_cell_angle_gamma 90.000000
_cell_volume 587.029458
_symmetry_space_group_name_H-M "C 2"
_symmetry_group_IT_number 5
_symmetry_cell_setting 'monoclinic'
loop_
_space_group_symop_operation_xyz
x,y,z
-x,y,-z
1/2+x,1/2+y,z
1/2-x,1/2+y,-z
loop_
_atom_site_type_symbol
_atom_site_label
_atom_site_fract_x
_atom_site_fract_y
_atom_site_fract_z
Si Si1 0.287223 0.669140 0.659212
Si Si2 0.000000 0.888733 0.500000
Si Si3 0.845593 0.914248 0.926102
Si Si4 0.876008 0.476473 0.867018
O O1 0.396793 0.534871 0.580242
O O2 0.263445 0.542476 0.798677
O O3 0.379030 0.859035 0.721801
O O4 0.129058 0.749108 0.582685
O O5 0.868361 0.706564 0.856631
O O6 0.765038 0.903422 0.065357
O O7 0.000000 0.000276 0.000000
O O8 0.000000 0.433433 0.000000
#
# Coordination Sequence:
#
# PCOD9130075 Si02
#       4
#     4   2   4   4
#     4  12  29  55  76 116 161 215 273 323 391 486
#     4  12  34  54  82 110 168 230 266 316 384 484
#     4  11  24  47  76 121 152 197 258 341 411 460
#     4  11  25  43  82 116 153 197 257 341 411 460
#
# _framework density 23.848889
#
# number of rings (size 3 to 8) (size 9 to 14) (size 15 to 20)
#    0.000    0.571    2.857    2.571   12.000    1.143 
#    0.000    0.000    0.000    0.000    0.000    0.000 
#    0.000    0.000    0.000    0.000    0.000    0.000 
#
# Total GULP energy -39079.888279 kJ/mol
# GULP energy per Si atom -5582.841183 kJ/mol
# Density = 2.379461 g / cm^3
# Si number density = 23.848889 Si / 1000 Ang^3
#
#
#
# Elastic Constant Matrix: (Units=GPa)
#
#
# Indices 1 2 3 4 5 6 
#
# 1 137.3030 52.3667 62.0835 0.0000 27.6423 0.0000
# 2 52.3667 196.8664 83.0587 0.0000 29.3679 0.0000
# 3 62.0835 83.0587 106.0937 0.0000 23.8805 0.0000
# 4 0.0000 0.0000 0.0000 -71.3777 0.0000 -27.7559
# 5 27.6423 29.3679 23.8805 0.0000 50.4880 0.0000
# 6 0.0000 0.0000 0.0000 -27.7559 0.0000 34.5647
#
#
#
# Elastic Compliance Matrix: (Units=1/GPa)
#
#
# Indices 1 2 3 4 5 6 
#
# 1 0.010327 -0.000042 -0.005308 0.000000 -0.003119 0.000000
# 2 -0.000042 0.007733 -0.005620 0.000000 -0.001817 0.000000
# 3 -0.005308 -0.005620 0.017394 0.000000 -0.002052 0.000000
# 4 0.000000 0.000000 0.000000 -0.010676 0.000000 -0.008573
# 5 -0.003119 -0.001817 -0.002052 0.000000 0.023541 0.000000
# 6 0.000000 0.000000 0.000000 -0.008573 0.000000 0.022047
#
#
# Mechanical properties :
#
#
# Convention : Reuss Voigt Hill
#
# Bulk Modulus (GPa) = 74.00607 92.80900 83.40753
# Shear Modulus (GPa) = 51.64623 18.91860 35.28242
#
# Velocity S-wave (km/s) = 4.65861 2.81956 3.85049
# Velocity P-wave (km/s) = 7.74825 7.04271 7.40389
#
# Compressibility (1/GPa) = 0.01351241
#
# Stress axis : x y z
#
# Youngs Moduli (GPa) = 96.82997 129.31362 57.49165
#
# Poissons Ratio (x) = 0.00547 0.30518
# Poissons Ratio (y) = 0.00409 0.32313
# Poissons Ratio (z) = 0.51399 0.72681
#
# Static dielectric constant tensor:
#      x y z
#    x 2.049600 0.000000 0.036510 
#    y 0.000000 1.954040 0.000000 
#    z 0.036510 0.000000 1.880570 
# 
# From -- ./inp_files/13533.got.cif
#   From: 2010.05.17/outbox.cif.g08.bks.cpg/sg5_7_cif.got.tgz:13533.got - 2010.06.03 18:56:24.
