data_PCOD9130330
_publ_section_title
;
Structure prediction by ZEFSAII (Michael W. Deem and Ramdas Pophale) SiO2 
 PCOD9130330
Probable space group: C 2
;
_chemical_formula_sum "Si O2"
_cell_formula_units_Z 22
_cell_length_a 5.822205
_cell_length_b 13.414322
_cell_length_c 12.292458
_cell_angle_alpha 90.000000
_cell_angle_beta 105.735733
_cell_angle_gamma 90.000000
_cell_volume 924.072354
_symmetry_space_group_name_H-M "C 2"
_symmetry_group_IT_number 5
_symmetry_cell_setting 'monoclinic'
loop_
_space_group_symop_operation_xyz
x,y,z
-x,y,-z
1/2+x,1/2+y,z
1/2-x,1/2+y,-z
loop_
_atom_site_type_symbol
_atom_site_label
_atom_site_fract_x
_atom_site_fract_y
_atom_site_fract_z
Si Si1 0.408979 0.017690 0.366843
Si Si2 0.464270 0.675188 0.764319
Si Si3 0.282744 0.889632 0.740723
Si Si4 0.218761 0.191683 0.588409
Si Si5 0.711192 0.524824 0.939450
Si Si6 0.500000 0.353064 0.500000
O O1 0.500000 0.981381 0.500000
O O2 0.166956 0.078297 0.306088
O O3 0.580645 0.111722 0.374980
O O4 0.478887 0.937928 0.283245
O O5 0.298546 0.770976 0.765479
O O6 0.640460 0.720369 0.697115
O O7 0.614775 0.630835 0.882269
O O8 0.212819 0.946218 0.840492
O O9 0.094124 0.907065 0.618473
O O10 0.295585 0.280488 0.519676
O O11 0.000000 0.140942 0.500000
O O12 0.500000 0.496762 0.000000
O O13 0.000000 0.532548 0.000000
#
# Coordination Sequence:
#
# PCOD9130330 Si02
#       6
#     4   4   4   4   4   2
#     4  12  24  43  70 119 171 207 250 314 400 506
#     4  12  27  51  77 110 161 212 261 336 405 470
#     4  12  28  48  81 123 159 212 261 334 413 497
#     4  12  20  43  69 113 171 203 247 306 397 507
#     4  12  31  60  85 114 156 220 297 346 395 469
#     4  12  26  42  70 130 168 200 252 308 426 516
#
# _framework density 23.807658
#
# number of rings (size 3 to 8) (size 9 to 14) (size 15 to 20)
#    0.000    0.000    8.182    1.091    6.364    2.182 
#    0.000    5.455    0.000    0.000    0.000    0.000 
#    0.000    0.000    0.000    0.000    0.000    0.000 
#
# Total GULP energy -61371.645847 kJ/mol
# GULP energy per Si atom -5579.240532 kJ/mol
# Density = 2.375347 g / cm^3
# Si number density = 23.807658 Si / 1000 Ang^3
#
#
#
# Elastic Constant Matrix: (Units=GPa)
#
#
# Indices 1 2 3 4 5 6 
#
# 1 114.0098 47.5724 76.0614 0.0000 2.2127 0.0000
# 2 47.5724 142.6729 65.6646 0.0000 -3.2577 0.0000
# 3 76.0614 65.6646 145.3421 0.0000 -13.0107 0.0000
# 4 0.0000 0.0000 0.0000 1.9228 0.0000 8.2601
# 5 2.2127 -3.2577 -13.0107 0.0000 50.9815 0.0000
# 6 0.0000 0.0000 0.0000 8.2601 0.0000 34.2291
#
#
#
# Elastic Compliance Matrix: (Units=1/GPa)
#
#
# Indices 1 2 3 4 5 6 
#
# 1 0.014058 -0.001586 -0.006861 0.000000 -0.002462 0.000000
# 2 -0.001586 0.009039 -0.003271 0.000000 -0.000188 0.000000
# 3 -0.006861 -0.003271 0.012236 0.000000 0.003211 0.000000
# 4 0.000000 0.000000 0.000000-14.191574 0.000000 3.424673
# 5 -0.002462 -0.000188 0.003211 0.000000 0.020529 0.000000
# 6 0.000000 0.000000 0.000000 3.424673 0.000000 -0.797218
#
#
# Mechanical properties :
#
#
# Convention : Reuss Voigt Hill
#
# Bulk Modulus (GPa) = 84.04808 86.73572 85.39190
# Shear Modulus (GPa) = -0.33545 31.60845 15.63650
#
# Velocity S-wave (km/s) = -0.37577 3.64766 2.56556
# Velocity P-wave (km/s) = 5.93223 7.36556 6.68741
#
# Compressibility (1/GPa) = 0.01189795
#
# Stress axis : x y z
#
# Youngs Moduli (GPa) = 71.13448 110.63384 81.72737
#
# Poissons Ratio (x) = 0.17547 0.56071
# Poissons Ratio (y) = 0.11282 0.26729
# Poissons Ratio (z) = 0.48803 0.36183
#
# Static dielectric constant tensor:
#      x y z
#    x 2.076060 0.000000 0.022340 
#    y 0.000000 1.902360 0.000000 
#    z 0.022340 0.000000 1.944400 
# 
# From -- ./inp_files/33317.got.cif
#   From: 2010.05.17/outbox.cif.g08.bks.cpg/sg5_17_cif.got.tgz:33317.got - 2010.06.03 18:56:24.
