data_PCOD9130396
_publ_section_title
;
Structure prediction by ZEFSAII (Michael W. Deem and Ramdas Pophale) SiO2 
 PCOD9130396
Probable space group: C 2
;
_chemical_formula_sum "Si O2"
_cell_formula_units_Z 20
_cell_length_a 22.949833
_cell_length_b 5.195589
_cell_length_c 9.948575
_cell_angle_alpha 90.000000
_cell_angle_beta 35.800629
_cell_angle_gamma 90.000000
_cell_volume 693.914960
_symmetry_space_group_name_H-M "C 2"
_symmetry_group_IT_number 5
_symmetry_cell_setting 'monoclinic'
loop_
_space_group_symop_operation_xyz
x,y,z
-x,y,-z
1/2+x,1/2+y,z
1/2-x,1/2+y,-z
loop_
_atom_site_type_symbol
_atom_site_label
_atom_site_fract_x
_atom_site_fract_y
_atom_site_fract_z
Si Si1 0.974519 0.668500 0.775395
Si Si2 0.680932 0.757077 0.051357
Si Si3 0.000000 0.077561 0.500000
Si Si4 0.297512 0.660734 0.472996
Si Si5 0.000000 0.932270 0.000000
Si Si6 0.816874 0.424186 0.698534
O O1 0.086258 0.579052 0.535271
O O2 0.904989 0.439789 0.856729
O O3 0.961540 0.907927 0.695371
O O4 0.960347 0.758340 0.952154
O O5 0.604028 0.725478 0.337782
O O6 0.757920 0.468915 0.966965
O O7 0.730439 0.640930 0.825987
O O8 0.412499 0.600711 0.226006
O O9 0.234240 0.427587 0.533939
O O10 0.288890 0.697481 0.649340
#
# Coordination Sequence:
#
# PCOD9130396 Si02
#       6
#     4   4   2   4   2   4
#     4  12  27  55  82 124 175 225 294 361 430 523
#     4  12  27  50  85 123 172 227 286 372 422 525
#     4  12  22  52  80 118 168 224 286 360 430 494
#     4  12  32  60  87 127 175 230 295 363 429 530
#     4  12  32  56  92 120 172 236 284 358 448 506
#     4  12  27  52  84 123 171 228 294 350 449 509
#
# _framework density 28.821975999999999
#
# number of rings (size 3 to 8) (size 9 to 14) (size 15 to 20)
#    0.000    0.000    4.000    3.600    2.800    9.600 
#    0.000    0.000    0.000    0.000    0.000    0.000 
#    0.000    0.000    0.000    0.000    0.000    0.000 
#
# Total GULP energy -55991.159055 kJ/mol
# GULP energy per Si atom -5599.115905 kJ/mol
# Density = 2.875638 g / cm^3
# Si number density = 28.821976 Si / 1000 Ang^3
#
#
#
# Elastic Constant Matrix: (Units=GPa)
#
#
# Indices 1 2 3 4 5 6 
#
# 1 179.9750 67.9413 68.5180 0.0000 24.2131 0.0003
# 2 67.9413 157.9031 67.3403 -0.0015 16.7501 0.0033
# 3 68.5180 67.3403 197.4958 0.0000 -29.1108 -0.0007
# 4 0.0000 -0.0015 0.0000 84.8482 -0.0003 -1.7855
# 5 24.2131 16.7501 -29.1108 -0.0003 70.5280 -0.0002
# 6 0.0003 0.0033 -0.0007 -1.7855 -0.0002 30.6105
#
#
#
# Elastic Compliance Matrix: (Units=1/GPa)
#
#
# Indices 1 2 3 4 5 6 
#
# 1 0.007645 -0.001893 -0.002478 0.000000 -0.003198 0.000000
# 2 -0.001893 0.008521 -0.002610 0.000000 -0.002451 -0.000001
# 3 -0.002478 -0.002610 0.007485 0.000000 0.004560 0.000001
# 4 0.000000 0.000000 0.000000 0.011800 0.000000 0.000688
# 5 -0.003198 -0.002451 0.004560 0.000000 0.017741 0.000001
# 6 0.000000 -0.000001 0.000001 0.000688 0.000001 0.032709
#
#
# Mechanical properties :
#
#
# Convention : Reuss Voigt Hill
#
# Bulk Modulus (GPa) = 103.21618 104.77477 103.99547
# Shear Modulus (GPa) = 48.50077 59.30229 53.90153
#
# Velocity S-wave (km/s) = 4.10661 4.54093 4.32922
# Velocity P-wave (km/s) = 7.64035 7.99529 7.81984
#
# Compressibility (1/GPa) = 0.00968840
#
# Stress axis : x y z
#
# Youngs Moduli (GPa) = 130.81082 117.36366 133.59997
#
# Poissons Ratio (x) = 0.22221 0.33105
# Poissons Ratio (y) = 0.24767 0.34865
# Poissons Ratio (z) = 0.32414 0.30628
#
# Static dielectric constant tensor:
#      x y z
#    x 2.502250 0.000000 -0.235960 
#    y 0.000000 2.638490 0.000000 
#    z -0.235960 0.000000 2.311310 
# 
# From -- ./inp_files/48127.got.cif
#   From: 2010.05.17/outbox.cif.g08.bks.cpg/sg5_25_cif.got.tgz:48127.got - 2010.06.03 18:56:24.
