data_PCOD9130315
_publ_section_title
;
Structure prediction by ZEFSAII (Michael W. Deem and Ramdas Pophale) SiO2 
 PCOD9130315
Probable space group: C 2
;
_chemical_formula_sum "Si O2"
_cell_formula_units_Z 10
_cell_length_a 5.228590
_cell_length_b 14.151863
_cell_length_c 5.300290
_cell_angle_alpha 90.000000
_cell_angle_beta 92.234235
_cell_angle_gamma 90.000000
_cell_volume 391.893049
_symmetry_space_group_name_H-M "C 2"
_symmetry_group_IT_number 5
_symmetry_cell_setting 'monoclinic'
loop_
_space_group_symop_operation_xyz
x,y,z
-x,y,-z
1/2+x,1/2+y,z
1/2-x,1/2+y,-z
loop_
_atom_site_type_symbol
_atom_site_label
_atom_site_fract_x
_atom_site_fract_y
_atom_site_fract_z
Si Si1 0.765953 0.686670 0.665047
Si Si2 0.172714 0.398486 0.754409
Si Si3 0.500000 0.549591 0.000000
O O1 0.500000 0.685604 0.500000
O O2 0.801990 0.795222 0.748802
O O3 0.715409 0.617154 0.893649
O O4 0.000000 0.657265 0.500000
O O5 0.380439 0.480429 0.787905
O O6 0.000000 0.409596 0.500000
O O7 0.000000 0.401698 0.000000
#
# Coordination Sequence:
#
# PCOD9130315 Si02
#       3
#     4   4   2
#     4  11  29  54  82 121 171 218 278 346 418 496
#     4  11  29  54  84 121 171 216 279 346 417 494
#     4  12  30  50  88 120 164 222 280 344 414 502
#
# _framework density 25.517168000000002
#
# number of rings (size 3 to 8) (size 9 to 14) (size 15 to 20)
#    0.000    0.800    2.000    0.000   22.400    0.000 
#    0.000    0.000    0.000    0.000    0.000    0.000 
#    0.000    0.000    0.000    0.000    0.000    0.000 
#
# Total GULP energy -28110.151606 kJ/mol
# GULP energy per Si atom -5622.030321 kJ/mol
# Density = 2.545909 g / cm^3
# Si number density = 25.517168 Si / 1000 Ang^3
#
#
#
# Elastic Constant Matrix: (Units=GPa)
#
#
# Indices 1 2 3 4 5 6 
#
# 1 142.1254 60.0202 66.1989 0.0000 -24.5594 0.0000
# 2 60.0202 221.4356 63.2848 0.0000 -1.8244 0.0000
# 3 66.1989 63.2848 163.0049 0.0000 -6.8927 0.0000
# 4 0.0000 0.0000 0.0000 24.7018 0.0000 28.9280
# 5 -24.5594 -1.8244 -6.8927 0.0000 66.2203 0.0000
# 6 0.0000 0.0000 0.0000 28.9280 0.0000 -46.4587
#
#
#
# Elastic Compliance Matrix: (Units=1/GPa)
#
#
# Indices 1 2 3 4 5 6 
#
# 1 0.009806 -0.001724 -0.003175 0.000000 0.003259 0.000000
# 2 -0.001724 0.005383 -0.001417 0.000000 -0.000638 0.000000
# 3 -0.003175 -0.001417 0.007958 0.000000 -0.000388 0.000000
# 4 0.000000 0.000000 0.000000 0.023411 0.000000 0.014577
# 5 0.003259 -0.000638 -0.000388 0.000000 0.016252 0.000000
# 6 0.000000 0.000000 0.000000 0.014577 0.000000 -0.012448
#
#
# Mechanical properties :
#
#
# Convention : Reuss Voigt Hill
#
# Bulk Modulus (GPa) = 95.10030 100.61930 97.85980
# Shear Modulus (GPa) = 75.18888 31.36348 53.27618
#
# Velocity S-wave (km/s) = 5.43415 3.50967 4.57426
# Velocity P-wave (km/s) = 8.75919 7.47940 8.14447
#
# Compressibility (1/GPa) = 0.01051521
#
# Stress axis : x y z
#
# Youngs Moduli (GPa) = 101.97739 185.77599 125.65909
#
# Poissons Ratio (x) = 0.32020 0.39902
# Poissons Ratio (y) = 0.17577 0.17804
# Poissons Ratio (z) = 0.32382 0.26322
#
# Static dielectric constant tensor:
#      x y z
#    x 1.977930 0.000000 0.046710 
#    y 0.000000 1.967770 0.000000 
#    z 0.046710 0.000000 2.009830 
# 
# From -- ./inp_files/186.got.cif
#   From: 2010.05.17/outbox.cif.g08.bks.cpg/sg5_1_cif.got.tgz:186.got - 2010.06.03 18:56:24.
