data_PCOD9130128
_publ_section_title
;
Structure prediction by ZEFSAII (Michael W. Deem and Ramdas Pophale) SiO2 
 PCOD9130128
Probable space group: C 2
;
_chemical_formula_sum "Si O2"
_cell_formula_units_Z 28
_cell_length_a 8.593301
_cell_length_b 18.100962
_cell_length_c 12.405972
_cell_angle_alpha 90.000000
_cell_angle_beta 42.458642
_cell_angle_gamma 90.000000
_cell_volume 1302.667155
_symmetry_space_group_name_H-M "C 2"
_symmetry_group_IT_number 5
_symmetry_cell_setting 'monoclinic'
loop_
_space_group_symop_operation_xyz
x,y,z
-x,y,-z
1/2+x,1/2+y,z
1/2-x,1/2+y,-z
loop_
_atom_site_type_symbol
_atom_site_label
_atom_site_fract_x
_atom_site_fract_y
_atom_site_fract_z
Si Si1 0.191720 0.573820 0.988685
Si Si2 0.328718 0.408858 0.944127
Si Si3 0.663850 0.637394 0.697282
Si Si4 0.500000 0.005230 0.500000
Si Si5 0.332850 0.741985 0.500975
Si Si6 0.640445 0.881369 0.269780
Si Si7 0.856347 0.699578 0.824407
Si Si8 0.000000 0.318049 0.000000
O O1 0.307895 0.497402 0.966426
O O2 0.393910 0.622834 0.835427
O O3 0.092547 0.627268 0.131450
O O4 0.000000 0.555900 0.000000
O O5 0.593282 0.384323 0.824771
O O6 0.169631 0.380466 0.125577
O O7 0.209529 0.378917 0.895583
O O8 0.718604 0.696802 0.579452
O O9 0.754420 0.667166 0.765142
O O10 0.785192 0.560304 0.607142
O O11 0.524402 0.953402 0.382786
O O12 0.500000 0.700947 0.500000
O O13 0.481166 0.813916 0.391368
O O14 0.085206 0.746779 0.684295
O O15 0.665254 0.754845 0.972105
#
# Coordination Sequence:
#
# PCOD9130128 Si02
#       8
#     4   4   4   2   4   4   4   2
#     4  12  25  46  71 107 140 181 241 304 350 417
#     4  11  25  44  72 100 142 185 234 295 349 426
#     4  12  24  44  72 102 139 186 238 286 354 428
#     4  12  22  44  72  98 132 186 238 282 346 426
#     4  12  25  45  67 109 143 183 231 296 350 418
#     4  11  25  44  72 101 142 187 236 283 364 421
#     4  12  25  44  75 100 141 187 237 288 351 428
#     4  12  24  44  68 104 134 178 238 284 350 416
#
# _framework density 21.494361000000001
#
# number of rings (size 3 to 8) (size 9 to 14) (size 15 to 20)
#    0.000    0.286    5.714    3.429    2.000    0.000 
#    0.000    0.000    0.000    0.000    0.000    0.000 
#    0.000    0.000    0.000    0.000    0.000    0.000 
#
# Total GULP energy -77985.755884 kJ/mol
# GULP energy per Si atom -5570.411135 kJ/mol
# Density = 2.144544 g / cm^3
# Si number density = 21.494361 Si / 1000 Ang^3
#
#
#
# Elastic Constant Matrix: (Units=GPa)
#
#
# Indices 1 2 3 4 5 6 
#
# 1 59.9284 19.1985 21.2552 0.0001 -3.4026 0.0000
# 2 19.1985 129.4315 43.0813 0.0000 8.0570 0.0000
# 3 21.2552 43.0813 106.4862 0.0003 -16.9322 0.0001
# 4 0.0001 0.0000 0.0003 31.8134 -0.0001 -9.2515
# 5 -3.4026 8.0570 -16.9322 -0.0001 32.7352 -0.0001
# 6 0.0000 0.0000 0.0001 -9.2515 -0.0001 35.8327
#
#
#
# Elastic Compliance Matrix: (Units=1/GPa)
#
#
# Indices 1 2 3 4 5 6 
#
# 1 0.018312 -0.001857 -0.002755 0.000000 0.000936 0.000000
# 2 -0.001857 0.009748 -0.004342 0.000000 -0.004838 0.000000
# 3 -0.002755 -0.004342 0.012881 0.000000 0.007445 0.000000
# 4 0.000000 0.000000 0.000000 0.033985 0.000000 0.008774
# 5 0.000936 -0.004838 0.007445 0.000000 0.035687 0.000000
# 6 0.000000 0.000000 0.000000 0.008774 0.000000 0.030173
#
#
# Mechanical properties :
#
#
# Convention : Reuss Voigt Hill
#
# Bulk Modulus (GPa) = 43.41799 51.43513 47.42656
# Shear Modulus (GPa) = 30.05285 34.23035 32.14160
#
# Velocity S-wave (km/s) = 3.74327 3.99498 3.87117
# Velocity P-wave (km/s) = 6.23910 6.72765 6.48798
#
# Compressibility (1/GPa) = 0.02303193
#
# Stress axis : x y z
#
# Youngs Moduli (GPa) = 54.60947 102.58325 77.63085
#
# Poissons Ratio (x) = 0.19054 0.21386
# Poissons Ratio (y) = 0.10144 0.33711
# Poissons Ratio (z) = 0.15044 0.44546
#
# Static dielectric constant tensor:
#      x y z
#    x 1.804880 0.000000 0.034770 
#    y 0.000000 1.784720 0.000000 
#    z 0.034770 0.000000 1.837380 
# 
# From -- ./inp_files/51376.got.cif
#   From: 2010.05.17/outbox.cif.g08.bks.cpg/sg5_26_cif.got.tgz:51376.got - 2010.06.03 18:56:24.
