data_PCOD9130016
_publ_section_title
;
Structure prediction by ZEFSAII (Michael W. Deem and Ramdas Pophale) SiO2 
 PCOD9130016
Probable space group: C 2
;
_chemical_formula_sum "Si O2"
_cell_formula_units_Z 32
_cell_length_a 13.623977
_cell_length_b 12.886956
_cell_length_c 19.607890
_cell_angle_alpha 90.000000
_cell_angle_beta 153.704696
_cell_angle_gamma 90.000000
_cell_volume 1525.058816
_symmetry_space_group_name_H-M "C 2"
_symmetry_group_IT_number 5
_symmetry_cell_setting 'monoclinic'
loop_
_space_group_symop_operation_xyz
x,y,z
-x,y,-z
1/2+x,1/2+y,z
1/2-x,1/2+y,-z
loop_
_atom_site_type_symbol
_atom_site_label
_atom_site_fract_x
_atom_site_fract_y
_atom_site_fract_z
Si Si1 0.023315 0.323380 0.867796
Si Si2 0.088591 0.324479 0.361710
Si Si3 0.319621 0.477632 0.592532
Si Si4 0.422061 0.608055 0.873605
Si Si5 0.827236 0.715796 0.829645
Si Si6 0.799112 0.482088 0.820377
Si Si7 0.058830 0.678373 0.458884
Si Si8 0.012417 0.895074 0.168698
O O1 0.984088 0.327904 0.762352
O O2 0.027179 0.205889 0.898403
O O3 0.835310 0.389156 0.789767
O O4 0.256574 0.378153 0.028270
O O5 0.132772 0.433883 0.425313
O O6 0.329732 0.271291 0.512193
O O7 0.907939 0.257234 0.289379
O O8 0.560037 0.481215 0.707350
O O9 0.244981 0.589196 0.573828
O O10 0.341700 0.406604 0.672905
O O11 0.465694 0.499784 0.862406
O O12 0.162099 0.633544 0.710900
O O13 0.500000 0.603466 0.000000
O O14 0.818996 0.596887 0.800278
O O15 0.911629 0.796107 0.826570
O O16 0.000000 0.719069 0.000000
O O17 0.000000 0.472101 0.000000
O O18 0.000000 0.707006 0.500000
#
# Coordination Sequence:
#
# PCOD9130016 Si02
#       8
#     4   4   4   4   4   4   4   4
#     4  12  26  45  72 106 141 182 236 290 349 417
#     4  12  26  45  71 102 141 187 230 288 354 413
#     4  12  26  45  71 102 141 187 230 288 354 413
#     4  12  28  46  75 104 139 183 243 292 347 422
#     4  11  24  45  71 101 141 183 230 283 352 418
#     4  11  24  45  71 101 141 183 230 283 352 418
#     4  12  24  48  70  98 139 188 233 288 349 411
#     4  12  26  45  72 106 141 182 236 290 349 417
#
# _framework density 20.982797999999999
#
# number of rings (size 3 to 8) (size 9 to 14) (size 15 to 20)
#    0.000    0.250    6.250    2.250    5.250    0.000 
#    2.250    1.250    0.000    0.000    0.000    0.000 
#    0.000    0.000    0.000    0.000    0.000    0.000 
#
# Total GULP energy -89531.447197 kJ/mol
# GULP energy per Si atom -5595.715450 kJ/mol
# Density = 2.093504 g / cm^3
# Si number density = 20.982798 Si / 1000 Ang^3
#
#
#
# Elastic Constant Matrix: (Units=GPa)
#
#
# Indices 1 2 3 4 5 6 
#
# 1 71.0391 22.3980 8.9304 0.0005 -3.4981 -0.0011
# 2 22.3980 98.1398 -9.9862 0.0010 -9.1796 -0.0009
# 3 8.9304 -9.9862 63.1864 0.0039 4.5943 -0.0020
# 4 0.0005 0.0010 0.0039 31.2831 0.0004 10.7244
# 5 -3.4981 -9.1796 4.5943 0.0004 43.3739 -0.0010
# 6 -0.0011 -0.0009 -0.0020 10.7244 -0.0010 33.4945
#
#
#
# Elastic Compliance Matrix: (Units=1/GPa)
#
#
# Indices 1 2 3 4 5 6 
#
# 1 0.015673 -0.003798 -0.002871 0.000000 0.000764 0.000000
# 2 -0.003798 0.011457 0.002210 -0.000001 0.001884 0.000001
# 3 -0.002871 0.002210 0.016693 -0.000003 -0.001532 0.000002
# 4 0.000000 -0.000001 -0.000003 0.035907 0.000000 -0.011497
# 5 0.000764 0.001884 -0.001532 0.000000 0.023678 0.000001
# 6 0.000000 0.000001 0.000002 -0.011497 0.000001 0.033537
#
#
# Mechanical properties :
#
#
# Convention : Reuss Voigt Hill
#
# Bulk Modulus (GPa) = 28.64756 30.56107 29.60431
# Shear Modulus (GPa) = 31.74677 35.69853 33.72265
#
# Velocity S-wave (km/s) = 3.89394 4.12919 4.01329
# Velocity P-wave (km/s) = 5.82233 6.10983 5.96781
#
# Compressibility (1/GPa) = 0.03490699
#
# Stress axis : x y z
#
# Youngs Moduli (GPa) = 63.80562 87.27972 59.90648
#
# Poissons Ratio (x) = 0.33145 0.17198
# Poissons Ratio (y) = 0.24230 -0.13242
# Poissons Ratio (z) = 0.18318 -0.19293
#
# Static dielectric constant tensor:
#      x y z
#    x 1.734230 0.000000 -0.000420 
#    y 0.000000 1.740990 0.000000 
#    z -0.000420 0.000000 1.767220 
# 
# From -- ./inp_files/60729.got.cif
#   From: 2010.05.17/outbox.cif.g08.bks.cpg/sg5_31_cif.got.tgz:60729.got - 2010.06.03 18:56:24.
