data_PCOD9130089
_publ_section_title
;
Structure prediction by ZEFSAII (Michael W. Deem and Ramdas Pophale) SiO2 
 PCOD9130089
Probable space group: C 2
;
_chemical_formula_sum "Si O2"
_cell_formula_units_Z 18
_cell_length_a 11.157265
_cell_length_b 11.882666
_cell_length_c 12.063377
_cell_angle_alpha 90.000000
_cell_angle_beta 151.771486
_cell_angle_gamma 90.000000
_cell_volume 756.470251
_symmetry_space_group_name_H-M "C 2"
_symmetry_group_IT_number 5
_symmetry_cell_setting 'monoclinic'
loop_
_space_group_symop_operation_xyz
x,y,z
-x,y,-z
1/2+x,1/2+y,z
1/2-x,1/2+y,-z
loop_
_atom_site_type_symbol
_atom_site_label
_atom_site_fract_x
_atom_site_fract_y
_atom_site_fract_z
Si Si1 0.612100 0.657040 0.215976
Si Si2 0.000000 0.867893 0.000000
Si Si3 0.593103 0.371638 0.472244
Si Si4 0.980020 0.504807 0.641494
Si Si5 0.887329 0.730545 0.119120
O O1 0.779936 0.767009 0.360960
O O2 0.783690 0.550395 0.387533
O O3 0.500000 0.648946 0.000000
O O4 0.395289 0.683477 0.129502
O O5 0.254477 0.940086 0.171523
O O6 0.028076 0.784554 0.129148
O O7 0.500000 0.446220 0.500000
O O8 0.816202 0.423015 0.582611
O O9 0.391098 0.327292 0.217370
O O10 0.004762 0.619575 0.733129
#
# Coordination Sequence:
#
# PCOD9130089 Si02
#       5
#     4   2   4   4   4
#     4  11  24  48  81 113 155 210 277 332 401 500
#     4  12  28  56  80 120 178 212 276 342 408 502
#     4  11  24  48  77 112 161 207 267 339 411 488
#     4  11  29  49  81 122 161 221 272 338 423 480
#     4  11  27  48  76 120 158 214 275 332 410 498
#
# _framework density 23.794723000000001
#
# number of rings (size 3 to 8) (size 9 to 14) (size 15 to 20)
#    0.000    0.889    4.444    0.000    4.667    4.444 
#    2.000    0.000    0.000    0.000    0.000    0.000 
#    0.000    0.000    0.000    0.000    0.000    0.000 
#
# Total GULP energy -50159.457361 kJ/mol
# GULP energy per Si atom -5573.273040 kJ/mol
# Density = 2.374056 g / cm^3
# Si number density = 23.794723 Si / 1000 Ang^3
#
#
#
# Elastic Constant Matrix: (Units=GPa)
#
#
# Indices 1 2 3 4 5 6 
#
# 1 184.7315 70.5038 67.0604 0.0127 5.3029 0.0050
# 2 70.5038 95.8034 42.7035 0.0164 3.9138 0.0045
# 3 67.0604 42.7035 107.9468 0.0210 4.2504 0.0099
# 4 0.0127 0.0164 0.0210 -11.2897 0.0121 14.1253
# 5 5.3029 3.9138 4.2504 0.0121 48.7240 0.0047
# 6 0.0050 0.0045 0.0099 14.1253 0.0047 40.1512
#
#
#
# Elastic Compliance Matrix: (Units=1/GPa)
#
#
# Indices 1 2 3 4 5 6 
#
# 1 0.008437 -0.004695 -0.003374 -0.000002 -0.000247 0.000001
# 2 -0.004695 0.015302 -0.003119 0.000007 -0.000446 -0.000003
# 3 -0.003374 -0.003119 0.012613 0.000008 -0.000482 -0.000005
# 4 -0.000002 0.000007 0.000008 -0.061504 0.000012 0.021637
# 5 -0.000247 -0.000446 -0.000482 0.000012 0.020629 -0.000006
# 6 0.000001 -0.000003 -0.000005 0.021637 -0.000006 0.017294
#
#
# Mechanical properties :
#
#
# Convention : Reuss Voigt Hill
#
# Bulk Modulus (GPa) = 71.55645 83.22409 77.39027
# Shear Modulus (GPa) = 125.61253 29.39803 77.50528
#
# Velocity S-wave (km/s) = 7.27356 3.51876 5.71342
# Velocity P-wave (km/s) = 10.03381 7.18058 8.72462
#
# Compressibility (1/GPa) = 0.01397498
#
# Stress axis : x y z
#
# Youngs Moduli (GPa) = 118.52342 65.35248 79.28285
#
# Poissons Ratio (x) = 0.30682 0.26754
# Poissons Ratio (y) = 0.55645 0.24729
# Poissons Ratio (z) = 0.39995 0.20384
#
# Static dielectric constant tensor:
#      x y z
#    x 2.143720 -0.000010 -0.002010 
#    y -0.000010 1.931360 0.000000 
#    z -0.002010 0.000000 2.047320 
# 
# From -- ./inp_files/4420.got.cif
#   From: 2010.05.17/outbox.cif.g08.bks.cpg/sg5_3_cif.got.tgz:4420.got - 2010.06.03 18:56:24.
