data_PCOD9130584
_publ_section_title
;
Structure prediction by ZEFSAII (Michael W. Deem and Ramdas Pophale) SiO2 
 PCOD9130584
Probable space group: C 2
;
_chemical_formula_sum "Si O2"
_cell_formula_units_Z 18
_cell_length_a 5.017369
_cell_length_b 26.210818
_cell_length_c 5.547813
_cell_angle_alpha 90.000000
_cell_angle_beta 91.373720
_cell_angle_gamma 90.000000
_cell_volume 729.379567
_symmetry_space_group_name_H-M "C 2"
_symmetry_group_IT_number 5
_symmetry_cell_setting 'monoclinic'
loop_
_space_group_symop_operation_xyz
x,y,z
-x,y,-z
1/2+x,1/2+y,z
1/2-x,1/2+y,-z
loop_
_atom_site_type_symbol
_atom_site_label
_atom_site_fract_x
_atom_site_fract_y
_atom_site_fract_z
Si Si1 0.249389 0.798900 0.650628
Si Si2 0.229572 0.908082 0.843367
Si Si3 0.000000 0.480561 0.500000
Si Si4 0.500000 0.148325 0.000000
Si Si5 0.170410 0.066046 0.253796
Si Si6 0.500000 0.715208 0.000000
O O1 0.500000 0.817017 0.500000
O O2 0.150439 0.850453 0.774268
O O3 0.362717 0.753459 0.811048
O O4 0.000000 0.778305 0.500000
O O5 0.288550 0.943704 0.620111
O O6 0.500000 0.904159 0.000000
O O7 0.000000 0.931114 0.000000
O O8 0.854658 0.516948 0.305670
O O9 0.245088 0.181272 0.907453
O O10 0.370929 0.112865 0.203755
O O11 0.000000 0.072497 0.500000
O O12 0.000000 0.061623 0.000000
#
# Coordination Sequence:
#
# PCOD9130584 Si02
#       6
#     4   4   2   2   4   2
#     4  12  26  51  81 123 169 219 281 345 421 516
#     4  12  29  50  82 121 174 223 280 349 425 516
#     4  12  32  50  86 122 170 224 288 354 434 508
#     4  12  28  58  85 122 167 224 290 362 434 508
#     4  12  30  58  89 125 175 224 297 364 433 518
#     4  12  28  54  85 122 167 222 278 358 430 502
#
# _framework density 24.678507
#
# number of rings (size 3 to 8) (size 9 to 14) (size 15 to 20)
#    0.000    0.000    3.333    4.000    9.333    0.889 
#   10.000    0.000    0.000    0.000    0.000    0.000 
#    0.000    0.000    0.000    0.000    0.000    0.000 
#
# Total GULP energy -50474.219237 kJ/mol
# GULP energy per Si atom -5608.246582 kJ/mol
# Density = 2.462234 g / cm^3
# Si number density = 24.678507 Si / 1000 Ang^3
#
#
#
# Elastic Constant Matrix: (Units=GPa)
#
#
# Indices 1 2 3 4 5 6 
#
# 1 177.9263 67.9510 82.1801 0.0000 12.8287 0.0000
# 2 67.9510 166.1918 63.6006 0.0000 3.5556 0.0000
# 3 82.1801 63.6006 136.1090 0.0000 -7.6298 0.0000
# 4 0.0000 0.0000 0.0000-1918.7067 0.0000-3787.7602
# 5 12.8287 3.5556 -7.6298 0.0000 70.0450 0.0000
# 6 0.0000 0.0000 0.0000-3787.7602 0.0000-7171.9336
#
#
#
# Elastic Compliance Matrix: (Units=1/GPa)
#
#
# Indices 1 2 3 4 5 6 
#
# 1 0.008456 -0.001730 -0.004406 0.000000 -0.001941 0.000000
# 2 -0.001730 0.007721 -0.002583 0.000000 -0.000357 0.000000
# 3 -0.004406 -0.002583 0.011336 0.000000 0.002173 0.000000
# 4 0.000000 0.000000 0.000000 0.012233 0.000000 -0.006461
# 5 -0.001941 -0.000357 0.002173 0.000000 0.014887 0.000000
# 6 0.000000 0.000000 0.000000 -0.006461 0.000000 0.003273
#
#
# Mechanical properties :
#
#
# Convention : Reuss Voigt Hill
#
# Bulk Modulus (GPa) = 99.25866 100.85448 100.05657
# Shear Modulus (GPa) = 63.53144 -1786.35270 -861.41063
#
# Velocity S-wave (km/s) = 5.07932 -26.93364 -18.70323
# Velocity P-wave (km/s) = 8.64334 30.43472 20.63449
#
# Compressibility (1/GPa) = 0.01007469
#
# Stress axis : x y z
#
# Youngs Moduli (GPa) = 118.26100 129.52372 88.21234
#
# Poissons Ratio (x) = 0.22403 0.38867
# Poissons Ratio (y) = 0.20455 0.22788
# Poissons Ratio (z) = 0.52107 0.33460
#
# Static dielectric constant tensor:
#      x y z
#    x 3.610220 0.000000 -0.047580 
#    y 0.000000 1.948340 0.000000 
#    z -0.047580 0.000000 1.998700 
# 
# From -- ./inp_files/1101.got.cif
#   From: 2010.05.17/outbox.cif.g08.bks.cpg/sg5_1_cif.got.tgz:1101.got - 2010.06.03 18:56:24.
