data_PCOD9130190
_publ_section_title
;
Structure prediction by ZEFSAII (Michael W. Deem and Ramdas Pophale) SiO2 
 PCOD9130190
Probable space group: C 2
;
_chemical_formula_sum "Si O2"
_cell_formula_units_Z 14
_cell_length_a 7.912279
_cell_length_b 15.441126
_cell_length_c 5.648139
_cell_angle_alpha 90.000000
_cell_angle_beta 65.786844
_cell_angle_gamma 90.000000
_cell_volume 629.351309
_symmetry_space_group_name_H-M "C 2"
_symmetry_group_IT_number 5
_symmetry_cell_setting 'monoclinic'
loop_
_space_group_symop_operation_xyz
x,y,z
-x,y,-z
1/2+x,1/2+y,z
1/2-x,1/2+y,-z
loop_
_atom_site_type_symbol
_atom_site_label
_atom_site_fract_x
_atom_site_fract_y
_atom_site_fract_z
Si Si1 0.210140 0.913150 0.952606
Si Si2 0.786895 0.769605 0.702896
Si Si3 0.000000 0.299654 0.500000
Si Si4 0.113973 0.595729 0.179348
O O1 0.250420 0.865900 0.178623
O O2 0.371399 0.747125 0.394085
O O3 0.000000 0.893646 0.000000
O O4 0.249920 0.014124 0.909444
O O5 0.788835 0.689810 0.883784
O O6 0.000000 0.772869 0.500000
O O7 0.000000 0.589196 0.000000
O O8 0.851216 0.362097 0.706317
O O9 0.000000 0.590789 0.500000
#
# Coordination Sequence:
#
# PCOD9130190 Si02
#       4
#     4   4   2   4
#     4  12  25  46  76 109 149 197 253 307 376 448
#     4  11  25  47  78 108 151 197 255 306 377 447
#     4  12  24  46  74 108 148 200 240 316 372 440
#     4  11  26  49  76 111 153 195 251 314 371 447
#
# _framework density 22.245128000000001
#
# number of rings (size 3 to 8) (size 9 to 14) (size 15 to 20)
#    0.000    0.571    4.286    3.429    4.000    2.286 
#    0.000    0.000    3.143    0.000    0.000    0.000 
#    0.000    0.000    0.000    0.000    0.000    0.000 
#
# Total GULP energy -39077.473413 kJ/mol
# GULP energy per Si atom -5582.496202 kJ/mol
# Density = 2.219450 g / cm^3
# Si number density = 22.245128 Si / 1000 Ang^3
#
#
#
# Elastic Constant Matrix: (Units=GPa)
#
#
# Indices 1 2 3 4 5 6 
#
# 1 159.6021 8.4423 52.9702 0.0000 5.7993 0.0000
# 2 8.4423 94.9822 10.5455 0.0000 -14.9666 0.0000
# 3 52.9702 10.5455 82.5096 0.0000 8.9925 0.0000
# 4 0.0000 0.0000 0.0000 -122.4354 0.0000 -70.5247
# 5 5.7993 -14.9666 8.9925 0.0000 35.3805 0.0000
# 6 0.0000 0.0000 0.0000 -70.5247 0.0000 -7.9710
#
#
#
# Elastic Compliance Matrix: (Units=1/GPa)
#
#
# Indices 1 2 3 4 5 6 
#
# 1 0.007964 -0.000156 -0.005084 0.000000 -0.000079 0.000000
# 2 -0.000156 0.011620 -0.001978 0.000000 0.005444 0.000000
# 3 -0.005084 -0.001978 0.016083 0.000000 -0.004091 0.000000
# 4 0.000000 0.000000 0.000000 0.001994 0.000000 -0.017641
# 5 -0.000079 0.005444 -0.004091 0.000000 0.031620 0.000000
# 6 0.000000 0.000000 0.000000 -0.017641 0.000000 0.030626
#
#
# Mechanical properties :
#
#
# Convention : Reuss Voigt Hill
#
# Bulk Modulus (GPa) = 47.10472 53.44553 50.27513
# Shear Modulus (GPa) = 41.17968 -1.32945 19.92511
#
# Velocity S-wave (km/s) = 4.30720 -0.77391 2.99608
# Velocity P-wave (km/s) = 6.77918 4.82486 5.88373
#
# Compressibility (1/GPa) = 0.02122929
#
# Stress axis : x y z
#
# Youngs Moduli (GPa) = 125.56291 86.06174 62.17885
#
# Poissons Ratio (x) = 0.01341 0.31614
# Poissons Ratio (y) = 0.01957 0.12301
# Poissons Ratio (z) = 0.63841 0.17026
#
# Static dielectric constant tensor:
#      x y z
#    x 1.781590 0.000000 -0.016200 
#    y 0.000000 1.751180 0.000000 
#    z -0.016200 0.000000 2.373450 
# 
# From -- ./inp_files/1739.got.cif
#   From: 2010.05.17/outbox.cif.g08.bks.cpg/sg5_1_cif.got.tgz:1739.got - 2010.06.03 18:56:24.
