data_PCOD9130611
_publ_section_title
;
Structure prediction by ZEFSAII (Michael W. Deem and Ramdas Pophale) SiO2 
 PCOD9130611
Probable space group: C 2
;
_chemical_formula_sum "Si O2"
_cell_formula_units_Z 16
_cell_length_a 7.816141
_cell_length_b 18.072478
_cell_length_c 5.755177
_cell_angle_alpha 90.000000
_cell_angle_beta 56.164705
_cell_angle_gamma 90.000000
_cell_volume 675.277790
_symmetry_space_group_name_H-M "C 2"
_symmetry_group_IT_number 5
_symmetry_cell_setting 'monoclinic'
loop_
_space_group_symop_operation_xyz
x,y,z
-x,y,-z
1/2+x,1/2+y,z
1/2-x,1/2+y,-z
loop_
_atom_site_type_symbol
_atom_site_label
_atom_site_fract_x
_atom_site_fract_y
_atom_site_fract_z
Si Si1 0.272550 0.072710 0.055381
Si Si2 0.000000 0.954882 0.500000
Si Si3 0.889314 0.360707 0.344958
Si Si4 0.801405 0.720163 0.277811
Si Si5 0.500000 0.113830 0.500000
O O1 0.207291 0.157198 0.175182
O O2 0.500000 0.056874 0.000000
O O3 0.318438 0.068363 0.749658
O O4 0.115137 0.010939 0.242843
O O5 0.822392 0.904293 0.527900
O O6 0.831331 0.277896 0.476368
O O7 0.000000 0.390453 0.500000
O O8 0.000000 0.360619 0.000000
O O9 0.904904 0.666588 0.383439
O O10 0.000000 0.757793 0.000000
#
# Coordination Sequence:
#
# PCOD9130611 Si02
#       5
#     4   2   4   4   2
#     4   9  21  45  73 115 146 193 261 316 377 460
#     4  12  27  52  76 108 161 210 246 320 399 444
#     4  12  31  52  77 114 160 206 263 313 383 471
#     4   9  21  43  78 112 148 195 259 318 380 456
#     4   8  17  40  76 112 147 186 258 326 363 468
#
# _framework density 23.693950999999998
#
# number of rings (size 3 to 8) (size 9 to 14) (size 15 to 20)
#    0.000    2.500    0.000    1.500   12.250    0.000 
#   29.250    0.000    0.000    0.000    0.000    0.000 
#    0.000    0.000    0.000    0.000    0.000    0.000 
#
# Total GULP energy -44580.980723 kJ/mol
# GULP energy per Si atom -5572.622590 kJ/mol
# Density = 2.364002 g / cm^3
# Si number density = 23.693951 Si / 1000 Ang^3
#
#
#
# Elastic Constant Matrix: (Units=GPa)
#
#
# Indices 1 2 3 4 5 6 
#
# 1 109.1924 49.3083 71.8266 0.0000 -7.4381 0.0000
# 2 49.3083 128.6017 78.4783 0.0000 -19.6467 0.0000
# 3 71.8266 78.4783 195.6388 0.0000 0.2108 0.0000
# 4 0.0000 0.0000 0.0000 -206.4958 0.0000 -157.6005
# 5 -7.4381 -19.6467 0.2108 0.0000 27.6195 0.0000
# 6 0.0000 0.0000 0.0000 -157.6005 0.0000 -58.4093
#
#
#
# Elastic Compliance Matrix: (Units=1/GPa)
#
#
# Indices 1 2 3 4 5 6 
#
# 1 0.012817 -0.002335 -0.003771 0.000000 0.001819 0.000000
# 2 -0.002335 0.012470 -0.004154 0.000000 0.008273 0.000000
# 3 -0.003771 -0.004154 0.008166 0.000000 -0.004033 0.000000
# 4 0.000000 0.000000 0.000000 0.004572 0.000000 -0.012335
# 5 0.001819 0.008273 -0.004033 0.000000 0.042612 0.000000
# 6 0.000000 0.000000 0.000000 -0.012335 0.000000 0.016162
#
#
# Mechanical properties :
#
#
# Convention : Reuss Voigt Hill
#
# Bulk Modulus (GPa) = 77.31640 92.51771 84.91706
# Shear Modulus (GPa) = 41.10819 -31.86915 4.61952
#
# Velocity S-wave (km/s) = 4.16981 -3.67145 1.39782
# Velocity P-wave (km/s) = 7.47564 4.59990 6.20662
#
# Compressibility (1/GPa) = 0.01293387
#
# Stress axis : x y z
#
# Youngs Moduli (GPa) = 78.02102 80.19215 122.45179
#
# Poissons Ratio (x) = 0.18727 0.46175
# Poissons Ratio (y) = 0.18220 0.50864
# Poissons Ratio (z) = 0.29421 0.33310
#
# Static dielectric constant tensor:
#      x y z
#    x 2.066370 0.000000 -0.068570 
#    y 0.000000 1.890290 0.000000 
#    z -0.068570 0.000000 4.684760 
# 
# From -- ./inp_files/2269.got.cif
#   From: 2010.05.17/outbox.cif.g08.bks.cpg/sg5_2_cif.got.tgz:2269.got - 2010.06.03 18:56:24.
