data_PCOD9130328
_publ_section_title
;
Structure prediction by ZEFSAII (Michael W. Deem and Ramdas Pophale) SiO2 
 PCOD9130328
Probable space group: C 2
;
_chemical_formula_sum "Si O2"
_cell_formula_units_Z 26
_cell_length_a 5.496334
_cell_length_b 17.436204
_cell_length_c 12.012899
_cell_angle_alpha 90.000000
_cell_angle_beta 87.486962
_cell_angle_gamma 90.000000
_cell_volume 1150.151389
_symmetry_space_group_name_H-M "C 2"
_symmetry_group_IT_number 5
_symmetry_cell_setting 'monoclinic'
loop_
_space_group_symop_operation_xyz
x,y,z
-x,y,-z
1/2+x,1/2+y,z
1/2-x,1/2+y,-z
loop_
_atom_site_type_symbol
_atom_site_label
_atom_site_fract_x
_atom_site_fract_y
_atom_site_fract_z
Si Si1 0.500000 0.326650 0.500000
Si Si2 0.512885 0.296799 0.865184
Si Si3 0.500000 0.733133 0.500000
Si Si4 0.000000 0.554489 0.000000
Si Si5 0.211643 0.169417 0.271909
Si Si6 0.953082 0.935590 0.290365
Si Si7 0.048946 0.518321 0.754555
Si Si8 0.141832 0.176553 0.895299
O O1 0.248510 0.279568 0.526391
O O2 0.440419 0.378268 0.394685
O O3 0.718278 0.247224 0.795967
O O4 0.521168 0.381973 0.819311
O O5 0.280968 0.245898 0.834164
O O6 0.500000 0.293338 0.000000
O O7 0.590487 0.685498 0.391614
O O8 0.799944 0.613284 0.956329
O O9 0.065539 0.507748 0.888523
O O10 0.432397 0.109343 0.272084
O O11 0.020819 0.132770 0.190094
O O12 0.701860 0.982562 0.284311
O O13 0.204153 0.982233 0.299494
O O14 0.000000 0.214379 0.000000
#
# Coordination Sequence:
#
# PCOD9130328 Si02
#       8
#     2   4   2   2   4   4   4   4
#     4  12  26  57  78 107 160 208 254 314 410 445
#     4  12  24  44  72 115 146 197 251 318 370 452
#     4  12  28  49  86 117 144 202 272 330 360 463
#     4  12  24  44  70 110 156 208 236 322 392 460
#     4  12  26  47  80 110 150 198 266 317 376 451
#     4  12  30  48  75 110 156 204 246 314 382 470
#     4  12  28  47  73 114 153 199 253 307 390 456
#     4  12  20  41  75 111 148 201 250 316 389 442
#
# _framework density 22.605720000000002
#
# number of rings (size 3 to 8) (size 9 to 14) (size 15 to 20)
#    0.000    0.000    6.923    2.769    4.308    0.615 
#    0.000    1.538    0.000    0.000    0.000    0.000 
#    0.000    0.000    0.000    0.000    0.000    0.000 
#
# Total GULP energy -72620.972754 kJ/mol
# GULP energy per Si atom -5586.228673 kJ/mol
# Density = 2.255427 g / cm^3
# Si number density = 22.605720 Si / 1000 Ang^3
#
#
#
# Elastic Constant Matrix: (Units=GPa)
#
#
# Indices 1 2 3 4 5 6 
#
# 1 151.9617 47.4241 42.2181 0.0000 4.7516 0.0000
# 2 47.4241 68.3106 26.7314 0.0000 5.1688 0.0000
# 3 42.2181 26.7314 144.2967 0.0000 -14.8931 0.0000
# 4 0.0000 0.0000 0.0000 25.3735 0.0000 -8.7066
# 5 4.7516 5.1688 -14.8931 0.0000 35.5729 0.0000
# 6 0.0000 0.0000 0.0000 -8.7066 0.0000 31.9200
#
#
#
# Elastic Compliance Matrix: (Units=1/GPa)
#
#
# Indices 1 2 3 4 5 6 
#
# 1 0.008746 -0.005329 -0.001685 0.000000 -0.001099 0.000000
# 2 -0.005329 0.019504 -0.002376 0.000000 -0.003117 0.000000
# 3 -0.001685 -0.002376 0.008280 0.000000 0.004037 0.000000
# 4 0.000000 0.000000 0.000000 0.043481 0.000000 0.011860
# 5 -0.001099 -0.003117 0.004037 0.000000 0.030401 0.000000
# 6 0.000000 0.000000 0.000000 0.011860 0.000000 0.034563
#
#
# Mechanical properties :
#
#
# Convention : Reuss Voigt Hill
#
# Bulk Modulus (GPa) = 56.33748 66.36847 61.35298
# Shear Modulus (GPa) = 29.46840 35.11965 32.29403
#
# Velocity S-wave (km/s) = 3.61443 3.94582 3.78375
# Velocity P-wave (km/s) = 6.51112 7.08394 6.80356
#
# Compressibility (1/GPa) = 0.01775017
#
# Stress axis : x y z
#
# Youngs Moduli (GPa) = 114.33310 51.27034 120.77362
#
# Poissons Ratio (x) = 0.27324 0.20352
# Poissons Ratio (y) = 0.60934 0.28692
# Poissons Ratio (z) = 0.19267 0.12180
#
# Static dielectric constant tensor:
#      x y z
#    x 1.989410 0.000000 -0.011810 
#    y 0.000000 1.839220 0.000000 
#    z -0.011810 0.000000 1.821610 
# 
# From -- ./inp_files/33550.got.cif
#   From: 2010.05.17/outbox.cif.g08.bks.cpg/sg5_17_cif.got.tgz:33550.got - 2010.06.03 18:56:24.
