data_PCOD9130592
_publ_section_title
;
Structure prediction by ZEFSAII (Michael W. Deem and Ramdas Pophale) SiO2 
 PCOD9130592
Probable space group: C 2
;
_chemical_formula_sum "Si O2"
_cell_formula_units_Z 12
_cell_length_a 10.156373
_cell_length_b 10.486425
_cell_length_c 5.001325
_cell_angle_alpha 90.000000
_cell_angle_beta 60.501036
_cell_angle_gamma 90.000000
_cell_volume 463.609571
_symmetry_space_group_name_H-M "C 2"
_symmetry_group_IT_number 5
_symmetry_cell_setting 'monoclinic'
loop_
_space_group_symop_operation_xyz
x,y,z
-x,y,-z
1/2+x,1/2+y,z
1/2-x,1/2+y,-z
loop_
_atom_site_type_symbol
_atom_site_label
_atom_site_fract_x
_atom_site_fract_y
_atom_site_fract_z
Si Si1 0.167000 0.322210 0.931549
Si Si2 0.333003 0.551310 0.765561
Si Si3 0.605638 0.186766 0.644369
O O1 0.250009 0.436756 0.003627
O O2 0.282331 0.294997 0.574088
O O3 0.844124 0.186758 0.905890
O O4 0.000000 0.355815 0.000000
O O5 0.500000 0.517716 0.500000
O O6 0.217661 0.578526 0.638776
O O7 0.500000 0.151015 0.500000
O O8 0.500000 0.222519 0.000000
#
# Coordination Sequence:
#
# PCOD9130592 Si02
#       3
#     4   4   4
#     4  12  28  55  87 129 171 226 285 356 422 510
#     4  12  28  55  87 129 171 226 285 356 422 510
#     4  12  26  52  84 126 166 222 278 346 422 500
#
# _framework density 25.883849000000001
#
# number of rings (size 3 to 8) (size 9 to 14) (size 15 to 20)
#    0.000    0.000    6.667    2.000    0.000    2.667 
#   12.000    0.000    0.000    0.000    0.000    0.000 
#    0.000    0.000    0.000    0.000    0.000    0.000 
#
# Total GULP energy -33627.141687 kJ/mol
# GULP energy per Si atom -5604.523615 kJ/mol
# Density = 2.582494 g / cm^3
# Si number density = 25.883849 Si / 1000 Ang^3
#
#
#
# Elastic Constant Matrix: (Units=GPa)
#
#
# Indices 1 2 3 4 5 6 
#
# 1 210.6892 65.8652 89.0945 0.0000 -44.1923 0.0000
# 2 65.8652 154.9728 31.8874 0.0000 -26.5973 0.0000
# 3 89.0945 31.8874 132.5398 0.0000 -16.9760 0.0000
# 4 0.0000 0.0000 0.0000 40.4057 0.0000 -11.0978
# 5 -44.1923 -26.5973 -16.9760 0.0000 53.8797 0.0000
# 6 0.0000 0.0000 0.0000 -11.0978 0.0000 54.5864
#
#
#
# Elastic Compliance Matrix: (Units=1/GPa)
#
#
# Indices 1 2 3 4 5 6 
#
# 1 0.008104 -0.001777 -0.004461 0.000000 0.004364 0.000000
# 2 -0.001777 0.007663 -0.000366 0.000000 0.002210 0.000000
# 3 -0.004461 -0.000366 0.010566 0.000000 -0.000510 0.000000
# 4 0.000000 0.000000 0.000000 0.026213 0.000000 0.005329
# 5 0.004364 0.002210 -0.000510 0.000000 0.023069 0.000000
# 6 0.000000 0.000000 0.000000 0.005329 0.000000 0.019403
#
#
# Mechanical properties :
#
#
# Convention : Reuss Voigt Hill
#
# Bulk Modulus (GPa) = 76.19312 96.87734 86.53523
# Shear Modulus (GPa) = 44.40505 50.53133 47.46819
#
# Velocity S-wave (km/s) = 4.14641 4.42320 4.28704
# Velocity P-wave (km/s) = 7.24045 7.97466 7.61641
#
# Compressibility (1/GPa) = 0.01312454
#
# Stress axis : x y z
#
# Youngs Moduli (GPa) = 123.40199 130.50371 94.64197
#
# Poissons Ratio (x) = 0.23195 0.42218
# Poissons Ratio (y) = 0.21933 0.03462
# Poissons Ratio (z) = 0.55047 0.04774
#
# Static dielectric constant tensor:
#      x y z
#    x 1.986480 0.000000 0.057700 
#    y 0.000000 2.184720 0.000000 
#    z 0.057700 0.000000 2.060150 
# 
# From -- ./inp_files/1398.got.cif
#   From: 2010.05.17/outbox.cif.g08.bks.cpg/sg5_1_cif.got.tgz:1398.got - 2010.06.03 18:56:24.
