data_PCOD9130202
_publ_section_title
;
Structure prediction by ZEFSAII (Michael W. Deem and Ramdas Pophale) SiO2 
 PCOD9130202
Probable space group: C 2
;
_chemical_formula_sum "Si O2"
_cell_formula_units_Z 22
_cell_length_a 13.388102
_cell_length_b 6.870923
_cell_length_c 11.147549
_cell_angle_alpha 90.000000
_cell_angle_beta 50.584151
_cell_angle_gamma 90.000000
_cell_volume 792.217733
_symmetry_space_group_name_H-M "C 2"
_symmetry_group_IT_number 5
_symmetry_cell_setting 'monoclinic'
loop_
_space_group_symop_operation_xyz
x,y,z
-x,y,-z
1/2+x,1/2+y,z
1/2-x,1/2+y,-z
loop_
_atom_site_type_symbol
_atom_site_label
_atom_site_fract_x
_atom_site_fract_y
_atom_site_fract_z
Si Si1 0.919468 0.629170 0.199554
Si Si2 0.858993 0.397727 0.002202
Si Si3 0.651856 0.685126 0.536880
Si Si4 0.366330 0.450294 0.003924
Si Si5 0.000000 0.875147 0.500000
Si Si6 0.205643 0.548333 0.350053
O O1 0.869475 0.523803 0.115551
O O2 0.797523 0.653327 0.374887
O O3 0.030038 0.487497 0.166385
O O4 0.818140 0.149026 0.345991
O O5 0.894003 0.176555 0.992644
O O6 0.769566 0.926828 0.192166
O O7 0.722152 0.415098 0.044333
O O8 0.555957 0.519791 0.559468
O O9 0.627341 0.893383 0.492376
O O10 0.505619 0.322485 0.111994
O O11 0.884422 0.727066 0.623039
#
# Coordination Sequence:
#
# PCOD9130202 Si02
#       6
#     4   4   4   4   2   4
#     4  11  27  50  81 121 168 216 281 345 418 497
#     4  11  25  48  79 118 163 216 272 345 415 502
#     4  12  28  54  81 122 167 221 285 345 417 513
#     4  12  27  52  82 123 166 218 278 349 420 503
#     4  12  28  54  80 118 168 226 274 344 416 508
#     4  12  28  51  84 120 167 221 276 349 422 499
#
# _framework density 27.770143000000001
#
# number of rings (size 3 to 8) (size 9 to 14) (size 15 to 20)
#    0.000    0.364    3.636    3.818    2.545   10.182 
#    0.000    0.000    0.000    0.000    0.000    0.000 
#    0.000    0.000    0.000    0.000    0.000    0.000 
#
# Total GULP energy -61665.354011 kJ/mol
# GULP energy per Si atom -5605.941274 kJ/mol
# Density = 2.770694 g / cm^3
# Si number density = 27.770143 Si / 1000 Ang^3
#
#
#
# Elastic Constant Matrix: (Units=GPa)
#
#
# Indices 1 2 3 4 5 6 
#
# 1 203.2969 61.5217 58.6544 0.0000 27.4870 0.0001
# 2 61.5217 215.0749 55.6002 -0.0001 7.4027 0.0006
# 3 58.6544 55.6002 124.0507 0.0000 -1.1363 0.0000
# 4 0.0000 -0.0001 0.0000 24.2382 0.0000 -4.7336
# 5 27.4870 7.4027 -1.1363 0.0000 34.1828 0.0000
# 6 0.0001 0.0006 0.0000 -4.7336 0.0000 79.4205
#
#
#
# Elastic Compliance Matrix: (Units=1/GPa)
#
#
# Indices 1 2 3 4 5 6 
#
# 1 0.006748 -0.001030 -0.002777 0.000000 -0.005295 0.000000
# 2 -0.001030 0.005467 -0.001967 0.000000 -0.000421 0.000000
# 3 -0.002777 -0.001967 0.010284 0.000000 0.003001 0.000000
# 4 0.000000 0.000000 0.000000 0.041743 0.000000 0.002488
# 5 -0.005295 -0.000421 0.003001 0.000000 0.033704 0.000000
# 6 0.000000 0.000000 0.000000 0.002488 0.000000 0.012739
#
#
# Mechanical properties :
#
#
# Convention : Reuss Voigt Hill
#
# Bulk Modulus (GPa) = 91.32903 99.33055 95.32979
# Shear Modulus (GPa) = 39.71904 52.01140 45.86522
#
# Velocity S-wave (km/s) = 3.78601 4.33243 4.06840
# Velocity P-wave (km/s) = 7.21600 7.80212 7.51478
#
# Compressibility (1/GPa) = 0.01094942
#
# Stress axis : x y z
#
# Youngs Moduli (GPa) = 148.19414 182.90781 97.24100
#
# Poissons Ratio (x) = 0.18838 0.27008
# Poissons Ratio (y) = 0.15263 0.19130
# Poissons Ratio (z) = 0.41160 0.35984
#
# Static dielectric constant tensor:
#      x y z
#    x 2.132960 0.000000 0.020340 
#    y 0.000000 2.247280 0.000000 
#    z 0.020340 0.000000 2.274950 
# 
# From -- ./inp_files/26269.got.cif
#   From: 2010.05.17/outbox.cif.g08.bks.cpg/sg5_14_cif.got.tgz:26269.got - 2010.06.03 18:56:24.
