data_PCOD9130878
_publ_section_title
;
Structure prediction by ZEFSAII (Michael W. Deem and Ramdas Pophale) SiO2 
 PCOD9130878
Probable space group: P M
;
_chemical_formula_sum "Si O2"
_cell_formula_units_Z 16
_cell_length_a 11.662328
_cell_length_b 7.583873
_cell_length_c 9.346009
_cell_angle_alpha 90.000000
_cell_angle_beta 113.580963
_cell_angle_gamma 90.000000
_cell_volume 757.587725
_symmetry_space_group_name_H-M "P M"
_symmetry_group_IT_number 6
_symmetry_cell_setting 'monoclinic'
loop_
_space_group_symop_operation_xyz
x,y,z
x,-y,z
loop_
_atom_site_type_symbol
_atom_site_label
_atom_site_fract_x
_atom_site_fract_y
_atom_site_fract_z
Si Si1 0.425770 0.715781 0.354130
Si Si2 0.182256 0.286360 0.060426
Si Si3 0.194346 0.283891 0.738060
Si Si4 0.950028 0.294708 0.451884
Si Si5 0.436681 0.286874 0.688968
Si Si6 0.701797 0.295987 0.468926
Si Si7 0.717997 0.206777 0.805807
Si Si8 0.936590 0.206068 0.118224
O O1 0.428061 0.500000 0.353520
O O2 0.310377 0.772768 0.199910
O O3 0.408627 0.767704 0.511254
O O4 0.563092 0.779611 0.374687
O O5 0.181590 0.500000 0.061923
O O6 0.062490 0.226566 0.089871
O O7 0.177226 0.229487 0.893357
O O8 0.197124 0.500000 0.736343
O O9 0.326243 0.225854 0.737144
O O10 0.077106 0.222207 0.584415
O O11 0.948596 0.500000 0.495950
O O12 0.821504 0.215469 0.449903
O O13 0.951792 0.287306 0.282079
O O14 0.438464 0.500000 0.691912
O O15 0.577190 0.227449 0.793556
O O16 0.693721 0.500000 0.418430
O O17 0.722629 0.291100 0.650558
O O18 0.743861 0.000000 0.796624
O O19 0.821325 0.278232 0.966670
O O20 0.911804 0.000000 0.130637
#
# Coordination Sequence:
#
# PCOD9130878 Si02
#       8
#     2   2   2   2   2   2   2   2
#     4   8  15  29  51  79 108 135 164 206 255 300
#     4  10  19  34  57  80 105 137 172 212 260 311
#     4   9  18  32  54  84 109 131 168 219 264 302
#     4  10  20  35  56  80 105 135 174 216 258 308
#     4   9  17  32  53  76 106 140 174 212 254 304
#     4   9  18  34  57  83 107 133 171 214 256 308
#     4  10  21  36  53  75 106 141 175 213 258 307
#     4  11  24  38  51  73 106 140 176 218 261 306
#
# _framework density 21.119667
#
# number of rings (size 3 to 8) (size 9 to 14) (size 15 to 20)
#    0.000    2.500    0.000    3.000    0.000    6.500 
#    0.000    9.375    0.000    0.000    0.000    0.000 
#    0.000    0.000    0.000    0.000    0.000    0.000 
#
# Total GULP energy -89340.301892 kJ/mol
# GULP energy per Si atom -5583.768868 kJ/mol
# Density = 2.107160 g / cm^3
# Si number density = 21.119667 Si / 1000 Ang^3
#
#
#
# Elastic Constant Matrix: (Units=GPa)
#
#
# Indices 1 2 3 4 5 6 
#
# 1 187.5542 -12.5114 92.1117 0.0000 4.3555 0.0000
# 2 -12.5114 44.2067 -13.3755 0.0000 2.1331 0.0000
# 3 92.1117 -13.3755 143.1811 0.0000 29.0937 0.0000
# 4 0.0000 0.0000 0.0000 -30.3473 0.0000 19.4919
# 5 4.3555 2.1331 29.0937 0.0000 32.9539 0.0000
# 6 0.0000 0.0000 0.0000 19.4919 0.0000 -57.3002
#
#
#
# Elastic Compliance Matrix: (Units=1/GPa)
#
#
# Indices 1 2 3 4 5 6 
#
# 1 0.008290 0.000262 -0.006194 0.000000 0.004356 0.000000
# 2 0.000262 0.023769 0.002890 0.000000 -0.004125 0.000000
# 3 -0.006194 0.002890 0.013539 0.000000 -0.011322 0.000000
# 4 0.000000 0.000000 0.000000 -0.042164 0.000000 -0.014343
# 5 0.004356 -0.004125 -0.011322 0.000000 0.040032 0.000000
# 6 0.000000 0.000000 0.000000 -0.014343 0.000000 -0.022331
#
#
# Mechanical properties :
#
#
# Convention : Reuss Voigt Hill
#
# Bulk Modulus (GPa) = 25.30734 56.37685 40.84209
# Shear Modulus (GPa) = 123.79509 9.64243 66.71876
#
# Velocity S-wave (km/s) = 7.66442 2.13905 5.62667
# Velocity P-wave (km/s) = 9.50438 5.73172 7.84812
#
# Compressibility (1/GPa) = 0.03951422
#
# Stress axis : x y z
#
# Youngs Moduli (GPa) = 120.62777 42.07240 73.85980
#
# Poissons Ratio (x) = -0.01103 0.45746
# Poissons Ratio (y) = -0.03161 -0.21345
# Poissons Ratio (z) = 0.74713 -0.12158
#
# Static dielectric constant tensor:
#      x y z
#    x 1.740870 0.000000 0.024050 
#    y 0.000000 1.800950 0.000000 
#    z 0.024050 0.000000 1.719150 
# 
# From -- ./inp_files/3766.got.cif
#   From: 2010.05.17/outbox.cif.g08.bks.cpg/sg6_2_cif.got.tgz:3766.got - 2010.06.03 19:42:10.
