data_PCOD9130412
_publ_section_title
;
Structure prediction by ZEFSAII (Michael W. Deem and Ramdas Pophale) SiO2 
 PCOD9130412
Probable space group: C 2
;
_chemical_formula_sum "Si O2"
_cell_formula_units_Z 30
_cell_length_a 13.706402
_cell_length_b 5.521616
_cell_length_c 17.417292
_cell_angle_alpha 90.000000
_cell_angle_beta 105.532649
_cell_angle_gamma 90.000000
_cell_volume 1270.024526
_symmetry_space_group_name_H-M "C 2"
_symmetry_group_IT_number 5
_symmetry_cell_setting 'monoclinic'
loop_
_space_group_symop_operation_xyz
x,y,z
-x,y,-z
1/2+x,1/2+y,z
1/2-x,1/2+y,-z
loop_
_atom_site_type_symbol
_atom_site_label
_atom_site_fract_x
_atom_site_fract_y
_atom_site_fract_z
Si Si1 0.592295 0.251130 0.819604
Si Si2 0.600067 0.448060 0.141243
Si Si3 0.154338 0.239147 0.305034
Si Si4 0.000000 0.656080 0.500000
Si Si5 0.044391 0.422384 0.672430
Si Si6 0.718795 0.215803 0.528529
Si Si7 0.240335 0.057929 0.044549
Si Si8 0.735589 0.623945 0.762861
O O1 0.513223 0.366074 0.863020
O O2 0.664141 0.056855 0.876583
O O3 0.668296 0.442860 0.798815
O O4 0.535383 0.133804 0.734809
O O5 0.636191 0.611230 0.220311
O O6 0.634310 0.567713 0.069115
O O7 0.676179 0.222498 0.164224
O O8 0.046618 0.244931 0.323989
O O9 0.235011 0.131932 0.380635
O O10 0.204482 0.494751 0.293251
O O11 0.026840 0.506284 0.582183
O O12 0.897531 0.800618 0.493937
O O13 0.153975 0.308213 0.710756
O O14 0.777519 0.462868 0.517939
O O15 0.254037 0.310083 0.002077
#
# Coordination Sequence:
#
# PCOD9130412 Si02
#       8
#     4   4   4   2   4   4   4   4
#     4  12  26  48  79 117 147 212 261 320 388 472
#     4  12  26  47  81 114 152 204 257 320 385 473
#     4  12  26  45  79 110 154 209 268 325 387 467
#     4  12  28  48  74 112 162 218 260 336 398 452
#     4  12  26  46  77 114 155 209 271 321 394 467
#     4  12  30  50  74 110 162 207 265 333 392 455
#     4  12  29  54  82 118 163 202 253 323 401 475
#     4  12  23  46  77 110 156 200 260 325 382 457
#
# _framework density 23.621592
#
# number of rings (size 3 to 8) (size 9 to 14) (size 15 to 20)
#    0.000    0.000    6.667    2.400    5.600    2.133 
#    0.000    4.000    0.000    0.000    0.000    0.000 
#    0.000    0.000    0.000    0.000    0.000    0.000 
#
# Total GULP energy -83904.766295 kJ/mol
# GULP energy per Si atom -5593.651086 kJ/mol
# Density = 2.356783 g / cm^3
# Si number density = 23.621592 Si / 1000 Ang^3
#
#
#
# Elastic Constant Matrix: (Units=GPa)
#
#
# Indices 1 2 3 4 5 6 
#
# 1 118.6659 13.6280 12.6720 0.0000 1.6809 0.0000
# 2 13.6280 59.7343 25.4727 0.0000 -7.9518 0.0000
# 3 12.6720 25.4727 100.8735 0.0000 -15.0361 0.0000
# 4 0.0000 0.0000 0.0000 29.5020 0.0000 5.2295
# 5 1.6809 -7.9518 -15.0361 0.0000 27.4479 0.0000
# 6 0.0000 0.0000 0.0000 5.2295 0.0000 30.5942
#
#
#
# Elastic Compliance Matrix: (Units=1/GPa)
#
#
# Indices 1 2 3 4 5 6 
#
# 1 0.008752 -0.001832 -0.000866 0.000000 -0.001541 0.000000
# 2 -0.001832 0.019389 -0.004151 0.000000 0.003455 0.000000
# 3 -0.000866 -0.004151 0.011868 0.000000 0.005352 0.000000
# 4 0.000000 0.000000 0.000000 0.034955 0.000000 -0.005975
# 5 -0.001541 0.003455 0.005352 0.000000 0.040460 0.000000
# 6 0.000000 0.000000 0.000000 -0.005975 0.000000 0.033707
#
#
# Mechanical properties :
#
#
# Convention : Reuss Voigt Hill
#
# Bulk Modulus (GPa) = 38.00916 42.53548 40.27232
# Shear Modulus (GPa) = 29.13743 32.67553 30.90648
#
# Velocity S-wave (km/s) = 3.51594 3.72330 3.62110
# Velocity P-wave (km/s) = 5.71037 6.04401 5.87955
#
# Compressibility (1/GPa) = 0.02630945
#
# Stress axis : x y z
#
# Youngs Moduli (GPa) = 114.26190 51.57592 84.25877
#
# Poissons Ratio (x) = 0.09451 0.07301
# Poissons Ratio (y) = 0.20937 0.34975
# Poissons Ratio (z) = 0.09901 0.21408
#
# Static dielectric constant tensor:
#      x y z
#    x 1.878680 0.000000 -0.042460 
#    y 0.000000 1.955720 0.000000 
#    z -0.042460 0.000000 1.958750 
# 
# From -- ./inp_files/61234.got.cif
#   From: 2010.05.17/outbox.cif.g08.bks.cpg/sg5_31_cif.got.tgz:61234.got - 2010.06.03 18:56:24.
