data_PCOD9130970
_publ_section_title
;
Structure prediction by ZEFSAII (Michael W. Deem and Ramdas Pophale) SiO2 
 PCOD9130970
Probable space group: P M
;
_chemical_formula_sum "Si O2"
_cell_formula_units_Z 16
_cell_length_a 8.599928
_cell_length_b 7.753271
_cell_length_c 13.348542
_cell_angle_alpha 90.000000
_cell_angle_beta 49.701109
_cell_angle_gamma 90.000000
_cell_volume 678.822850
_symmetry_space_group_name_H-M "P M"
_symmetry_group_IT_number 6
_symmetry_cell_setting 'monoclinic'
loop_
_space_group_symop_operation_xyz
x,y,z
x,-y,z
loop_
_atom_site_type_symbol
_atom_site_label
_atom_site_fract_x
_atom_site_fract_y
_atom_site_fract_z
Si Si1 0.714170 0.702100 0.024830
Si Si2 0.271128 0.801186 0.142367
Si Si3 0.839175 0.207109 0.389205
Si Si4 0.322197 0.698724 0.901118
Si Si5 0.608666 0.708282 0.281400
Si Si6 0.732445 0.202169 0.648737
Si Si7 0.130936 0.289702 0.772755
Si Si8 0.182782 0.290751 0.530652
O O1 0.760306 0.500000 0.014896
O O2 0.486610 0.717595 0.078602
O O3 0.715781 0.775958 0.136616
O O4 0.895303 0.768962 0.879736
O O5 0.070841 0.726034 0.279338
O O6 0.289119 0.000000 0.164211
O O7 0.246102 0.789629 0.032845
O O8 0.719549 0.245391 0.337695
O O9 0.730096 0.271473 0.535393
O O10 0.853063 0.000000 0.393998
O O11 0.257156 0.500000 0.937705
O O12 0.566667 0.708063 0.788018
O O13 0.238352 0.767720 0.830311
O O14 0.605957 0.500000 0.276843
O O15 0.373586 0.766619 0.384669
O O16 0.963933 0.225248 0.587587
O O17 0.680674 0.000000 0.671300
O O18 0.145343 0.500000 0.764898
O O19 0.220603 0.233053 0.629536
O O20 0.174922 0.500000 0.531439
#
# Coordination Sequence:
#
# PCOD9130970 Si02
#       8
#     2   2   2   2   2   2   2   2
#     4  10  20  36  57  83 112 146 188 236 286 339
#     4  11  23  39  58  85 118 154 195 237 282 344
#     4  10  23  40  58  82 118 158 195 236 286 342
#     4  11  22  39  62  86 114 151 190 239 296 344
#     4  10  21  36  58  86 114 146 193 242 284 336
#     4  11  23  39  58  85 118 154 195 237 282 344
#     4   9  19  35  56  80 108 141 182 229 282 338
#     4  10  20  36  57  83 112 146 188 236 286 339
#
# _framework density 23.570215000000001
#
# number of rings (size 3 to 8) (size 9 to 14) (size 15 to 20)
#    0.000    1.750    0.000    4.125    0.000    6.000 
#    0.000    2.500    0.000    0.000    0.000    0.000 
#    0.000    0.000    0.000    0.000    0.000    0.000 
#
# Total GULP energy -89490.313780 kJ/mol
# GULP energy per Si atom -5593.144611 kJ/mol
# Density = 2.351657 g / cm^3
# Si number density = 23.570215 Si / 1000 Ang^3
#
#
#
# Elastic Constant Matrix: (Units=GPa)
#
#
# Indices 1 2 3 4 5 6 
#
# 1 53.0295 -11.9250 -22.2972 0.0000 0.1617 0.0000
# 2 -11.9250 38.1751 6.5650 0.0000 -0.9740 0.0000
# 3 -22.2972 6.5650 77.0231 0.0000 -0.1481 0.0000
# 4 0.0000 0.0000 0.0000 16.0274 0.0000 -2.4686
# 5 0.1617 -0.9740 -0.1481 0.0000 43.5865 0.0000
# 6 0.0000 0.0000 0.0000 -2.4686 0.0000 40.7033
#
#
#
# Elastic Compliance Matrix: (Units=1/GPa)
#
#
# Indices 1 2 3 4 5 6 
#
# 1 0.022778 0.006072 0.006076 0.000000 0.000072 0.000000
# 2 0.006072 0.028218 -0.000646 0.000000 0.000606 0.000000
# 3 0.006076 -0.000646 0.014797 0.000000 0.000013 0.000000
# 4 0.000000 0.000000 0.000000 0.062982 0.000000 0.003820
# 5 0.000072 0.000606 0.000013 0.000000 0.022956 0.000000
# 6 0.000000 0.000000 0.000000 0.003820 0.000000 0.024800
#
#
# Mechanical properties :
#
#
# Convention : Reuss Voigt Hill
#
# Bulk Modulus (GPa) = 11.26152 12.54590 11.90371
# Shear Modulus (GPa) = 27.30365 33.12242 30.21303
#
# Velocity S-wave (km/s) = 3.40721 3.75275 3.58415
# Velocity P-wave (km/s) = 4.50189 4.91039 4.71057
#
# Compressibility (1/GPa) = 0.08879797
#
# Stress axis : x y z
#
# Youngs Moduli (GPa) = 43.90271 35.43779 67.58000
#
# Poissons Ratio (x) = -0.21518 -0.41065
# Poissons Ratio (y) = -0.26658 0.04367
# Poissons Ratio (z) = -0.26677 0.02290
#
# Static dielectric constant tensor:
#      x y z
#    x 1.889490 0.000000 0.000010 
#    y 0.000000 1.859680 0.000000 
#    z 0.000010 0.000000 1.889470 
# 
# From -- ./inp_files/2692.got.cif
#   From: 2010.05.17/outbox.cif.g08.bks.cpg/sg6_2_cif.got.tgz:2692.got - 2010.06.03 19:42:10.
