data_PCOD9130131
_publ_section_title
;
Structure prediction by ZEFSAII (Michael W. Deem and Ramdas Pophale) SiO2 
 PCOD9130131
Probable space group: C 2
;
_chemical_formula_sum "Si O2"
_cell_formula_units_Z 22
_cell_length_a 26.973989
_cell_length_b 7.311616
_cell_length_c 17.092616
_cell_angle_alpha 90.000000
_cell_angle_beta 17.763939
_cell_angle_gamma 90.000000
_cell_volume 1028.498320
_symmetry_space_group_name_H-M "C 2"
_symmetry_group_IT_number 5
_symmetry_cell_setting 'monoclinic'
loop_
_space_group_symop_operation_xyz
x,y,z
-x,y,-z
1/2+x,1/2+y,z
1/2-x,1/2+y,-z
loop_
_atom_site_type_symbol
_atom_site_label
_atom_site_fract_x
_atom_site_fract_y
_atom_site_fract_z
Si Si1 0.000000 0.198560 0.000000
Si Si2 0.605767 0.932524 0.415190
Si Si3 0.076269 0.360040 0.050769
Si Si4 0.054898 0.008040 0.503900
Si Si5 0.143181 0.629395 0.523483
Si Si6 0.052620 0.972420 0.171942
O O1 0.832018 0.087546 0.254228
O O2 0.014970 0.315019 0.056254
O O3 0.500000 0.000661 0.500000
O O4 0.551544 0.728094 0.517289
O O5 0.604255 0.065088 0.492678
O O6 0.788551 0.902380 0.110179
O O7 0.973491 0.516341 0.245677
O O8 0.045383 0.178459 0.150050
O O9 0.263754 0.424779 0.761529
O O10 0.000000 0.959198 0.500000
O O11 0.932073 0.952614 0.757382
O O12 0.103327 0.841010 0.604630
#
# Coordination Sequence:
#
# PCOD9130131 Si02
#       6
#     2   4   4   4   4   4
#     4  12  28  48  72 106 132 194 244 286 364 404
#     4  11  25  44  75 110 144 189 232 287 363 428
#     4  12  27  48  71 106 144 185 241 296 351 425
#     4  11  25  44  75 110 144 189 232 287 363 428
#     4  12  27  48  71 106 144 185 241 296 351 425
#     4  12  24  46  74 102 148 188 232 290 354 420
#
# _framework density 21.390408999999998
#
# number of rings (size 3 to 8) (size 9 to 14) (size 15 to 20)
#    0.000    0.364    7.273    0.000    5.091    2.909 
#    0.000    1.818    0.000    0.000    0.000    0.000 
#    0.000    0.000    0.000    0.000    0.000    0.000 
#
# Total GULP energy -61413.030453 kJ/mol
# GULP energy per Si atom -5583.002768 kJ/mol
# Density = 2.134172 g / cm^3
# Si number density = 21.390409 Si / 1000 Ang^3
#
#
#
# Elastic Constant Matrix: (Units=GPa)
#
#
# Indices 1 2 3 4 5 6 
#
# 1 145.1628 9.5824 29.8338 0.0000 13.2585 0.0000
# 2 9.5824 67.7295 2.5783 0.0000 0.3930 0.0000
# 3 29.8338 2.5783 82.6078 0.0000 19.1930 0.0000
# 4 0.0000 0.0000 0.0000 13.3831 0.0000 -21.8850
# 5 13.2585 0.3930 19.1930 0.0000 46.0502 0.0000
# 6 0.0000 0.0000 0.0000 -21.8850 0.0000 -14.7587
#
#
#
# Elastic Compliance Matrix: (Units=1/GPa)
#
#
# Indices 1 2 3 4 5 6 
#
# 1 0.007558 -0.000970 -0.002431 0.000000 -0.001155 0.000000
# 2 -0.000970 0.014907 -0.000166 0.000000 0.000221 0.000000
# 3 -0.002431 -0.000166 0.014201 0.000000 -0.005217 0.000000
# 4 0.000000 0.000000 0.000000 0.021817 0.000000 -0.032352
# 5 -0.001155 0.000221 -0.005217 0.000000 0.024220 0.000000
# 6 0.000000 0.000000 0.000000 -0.032352 0.000000 -0.019784
#
#
# Mechanical properties :
#
#
# Convention : Reuss Voigt Hill
#
# Bulk Modulus (GPa) = 33.86309 42.16546 38.01428
# Shear Modulus (GPa) = 62.57990 25.83530 44.20760
#
# Velocity S-wave (km/s) = 5.41475 3.47911 4.55103
# Velocity P-wave (km/s) = 7.41337 5.99116 6.73989
#
# Compressibility (1/GPa) = 0.02953068
#
# Stress axis : x y z
#
# Youngs Moduli (GPa) = 132.31144 67.08298 70.41888
#
# Poissons Ratio (x) = 0.06507 0.17119
# Poissons Ratio (y) = 0.12835 0.01172
# Poissons Ratio (z) = 0.32165 0.01116
#
# Static dielectric constant tensor:
#      x y z
#    x 1.792070 0.000000 0.006890 
#    y 0.000000 1.870210 0.000000 
#    z 0.006890 0.000000 1.764090 
# 
# From -- ./inp_files/57580.got.cif
#   From: 2010.05.17/outbox.cif.g08.bks.cpg/sg5_29_cif.got.tgz:57580.got - 2010.06.03 18:56:24.
