data_PCOD9130987
_publ_section_title
;
Structure prediction by ZEFSAII (Michael W. Deem and Ramdas Pophale) SiO2 
 PCOD9130987
Probable space group: P M
;
_chemical_formula_sum "Si O2"
_cell_formula_units_Z 14
_cell_length_a 15.566323
_cell_length_b 9.863883
_cell_length_c 7.612086
_cell_angle_alpha 90.000000
_cell_angle_beta 145.642854
_cell_angle_gamma 90.000000
_cell_volume 659.608040
_symmetry_space_group_name_H-M "P M"
_symmetry_group_IT_number 6
_symmetry_cell_setting 'monoclinic'
loop_
_space_group_symop_operation_xyz
x,y,z
x,-y,z
loop_
_atom_site_type_symbol
_atom_site_label
_atom_site_fract_x
_atom_site_fract_y
_atom_site_fract_z
Si Si1 0.345450 0.280548 0.298400
Si Si2 0.213889 0.345151 0.703804
Si Si3 0.646163 0.145267 0.717172
Si Si4 0.477867 0.344333 0.892498
Si Si5 0.901290 0.654096 0.059320
Si Si6 0.752099 0.845334 0.298414
Si Si7 0.022817 0.340733 0.867805
O O1 0.466203 0.170111 0.434849
O O2 0.436124 0.348729 0.614149
O O3 0.293820 0.346903 0.027539
O O4 0.180934 0.261184 0.109373
O O5 0.186582 0.500000 0.601621
O O6 0.333387 0.293731 0.761486
O O7 0.042922 0.285702 0.412652
O O8 0.674508 0.000000 0.679596
O O9 0.745885 0.261881 0.797437
O O10 0.708785 0.143147 0.021265
O O11 0.515726 0.500000 0.010159
O O12 0.612878 0.238223 0.149005
O O13 0.865709 0.500000 0.056582
O O14 0.970645 0.653787 0.981308
O O15 0.895231 0.746487 0.556573
O O16 0.774062 0.000000 0.401428
O O17 0.038583 0.500000 0.836547
#
# Coordination Sequence:
#
# PCOD9130987 Si02
#       7
#     2   2   2   2   2   2   2
#     4  11  22  38  64  93 127 163 204 257 319 371
#     4  10  20  36  61  93 125 159 202 257 314 373
#     4  10  24  44  62  89 128 167 213 259 307 376
#     4  10  20  38  61  91 126 160 205 260 311 370
#     4  10  22  40  63  94 129 162 208 263 314 371
#     4  10  23  41  61  86 124 169 211 254 312 376
#     4  11  22  39  64  96 127 162 209 262 315 373
#
# _framework density 21.224726
#
# number of rings (size 3 to 8) (size 9 to 14) (size 15 to 20)
#    0.000    1.714    1.429    2.571    2.000    6.286 
#    0.000    1.429    0.000    0.000    0.000    0.000 
#    0.000    0.000    0.000    0.000    0.000    0.000 
#
# Total GULP energy -78003.486068 kJ/mol
# GULP energy per Si atom -5571.677576 kJ/mol
# Density = 2.117642 g / cm^3
# Si number density = 21.224726 Si / 1000 Ang^3
#
#
#
# Elastic Constant Matrix: (Units=GPa)
#
#
# Indices 1 2 3 4 5 6 
#
# 1 90.2527 38.1066 25.0510 0.0000 15.8456 0.0000
# 2 38.1066 84.0501 51.0038 0.0000 21.4083 0.0000
# 3 25.0510 51.0038 97.4864 0.0000 21.4159 0.0000
# 4 0.0000 0.0000 0.0000 5.6065 0.0000 6.2729
# 5 15.8456 21.4083 21.4159 0.0000 41.6455 0.0000
# 6 0.0000 0.0000 0.0000 6.2729 0.0000 86.8368
#
#
#
# Elastic Compliance Matrix: (Units=1/GPa)
#
#
# Indices 1 2 3 4 5 6 
#
# 1 0.013902 -0.005644 -0.000107 0.000000 -0.002333 0.000000
# 2 -0.005644 0.020624 -0.008436 0.000000 -0.004117 0.000000
# 3 -0.000107 -0.008436 0.015487 0.000000 -0.003587 0.000000
# 4 0.000000 0.000000 0.000000 0.194049 0.000000 -0.014018
# 5 -0.002333 -0.004117 -0.003587 0.000000 0.028861 0.000000
# 6 0.000000 0.000000 0.000000 -0.014018 0.000000 0.012528
#
#
# Mechanical properties :
#
#
# Convention : Reuss Voigt Hill
#
# Bulk Modulus (GPa) = 46.21060 55.56801 50.88930
# Shear Modulus (GPa) = 15.57452 37.32627 26.45040
#
# Velocity S-wave (km/s) = 2.71180 4.19814 3.53400
# Velocity P-wave (km/s) = 5.62356 7.05243 6.37814
#
# Compressibility (1/GPa) = 0.02164006
#
# Stress axis : x y z
#
# Youngs Moduli (GPa) = 71.93064 48.48751 64.57133
#
# Poissons Ratio (x) = 0.27365 0.00692
# Poissons Ratio (y) = 0.40595 0.54470
# Poissons Ratio (z) = 0.00771 0.40902
#
# Static dielectric constant tensor:
#      x y z
#    x 1.793020 0.000000 -0.006070 
#    y 0.000000 1.744950 0.000000 
#    z -0.006070 0.000000 1.816250 
# 
# From -- ./inp_files/4209.got.cif
#   From: 2010.05.17/outbox.cif.g08.bks.cpg/sg6_3_cif.got.tgz:4209.got - 2010.06.03 19:42:10.
