data_PCOD9130051
_publ_section_title
;
Structure prediction by ZEFSAII (Michael W. Deem and Ramdas Pophale) SiO2 
 PCOD9130051
Probable space group: C 2
;
_chemical_formula_sum "Si O2"
_cell_formula_units_Z 16
_cell_length_a 8.011278
_cell_length_b 17.324327
_cell_length_c 7.963005
_cell_angle_alpha 90.000000
_cell_angle_beta 34.098272
_cell_angle_gamma 90.000000
_cell_volume 619.582465
_symmetry_space_group_name_H-M "C 2"
_symmetry_group_IT_number 5
_symmetry_cell_setting 'monoclinic'
loop_
_space_group_symop_operation_xyz
x,y,z
-x,y,-z
1/2+x,1/2+y,z
1/2-x,1/2+y,-z
loop_
_atom_site_type_symbol
_atom_site_label
_atom_site_fract_x
_atom_site_fract_y
_atom_site_fract_z
Si Si1 0.637933 0.949490 0.697251
Si Si2 0.118070 0.859817 0.083380
Si Si3 0.261418 0.601068 0.412060
Si Si4 0.155050 0.692920 0.054134
O O1 0.883885 0.890624 0.416248
O O2 0.757353 0.033717 0.555028
O O3 0.500000 0.940323 0.000000
O O4 0.337318 0.928976 0.851550
O O5 0.000000 0.837694 0.000000
O O6 0.272505 0.778535 0.999693
O O7 0.603190 0.626829 0.100241
O O8 0.000000 0.576033 0.500000
O O9 0.127238 0.680358 0.592931
O O10 0.000000 0.681026 0.000000
#
# Coordination Sequence:
#
# PCOD9130051 Si02
#       4
#     4   4   4   4
#     4  12  26  45  72 106 146 190 242 303 366 436
#     4  11  24  46  73 104 143 190 244 300 364 436
#     4  12  25  44  71 105 144 189 242 301 363 431
#     4  11  25  45  72 103 142 189 241 300 363 433
#
# _framework density 25.823843
#
# number of rings (size 3 to 8) (size 9 to 14) (size 15 to 20)
#    0.000    0.500    0.000    8.250    0.000   10.000 
#    0.000    0.000    0.000    0.000    0.000    0.000 
#    0.000    0.000    0.000    0.000    0.000    0.000 
#
# Total GULP energy -44550.716398 kJ/mol
# GULP energy per Si atom -5568.839550 kJ/mol
# Density = 2.576507 g / cm^3
# Si number density = 25.823843 Si / 1000 Ang^3
#
#
#
# Elastic Constant Matrix: (Units=GPa)
#
#
# Indices 1 2 3 4 5 6 
#
# 1 99.4268 13.6984 29.2560 0.0002 0.7880 0.0001
# 2 13.6984 143.6288 64.0466 -0.0001 5.4906 0.0000
# 3 29.2560 64.0466 174.5314 0.0017 -3.9821 0.0001
# 4 0.0002 -0.0001 0.0017 144.1347 -0.0003 -7.4511
# 5 0.7880 5.4906 -3.9821 -0.0003 31.7100 -0.0002
# 6 0.0001 0.0000 0.0001 -7.4511 -0.0002 -3.3835
#
#
#
# Elastic Compliance Matrix: (Units=1/GPa)
#
#
# Indices 1 2 3 4 5 6 
#
# 1 0.010594 -0.000236 -0.001699 0.000000 -0.000436 0.000000
# 2 -0.000236 0.008437 -0.003099 0.000000 -0.001844 0.000000
# 3 -0.001699 -0.003099 0.007185 0.000000 0.001481 0.000000
# 4 0.000000 0.000000 0.000000 0.006229 0.000000 -0.013717
# 5 -0.000436 -0.001844 0.001481 0.000000 0.032052 -0.000002
# 6 0.000000 0.000000 0.000000 -0.013717 -0.000002 -0.265348
#
#
# Mechanical properties :
#
#
# Convention : Reuss Voigt Hill
#
# Bulk Modulus (GPa) = 61.92519 70.17655 66.05087
# Shear Modulus (GPa) = -26.96865 55.19797 14.11466
#
# Velocity S-wave (km/s) = -3.23512 4.62831 2.34043
# Velocity P-wave (km/s) = 3.17447 7.46965 5.73903
#
# Compressibility (1/GPa) = 0.01614852
#
# Stress axis : x y z
#
# Youngs Moduli (GPa) = 94.39690 118.52371 139.17279
#
# Poissons Ratio (x) = 0.02798 0.23647
# Poissons Ratio (y) = 0.02228 0.43124
# Poissons Ratio (z) = 0.16039 0.36726
#
# Static dielectric constant tensor:
#      x y z
#    x 2.124810 0.000000 -0.089250 
#    y 0.000000 1.943110 0.000000 
#    z -0.089250 0.000000 2.018830 
# 
# From -- ./inp_files/2491.got.cif
#   From: 2010.05.17/outbox.cif.g08.bks.cpg/sg5_2_cif.got.tgz:2491.got - 2010.06.03 18:56:24.
