data_PCOD9130414
_publ_section_title
;
Structure prediction by ZEFSAII (Michael W. Deem and Ramdas Pophale) SiO2 
 PCOD9130414
Probable space group: C 2
;
_chemical_formula_sum "Si O2"
_cell_formula_units_Z 30
_cell_length_a 11.042514
_cell_length_b 14.801711
_cell_length_c 8.948945
_cell_angle_alpha 90.000000
_cell_angle_beta 74.665491
_cell_angle_gamma 90.000000
_cell_volume 1410.613904
_symmetry_space_group_name_H-M "C 2"
_symmetry_group_IT_number 5
_symmetry_cell_setting 'monoclinic'
loop_
_space_group_symop_operation_xyz
x,y,z
-x,y,-z
1/2+x,1/2+y,z
1/2-x,1/2+y,-z
loop_
_atom_site_type_symbol
_atom_site_label
_atom_site_fract_x
_atom_site_fract_y
_atom_site_fract_z
Si Si1 0.649150 0.370890 0.960760
Si Si2 0.843448 0.046822 0.857828
Si Si3 0.611230 0.616655 0.721294
Si Si4 0.194056 0.681825 0.092252
Si Si5 0.258467 0.494094 0.564617
Si Si6 0.941976 0.643988 0.353727
Si Si7 0.500000 0.742721 0.500000
Si Si8 0.239612 0.818914 0.613559
O O1 0.691670 0.367150 0.777097
O O2 0.500000 0.365401 0.000000
O O3 0.688261 0.462079 0.028951
O O4 0.695727 0.285132 0.039924
O O5 0.836121 0.017736 0.687610
O O6 0.986180 0.077621 0.837631
O O7 0.744026 0.123904 0.934771
O O8 0.707155 0.659854 0.807769
O O9 0.682708 0.542489 0.599220
O O10 0.558715 0.685957 0.615650
O O11 0.054660 0.657315 0.197854
O O12 0.127052 0.546819 0.634961
O O13 0.262339 0.387752 0.525983
O O14 0.840736 0.726392 0.377060
O O15 0.000000 0.650076 0.500000
O O16 0.384036 0.798286 0.598059
#
# Coordination Sequence:
#
# PCOD9130414 Si02
#       8
#     4   4   4   4   4   4   2   4
#     4  12  26  45  71 104 143 187 234 291 357 419
#     4  12  27  45  71 106 143 187 237 295 353 423
#     4  12  23  47  72 103 141 188 236 290 352 427
#     4  12  26  45  77 105 144 184 242 298 359 420
#     4  12  26  44  73 105 140 190 239 292 350 427
#     4  12  25  47  74 102 141 187 237 296 359 423
#     4  12  24  46  74 100 138 190 232 288 354 424
#     4  12  27  45  71 103 143 184 241 293 353 426
#
# _framework density 21.267337999999999
#
# number of rings (size 3 to 8) (size 9 to 14) (size 15 to 20)
#    0.000    0.000    5.333    4.400    4.667    0.000 
#    0.000    0.000    2.933    0.000    0.000    0.000 
#    0.000    0.000    0.000    0.000    0.000    0.000 
#
# Total GULP energy -83945.732939 kJ/mol
# GULP energy per Si atom -5596.382196 kJ/mol
# Density = 2.121893 g / cm^3
# Si number density = 21.267338 Si / 1000 Ang^3
#
#
#
# Elastic Constant Matrix: (Units=GPa)
#
#
# Indices 1 2 3 4 5 6 
#
# 1 97.9713 24.5048 15.8151 0.0000 -14.9273 0.0000
# 2 24.5048 74.0023 3.8925 0.0000 -14.7432 0.0000
# 3 15.8151 3.8925 68.8845 0.0000 -10.1480 0.0000
# 4 0.0000 0.0000 0.0000 47.6027 0.0000 -1.8926
# 5 -14.9273 -14.7432 -10.1480 0.0000 43.0842 0.0000
# 6 0.0000 0.0000 0.0000 -1.8926 0.0000 38.1033
#
#
#
# Elastic Compliance Matrix: (Units=1/GPa)
#
#
# Indices 1 2 3 4 5 6 
#
# 1 0.011749 -0.003292 -0.002152 0.000000 0.002437 0.000000
# 2 -0.003292 0.015425 0.000511 0.000000 0.004258 0.000000
# 3 -0.002152 0.000511 0.015434 0.000000 0.003065 0.000000
# 4 0.000000 0.000000 0.000000 0.021049 0.000000 0.001046
# 5 0.002437 0.004258 0.003065 0.000000 0.026234 0.000000
# 6 0.000000 0.000000 0.000000 0.001046 0.000000 0.026296
#
#
# Mechanical properties :
#
#
# Convention : Reuss Voigt Hill
#
# Bulk Modulus (GPa) = 30.54174 36.58699 33.56436
# Shear Modulus (GPa) = 36.50540 38.86775 37.68657
#
# Velocity S-wave (km/s) = 4.14756 4.27966 4.21413
# Velocity P-wave (km/s) = 6.10970 6.45456 6.28449
#
# Compressibility (1/GPa) = 0.03274208
#
# Stress axis : x y z
#
# Youngs Moduli (GPa) = 85.11190 64.83172 64.79289
#
# Poissons Ratio (x) = 0.21341 0.13946
# Poissons Ratio (y) = 0.28017 -0.03314
# Poissons Ratio (z) = 0.18320 -0.03316
#
# Static dielectric constant tensor:
#      x y z
#    x 1.749030 0.000000 0.017310 
#    y 0.000000 1.781300 0.000000 
#    z 0.017310 0.000000 1.688860 
# 
# From -- ./inp_files/20606.got.cif
#   From: 2010.05.17/outbox.cif.g08.bks.cpg/sg5_11_cif.got.tgz:20606.got - 2010.06.03 18:56:24.
