data_PCOD9130209
_publ_section_title
;
Structure prediction by ZEFSAII (Michael W. Deem and Ramdas Pophale) SiO2 
 PCOD9130209
Probable space group: C 2
;
_chemical_formula_sum "Si O2"
_cell_formula_units_Z 32
_cell_length_a 20.820079
_cell_length_b 11.251177
_cell_length_c 17.359044
_cell_angle_alpha 90.000000
_cell_angle_beta 20.230606
_cell_angle_gamma 90.000000
_cell_volume 1406.146133
_symmetry_space_group_name_H-M "C 2"
_symmetry_group_IT_number 5
_symmetry_cell_setting 'monoclinic'
loop_
_space_group_symop_operation_xyz
x,y,z
-x,y,-z
1/2+x,1/2+y,z
1/2-x,1/2+y,-z
loop_
_atom_site_type_symbol
_atom_site_label
_atom_site_fract_x
_atom_site_fract_y
_atom_site_fract_z
Si Si1 0.833466 0.363610 0.982917
Si Si2 0.442716 0.730848 0.387785
Si Si3 0.925533 0.952970 0.423270
Si Si4 0.982649 0.562330 0.316397
Si Si5 0.721747 0.541018 0.744467
Si Si6 0.082287 0.805745 0.703841
Si Si7 0.289171 0.807217 0.209296
Si Si8 0.692230 0.912021 0.199839
O O1 0.436125 0.593726 0.416923
O O2 0.462784 0.191004 0.300058
O O3 0.803921 0.341531 0.104765
O O4 0.924694 0.253279 0.835656
O O5 0.236503 0.768858 0.593183
O O6 0.538781 0.974025 0.184990
O O7 0.543202 0.812736 0.339020
O O8 0.130791 0.900127 0.182792
O O9 0.832068 0.903512 0.450824
O O10 0.829543 0.896217 0.605488
O O11 0.795591 0.530096 0.574183
O O12 0.136171 0.527460 0.210023
O O13 0.784160 0.673974 0.697378
O O14 0.801076 0.451810 0.719088
O O15 0.500000 0.533958 0.000000
O O16 0.895213 0.857991 0.952180
O O17 0.500000 0.807585 0.000000
#
# Coordination Sequence:
#
# PCOD9130209 Si02
#       8
#     4   4   4   4   4   4   4   4
#     4  11  26  45  78 108 152 200 259 316 391 466
#     4  11  28  47  78 117 159 208 261 324 400 473
#     4  12  25  48  78 112 160 201 262 325 395 469
#     4  11  25  49  75 116 153 199 262 325 391 470
#     4  11  27  47  79 115 158 201 266 332 395 467
#     4  12  26  46  80 117 154 207 263 322 397 473
#     4  11  26  47  72 118 148 202 263 322 390 472
#     4  11  27  47  79 116 157 203 265 324 400 469
#
# _framework density 22.757237
#
# number of rings (size 3 to 8) (size 9 to 14) (size 15 to 20)
#    0.000    0.750    3.750    2.250   14.000    1.000 
#    0.000    8.750    0.000    0.000    0.000    0.000 
#    0.000    0.000    0.000    0.000    0.000    0.000 
#
# Total GULP energy -89501.475729 kJ/mol
# GULP energy per Si atom -5593.842233 kJ/mol
# Density = 2.270544 g / cm^3
# Si number density = 22.757237 Si / 1000 Ang^3
#
#
#
# Elastic Constant Matrix: (Units=GPa)
#
#
# Indices 1 2 3 4 5 6 
#
# 1 95.5725 75.3105 52.0869 0.0005 3.5128 -0.0012
# 2 75.3105 157.1261 69.4604 0.0027 17.5012 -0.0074
# 3 52.0869 69.4604 157.7765 0.0003 5.3996 -0.0013
# 4 0.0005 0.0027 0.0003 37.5396 -0.0004 -0.5891
# 5 3.5128 17.5012 5.3996 -0.0004 52.3750 0.0020
# 6 -0.0012 -0.0074 -0.0013 -0.5891 0.0020 69.6668
#
#
#
# Elastic Compliance Matrix: (Units=1/GPa)
#
#
# Indices 1 2 3 4 5 6 
#
# 1 0.017765 -0.007544 -0.002598 0.000000 0.001597 -0.000001
# 2 -0.007544 0.011389 -0.002419 -0.000001 -0.003050 0.000001
# 3 -0.002598 -0.002419 0.008256 0.000000 0.000131 0.000000
# 4 0.000000 -0.000001 0.000000 0.026642 0.000000 0.000225
# 5 0.001597 -0.003050 0.000131 0.000000 0.019992 -0.000001
# 6 -0.000001 0.000001 0.000000 0.000225 -0.000001 0.014356
#
#
# Mechanical properties :
#
#
# Convention : Reuss Voigt Hill
#
# Bulk Modulus (GPa) = 81.38089 89.35452 85.36771
# Shear Modulus (GPa) = 39.17867 46.15742 42.66804
#
# Velocity S-wave (km/s) = 4.15371 4.50850 4.33473
# Velocity P-wave (km/s) = 7.67088 8.15178 7.91499
#
# Compressibility (1/GPa) = 0.01228790
#
# Stress axis : x y z
#
# Youngs Moduli (GPa) = 56.28905 87.80021 121.11848
#
# Poissons Ratio (x) = 0.66239 0.31470
# Poissons Ratio (y) = 0.42466 0.29301
# Poissons Ratio (z) = 0.14625 0.21240
#
# Static dielectric constant tensor:
#      x y z
#    x 1.518880 0.000000 -0.100080 
#    y 0.000000 1.852610 0.000000 
#    z -0.100080 0.000000 1.861430 
# 
# From -- ./inp_files/67434.got.cif
#   From: 2010.05.17/outbox.cif.g08.bks.cpg/sg5_34_cif.got.tgz:67434.got - 2010.06.03 18:56:24.
