data_PCOD9130167
_publ_section_title
;
Structure prediction by ZEFSAII (Michael W. Deem and Ramdas Pophale) SiO2 
 PCOD9130167
Probable space group: C 2
;
_chemical_formula_sum "Si O2"
_cell_formula_units_Z 24
_cell_length_a 9.810488
_cell_length_b 9.739488
_cell_length_c 12.419295
_cell_angle_alpha 90.000000
_cell_angle_beta 93.312572
_cell_angle_gamma 90.000000
_cell_volume 1184.670129
_symmetry_space_group_name_H-M "C 2"
_symmetry_group_IT_number 5
_symmetry_cell_setting 'monoclinic'
loop_
_space_group_symop_operation_xyz
x,y,z
-x,y,-z
1/2+x,1/2+y,z
1/2-x,1/2+y,-z
loop_
_atom_site_type_symbol
_atom_site_label
_atom_site_fract_x
_atom_site_fract_y
_atom_site_fract_z
Si Si1 0.156961 0.709820 0.042792
Si Si2 0.861306 0.025799 0.924337
Si Si3 0.635106 0.290420 0.447957
Si Si4 0.094683 0.339467 0.406113
Si Si5 0.024198 0.045614 0.308766
Si Si6 0.292474 0.066877 0.726813
O O1 0.174711 0.629530 0.155817
O O2 0.191563 0.870520 0.059318
O O3 0.253084 0.636422 0.960539
O O4 0.000000 0.703266 0.000000
O O5 0.898993 0.043402 0.801535
O O6 0.000000 0.041850 0.000000
O O7 0.500000 0.234320 0.500000
O O8 0.754864 0.318248 0.537791
O O9 0.589176 0.431273 0.388710
O O10 0.689186 0.185763 0.361087
O O11 0.038399 0.194284 0.363161
O O12 0.109216 0.445069 0.308543
O O13 0.000000 0.389645 0.500000
O O14 0.864339 0.017266 0.281496
#
# Coordination Sequence:
#
# PCOD9130167 Si02
#       6
#     4   4   4   4   4   4
#     4  11  27  45  71 106 135 173 236 284 344 411
#     4  11  25  46  73  99 137 181 225 286 349 408
#     4  12  24  45  71  98 141 184 226 285 337 401
#     4  12  26  43  70 105 139 181 235 278 337 404
#     4  12  25  45  71 102 139 182 231 280 345 408
#     4  12  25  46  70 103 139 181 230 283 344 408
#
# _framework density 20.258804999999999
#
# number of rings (size 3 to 8) (size 9 to 14) (size 15 to 20)
#    0.000    0.333    6.667    2.000    2.333    4.667 
#    0.000    0.000    0.000    0.000    0.000    0.000 
#    0.000    0.000    0.000    0.000    0.000    0.000 
#
# Total GULP energy -67181.758984 kJ/mol
# GULP energy per Si atom -5598.479915 kJ/mol
# Density = 2.021269 g / cm^3
# Si number density = 20.258805 Si / 1000 Ang^3
#
#
#
# Elastic Constant Matrix: (Units=GPa)
#
#
# Indices 1 2 3 4 5 6 
#
# 1 87.1487 13.5690 19.0709 0.0000 -24.9154 0.0000
# 2 13.5690 80.7896 8.0776 0.0000 -23.4330 0.0000
# 3 19.0709 8.0776 82.3333 0.0000 -26.6932 0.0000
# 4 0.0000 0.0000 0.0000 28.3936 0.0000 -9.7333
# 5 -24.9154 -23.4330 -26.6932 0.0000 46.0774 0.0000
# 6 0.0000 0.0000 0.0000 -9.7333 0.0000 -0.2276
#
#
#
# Elastic Compliance Matrix: (Units=1/GPa)
#
#
# Indices 1 2 3 4 5 6 
#
# 1 0.013637 -0.000255 -0.000967 0.000000 0.006684 0.000000
# 2 -0.000255 0.014620 0.001220 0.000000 0.008004 0.000000
# 3 -0.000967 0.001220 0.015122 0.000000 0.008858 0.000000
# 4 0.000000 0.000000 0.000000 0.002249 0.000000 -0.096178
# 5 0.006684 0.008004 0.008858 0.000000 0.034519 0.000000
# 6 0.000000 0.000000 0.000000 -0.096178 0.000000 -0.280565
#
#
# Mechanical properties :
#
#
# Convention : Reuss Voigt Hill
#
# Bulk Modulus (GPa) = 23.05479 36.85630 29.95554
# Shear Modulus (GPa) = -26.88818 28.81894 0.96538
#
# Velocity S-wave (km/s) = -3.64707 3.77575 0.69106
# Velocity P-wave (km/s) = 2.51596 6.10251 3.93132
#
# Compressibility (1/GPa) = 0.04337494
#
# Stress axis : x y z
#
# Youngs Moduli (GPa) = 73.33077 68.39830 66.12977
#
# Poissons Ratio (x) = 0.01744 0.06392
# Poissons Ratio (y) = 0.01870 -0.08065
# Poissons Ratio (z) = 0.07088 -0.08342
#
# Static dielectric constant tensor:
#      x y z
#    x 1.688520 0.000000 -0.010590 
#    y 0.000000 1.706890 0.000000 
#    z -0.010590 0.000000 1.686530 
# 
# From -- ./inp_files/38331.got.cif
#   From: 2010.05.17/outbox.cif.g08.bks.cpg/sg5_20_cif.got.tgz:38331.got - 2010.06.03 18:56:24.
