data_PCOD9130011
_publ_section_title
;
Structure prediction by ZEFSAII (Michael W. Deem and Ramdas Pophale) SiO2 
 PCOD9130011
Probable space group: C 2
;
_chemical_formula_sum "Si O2"
_cell_formula_units_Z 30
_cell_length_a 13.662949
_cell_length_b 17.694159
_cell_length_c 7.080188
_cell_angle_alpha 90.000000
_cell_angle_beta 117.268712
_cell_angle_gamma 90.000000
_cell_volume 1521.444864
_symmetry_space_group_name_H-M "C 2"
_symmetry_group_IT_number 5
_symmetry_cell_setting 'monoclinic'
loop_
_space_group_symop_operation_xyz
x,y,z
-x,y,-z
1/2+x,1/2+y,z
1/2-x,1/2+y,-z
loop_
_atom_site_type_symbol
_atom_site_label
_atom_site_fract_x
_atom_site_fract_y
_atom_site_fract_z
Si Si1 0.378867 0.087280 0.453330
Si Si2 0.190959 0.421593 0.729548
Si Si3 0.789876 0.154275 0.994221
Si Si4 0.292017 0.319945 0.492524
Si Si5 0.883841 0.313028 0.000267
Si Si6 0.876743 0.677276 0.810325
Si Si7 0.500000 0.403512 0.500000
Si Si8 0.907873 0.999518 0.079021
O O1 0.500000 0.115269 0.500000
O O2 0.372057 0.104103 0.669805
O O3 0.368679 0.999001 0.388337
O O4 0.283395 0.132955 0.256404
O O5 0.223640 0.370155 0.581176
O O6 0.132755 0.372144 0.842137
O O7 0.306408 0.450987 0.912791
O O8 0.702325 0.167051 0.082058
O O9 0.863586 0.081305 0.094460
O O10 0.868229 0.226984 0.055612
O O11 0.213432 0.316023 0.240915
O O12 0.330118 0.245032 0.638858
O O13 0.404706 0.355378 0.514324
O O14 0.000000 0.324977 0.000000
O O15 0.000000 0.690702 0.000000
O O16 0.452035 0.456333 0.297036
O O17 0.000000 0.005963 0.000000
#
# Coordination Sequence:
#
# PCOD9130011 Si02
#       8
#     4   4   4   4   4   4   2   4
#     4  11  25  45  70  99 141 185 234 296 349 415
#     4  11  26  46  68 102 142 183 238 286 353 425
#     4  11  25  47  68 101 140 185 239 288 353 429
#     4  12  27  44  74 106 141 181 242 295 354 423
#     4  12  27  49  72 101 144 191 236 293 355 425
#     4  12  26  43  76 105 141 186 238 296 359 420
#     4  12  26  42  74 106 138 178 232 302 362 412
#     4  11  24  45  70 101 137 182 228 294 357 418
#
# _framework density 19.718098999999999
#
# number of rings (size 3 to 8) (size 9 to 14) (size 15 to 20)
#    0.000    0.533    6.667    0.400    8.400    0.000 
#    2.400    0.000    0.000    0.000    0.000    0.000 
#    0.000    0.000    0.000    0.000    0.000    0.000 
#
# Total GULP energy -83819.947622 kJ/mol
# GULP energy per Si atom -5587.996508 kJ/mol
# Density = 1.967322 g / cm^3
# Si number density = 19.718099 Si / 1000 Ang^3
#
#
#
# Elastic Constant Matrix: (Units=GPa)
#
#
# Indices 1 2 3 4 5 6 
#
# 1 98.9366 14.1282 -5.1168 0.0000 -19.2645 0.0000
# 2 14.1282 78.7214 15.4072 0.0000 -10.4405 0.0000
# 3 -5.1168 15.4072 69.4509 0.0000 -8.3119 0.0000
# 4 0.0000 0.0000 0.0000 26.6207 0.0000 -11.4398
# 5 -19.2645 -10.4405 -8.3119 0.0000 35.9743 0.0000
# 6 0.0000 0.0000 0.0000 -11.4398 0.0000 27.9853
#
#
#
# Elastic Compliance Matrix: (Units=1/GPa)
#
#
# Indices 1 2 3 4 5 6 
#
# 1 0.011656 -0.001653 0.001969 0.000000 0.006217 0.000000
# 2 -0.001653 0.013897 -0.002908 0.000000 0.002476 0.000000
# 3 0.001969 -0.002908 0.015647 0.000000 0.003826 0.000000
# 4 0.000000 0.000000 0.000000 0.045570 0.000000 0.018628
# 5 0.006217 0.002476 0.003826 0.000000 0.032730 0.000000
# 6 0.000000 0.000000 0.000000 0.018628 0.000000 0.043348
#
#
# Mechanical properties :
#
#
# Convention : Reuss Voigt Hill
#
# Bulk Modulus (GPa) = 27.76496 32.88290 30.32393
# Shear Modulus (GPa) = 27.77217 32.96207 30.36712
#
# Velocity S-wave (km/s) = 3.75702 4.09304 3.92862
# Velocity P-wave (km/s) = 5.73862 6.24900 5.99924
#
# Compressibility (1/GPa) = 0.03601662
#
# Stress axis : x y z
#
# Youngs Moduli (GPa) = 85.79306 71.95638 63.91058
#
# Poissons Ratio (x) = 0.11893 -0.12587
# Poissons Ratio (y) = 0.14180 0.18588
# Poissons Ratio (z) = -0.16897 0.20928
#
# Static dielectric constant tensor:
#      x y z
#    x 1.667250 0.000000 -0.012760 
#    y 0.000000 1.696350 0.000000 
#    z -0.012760 0.000000 1.691890 
# 
# From -- ./inp_files/7371.got.cif
#   From: 2010.05.17/outbox.cif.g08.bks.cpg/sg5_4_cif.got.tgz:7371.got - 2010.06.03 18:56:24.
