data_PCOD9130429
_publ_section_title
;
Structure prediction by ZEFSAII (Michael W. Deem and Ramdas Pophale) SiO2 
 PCOD9130429
Probable space group: C 2
;
_chemical_formula_sum "Si O2"
_cell_formula_units_Z 16
_cell_length_a 17.157085
_cell_length_b 4.667932
_cell_length_c 10.743086
_cell_angle_alpha 90.000000
_cell_angle_beta 137.588995
_cell_angle_gamma 90.000000
_cell_volume 580.287357
_symmetry_space_group_name_H-M "C 2"
_symmetry_group_IT_number 5
_symmetry_cell_setting 'monoclinic'
loop_
_space_group_symop_operation_xyz
x,y,z
-x,y,-z
1/2+x,1/2+y,z
1/2-x,1/2+y,-z
loop_
_atom_site_type_symbol
_atom_site_label
_atom_site_fract_x
_atom_site_fract_y
_atom_site_fract_z
Si Si1 0.716234 0.250000 0.380624
Si Si2 0.616902 0.019910 0.605975
Si Si3 0.062878 0.815987 0.777530
Si Si4 0.510493 0.857154 0.879740
O O1 0.703380 0.551112 0.436645
O O2 0.782656 0.336093 0.333796
O O3 0.602474 0.062881 0.234118
O O4 0.643779 0.222151 0.755838
O O5 0.559649 0.212140 0.429294
O O6 0.458138 0.623798 0.188660
O O7 0.000000 0.337694 0.500000
O O8 0.095032 0.608971 0.930118
O O9 0.500000 0.698942 0.000000
#
# Coordination Sequence:
#
# PCOD9130429 Si02
#       4
#     4   4   4   4
#     4  12  24  41  71 116 147 185 248 313 358 434
#     4   8  21  43  76 105 139 182 254 309 354 409
#     4   9  22  43  69 103 142 193 245 295 368 425
#     4  12  24  42  70 113 151 192 236 303 374 445
#
# _framework density 27.572548000000001
#
# number of rings (size 3 to 8) (size 9 to 14) (size 15 to 20)
#    1.500    0.000    2.500    2.250    0.000    6.000 
#    0.000    0.000    0.000   12.000   13.000    0.000 
#    0.000    0.000    0.000    0.000    0.000    0.000 
#
# Total GULP energy -44557.704056 kJ/mol
# GULP energy per Si atom -5569.713007 kJ/mol
# Density = 2.750979 g / cm^3
# Si number density = 27.572548 Si / 1000 Ang^3
#
#
#
# Elastic Constant Matrix: (Units=GPa)
#
#
# Indices 1 2 3 4 5 6 
#
# 1 187.8695 85.3465 52.1129 0.0032 -47.8489 0.0013
# 2 85.3465 192.9367 43.0569 0.0109 -21.7692 0.0112
# 3 52.1129 43.0569 77.9443 0.0011 -37.5609 0.0028
# 4 0.0032 0.0109 0.0011 27.0117 0.0014 -20.7154
# 5 -47.8489 -21.7692 -37.5609 0.0014 52.8578 0.0015
# 6 0.0013 0.0112 0.0028 -20.7154 0.0015 66.1587
#
#
#
# Elastic Compliance Matrix: (Units=1/GPa)
#
#
# Indices 1 2 3 4 5 6 
#
# 1 0.008355 -0.002761 -0.001466 0.000000 0.005384 0.000000
# 2 -0.002761 0.006825 -0.002698 -0.000004 -0.001606 -0.000002
# 3 -0.001466 -0.002698 0.021481 -0.000001 0.012826 -0.000001
# 4 0.000000 -0.000004 -0.000001 0.048720 -0.000004 0.015255
# 5 0.005384 -0.001606 0.012826 -0.000004 0.032246 -0.000002
# 6 0.000000 -0.000002 -0.000001 0.015255 -0.000002 0.019892
#
#
# Mechanical properties :
#
#
# Convention : Reuss Voigt Hill
#
# Bulk Modulus (GPa) = 43.83885 91.08702 67.46294
# Shear Modulus (GPa) = 31.45153 47.75460 39.60307
#
# Velocity S-wave (km/s) = 3.38106 4.16620 3.79400
# Velocity P-wave (km/s) = 5.58356 7.50001 6.61159
#
# Compressibility (1/GPa) = 0.02281082
#
# Stress axis : x y z
#
# Youngs Moduli (GPa) = 119.68372 146.51052 46.55219
#
# Poissons Ratio (x) = 0.40456 0.06826
# Poissons Ratio (y) = 0.33048 0.12560
# Poissons Ratio (z) = 0.17548 0.39530
#
# Static dielectric constant tensor:
#      x y z
#    x 2.252720 0.000000 0.011620 
#    y 0.000000 2.105690 0.000000 
#    z 0.011620 0.000000 2.512880 
# 
# From -- ./inp_files/26042.got.cif
#   From: 2010.05.17/outbox.cif.g08.bks.cpg/sg5_14_cif.got.tgz:26042.got - 2010.06.03 18:56:24.
