data_PCOD9130921
_publ_section_title
;
Structure prediction by ZEFSAII (Michael W. Deem and Ramdas Pophale) SiO2 
 PCOD9130921
Probable space group: P M
;
_chemical_formula_sum "Si O2"
_cell_formula_units_Z 16
_cell_length_a 19.908816
_cell_length_b 8.666271
_cell_length_c 9.931132
_cell_angle_alpha 90.000000
_cell_angle_beta 150.933981
_cell_angle_gamma 90.000000
_cell_volume 832.432888
_symmetry_space_group_name_H-M "P M"
_symmetry_group_IT_number 6
_symmetry_cell_setting 'monoclinic'
loop_
_space_group_symop_operation_xyz
x,y,z
x,-y,z
loop_
_atom_site_type_symbol
_atom_site_label
_atom_site_fract_x
_atom_site_fract_y
_atom_site_fract_z
Si Si1 0.169500 0.180236 0.783030
Si Si2 0.677612 0.686868 0.494780
Si Si3 0.656314 0.312553 0.766531
Si Si4 0.209267 0.317443 0.348945
Si Si5 0.348955 0.682427 0.317750
Si Si6 0.921657 0.816539 0.735954
Si Si7 0.891627 0.684082 0.381939
Si Si8 0.360959 0.313238 0.886444
O O1 0.279003 0.243786 0.868147
O O2 0.026563 0.272044 0.532368
O O3 0.144686 0.000000 0.720441
O O4 0.236989 0.215601 0.045521
O O5 0.687129 0.500000 0.507236
O O6 0.690810 0.736688 0.674629
O O7 0.796662 0.754734 0.609558
O O8 0.522749 0.729805 0.174584
O O9 0.661851 0.500000 0.775095
O O10 0.500450 0.271720 0.534036
O O11 0.761308 0.259959 0.065999
O O12 0.178531 0.500000 0.308503
O O13 0.322209 0.301469 0.428676
O O14 0.279190 0.263698 0.609447
O O15 0.067424 0.238245 0.054823
O O16 0.327517 0.500000 0.245890
O O17 0.904268 0.754304 0.553059
O O18 0.918915 0.000000 0.727459
O O19 0.883363 0.500000 0.382869
O O20 0.356458 0.500000 0.886948
#
# Coordination Sequence:
#
# PCOD9130921 Si02
#       8
#     2   2   2   2   2   2   2   2
#     4  12  24  39  61  91 126 163 201 250 310 368
#     4  10  21  41  66  92 121 159 204 253 302 363
#     4   9  20  38  66  96 118 150 206 259 304 352
#     4  10  22  39  66  95 119 158 209 255 302 360
#     4  10  19  39  67  92 118 154 203 261 307 356
#     4  12  26  42  59  88 129 168 201 248 309 370
#     4  11  23  41  66  92 119 160 209 259 301 357
#     4  10  22  41  67  94 120 158 209 257 301 358
#
# _framework density 19.220768
#
# number of rings (size 3 to 8) (size 9 to 14) (size 15 to 20)
#    0.000    1.500    2.500    2.625    3.500    1.000 
#    0.000    1.875    0.000    0.000    0.000    0.000 
#    0.000    0.000    0.000    0.000    0.000    0.000 
#
# Total GULP energy -89380.237245 kJ/mol
# GULP energy per Si atom -5586.264828 kJ/mol
# Density = 1.917702 g / cm^3
# Si number density = 19.220768 Si / 1000 Ang^3
#
#
#
# Elastic Constant Matrix: (Units=GPa)
#
#
# Indices 1 2 3 4 5 6 
#
# 1 104.3868 32.7707 47.1555 0.0000 7.8078 0.0000
# 2 32.7707 41.0173 29.6583 0.0000 -2.4106 0.0000
# 3 47.1555 29.6583 116.5190 0.0000 -8.0642 0.0000
# 4 0.0000 0.0000 0.0000 -43.9341 0.0000 17.5198
# 5 7.8078 -2.4106 -8.0642 0.0000 33.5742 0.0000
# 6 0.0000 0.0000 0.0000 17.5198 0.0000 -7.3556
#
#
#
# Elastic Compliance Matrix: (Units=1/GPa)
#
#
# Indices 1 2 3 4 5 6 
#
# 1 0.014587 -0.009105 -0.003931 0.000000 -0.004990 0.000000
# 2 -0.009105 0.035566 -0.005130 0.000000 0.003439 0.000000
# 3 -0.003931 -0.005130 0.011712 0.000000 0.003359 0.000000
# 4 0.000000 0.000000 0.000000 -0.453559 0.000000 -1.080305
# 5 -0.004990 0.003439 0.003359 0.000000 0.031999 0.000000
# 6 0.000000 0.000000 0.000000 -1.080305 0.000000 -2.709064
#
#
# Mechanical properties :
#
#
# Convention : Reuss Voigt Hill
#
# Bulk Modulus (GPa) = 39.16666 53.45467 46.31066
# Shear Modulus (GPa) = -1.65349 6.61283 2.47967
#
# Velocity S-wave (km/s) = -0.92851 1.85686 1.13706
# Velocity P-wave (km/s) = 4.38999 5.69811 5.08628
#
# Compressibility (1/GPa) = 0.02553192
#
# Stress axis : x y z
#
# Youngs Moduli (GPa) = 68.55226 28.11679 85.38601
#
# Poissons Ratio (x) = 0.25601 0.33568
# Poissons Ratio (y) = 0.62419 0.43802
# Poissons Ratio (z) = 0.26950 0.14424
#
# Static dielectric constant tensor:
#      x y z
#    x 1.641460 0.000000 -0.009750 
#    y 0.000000 1.663590 0.000000 
#    z -0.009750 0.000000 1.667010 
# 
# From -- ./inp_files/3776.got.cif
#   From: 2010.05.17/outbox.cif.g08.bks.cpg/sg6_2_cif.got.tgz:3776.got - 2010.06.03 19:42:10.
