data_PCOD9130339
_publ_section_title
;
Structure prediction by ZEFSAII (Michael W. Deem and Ramdas Pophale) SiO2 
 PCOD9130339
Probable space group: C 2
;
_chemical_formula_sum "Si O2"
_cell_formula_units_Z 24
_cell_length_a 14.699888
_cell_length_b 5.661810
_cell_length_c 13.107036
_cell_angle_alpha 90.000000
_cell_angle_beta 116.467703
_cell_angle_gamma 90.000000
_cell_volume 976.533087
_symmetry_space_group_name_H-M "C 2"
_symmetry_group_IT_number 5
_symmetry_cell_setting 'monoclinic'
loop_
_space_group_symop_operation_xyz
x,y,z
-x,y,-z
1/2+x,1/2+y,z
1/2-x,1/2+y,-z
loop_
_atom_site_type_symbol
_atom_site_label
_atom_site_fract_x
_atom_site_fract_y
_atom_site_fract_z
Si Si1 0.500000 0.360940 0.500000
Si Si2 0.500000 0.723117 0.000000
Si Si3 0.494431 0.031039 0.296938
Si Si4 0.697711 0.040504 0.124335
Si Si5 0.154404 0.237840 0.654182
Si Si6 0.303827 0.968511 0.518346
Si Si7 0.390558 0.367214 0.089275
O O1 0.502154 0.214194 0.396288
O O2 0.594934 0.537626 0.562371
O O3 0.600214 0.871664 0.080637
O O4 0.461643 0.571075 0.078291
O O5 0.458914 0.173299 0.181032
O O6 0.413329 0.830320 0.285683
O O7 0.605445 0.920041 0.357166
O O8 0.797130 0.928673 0.118358
O O9 0.740574 0.140092 0.251236
O O10 0.662213 0.255108 0.035893
O O11 0.161604 0.458203 0.582428
O O12 0.236724 0.731298 0.486268
#
# Coordination Sequence:
#
# PCOD9130339 Si02
#       7
#     2   2   4   4   4   4   4
#     4  12  20  48  80 112 156 214 274 332 414 518
#     4  12  30  56  80 120 168 212 294 352 436 506
#     4  12  26  49  82 111 159 217 277 336 423 512
#     4  12  27  53  84 117 159 218 281 355 431 506
#     4  12  26  49  82 111 159 217 277 336 423 512
#     4  12  28  50  77 125 176 214 276 348 422 506
#     4  12  27  53  84 117 159 218 281 355 431 506
#
# _framework density 24.576741999999999
#
# number of rings (size 3 to 8) (size 9 to 14) (size 15 to 20)
#    0.000    0.000    6.667    2.500    0.000    2.667 
#   12.000    0.000    0.000    0.000    0.000    0.000 
#    0.000    0.000    0.000    0.000    0.000    0.000 
#
# Total GULP energy -67213.617355 kJ/mol
# GULP energy per Si atom -5601.134780 kJ/mol
# Density = 2.452080 g / cm^3
# Si number density = 24.576742 Si / 1000 Ang^3
#
#
#
# Elastic Constant Matrix: (Units=GPa)
#
#
# Indices 1 2 3 4 5 6 
#
# 1 119.5813 41.2549 40.5857 0.0000 17.9610 0.0000
# 2 41.2549 83.3875 30.7735 0.0000 14.3855 0.0000
# 3 40.5857 30.7735 142.1033 0.0000 27.9167 0.0000
# 4 0.0000 0.0000 0.0000 49.0073 0.0000 -9.4353
# 5 17.9610 14.3855 27.9167 0.0000 37.2397 0.0000
# 6 0.0000 0.0000 0.0000 -9.4353 0.0000 53.4097
#
#
#
# Elastic Compliance Matrix: (Units=1/GPa)
#
#
# Indices 1 2 3 4 5 6 
#
# 1 0.010764 -0.004310 -0.001698 0.000000 -0.002254 0.000000
# 2 -0.004310 0.015143 -0.001533 0.000000 -0.002621 0.000000
# 3 -0.001698 -0.001533 0.008886 0.000000 -0.005250 0.000000
# 4 0.000000 0.000000 0.000000 0.021124 0.000000 0.003732
# 5 -0.002254 -0.002621 -0.005250 0.000000 0.032888 0.000000
# 6 0.000000 0.000000 0.000000 0.003732 0.000000 0.019382
#
#
# Mechanical properties :
#
#
# Convention : Reuss Voigt Hill
#
# Bulk Modulus (GPa) = 50.73743 63.36672 57.05207
# Shear Modulus (GPa) = 38.50914 43.42855 40.96884
#
# Velocity S-wave (km/s) = 3.96269 4.20820 4.08729
# Velocity P-wave (km/s) = 6.45187 7.03215 6.74825
#
# Compressibility (1/GPa) = 0.01970932
#
# Stress axis : x y z
#
# Youngs Moduli (GPa) = 92.89947 66.03890 112.54255
#
# Poissons Ratio (x) = 0.28463 0.19113
# Poissons Ratio (y) = 0.40040 0.17256
# Poissons Ratio (z) = 0.15777 0.10126
#
# Static dielectric constant tensor:
#      x y z
#    x 2.161840 0.000000 -0.017940 
#    y 0.000000 1.934350 0.000000 
#    z -0.017940 0.000000 1.855380 
# 
# From -- ./inp_files/53920.got.cif
#   From: 2010.05.17/outbox.cif.g08.bks.cpg/sg5_27_cif.got.tgz:53920.got - 2010.06.03 18:56:24.
