data_PCOD9130109
_publ_section_title
;
Structure prediction by ZEFSAII (Michael W. Deem and Ramdas Pophale) SiO2 
 PCOD9130109
Probable space group: C 2
;
_chemical_formula_sum "Si O2"
_cell_formula_units_Z 18
_cell_length_a 12.434232
_cell_length_b 5.697432
_cell_length_c 14.166167
_cell_angle_alpha 90.000000
_cell_angle_beta 48.134474
_cell_angle_gamma 90.000000
_cell_volume 747.376687
_symmetry_space_group_name_H-M "C 2"
_symmetry_group_IT_number 5
_symmetry_cell_setting 'monoclinic'
loop_
_space_group_symop_operation_xyz
x,y,z
-x,y,-z
1/2+x,1/2+y,z
1/2-x,1/2+y,-z
loop_
_atom_site_type_symbol
_atom_site_label
_atom_site_fract_x
_atom_site_fract_y
_atom_site_fract_z
Si Si1 0.739217 0.842500 0.887768
Si Si2 0.023333 0.571888 0.143590
Si Si3 0.493726 0.668845 0.302662
Si Si4 0.500000 0.772184 0.500000
Si Si5 0.299172 0.457655 0.253710
O O1 0.841500 0.732149 0.908456
O O2 0.708107 0.654191 0.823371
O O3 0.845186 0.057419 0.795279
O O4 0.591831 0.900566 0.027095
O O5 0.990116 0.430221 0.259738
O O6 0.891410 0.721002 0.178634
O O7 0.444760 0.639567 0.439330
O O8 0.386342 0.540020 0.294803
O O9 0.635080 0.912366 0.379725
#
# Coordination Sequence:
#
# PCOD9130109 Si02
#       5
#     4   4   4   2   4
#     4  11  24  52  79 112 161 200 257 333 397 467
#     4  11  24  52  76 118 155 198 267 321 402 465
#     4  11  27  48  76 112 151 210 257 323 394 464
#     4  12  28  52  74 106 162 204 264 316 380 474
#     4  11  29  48  78 118 151 213 257 325 394 465
#
# _framework density 24.084240999999999
#
# number of rings (size 3 to 8) (size 9 to 14) (size 15 to 20)
#    0.000    0.889    4.444    0.000    6.222    1.778 
#    8.000    0.000    0.000    0.000    0.000    0.000 
#    0.000    0.000    0.000    0.000    0.000    0.000 
#
# Total GULP energy -50324.890262 kJ/mol
# GULP energy per Si atom -5591.654474 kJ/mol
# Density = 2.402942 g / cm^3
# Si number density = 24.084241 Si / 1000 Ang^3
#
#
#
# Elastic Constant Matrix: (Units=GPa)
#
#
# Indices 1 2 3 4 5 6 
#
# 1 191.8470 37.7626 45.6341 -0.0001 -3.5970 0.0001
# 2 37.7626 67.0392 30.4633 -0.0002 -13.3365 0.0002
# 3 45.6341 30.4633 119.6639 -0.0001 5.7249 0.0001
# 4 -0.0001 -0.0002 -0.0001 28.9416 0.0001 5.2005
# 5 -3.5970 -13.3365 5.7249 0.0001 45.6705 0.0000
# 6 0.0001 0.0002 0.0001 5.2005 0.0000 52.4902
#
#
#
# Elastic Compliance Matrix: (Units=1/GPa)
#
#
# Indices 1 2 3 4 5 6 
#
# 1 0.006139 -0.002735 -0.001640 0.000000 -0.000110 0.000000
# 2 -0.002735 0.019579 -0.004230 0.000000 0.006032 0.000000
# 3 -0.001640 -0.004230 0.010185 0.000000 -0.002641 0.000000
# 4 0.000000 0.000000 0.000000 0.035179 0.000000 -0.003485
# 5 -0.000110 0.006032 -0.002641 0.000000 0.023980 0.000000
# 6 0.000000 0.000000 0.000000 -0.003485 0.000000 0.019396
#
#
# Mechanical properties :
#
#
# Convention : Reuss Voigt Hill
#
# Bulk Modulus (GPa) = 53.49152 67.36333 60.42742
# Shear Modulus (GPa) = 36.25854 43.06647 39.66251
#
# Velocity S-wave (km/s) = 3.88427 4.23325 4.06251
# Velocity P-wave (km/s) = 6.50962 7.20586 6.86657
#
# Compressibility (1/GPa) = 0.01869455
#
# Stress axis : x y z
#
# Youngs Moduli (GPa) = 162.90045 51.07435 98.18127
#
# Poissons Ratio (x) = 0.13967 0.16098
# Poissons Ratio (y) = 0.44547 0.41532
# Poissons Ratio (z) = 0.26709 0.21605
#
# Static dielectric constant tensor:
#      x y z
#    x 1.963370 0.000000 0.047710 
#    y 0.000000 2.091950 0.000000 
#    z 0.047710 0.000000 1.885810 
# 
# From -- ./inp_files/53731.got.cif
#   From: 2010.05.17/outbox.cif.g08.bks.cpg/sg5_27_cif.got.tgz:53731.got - 2010.06.03 18:56:24.
