data_PCOD9130562
_publ_section_title
;
Structure prediction by ZEFSAII (Michael W. Deem and Ramdas Pophale) SiO2 
 PCOD9130562
Probable space group: C 2
;
_chemical_formula_sum "Si O2"
_cell_formula_units_Z 20
_cell_length_a 19.189024
_cell_length_b 5.559998
_cell_length_c 7.848614
_cell_angle_alpha 90.000000
_cell_angle_beta 104.646274
_cell_angle_gamma 90.000000
_cell_volume 810.165665
_symmetry_space_group_name_H-M "C 2"
_symmetry_group_IT_number 5
_symmetry_cell_setting 'monoclinic'
loop_
_space_group_symop_operation_xyz
x,y,z
-x,y,-z
1/2+x,1/2+y,z
1/2-x,1/2+y,-z
loop_
_atom_site_type_symbol
_atom_site_label
_atom_site_fract_x
_atom_site_fract_y
_atom_site_fract_z
Si Si1 0.694347 0.817810 0.065148
Si Si2 0.211381 0.143877 0.425770
Si Si3 0.924466 0.940894 0.529635
Si Si4 0.639479 0.438838 0.853841
Si Si5 0.573384 0.171019 0.110086
O O1 0.701449 0.620611 0.218324
O O2 0.776722 0.869601 0.072805
O O3 0.645804 0.017712 0.126895
O O4 0.649313 0.726802 0.875106
O O5 0.252127 0.394505 0.488727
O O6 0.131361 0.148306 0.453559
O O7 0.931611 0.774103 0.701469
O O8 0.000000 0.026124 0.500000
O O9 0.887159 0.828075 0.338837
O O10 0.585238 0.372445 0.971230
O O11 0.500000 0.043089 0.000000
#
# Coordination Sequence:
#
# PCOD9130562 Si02
#       5
#     4   4   4   4   4
#     4  12  27  46  82 115 157 214 278 345 413 495
#     4  12  27  49  81 120 164 213 277 341 408 494
#     4  12  27  48  79 119 163 212 271 343 414 493
#     4  12  26  47  78 114 154 208 276 333 416 487
#     4  12  27  52  79 115 162 214 273 348 411 496
#
# _framework density 24.686305000000001
#
# number of rings (size 3 to 8) (size 9 to 14) (size 15 to 20)
#    0.000    0.000    8.000    1.200    2.800    2.400 
#    0.000    4.000    0.000    0.000    0.000    0.000 
#    0.000    0.000    0.000    0.000    0.000    0.000 
#
# Total GULP energy -55805.658857 kJ/mol
# GULP energy per Si atom -5580.565886 kJ/mol
# Density = 2.463012 g / cm^3
# Si number density = 24.686305 Si / 1000 Ang^3
#
#
#
# Elastic Constant Matrix: (Units=GPa)
#
#
# Indices 1 2 3 4 5 6 
#
# 1 186.3499 35.8517 46.6794 0.0000 -16.2566 0.0000
# 2 35.8517 51.6049 36.8262 0.0000 3.3240 0.0000
# 3 46.6794 36.8262 178.5012 0.0000 -13.0874 0.0000
# 4 0.0000 0.0000 0.0000 29.1648 0.0000 -7.5343
# 5 -16.2566 3.3240 -13.0874 0.0000 46.6949 0.0000
# 6 0.0000 0.0000 0.0000 -7.5343 0.0000 16.9482
#
#
#
# Elastic Compliance Matrix: (Units=1/GPa)
#
#
# Indices 1 2 3 4 5 6 
#
# 1 0.006557 -0.004235 -0.000665 0.000000 0.002398 0.000000
# 2 -0.004235 0.025876 -0.004568 0.000000 -0.004597 0.000000
# 3 -0.000665 -0.004568 0.006867 0.000000 0.002018 0.000000
# 4 0.000000 0.000000 0.000000 0.038737 0.000000 0.017220
# 5 0.002398 -0.004597 0.002018 0.000000 0.023143 0.000000
# 6 0.000000 0.000000 0.000000 0.017220 0.000000 0.066659
#
#
# Mechanical properties :
#
#
# Convention : Reuss Voigt Hill
#
# Bulk Modulus (GPa) = 49.10834 72.79673 60.95254
# Shear Modulus (GPa) = 25.83152 38.36816 32.09984
#
# Velocity S-wave (km/s) = 3.23831 3.94665 3.60989
# Velocity P-wave (km/s) = 5.82394 7.09371 6.48996
#
# Compressibility (1/GPa) = 0.02036314
#
# Stress axis : x y z
#
# Youngs Moduli (GPa) = 152.51317 38.64569 145.63427
#
# Poissons Ratio (x) = 0.16367 0.09687
# Poissons Ratio (y) = 0.64590 0.66525
# Poissons Ratio (z) = 0.10144 0.17653
#
# Static dielectric constant tensor:
#      x y z
#    x 1.994660 0.000000 0.025200 
#    y 0.000000 2.092480 0.000000 
#    z 0.025200 0.000000 2.109430 
# 
# From -- ./inp_files/26016.got.cif
#   From: 2010.05.17/outbox.cif.g08.bks.cpg/sg5_14_cif.got.tgz:26016.got - 2010.06.03 18:56:24.
