data_PCOD9130063
_publ_section_title
;
Structure prediction by ZEFSAII (Michael W. Deem and Ramdas Pophale) SiO2 
 PCOD9130063
Probable space group: C 2
;
_chemical_formula_sum "Si O2"
_cell_formula_units_Z 20
_cell_length_a 13.822738
_cell_length_b 10.685979
_cell_length_c 5.183636
_cell_angle_alpha 90.000000
_cell_angle_beta 99.451430
_cell_angle_gamma 90.000000
_cell_volume 755.278341
_symmetry_space_group_name_H-M "C 2"
_symmetry_group_IT_number 5
_symmetry_cell_setting 'monoclinic'
loop_
_space_group_symop_operation_xyz
x,y,z
-x,y,-z
1/2+x,1/2+y,z
1/2-x,1/2+y,-z
loop_
_atom_site_type_symbol
_atom_site_label
_atom_site_fract_x
_atom_site_fract_y
_atom_site_fract_z
Si Si1 0.000000 0.466570 0.000000
Si Si2 0.096608 0.268433 0.372897
Si Si3 0.000000 0.066530 0.000000
Si Si4 0.386188 0.299487 0.546976
Si Si5 0.152737 0.644742 0.946454
Si Si6 0.833229 0.045967 0.297820
O O1 0.915142 0.389142 0.813640
O O2 0.939188 0.556151 0.160759
O O3 0.163029 0.191164 0.603082
O O4 0.000000 0.287421 0.500000
O O5 0.076739 0.157230 0.166940
O O6 0.067397 0.006325 0.813191
O O7 0.500000 0.297033 0.500000
O O8 0.376446 0.233178 0.821514
O O9 0.336285 0.438194 0.517877
O O10 0.326574 0.226196 0.296640
O O11 0.241026 0.554567 0.070762
#
# Coordination Sequence:
#
# PCOD9130063 Si02
#       6
#     2   4   2   4   4   4
#     4  11  24  47  72 106 157 200 245 318 384 471
#     4   9  21  41  73 102 141 191 249 313 374 436
#     4   9  20  43  68 112 143 190 253 314 376 433
#     4  12  27  53  77 110 161 208 254 321 389 468
#     4  12  30  47  77 116 155 207 252 318 399 456
#     4  11  27  45  81 112 152 202 271 315 383 460
#
# _framework density 26.480304
#
# number of rings (size 3 to 8) (size 9 to 14) (size 15 to 20)
#    0.000    1.200    2.000    1.800   14.000    3.200 
#    0.000    0.000    0.000    0.000    0.000    0.000 
#    0.000    0.000    0.000    0.000    0.000    0.000 
#
# Total GULP energy -55770.995324 kJ/mol
# GULP energy per Si atom -5577.099532 kJ/mol
# Density = 2.642003 g / cm^3
# Si number density = 26.480304 Si / 1000 Ang^3
#
#
#
# Elastic Constant Matrix: (Units=GPa)
#
#
# Indices 1 2 3 4 5 6 
#
# 1 92.2703 38.6732 19.4295 0.0000 10.4171 0.0000
# 2 38.6732 138.5040 45.6344 0.0000 1.0930 0.0000
# 3 19.4295 45.6344 118.6772 0.0000 -11.6271 0.0000
# 4 0.0000 0.0000 0.0000 54.5637 0.0000 8.9552
# 5 10.4171 1.0930 -11.6271 0.0000 42.8617 0.0000
# 6 0.0000 0.0000 0.0000 8.9552 0.0000 25.8974
#
#
#
# Elastic Compliance Matrix: (Units=1/GPa)
#
#
# Indices 1 2 3 4 5 6 
#
# 1 0.012791 -0.003145 -0.001214 0.000000 -0.003358 0.000000
# 2 -0.003145 0.009092 -0.003009 0.000000 -0.000284 0.000000
# 3 -0.001214 -0.003009 0.010086 0.000000 0.003108 0.000000
# 4 0.000000 0.000000 0.000000 0.019430 0.000000 -0.006719
# 5 -0.003358 -0.000284 0.003108 0.000000 0.024997 0.000000
# 6 0.000000 0.000000 0.000000 -0.006719 0.000000 0.040937
#
#
# Mechanical properties :
#
#
# Convention : Reuss Voigt Hill
#
# Bulk Modulus (GPa) = 58.02639 61.88063 59.95351
# Shear Modulus (GPa) = 36.28113 41.04552 38.66332
#
# Velocity S-wave (km/s) = 3.70553 3.94133 3.82524
# Velocity P-wave (km/s) = 6.34575 6.64314 6.49615
#
# Compressibility (1/GPa) = 0.01723354
#
# Stress axis : x y z
#
# Youngs Moduli (GPa) = 78.18290 109.98941 99.14333
#
# Poissons Ratio (x) = 0.34592 0.12033
# Poissons Ratio (y) = 0.24589 0.29831
# Poissons Ratio (z) = 0.09489 0.33095
#
# Static dielectric constant tensor:
#      x y z
#    x 2.055690 0.000000 -0.058310 
#    y 0.000000 2.059550 0.000000 
#    z -0.058310 0.000000 1.618990 
# 
# From -- ./inp_files/6539.got.cif
#   From: 2010.05.17/outbox.cif.g08.bks.cpg/sg5_4_cif.got.tgz:6539.got - 2010.06.03 18:56:24.
