data_PCOD9130764
_publ_section_title
;
Structure prediction by ZEFSAII (Michael W. Deem and Ramdas Pophale) SiO2 
 PCOD9130764
Probable space group: P M
;
_chemical_formula_sum "Si O2"
_cell_formula_units_Z 16
_cell_length_a 12.645135
_cell_length_b 7.666563
_cell_length_c 10.528483
_cell_angle_alpha 90.000000
_cell_angle_beta 126.836847
_cell_angle_gamma 90.000000
_cell_volume 816.897831
_symmetry_space_group_name_H-M "P M"
_symmetry_group_IT_number 6
_symmetry_cell_setting 'monoclinic'
loop_
_space_group_symop_operation_xyz
x,y,z
x,-y,z
loop_
_atom_site_type_symbol
_atom_site_label
_atom_site_fract_x
_atom_site_fract_y
_atom_site_fract_z
Si Si1 0.115580 0.714213 0.082970
Si Si2 0.299175 0.702603 0.985431
Si Si3 0.575923 0.711823 0.264274
Si Si4 0.156071 0.799441 0.629704
Si Si5 0.867229 0.289338 0.494332
Si Si6 0.845854 0.712748 0.773817
Si Si7 0.554137 0.712060 0.546448
Si Si8 0.275054 0.290180 0.443538
O O1 0.114314 0.500000 0.081301
O O2 0.179951 0.771205 0.261285
O O3 0.206595 0.775128 0.030733
O O4 0.965661 0.770762 0.948533
O O5 0.315446 0.500000 0.032614
O O6 0.225282 0.706699 0.798468
O O7 0.448611 0.774729 0.094398
O O8 0.583802 0.500000 0.260800
O O9 0.724612 0.773230 0.340861
O O10 0.547908 0.754557 0.392051
O O11 0.218908 0.752413 0.540559
O O12 0.999040 0.767935 0.518648
O O13 0.180819 0.000000 0.672925
O O14 0.867305 0.500000 0.492702
O O15 0.875059 0.236704 0.648575
O O16 0.844750 0.500000 0.774274
O O17 0.697392 0.771289 0.698871
O O18 0.554339 0.500000 0.552734
O O19 0.423833 0.774823 0.524261
O O20 0.279914 0.500000 0.437091
#
# Coordination Sequence:
#
# PCOD9130764 Si02
#       8
#     2   2   2   2   2   2   2   2
#     4   9  15  26  51  83 104 123 161 213 264 310
#     4  10  17  32  57  84 107 130 168 219 268 311
#     4   8  14  26  53  88 109 122 158 219 273 313
#     4  12  25  37  48  70 108 151 186 213 249 305
#     4   9  16  31  55  80 105 134 168 213 267 313
#     4   8  13  23  47  82 107 121 151 209 267 310
#     4   8  13  24  46  78 107 126 154 203 264 315
#     4  10  19  33  53  75 101 135 172 213 264 315
#
# _framework density 19.586292
#
# number of rings (size 3 to 8) (size 9 to 14) (size 15 to 20)
#    0.000    2.750    2.500    2.625    0.000    0.000 
#    0.000    2.500    0.000    7.500    0.000    0.000 
#    0.000    0.000    0.000    0.000    0.000    0.000 
#
# Total GULP energy -89195.219629 kJ/mol
# GULP energy per Si atom -5574.701227 kJ/mol
# Density = 1.954171 g / cm^3
# Si number density = 19.586292 Si / 1000 Ang^3
#
#
#
# Elastic Constant Matrix: (Units=GPa)
#
#
# Indices 1 2 3 4 5 6 
#
# 1 155.1544 -5.0830 65.9416 0.0000 27.3164 0.0000
# 2 -5.0830 29.8548 -6.0906 0.0000 4.6059 0.0000
# 3 65.9416 -6.0906 84.4002 0.0000 23.0215 0.0000
# 4 0.0000 0.0000 0.0000 -121.5189 0.0000 163.5403
# 5 27.3164 4.6059 23.0215 0.0000 35.5298 0.0000
# 6 0.0000 0.0000 0.0000 163.5403 0.0000 -274.9450
#
#
#
# Elastic Compliance Matrix: (Units=1/GPa)
#
#
# Indices 1 2 3 4 5 6 
#
# 1 0.009954 0.000824 -0.006803 0.000000 -0.003351 0.000000
# 2 0.000824 0.035690 0.004089 0.000000 -0.007910 0.000000
# 3 -0.006803 0.004089 0.019649 0.000000 -0.008031 0.000000
# 4 0.000000 0.000000 0.000000 -0.041249 0.000000 -0.024535
# 5 -0.003351 -0.007910 -0.008031 0.000000 0.036951 0.000000
# 6 0.000000 0.000000 0.000000 -0.024535 0.000000 -0.018231
#
#
# Mechanical properties :
#
#
# Convention : Reuss Voigt Hill
#
# Bulk Modulus (GPa) = 16.25659 42.10504 29.18082
# Shear Modulus (GPa) = 74.57172 -57.87738 8.34717
#
# Velocity S-wave (km/s) = 6.17706 -5.44188 2.06664
# Velocity P-wave (km/s) = 7.69368 4.23575 4.54154
#
# Compressibility (1/GPa) = 0.06151352
#
# Stress axis : x y z
#
# Youngs Moduli (GPa) = 100.46628 28.01883 50.89212
#
# Poissons Ratio (x) = -0.02308 0.34623
# Poissons Ratio (y) = -0.08276 -0.20812
# Poissons Ratio (z) = 0.68349 -0.11458
#
# Static dielectric constant tensor:
#      x y z
#    x 1.698510 0.000000 0.036270 
#    y 0.000000 1.741210 0.000000 
#    z 0.036270 0.000000 1.685770 
# 
# From -- ./inp_files/3744.got.cif
#   From: 2010.05.17/outbox.cif.g08.bks.cpg/sg6_2_cif.got.tgz:3744.got - 2010.06.03 19:42:10.
