data_PCOD9130870
_publ_section_title
;
Structure prediction by ZEFSAII (Michael W. Deem and Ramdas Pophale) SiO2 
 PCOD9130870
Probable space group: P M
;
_chemical_formula_sum "Si O2"
_cell_formula_units_Z 16
_cell_length_a 12.616422
_cell_length_b 8.959467
_cell_length_c 12.800117
_cell_angle_alpha 90.000000
_cell_angle_beta 144.091831
_cell_angle_gamma 90.000000
_cell_volume 848.577154
_symmetry_space_group_name_H-M "P M"
_symmetry_group_IT_number 6
_symmetry_cell_setting 'monoclinic'
loop_
_space_group_symop_operation_xyz
x,y,z
x,-y,z
loop_
_atom_site_type_symbol
_atom_site_label
_atom_site_fract_x
_atom_site_fract_y
_atom_site_fract_z
Si Si1 0.887020 0.323530 0.465680
Si Si2 0.891411 0.178263 0.254300
Si Si3 0.268509 0.678151 0.489486
Si Si4 0.389148 0.320191 0.353703
Si Si5 0.793186 0.320603 0.623874
Si Si6 0.535535 0.177127 0.863797
Si Si7 0.257645 0.823787 0.824798
Si Si8 0.171865 0.822215 0.989459
O O1 0.873567 0.500000 0.436991
O O2 0.826263 0.236041 0.315001
O O3 0.789168 0.286092 0.496483
O O4 0.094286 0.275521 0.651170
O O5 0.084618 0.248195 0.383371
O O6 0.905733 0.000000 0.269108
O O7 0.742253 0.220064 0.049038
O O8 0.253362 0.500000 0.484674
O O9 0.306203 0.719842 0.399553
O O10 0.432328 0.734039 0.692253
O O11 0.383093 0.500000 0.337993
O O12 0.600629 0.276537 0.517730
O O13 0.277079 0.249313 0.169827
O O14 0.816050 0.500000 0.652197
O O15 0.969399 0.242726 0.813177
O O16 0.428885 0.200155 0.887895
O O17 0.526227 0.000000 0.833364
O O18 0.207317 0.000000 0.775551
O O19 0.274379 0.790902 0.961131
O O20 0.161884 0.000000 0.994361
#
# Coordination Sequence:
#
# PCOD9130870 Si02
#       8
#     2   2   2   2   2   2   2   2
#     4  10  19  33  57  89 120 153 193 239 291 348
#     4  11  23  38  59  87 120 157 193 238 298 354
#     4  11  24  42  62  85 116 155 203 250 290 341
#     4  10  23  42  62  84 116 160 201 241 292 347
#     4   9  20  39  60  85 119 157 195 239 293 347
#     4  10  22  39  60  85 116 157 195 238 297 352
#     4   9  18  35  57  84 120 156 189 236 293 347
#     4  10  21  36  59  91 121 153 195 241 290 348
#
# _framework density 18.855091000000002
#
# number of rings (size 3 to 8) (size 9 to 14) (size 15 to 20)
#    0.000    2.000    1.250    1.500    1.750    4.500 
#    0.000    3.750    0.000    0.000    0.000    0.000 
#    0.000    0.000    0.000    0.000    0.000    0.000 
#
# Total GULP energy -89347.987815 kJ/mol
# GULP energy per Si atom -5584.249238 kJ/mol
# Density = 1.881218 g / cm^3
# Si number density = 18.855091 Si / 1000 Ang^3
#
#
#
# Elastic Constant Matrix: (Units=GPa)
#
#
# Indices 1 2 3 4 5 6 
#
# 1 51.3299 25.9218 25.4937 0.0000 -14.9938 0.0000
# 2 25.9218 33.2861 36.0881 0.0000 -11.7971 0.0000
# 3 25.4937 36.0881 101.8225 0.0000 -22.2796 0.0000
# 4 0.0000 0.0000 0.0000 18.9044 0.0000 -27.9911
# 5 -14.9938 -11.7971 -22.2796 0.0000 21.4923 0.0000
# 6 0.0000 0.0000 0.0000 -27.9911 0.0000 -13.5743
#
#
#
# Elastic Compliance Matrix: (Units=1/GPa)
#
#
# Indices 1 2 3 4 5 6 
#
# 1 0.034951 -0.026197 0.003522 0.000000 0.013654 0.000000
# 2 -0.026197 0.070708 -0.018117 0.000000 0.001754 0.000000
# 3 0.003522 -0.018117 0.017748 0.000000 0.010910 0.000000
# 4 0.000000 0.000000 0.000000 0.013051 0.000000 -0.026912
# 5 0.013654 0.001754 0.010910 0.000000 0.068326 0.000000
# 6 0.000000 0.000000 0.000000 -0.026912 0.000000 -0.018175
#
#
# Mechanical properties :
#
#
# Convention : Reuss Voigt Hill
#
# Bulk Modulus (GPa) = 23.91159 40.16061 32.03610
# Shear Modulus (GPa) = 17.72207 11.96016 14.84112
#
# Velocity S-wave (km/s) = 3.06912 2.52130 2.80860
# Velocity P-wave (km/s) = 5.02679 5.46093 5.24835
#
# Compressibility (1/GPa) = 0.04182072
#
# Stress axis : x y z
#
# Youngs Moduli (GPa) = 28.61169 14.14268 56.34534
#
# Poissons Ratio (x) = 0.37050 -0.19843
# Poissons Ratio (y) = 0.74954 1.02083
# Poissons Ratio (z) = -0.10076 0.25623
#
# Static dielectric constant tensor:
#      x y z
#    x 1.656230 0.000000 -0.000610 
#    y 0.000000 1.637740 0.000000 
#    z -0.000610 0.000000 1.629430 
# 
# From -- ./inp_files/4557.got.cif
#   From: 2010.05.17/outbox.cif.g08.bks.cpg/sg6_3_cif.got.tgz:4557.got - 2010.06.03 19:42:10.
