data_PCOD9130017
_publ_section_title
;
Structure prediction by ZEFSAII (Michael W. Deem and Ramdas Pophale) SiO2 
 PCOD9130017
Probable space group: C 2
;
_chemical_formula_sum "Si O2"
_cell_formula_units_Z 20
_cell_length_a 28.007178
_cell_length_b 5.372915
_cell_length_c 4.828360
_cell_angle_alpha 90.000000
_cell_angle_beta 88.891328
_cell_angle_gamma 90.000000
_cell_volume 726.436497
_symmetry_space_group_name_H-M "C 2"
_symmetry_group_IT_number 5
_symmetry_cell_setting 'monoclinic'
loop_
_space_group_symop_operation_xyz
x,y,z
-x,y,-z
1/2+x,1/2+y,z
1/2-x,1/2+y,-z
loop_
_atom_site_type_symbol
_atom_site_label
_atom_site_fract_x
_atom_site_fract_y
_atom_site_fract_z
Si Si1 0.290710 0.219210 0.256226
Si Si2 0.889878 0.750484 0.370386
Si Si3 0.407656 0.931556 0.849823
Si Si4 0.807735 0.217365 0.899125
Si Si5 0.529879 0.609384 0.773631
O O1 0.334283 0.242769 0.469307
O O2 0.234084 0.228536 0.328731
O O3 0.300568 0.462448 0.066614
O O4 0.297394 0.957431 0.095428
O O5 0.918568 0.562355 0.561580
O O6 0.920671 0.996158 0.347486
O O7 0.889902 0.644908 0.060685
O O8 0.362679 0.748033 0.809052
O O9 0.451068 0.809340 0.006597
O O10 0.500000 0.658832 0.500000
O O11 0.500000 0.438622 0.000000
#
# Coordination Sequence:
#
# PCOD9130017 Si02
#       5
#     4   4   4   4   4
#     4   9  18  38  68 106 152 202 252 309 382 463
#     4  11  24  45  71 105 150 197 249 320 387 461
#     4  11  24  45  71 105 150 197 249 320 387 461
#     4   9  18  38  68 106 152 202 252 309 382 463
#     4  12  26  46  74 108 146 200 260 326 390 460
#
# _framework density 27.531656000000002
#
# number of rings (size 3 to 8) (size 9 to 14) (size 15 to 20)
#    0.000    1.600    2.000    2.400    0.000    3.200 
#    0.000   16.000    0.000    0.000    0.000    0.000 
#    0.000    0.000    0.000    0.000    0.000    0.000 
#
# Total GULP energy -55959.993853 kJ/mol
# GULP energy per Si atom -5595.999385 kJ/mol
# Density = 2.746899 g / cm^3
# Si number density = 27.531656 Si / 1000 Ang^3
#
#
#
# Elastic Constant Matrix: (Units=GPa)
#
#
# Indices 1 2 3 4 5 6 
#
# 1 174.5474 23.0417 62.9325 0.0000 44.9288 0.0000
# 2 23.0417 118.8615 49.9946 0.0000 8.7929 0.0000
# 3 62.9325 49.9946 152.8514 0.0000 17.5197 0.0000
# 4 0.0000 0.0000 0.0000 34.1145 0.0000 9.1267
# 5 44.9288 8.7929 17.5197 0.0000 58.7259 0.0000
# 6 0.0000 0.0000 0.0000 9.1267 0.0000 28.2709
#
#
#
# Elastic Compliance Matrix: (Units=1/GPa)
#
#
# Indices 1 2 3 4 5 6 
#
# 1 0.008094 -0.000033 -0.002705 0.000000 -0.005380 0.000000
# 2 -0.000033 0.009771 -0.003124 0.000000 -0.000505 0.000000
# 3 -0.002705 -0.003124 0.008684 0.000000 -0.000054 0.000000
# 4 0.000000 0.000000 0.000000 0.032084 0.000000 -0.010358
# 5 -0.005380 -0.000505 -0.000054 0.000000 0.021236 0.000000
# 6 0.000000 0.000000 0.000000 -0.010358 0.000000 0.038716
#
#
# Mechanical properties :
#
#
# Convention : Reuss Voigt Hill
#
# Bulk Modulus (GPa) = 67.45850 79.79979 73.62915
# Shear Modulus (GPa) = 36.96843 44.90836 40.93839
#
# Velocity S-wave (km/s) = 3.66835 4.04314 3.86029
# Velocity P-wave (km/s) = 6.51903 7.13047 6.83159
#
# Compressibility (1/GPa) = 0.01482393
#
# Stress axis : x y z
#
# Youngs Moduli (GPa) = 123.55524 102.34245 115.15505
#
# Poissons Ratio (x) = 0.00341 0.31146
# Poissons Ratio (y) = 0.00412 0.35978
# Poissons Ratio (z) = 0.33418 0.31975
#
# Static dielectric constant tensor:
#      x y z
#    x 2.430600 0.000000 -0.062280 
#    y 0.000000 2.186840 0.000000 
#    z -0.062280 0.000000 2.060080 
# 
# From -- ./inp_files/10630.got.cif
#   From: 2010.05.17/outbox.cif.g08.bks.cpg/sg5_6_cif.got.tgz:10630.got - 2010.06.03 18:56:24.
