data_PCOD9130619
_publ_section_title
;
Structure prediction by ZEFSAII (Michael W. Deem and Ramdas Pophale) SiO2 
 PCOD9130619
Probable space group: C 2
;
_chemical_formula_sum "Si O2"
_cell_formula_units_Z 20
_cell_length_a 29.199516
_cell_length_b 5.018101
_cell_length_c 5.353240
_cell_angle_alpha 90.000000
_cell_angle_beta 83.232162
_cell_angle_gamma 90.000000
_cell_volume 778.923718
_symmetry_space_group_name_H-M "C 2"
_symmetry_group_IT_number 5
_symmetry_cell_setting 'monoclinic'
loop_
_space_group_symop_operation_xyz
x,y,z
-x,y,-z
1/2+x,1/2+y,z
1/2-x,1/2+y,-z
loop_
_atom_site_type_symbol
_atom_site_label
_atom_site_fract_x
_atom_site_fract_y
_atom_site_fract_z
Si Si1 0.778337 0.718650 0.428452
Si Si2 0.000000 0.645199 0.500000
Si Si3 0.000000 0.990908 0.000000
Si Si4 0.361846 0.445024 0.704436
Si Si5 0.924276 0.267156 0.336540
Si Si6 0.152466 0.466535 0.958687
O O1 0.653884 0.702142 0.124917
O O2 0.820255 0.847339 0.556144
O O3 0.744312 0.968124 0.413453
O O4 0.799144 0.586461 0.165466
O O5 0.005610 0.817999 0.245902
O O6 0.043453 0.454255 0.521495
O O7 0.955272 0.169936 0.085197
O O8 0.405478 0.524494 0.511560
O O9 0.372434 0.202836 0.879755
O O10 0.878140 0.401590 0.263283
#
# Coordination Sequence:
#
# PCOD9130619 Si02
#       6
#     4   2   2   4   4   4
#     4  12  27  54  84 124 168 212 282 352 425 524
#     4  12  32  52  82 122 170 230 298 364 424 508
#     4  12  32  52  82 122 170 230 298 364 424 508
#     4  12  29  51  85 122 167 223 279 349 433 513
#     4  12  31  52  78 124 168 226 288 358 425 508
#     4  12  29  51  85 122 167 223 279 349 433 513
#
# _framework density 25.676459000000001
#
# number of rings (size 3 to 8) (size 9 to 14) (size 15 to 20)
#    0.000    0.000    0.000    7.200   16.800    3.200 
#    0.000    4.000    0.000    0.000    0.000    0.000 
#    0.000    0.000    0.000    0.000    0.000    0.000 
#
# Total GULP energy -56205.385121 kJ/mol
# GULP energy per Si atom -5620.538512 kJ/mol
# Density = 2.561802 g / cm^3
# Si number density = 25.676459 Si / 1000 Ang^3
#
#
#
# Elastic Constant Matrix: (Units=GPa)
#
#
# Indices 1 2 3 4 5 6 
#
# 1 94.1040 47.2804 29.6502 0.0000 -18.1307 0.0000
# 2 47.2804 175.2891 53.3297 0.0000 -12.7221 0.0000
# 3 29.6502 53.3297 116.9568 0.0000 -10.1931 0.0000
# 4 0.0000 0.0000 0.0000 71.1602 0.0000 -10.1895
# 5 -18.1307 -12.7221 -10.1931 0.0000 30.7795 0.0000
# 6 0.0000 0.0000 0.0000 -10.1895 0.0000 67.3595
#
#
#
# Elastic Compliance Matrix: (Units=1/GPa)
#
#
# Indices 1 2 3 4 5 6 
#
# 1 0.013769 -0.002736 -0.001684 0.000000 0.006422 0.000000
# 2 -0.002736 0.007264 -0.002572 0.000000 0.000539 0.000000
# 3 -0.001684 -0.002572 0.010267 0.000000 0.001345 0.000000
# 4 0.000000 0.000000 0.000000 0.014364 0.000000 0.002173
# 5 0.006422 0.000539 0.001345 0.000000 0.036941 0.000000
# 6 0.000000 0.000000 0.000000 0.002173 0.000000 0.015174
#
#
# Mechanical properties :
#
#
# Convention : Reuss Voigt Hill
#
# Bulk Modulus (GPa) = 57.74272 71.87453 64.80862
# Shear Modulus (GPa) = 42.54104 50.93249 46.73677
#
# Velocity S-wave (km/s) = 4.07481 4.45862 4.27103
# Velocity P-wave (km/s) = 6.68402 7.38640 7.04397
#
# Compressibility (1/GPa) = 0.01731820
#
# Stress axis : x y z
#
# Youngs Moduli (GPa) = 72.62830 137.65911 97.40021
#
# Poissons Ratio (x) = 0.37657 0.16398
# Poissons Ratio (y) = 0.19868 0.25050
# Poissons Ratio (z) = 0.12227 0.35404
#
# Static dielectric constant tensor:
#      x y z
#    x 1.999710 0.000000 0.009330 
#    y 0.000000 1.983480 0.000000 
#    z 0.009330 0.000000 2.078750 
# 
# From -- ./inp_files/10636.got.cif
#   From: 2010.05.17/outbox.cif.g08.bks.cpg/sg5_6_cif.got.tgz:10636.got - 2010.06.03 18:56:24.
