data_PCOD9130490
_publ_section_title
;
Structure prediction by ZEFSAII (Michael W. Deem and Ramdas Pophale) SiO2 
 PCOD9130490
Probable space group: C 2
;
_chemical_formula_sum "Si O2"
_cell_formula_units_Z 18
_cell_length_a 16.586787
_cell_length_b 8.629891
_cell_length_c 4.881137
_cell_angle_alpha 90.000000
_cell_angle_beta 103.866946
_cell_angle_gamma 90.000000
_cell_volume 678.332938
_symmetry_space_group_name_H-M "C 2"
_symmetry_group_IT_number 5
_symmetry_cell_setting 'monoclinic'
loop_
_space_group_symop_operation_xyz
x,y,z
-x,y,-z
1/2+x,1/2+y,z
1/2-x,1/2+y,-z
loop_
_atom_site_type_symbol
_atom_site_label
_atom_site_fract_x
_atom_site_fract_y
_atom_site_fract_z
Si Si1 0.000000 0.219661 0.500000
Si Si2 0.581846 0.991004 0.203410
Si Si3 0.827884 0.789024 0.612248
Si Si4 0.282912 0.804292 0.965909
Si Si5 0.907366 0.047722 0.017889
O O1 0.951368 0.345107 0.651701
O O2 0.926703 0.101767 0.344844
O O3 0.644408 0.928102 0.021492
O O4 0.631159 0.122270 0.404069
O O5 0.500000 0.061147 0.000000
O O6 0.793490 0.848863 0.295073
O O7 0.892196 0.889886 0.843569
O O8 0.749854 0.783359 0.756101
O O9 0.324618 0.646447 0.889785
O O10 0.000000 0.099318 0.000000
#
# Coordination Sequence:
#
# PCOD9130490 Si02
#       5
#     2   4   4   4   4
#     4  12  24  48  90 108 164 212 282 314 406 484
#     4  12  26  49  78 113 155 214 268 323 398 482
#     4  12  30  46  77 119 158 200 264 340 396 464
#     4  12  25  50  75 114 158 208 256 328 409 472
#     4  12  26  49  78 113 155 214 268 323 398 482
#
# _framework density 26.535640000000001
#
# number of rings (size 3 to 8) (size 9 to 14) (size 15 to 20)
#    0.000    0.000    4.444    4.667    6.222    0.000 
#    0.000    0.000    0.000    0.000    0.000    0.000 
#    0.000    0.000    0.000    0.000    0.000    0.000 
#
# Total GULP energy -50290.279911 kJ/mol
# GULP energy per Si atom -5587.808879 kJ/mol
# Density = 2.647524 g / cm^3
# Si number density = 26.535640 Si / 1000 Ang^3
#
#
#
# Elastic Constant Matrix: (Units=GPa)
#
#
# Indices 1 2 3 4 5 6 
#
# 1 82.7824 20.1742 40.8078 0.0000 17.1541 0.0000
# 2 20.1742 97.1616 29.2515 0.0000 18.5932 0.0000
# 3 40.8078 29.2515 117.7023 0.0000 11.8065 0.0000
# 4 0.0000 0.0000 0.0000 47.3872 0.0000 19.7079
# 5 17.1541 18.5932 11.8065 0.0000 45.8030 0.0000
# 6 0.0000 0.0000 0.0000 19.7079 0.0000 42.8190
#
#
#
# Elastic Compliance Matrix: (Units=1/GPa)
#
#
# Indices 1 2 3 4 5 6 
#
# 1 0.015514 -0.001002 -0.004709 0.000000 -0.004190 0.000000
# 2 -0.001002 0.011914 -0.002224 0.000000 -0.003888 0.000000
# 3 -0.004709 -0.002224 0.010690 0.000000 -0.000089 0.000000
# 4 0.000000 0.000000 0.000000 0.026098 0.000000 -0.012012
# 5 -0.004190 -0.003888 -0.000089 0.000000 0.025003 0.000000
# 6 0.000000 0.000000 0.000000 -0.012012 0.000000 0.028883
#
#
# Mechanical properties :
#
#
# Convention : Reuss Voigt Hill
#
# Bulk Modulus (GPa) = 44.94720 53.12369 49.03545
# Shear Modulus (GPa) = 35.36393 41.02936 38.19664
#
# Velocity S-wave (km/s) = 3.65457 3.93644 3.79812
# Velocity P-wave (km/s) = 5.89772 6.38153 6.14439
#
# Compressibility (1/GPa) = 0.02224833
#
# Stress axis : x y z
#
# Youngs Moduli (GPa) = 64.45932 83.93831 93.54241
#
# Poissons Ratio (x) = 0.08407 0.44053
# Poissons Ratio (y) = 0.06456 0.20799
# Poissons Ratio (z) = 0.30357 0.18664
#
# Static dielectric constant tensor:
#      x y z
#    x 2.124090 0.000000 -0.281650 
#    y 0.000000 2.068490 0.000000 
#    z -0.281650 0.000000 2.878610 
# 
# From -- ./inp_files/8085.got.cif
#   From: 2010.05.17/outbox.cif.g08.bks.cpg/sg5_5_cif.got.tgz:8085.got - 2010.06.03 18:56:24.
