data_PCOD9130956
_publ_section_title
;
Structure prediction by ZEFSAII (Michael W. Deem and Ramdas Pophale) SiO2 
 PCOD9130956
Probable space group: P M
;
_chemical_formula_sum "Si O2"
_cell_formula_units_Z 16
_cell_length_a 12.490125
_cell_length_b 8.776331
_cell_length_c 10.468922
_cell_angle_alpha 90.000000
_cell_angle_beta 128.168595
_cell_angle_gamma 90.000000
_cell_volume 902.219954
_symmetry_space_group_name_H-M "P M"
_symmetry_group_IT_number 6
_symmetry_cell_setting 'monoclinic'
loop_
_space_group_symop_operation_xyz
x,y,z
x,-y,z
loop_
_atom_site_type_symbol
_atom_site_label
_atom_site_fract_x
_atom_site_fract_y
_atom_site_fract_z
Si Si1 0.782510 0.682813 0.833770
Si Si2 0.508647 0.819190 0.021506
Si Si3 0.778374 0.319330 0.308603
Si Si4 0.941986 0.181520 0.192047
Si Si5 0.503741 0.181642 0.714363
Si Si6 0.934711 0.317344 0.684674
Si Si7 0.199734 0.818207 0.771282
Si Si8 0.210273 0.318369 0.496490
O O1 0.773315 0.500000 0.835338
O O2 0.632109 0.752926 0.734025
O O3 0.856494 0.723937 0.756162
O O4 0.869678 0.745630 0.016357
O O5 0.620803 0.726804 0.181307
O O6 0.529237 0.000000 0.056652
O O7 0.527512 0.789192 0.883601
O O8 0.351192 0.781787 0.933613
O O9 0.794606 0.500000 0.299424
O O10 0.857762 0.231560 0.255385
O O11 0.843491 0.281003 0.493183
O O12 0.094125 0.243936 0.324038
O O13 0.941095 0.000000 0.180916
O O14 0.361095 0.259756 0.574370
O O15 0.492438 0.000000 0.690510
O O16 0.957100 0.500000 0.701643
O O17 0.078662 0.234706 0.772789
O O18 0.183188 0.735956 0.622330
O O19 0.195076 0.000000 0.745650
O O20 0.202487 0.500000 0.484452
#
# Coordination Sequence:
#
# PCOD9130956 Si02
#       8
#     2   2   2   2   2   2   2   2
#     4  11  23  40  60  84 117 159 199 241 291 348
#     4   9  19  34  54  84 117 146 186 238 286 338
#     4  11  21  35  58  87 115 149 194 239 286 345
#     4  12  23  37  58  87 118 150 193 247 294 344
#     4  10  20  36  57  85 119 152 191 240 293 346
#     4  10  23  40  58  84 119 155 196 239 288 350
#     4  10  20  35  57  84 116 153 194 237 290 345
#     4  11  21  35  58  87 117 150 193 243 292 344
#
# _framework density 17.734036
#
# number of rings (size 3 to 8) (size 9 to 14) (size 15 to 20)
#    0.000    1.500    2.500    4.500    0.000    4.000 
#    0.000    1.250    0.000    4.500    0.000    0.000 
#    0.000    0.000    0.000    0.000    0.000    0.000 
#
# Total GULP energy -89404.271776 kJ/mol
# GULP energy per Si atom -5587.766986 kJ/mol
# Density = 1.769367 g / cm^3
# Si number density = 17.734036 Si / 1000 Ang^3
#
#
#
# Elastic Constant Matrix: (Units=GPa)
#
#
# Indices 1 2 3 4 5 6 
#
# 1 141.6046 49.5682 55.1103 0.0000 9.7949 0.0000
# 2 49.5682 63.9030 28.4590 0.0000 -0.2862 0.0000
# 3 55.1103 28.4590 73.9560 0.0000 6.1438 0.0000
# 4 0.0000 0.0000 0.0000 10.1197 0.0000 16.2291
# 5 9.7949 -0.2862 6.1438 0.0000 28.0287 0.0000
# 6 0.0000 0.0000 0.0000 16.2291 0.0000 25.5304
#
#
#
# Elastic Compliance Matrix: (Units=1/GPa)
#
#
# Indices 1 2 3 4 5 6 
#
# 1 0.011942 -0.006541 -0.006141 0.000000 -0.002894 0.000000
# 2 -0.006541 0.022559 -0.004090 0.000000 0.003413 0.000000
# 3 -0.006141 -0.004090 0.019859 0.000000 -0.002249 0.000000
# 4 0.000000 0.000000 0.000000 -5.081040 0.000000 3.229917
# 5 -0.002894 0.003413 -0.002249 0.000000 0.037217 0.000000
# 6 0.000000 0.000000 0.000000 3.229917 0.000000 -2.014025
#
#
# Mechanical properties :
#
#
# Convention : Reuss Voigt Hill
#
# Bulk Modulus (GPa) = 48.04337 60.63764 54.34051
# Shear Modulus (GPa) = -0.71808 22.49084 10.88638
#
# Velocity S-wave (km/s) = -0.63702 3.56509 2.48033
# Velocity P-wave (km/s) = 5.15837 7.15636 6.23788
#
# Compressibility (1/GPa) = 0.02081452
#
# Stress axis : x y z
#
# Youngs Moduli (GPa) = 83.73906 44.32754 50.35562
#
# Poissons Ratio (x) = 0.28995 0.30925
# Poissons Ratio (y) = 0.54774 0.20597
# Poissons Ratio (z) = 0.51427 0.18132
#
# Static dielectric constant tensor:
#      x y z
#    x 1.600420 0.000000 0.016160 
#    y 0.000000 1.592610 0.000000 
#    z 0.016160 0.000000 1.587840 
# 
# From -- ./inp_files/3811.got.cif
#   From: 2010.05.17/outbox.cif.g08.bks.cpg/sg6_2_cif.got.tgz:3811.got - 2010.06.03 19:42:10.
