data_PCOD9130881
_publ_section_title
;
Structure prediction by ZEFSAII (Michael W. Deem and Ramdas Pophale) SiO2 
 PCOD9130881
Probable space group: P M
;
_chemical_formula_sum "Si O2"
_cell_formula_units_Z 16
_cell_length_a 12.533462
_cell_length_b 8.678651
_cell_length_c 10.483403
_cell_angle_alpha 90.000000
_cell_angle_beta 52.309698
_cell_angle_gamma 90.000000
_cell_volume 902.363571
_symmetry_space_group_name_H-M "P M"
_symmetry_group_IT_number 6
_symmetry_cell_setting 'monoclinic'
loop_
_space_group_symop_operation_xyz
x,y,z
x,-y,z
loop_
_atom_site_type_symbol
_atom_site_label
_atom_site_fract_x
_atom_site_fract_y
_atom_site_fract_z
Si Si1 0.202440 0.184048 0.632270
Si Si2 0.217184 0.315505 0.118779
Si Si3 0.471243 0.685156 0.542488
Si Si4 0.772141 0.313417 0.307470
Si Si5 0.046603 0.685878 0.987841
Si Si6 0.485372 0.816047 0.818009
Si Si7 0.776635 0.314860 0.601593
Si Si8 0.055587 0.815121 0.477984
O O1 0.349121 0.257476 0.546052
O O2 0.111324 0.237927 0.817333
O O3 0.132737 0.229991 0.550835
O O4 0.215542 0.000000 0.625078
O O5 0.223408 0.500000 0.125549
O O6 0.137251 0.247635 0.296756
O O7 0.135363 0.279701 0.048559
O O8 0.366107 0.246760 0.993851
O O9 0.467418 0.500000 0.555987
O O10 0.619837 0.732635 0.385013
O O11 0.457471 0.752882 0.695239
O O12 0.776263 0.500000 0.302027
O O13 0.795714 0.269678 0.438139
O O14 0.894506 0.260581 0.129936
O O15 0.047923 0.500000 0.970537
O O16 0.632868 0.753422 0.747605
O O17 0.485191 0.000000 0.816340
O O18 0.771266 0.500000 0.611234
O O19 0.905000 0.252654 0.582992
O O20 0.048669 0.000000 0.476903
#
# Coordination Sequence:
#
# PCOD9130881 Si02
#       8
#     2   2   2   2   2   2   2   2
#     4  11  24  39  55  81 119 158 193 233 288 350
#     4  11  21  36  60  88 114 149 198 245 286 340
#     4  10  19  34  57  83 113 150 193 239 286 339
#     4   8  16  32  55  84 111 136 177 236 287 329
#     4  10  19  35  59  85 112 145 189 242 289 337
#     4  11  21  34  56  87 120 150 186 239 295 344
#     4  10  19  36  59  84 115 150 192 240 288 343
#     4  11  24  40  57  82 118 158 196 240 295 350
#
# _framework density 17.731210999999998
#
# number of rings (size 3 to 8) (size 9 to 14) (size 15 to 20)
#    0.000    1.750    2.500    3.750    0.000    2.500 
#    0.000    2.500    0.000    6.000    0.000    0.000 
#    0.000    0.000    0.000    0.000    0.000    0.000 
#
# Total GULP energy -89345.365942 kJ/mol
# GULP energy per Si atom -5584.085371 kJ/mol
# Density = 1.769085 g / cm^3
# Si number density = 17.731211 Si / 1000 Ang^3
#
#
#
# Elastic Constant Matrix: (Units=GPa)
#
#
# Indices 1 2 3 4 5 6 
#
# 1 162.6480 56.4453 68.6127 0.0000 -17.6629 0.0000
# 2 56.4453 65.5574 38.8862 0.0000 -0.6931 0.0000
# 3 68.6127 38.8862 85.2565 0.0000 -12.5994 0.0000
# 4 0.0000 0.0000 0.0000 20.0985 0.0000 -1.1730
# 5 -17.6629 -0.6931 -12.5994 0.0000 32.2217 0.0000
# 6 0.0000 0.0000 0.0000 -1.1730 0.0000 34.6596
#
#
#
# Elastic Compliance Matrix: (Units=1/GPa)
#
#
# Indices 1 2 3 4 5 6 
#
# 1 0.011022 -0.006194 -0.005489 0.000000 0.003762 0.000000
# 2 -0.006194 0.024767 -0.007147 0.000000 -0.005658 0.000000
# 3 -0.005489 -0.007147 0.020101 0.000000 0.004697 0.000000
# 4 0.000000 0.000000 0.000000 0.049854 0.000000 0.001687
# 5 0.003762 -0.005658 0.004697 0.000000 0.034812 0.000000
# 6 0.000000 0.000000 0.000000 0.001687 0.000000 0.028909
#
#
# Mechanical properties :
#
#
# Convention : Reuss Voigt Hill
#
# Bulk Modulus (GPa) = 54.85960 71.26114 63.06037
# Shear Modulus (GPa) = 23.45187 27.36381 25.40784
#
# Velocity S-wave (km/s) = 3.64075 3.93269 3.78953
# Velocity P-wave (km/s) = 6.97711 7.80374 7.40197
#
# Compressibility (1/GPa) = 0.01822835
#
# Stress axis : x y z
#
# Youngs Moduli (GPa) = 90.72737 40.37636 49.74901
#
# Poissons Ratio (x) = 0.25011 0.27307
# Poissons Ratio (y) = 0.56200 0.35558
# Poissons Ratio (z) = 0.49800 0.28859
#
# Static dielectric constant tensor:
#      x y z
#    x 1.606430 0.000000 -0.020550 
#    y 0.000000 1.592430 0.000000 
#    z -0.020550 0.000000 1.585820 
# 
# From -- ./inp_files/3774.got.cif
#   From: 2010.05.17/outbox.cif.g08.bks.cpg/sg6_2_cif.got.tgz:3774.got - 2010.06.03 19:42:10.
