data_PCOD9130515
_publ_section_title
;
Structure prediction by ZEFSAII (Michael W. Deem and Ramdas Pophale) SiO2 
 PCOD9130515
Probable space group: C 2
;
_chemical_formula_sum "Si O2"
_cell_formula_units_Z 16
_cell_length_a 9.248173
_cell_length_b 5.155863
_cell_length_c 23.234588
_cell_angle_alpha 90.000000
_cell_angle_beta 145.433405
_cell_angle_gamma 90.000000
_cell_volume 628.570312
_symmetry_space_group_name_H-M "C 2"
_symmetry_group_IT_number 5
_symmetry_cell_setting 'monoclinic'
loop_
_space_group_symop_operation_xyz
x,y,z
-x,y,-z
1/2+x,1/2+y,z
1/2-x,1/2+y,-z
loop_
_atom_site_type_symbol
_atom_site_label
_atom_site_fract_x
_atom_site_fract_y
_atom_site_fract_z
Si Si1 0.734996 0.548390 0.619676
Si Si2 0.223527 0.281227 0.918186
Si Si3 0.562852 0.542899 0.694971
Si Si4 0.423505 0.399262 0.873630
O O1 0.500000 0.599626 0.500000
O O2 0.627285 0.521160 0.648867
O O3 0.875693 0.286533 0.645336
O O4 0.929122 0.788359 0.675959
O O5 0.979709 0.101248 0.841692
O O6 0.232291 0.457380 0.863939
O O7 0.500000 0.130438 0.000000
O O8 0.306510 0.417767 0.004166
O O9 0.818429 0.634982 0.812450
#
# Coordination Sequence:
#
# PCOD9130515 Si02
#       4
#     4   4   4   4
#     4  12  26  46  70 100 134 174 218 282 340 396
#     4   8  20  37  57  85 130 166 212 259 319 373
#     4  12  25  44  72  99 135 173 228 270 331 405
#     4   9  20  39  59  93 124 175 211 268 316 384
#
# _framework density 25.454592000000002
#
# number of rings (size 3 to 8) (size 9 to 14) (size 15 to 20)
#    1.500    0.000    0.000    5.250    0.000    6.000 
#    4.500    0.000    0.000    0.000    0.000    0.000 
#    0.000    0.000    0.000    0.000    0.000    0.000 
#
# Total GULP energy -44679.645430 kJ/mol
# GULP energy per Si atom -5584.955679 kJ/mol
# Density = 2.539666 g / cm^3
# Si number density = 25.454592 Si / 1000 Ang^3
#
#
#
# Elastic Constant Matrix: (Units=GPa)
#
#
# Indices 1 2 3 4 5 6 
#
# 1 175.6992 85.2254 37.4779 0.0000 -15.6827 0.0001
# 2 85.2254 140.4800 13.0628 -0.0012 11.5587 0.0010
# 3 37.4779 13.0628 133.8636 0.0001 -7.1772 0.0002
# 4 0.0000 -0.0012 0.0001 34.6950 0.0004 17.3611
# 5 -15.6827 11.5587 -7.1772 0.0004 41.1402 -0.0002
# 6 0.0001 0.0010 0.0002 17.3611 -0.0002 69.1340
#
#
#
# Elastic Compliance Matrix: (Units=1/GPa)
#
#
# Indices 1 2 3 4 5 6 
#
# 1 0.009394 -0.005940 -0.001786 0.000000 0.004938 0.000000
# 2 -0.005940 0.011134 0.000290 0.000001 -0.005342 0.000000
# 3 -0.001786 0.000290 0.007976 0.000000 0.000629 0.000000
# 4 0.000000 0.000001 0.000000 0.032965 -0.000001 -0.008278
# 5 0.004938 -0.005342 0.000629 -0.000001 0.027800 0.000000
# 6 0.000000 0.000000 0.000000 -0.008278 0.000000 0.016544
#
#
# Mechanical properties :
#
#
# Convention : Reuss Voigt Hill
#
# Bulk Modulus (GPa) = 73.34766 80.17500 76.76133
# Shear Modulus (GPa) = 39.92703 49.94561 44.93632
#
# Velocity S-wave (km/s) = 3.96480 4.43442 4.20617
# Velocity P-wave (km/s) = 7.05955 7.60160 7.33558
#
# Compressibility (1/GPa) = 0.01363370
#
# Stress axis : x y z
#
# Youngs Moduli (GPa) = 106.44733 89.81187 125.38094
#
# Poissons Ratio (x) = 0.53344 0.22390
# Poissons Ratio (y) = 0.63225 -0.03636
# Poissons Ratio (z) = 0.19009 -0.02604
#
# Static dielectric constant tensor:
#      x y z
#    x 2.114060 0.000000 0.020590 
#    y 0.000000 2.073090 0.000000 
#    z 0.020590 0.000000 2.062810 
# 
# From -- ./inp_files/49754.got.cif
#   From: 2010.05.17/outbox.cif.g08.bks.cpg/sg5_25_cif.got.tgz:49754.got - 2010.06.03 18:56:24.
