data_PCOD9130925
_publ_section_title
;
Structure prediction by ZEFSAII (Michael W. Deem and Ramdas Pophale) SiO2 
 PCOD9130925
Probable space group: P M
;
_chemical_formula_sum "Si O2"
_cell_formula_units_Z 16
_cell_length_a 14.987484
_cell_length_b 7.738226
_cell_length_c 19.967520
_cell_angle_alpha 90.000000
_cell_angle_beta 160.891486
_cell_angle_gamma 90.000000
_cell_volume 758.084545
_symmetry_space_group_name_H-M "P M"
_symmetry_group_IT_number 6
_symmetry_cell_setting 'monoclinic'
loop_
_space_group_symop_operation_xyz
x,y,z
x,-y,z
loop_
_atom_site_type_symbol
_atom_site_label
_atom_site_fract_x
_atom_site_fract_y
_atom_site_fract_z
Si Si1 0.387190 0.712216 0.013060
Si Si2 0.429350 0.699904 0.827844
Si Si3 0.373795 0.707916 0.154905
Si Si4 0.878640 0.800746 0.900059
Si Si5 0.856097 0.699201 0.255851
Si Si6 0.272333 0.297598 0.451034
Si Si7 0.984353 0.287790 0.609168
Si Si8 0.890372 0.710193 0.061568
O O1 0.395290 0.500000 0.017715
O O2 0.329089 0.768418 0.047066
O O3 0.679474 0.773606 0.191422
O O4 0.154260 0.763850 0.795259
O O5 0.371947 0.500000 0.770022
O O6 0.153045 0.773236 0.663344
O O7 0.641945 0.698945 0.041393
O O8 0.602374 0.772931 0.888867
O O9 0.385739 0.500000 0.161130
O O10 0.672979 0.768856 0.389507
O O11 0.132509 0.753512 0.033804
O O12 0.594963 0.711190 0.680050
O O13 0.820664 0.000000 0.849695
O O14 0.938137 0.765656 0.020019
O O15 0.914744 0.500000 0.316793
O O16 0.127602 0.777335 0.415315
O O17 0.197363 0.500000 0.399812
O O18 0.125741 0.230425 0.280041
O O19 0.989769 0.500000 0.610980
O O20 0.882569 0.500000 0.055917
#
# Coordination Sequence:
#
# PCOD9130925 Si02
#       8
#     2   2   2   2   2   2   2   2
#     4   8  14  26  47  77 107 127 151 201 264 314
#     4   7  11  23  47  80 109 126 149 197 262 320
#     4  10  20  33  50  72  96 131 181 222 251 294
#     4  12  26  39  50  70 106 149 187 222 261 308
#     4   7  11  23  47  80 109 126 149 197 262 320
#     4   9  18  35  60  85 107 134 171 217 265 313
#     4   8  14  26  47  77 107 127 151 201 264 314
#     4   9  18  35  60  85 107 134 171 217 265 313
#
# _framework density 21.105826
#
# number of rings (size 3 to 8) (size 9 to 14) (size 15 to 20)
#    0.000    3.250    0.000    4.125    0.000    2.500 
#    0.000    6.250    0.000    3.000    0.000    3.500 
#    0.000    0.000    0.000    0.000    0.000    0.000 
#
# Total GULP energy -89188.620460 kJ/mol
# GULP energy per Si atom -5574.288779 kJ/mol
# Density = 2.105779 g / cm^3
# Si number density = 21.105826 Si / 1000 Ang^3
#
#
#
# Elastic Constant Matrix: (Units=GPa)
#
#
# Indices 1 2 3 4 5 6 
#
# 1 191.4096 -4.2401 78.6957 0.0000 25.8666 0.0000
# 2 -4.2401 25.8542 -8.2241 0.0000 -0.6345 0.0000
# 3 78.6957 -8.2241 114.2486 0.0000 22.2020 0.0000
# 4 0.0000 0.0000 0.0000 -10.5766 0.0000 -37.5526
# 5 25.8666 -0.6345 22.2020 0.0000 34.5829 0.0000
# 6 0.0000 0.0000 0.0000 -37.5526 0.0000 -6.8112
#
#
#
# Elastic Compliance Matrix: (Units=1/GPa)
#
#
# Indices 1 2 3 4 5 6 
#
# 1 0.007493 -0.000323 -0.004678 0.000000 -0.002607 0.000000
# 2 -0.000323 0.039647 0.003300 0.000000 -0.001149 0.000000
# 3 -0.004678 0.003300 0.013163 0.000000 -0.004891 0.000000
# 4 0.000000 0.000000 0.000000 0.005090 0.000000 -0.028063
# 5 -0.002607 -0.001149 -0.004891 0.000000 0.033985 0.000000
# 6 0.000000 0.000000 0.000000 -0.028063 0.000000 0.007904
#
#
# Mechanical properties :
#
#
# Convention : Reuss Voigt Hill
#
# Bulk Modulus (GPa) = 17.57447 51.55283 34.56365
# Shear Modulus (GPa) = 38.56530 21.12441 29.84485
#
# Velocity S-wave (km/s) = 4.27925 3.16710 3.76448
# Velocity P-wave (km/s) = 5.72372 6.15248 5.94196
#
# Compressibility (1/GPa) = 0.05690071
#
# Stress axis : x y z
#
# Youngs Moduli (GPa) = 133.46256 25.22266 75.97086
#
# Poissons Ratio (x) = 0.00815 0.35537
# Poissons Ratio (y) = 0.04312 -0.25069
# Poissons Ratio (z) = 0.62430 -0.08323
#
# Static dielectric constant tensor:
#      x y z
#    x 1.779010 0.000000 0.023230 
#    y 0.000000 1.770290 0.000000 
#    z 0.023230 0.000000 1.787440 
# 
# From -- ./inp_files/5942.got.cif
#   From: 2010.05.17/outbox.cif.g08.bks.cpg/sg6_3_cif.got.tgz:5942.got - 2010.06.03 19:42:10.
