data_PCOD9130904
_publ_section_title
;
Structure prediction by ZEFSAII (Michael W. Deem and Ramdas Pophale) SiO2 
 PCOD9130904
Probable space group: P M
;
_chemical_formula_sum "Si O2"
_cell_formula_units_Z 14
_cell_length_a 6.695837
_cell_length_b 17.779617
_cell_length_c 9.921403
_cell_angle_alpha 90.000000
_cell_angle_beta 29.819638
_cell_angle_gamma 90.000000
_cell_volume 587.345721
_symmetry_space_group_name_H-M "P M"
_symmetry_group_IT_number 6
_symmetry_cell_setting 'monoclinic'
loop_
_space_group_symop_operation_xyz
x,y,z
x,-y,z
loop_
_atom_site_type_symbol
_atom_site_label
_atom_site_fract_x
_atom_site_fract_y
_atom_site_fract_z
Si Si1 0.662020 0.918735 0.116450
Si Si2 0.839992 0.500000 0.045261
Si Si3 0.748506 0.085156 0.746130
Si Si4 0.699101 0.232649 0.218122
Si Si5 0.786565 0.335603 0.404471
Si Si6 0.763269 0.747018 0.706096
Si Si7 0.742848 0.500000 0.418173
Si Si8 0.861486 0.348317 0.889725
O O1 0.816231 0.852204 0.118783
O O2 0.178746 0.917665 0.417919
O O3 0.807240 0.000000 0.076699
O O4 0.779300 0.909596 0.891494
O O5 0.329859 0.500000 0.747870
O O6 0.707869 0.424805 0.046378
O O7 0.693042 0.500000 0.284502
O O8 0.582528 0.168533 0.806402
O O9 0.571282 0.000000 0.826727
O O10 0.903846 0.273844 0.223695
O O11 0.214041 0.235454 0.500325
O O12 0.807139 0.281377 0.026074
O O13 0.956094 0.419958 0.321398
O O14 0.342612 0.357069 0.604130
O O15 0.773344 0.292027 0.554063
O O16 0.649019 0.681372 0.879595
#
# Coordination Sequence:
#
# PCOD9130904 Si02
#       8
#     2   1   2   2   2   2   1   2
#     4   9  17  31  55  82 112 149 190 230 280 341
#     4  10  20  37  61  80 115 156 190 234 288 345
#     4   9  17  32  54  81 113 150 186 231 285 338
#     4  10  19  36  58  83 111 151 189 236 283 339
#     4  10  22  37  58  81 118 150 190 238 289 338
#     4  10  21  36  57  88 111 150 194 238 280 344
#     4  10  20  39  57  82 115 156 188 232 296 343
#     4  10  20  37  58  80 113 150 192 232 287 339
#
# _framework density 23.836046
#
# number of rings (size 3 to 8) (size 9 to 14) (size 15 to 20)
#    0.000    2.286    2.857    0.000    0.000    1.714 
#    0.000    2.143    0.000    1.714    0.000    0.000 
#    0.000    0.000    0.000    0.000    0.000    0.000 
#
# Total GULP energy -78053.419727 kJ/mol
# GULP energy per Si atom -5575.244266 kJ/mol
# Density = 2.378179 g / cm^3
# Si number density = 23.836046 Si / 1000 Ang^3
#
#
#
# Elastic Constant Matrix: (Units=GPa)
#
#
# Indices 1 2 3 4 5 6 
#
# 1 110.2749 47.7771 18.2208 0.0000 13.3012 0.0000
# 2 47.7771 248.3433 20.1172 0.0000 15.5325 0.0000
# 3 18.2208 20.1172 50.6455 0.0000 17.3455 0.0000
# 4 0.0000 0.0000 0.0000 41.5903 0.0000 11.5529
# 5 13.3012 15.5325 17.3455 0.0000 44.2569 0.0000
# 6 0.0000 0.0000 0.0000 11.5529 0.0000 31.9907
#
#
#
# Elastic Compliance Matrix: (Units=1/GPa)
#
#
# Indices 1 2 3 4 5 6 
#
# 1 0.010411 -0.001701 -0.002544 0.000000 -0.001535 0.000000
# 2 -0.001701 0.004472 -0.000926 0.000000 -0.000695 0.000000
# 3 -0.002544 -0.000926 0.023858 0.000000 -0.008261 0.000000
# 4 0.000000 0.000000 0.000000 0.026725 0.000000 -0.009651
# 5 -0.001535 -0.000695 -0.008261 0.000000 0.026538 0.000000
# 6 0.000000 0.000000 0.000000 -0.009651 0.000000 0.034744
#
#
# Mechanical properties :
#
#
# Convention : Reuss Voigt Hill
#
# Bulk Modulus (GPa) = 35.21404 64.61043 49.91223
# Shear Modulus (GPa) = 34.11640 45.11083 39.61361
#
# Velocity S-wave (km/s) = 3.78735 4.35506 4.08109
# Velocity P-wave (km/s) = 5.82502 7.24250 6.57209
#
# Compressibility (1/GPa) = 0.02839776
#
# Stress axis : x y z
#
# Youngs Moduli (GPa) = 96.05584 223.59260 41.91532
#
# Poissons Ratio (x) = 0.38027 0.10664
# Poissons Ratio (y) = 0.16337 0.03883
# Poissons Ratio (z) = 0.24439 0.20715
#
# Static dielectric constant tensor:
#      x y z
#    x 1.913300 0.000000 -0.131940 
#    y 0.000000 2.001380 0.000000 
#    z -0.131940 0.000000 2.053680 
# 
# From -- ./inp_files/436.got.cif
#   From: 2010.05.17/outbox.cif.g08.bks.cpg/sg6_1_cif.got.tgz:436.got - 2010.06.03 19:42:10.
