data_PCOD9130774
_publ_section_title
;
Structure prediction by ZEFSAII (Michael W. Deem and Ramdas Pophale) SiO2 
 PCOD9130774
Probable space group: P M
;
_chemical_formula_sum "Si O2"
_cell_formula_units_Z 16
_cell_length_a 12.063427
_cell_length_b 8.068271
_cell_length_c 16.300953
_cell_angle_alpha 90.000000
_cell_angle_beta 155.403546
_cell_angle_gamma 90.000000
_cell_volume 660.376839
_symmetry_space_group_name_H-M "P M"
_symmetry_group_IT_number 6
_symmetry_cell_setting 'monoclinic'
loop_
_space_group_symop_operation_xyz
x,y,z
x,-y,z
loop_
_atom_site_type_symbol
_atom_site_label
_atom_site_fract_x
_atom_site_fract_y
_atom_site_fract_z
Si Si1 0.292300 0.801600 0.483590
Si Si2 0.553095 0.181881 0.000551
Si Si3 0.942467 0.313863 0.386538
Si Si4 0.829570 0.694133 0.045000
Si Si5 0.592033 0.689333 0.296121
Si Si6 0.702877 0.194458 0.638088
Si Si7 0.244015 0.296063 0.200504
Si Si8 0.055528 0.681771 0.741568
O O1 0.575269 0.742386 0.637291
O O2 0.200565 0.758246 0.513825
O O3 0.070970 0.725640 0.272787
O O4 0.288901 0.000000 0.471832
O O5 0.725925 0.311102 0.168051
O O6 0.583634 0.218815 0.924962
O O7 0.669742 0.000000 0.094395
O O8 0.261546 0.192045 0.841296
O O9 0.010040 0.500000 0.459737
O O10 0.767484 0.230616 0.341501
O O11 0.773602 0.500000 0.000925
O O12 0.958707 0.753304 0.046490
O O13 0.528248 0.500000 0.226393
O O14 0.332492 0.758668 0.168707
O O15 0.802014 0.679895 0.511688
O O16 0.461332 0.222487 0.410124
O O17 0.951804 0.281686 0.762601
O O18 0.761127 0.000000 0.682781
O O19 0.260134 0.500000 0.214111
O O20 0.178241 0.500000 0.820495
#
# Coordination Sequence:
#
# PCOD9130774 Si02
#       8
#     2   2   2   2   2   2   2   2
#     4   9  16  26  41  64  94 122 150 188 230 269
#     4  11  21  32  46  68  98 126 154 190 232 276
#     4  10  18  30  49  71  95 124 158 191 226 272
#     4   9  15  25  44  67  89 117 154 192 229 269
#     4   8  16  30  49  72  95 119 151 193 233 270
#     4   9  16  26  42  66  93 119 149 188 232 273
#     4   8  14  26  44  66  91 118 151 191 230 268
#     4  10  19  33  51  70  93 121 155 193 232 275
#
# _framework density 24.228591000000002
#
# number of rings (size 3 to 8) (size 9 to 14) (size 15 to 20)
#    0.000    2.750    0.000    5.250    0.000    2.000 
#    0.000    6.250    0.000    1.500    0.000    3.500 
#    0.000    0.000    0.000    0.000    0.000    0.000 
#
# Total GULP energy -89163.748481 kJ/mol
# GULP energy per Si atom -5572.734280 kJ/mol
# Density = 2.417345 g / cm^3
# Si number density = 24.228591 Si / 1000 Ang^3
#
#
#
# Elastic Constant Matrix: (Units=GPa)
#
#
# Indices 1 2 3 4 5 6 
#
# 1 241.7244 12.4228 36.6155 0.0000 55.5692 0.0000
# 2 12.4228 51.1662 -7.0058 0.0000 11.9163 0.0000
# 3 36.6155 -7.0058 33.1726 0.0000 -5.6064 0.0000
# 4 0.0000 0.0000 0.0000 49.0993 0.0000 22.4215
# 5 55.5692 11.9163 -5.6064 0.0000 47.7010 0.0000
# 6 0.0000 0.0000 0.0000 22.4215 0.0000 14.2287
#
#
#
# Elastic Compliance Matrix: (Units=1/GPa)
#
#
# Indices 1 2 3 4 5 6 
#
# 1 0.008405 -0.001064 -0.011337 0.000000 -0.010858 0.000000
# 2 -0.001064 0.021311 0.005086 0.000000 -0.003486 0.000000
# 3 -0.011337 0.005086 0.046678 0.000000 0.017423 0.000000
# 4 0.000000 0.000000 0.000000 0.072634 0.000000 -0.114456
# 5 -0.010858 -0.003486 0.017423 0.000000 0.036532 0.000000
# 6 0.000000 0.000000 0.000000 -0.114456 0.000000 0.250640
#
#
# Mechanical properties :
#
#
# Convention : Reuss Voigt Hill
#
# Bulk Modulus (GPa) = 16.19084 45.56980 30.88032
# Shear Modulus (GPa) = 10.60630 41.14118 25.87374
#
# Velocity S-wave (km/s) = 2.09454 4.12520 3.27142
# Velocity P-wave (km/s) = 3.54210 6.44506 5.20026
#
# Compressibility (1/GPa) = 0.06176331
#
# Stress axis : x y z
#
# Youngs Moduli (GPa) = 118.97500 46.92442 21.42331
#
# Poissons Ratio (x) = 0.04994 0.24288
# Poissons Ratio (y) = 0.12662 -0.10896
# Poissons Ratio (z) = 1.34886 -0.23867
#
# Static dielectric constant tensor:
#      x y z
#    x 2.047560 0.000000 0.048130 
#    y 0.000000 1.879520 0.000000 
#    z 0.048130 0.000000 1.990920 
# 
# From -- ./inp_files/4962.got.cif
#   From: 2010.05.17/outbox.cif.g08.bks.cpg/sg6_3_cif.got.tgz:4962.got - 2010.06.03 19:42:10.
