data_PCOD9130446
_publ_section_title
;
Structure prediction by ZEFSAII (Michael W. Deem and Ramdas Pophale) SiO2 
 PCOD9130446
Probable space group: C 2
;
_chemical_formula_sum "Si O2"
_cell_formula_units_Z 20
_cell_length_a 10.465278
_cell_length_b 9.621464
_cell_length_c 16.963151
_cell_angle_alpha 90.000000
_cell_angle_beta 149.980366
_cell_angle_gamma 90.000000
_cell_volume 854.527667
_symmetry_space_group_name_H-M "C 2"
_symmetry_group_IT_number 5
_symmetry_cell_setting 'monoclinic'
loop_
_space_group_symop_operation_xyz
x,y,z
-x,y,-z
1/2+x,1/2+y,z
1/2-x,1/2+y,-z
loop_
_atom_site_type_symbol
_atom_site_label
_atom_site_fract_x
_atom_site_fract_y
_atom_site_fract_z
Si Si1 0.728913 0.708540 0.284333
Si Si2 0.000000 0.958744 0.500000
Si Si3 0.882230 0.654263 0.642073
Si Si4 0.524614 0.439325 0.240595
Si Si5 0.248897 0.585677 0.975847
Si Si6 0.000000 0.530844 0.000000
O O1 0.784611 0.855644 0.352347
O O2 0.972019 0.673600 0.361191
O O3 0.675083 0.585014 0.318661
O O4 0.527808 0.700695 0.905082
O O5 0.366222 0.558578 0.491876
O O6 0.088749 0.585896 0.811992
O O7 0.828631 0.804595 0.653032
O O8 0.265123 0.448474 0.153462
O O9 0.407507 0.448001 0.088386
O O10 0.066417 0.610170 0.954436
#
# Coordination Sequence:
#
# PCOD9130446 Si02
#       6
#     4   2   4   4   4   2
#     4   9  25  47  64 100 143 178 224 288 337 403
#     4  12  30  42  66 104 144 182 228 270 360 402
#     4  12  24  43  74 102 133 182 238 274 338 415
#     4   8  21  39  69  97 133 177 215 281 346 376
#     4   8  20  39  73 104 124 181 228 281 338 390
#     4   6  16  36  64 104 130 166 206 292 334 384
#
# _framework density 23.404741999999999
#
# number of rings (size 3 to 8) (size 9 to 14) (size 15 to 20)
#    2.400    0.000    0.000    0.600    8.400    4.000 
#   10.800    0.000    0.000    0.000    0.000    0.000 
#    0.000    0.000    0.000    0.000    0.000    0.000 
#
# Total GULP energy -55691.314427 kJ/mol
# GULP energy per Si atom -5569.131443 kJ/mol
# Density = 2.335147 g / cm^3
# Si number density = 23.404742 Si / 1000 Ang^3
#
#
#
# Elastic Constant Matrix: (Units=GPa)
#
#
# Indices 1 2 3 4 5 6 
#
# 1 72.8557 51.5996 -3.8885 0.0036 12.7254 0.0015
# 2 51.5996 149.5490 37.1346 0.0044 25.6085 0.0014
# 3 -3.8885 37.1346 63.4183 0.0068 0.2951 0.0031
# 4 0.0036 0.0044 0.0068 35.0659 0.0033 17.3460
# 5 12.7254 25.6085 0.2951 0.0033 25.8938 0.0014
# 6 0.0015 0.0014 0.0031 17.3460 0.0014 39.7072
#
#
#
# Elastic Compliance Matrix: (Units=1/GPa)
#
#
# Indices 1 2 3 4 5 6 
#
# 1 0.020117 -0.008092 0.005981 -0.000002 -0.001952 0.000000
# 2 -0.008092 0.012981 -0.008056 0.000002 -0.008769 0.000000
# 3 0.005981 -0.008056 0.020830 -0.000004 0.004791 0.000000
# 4 -0.000002 0.000002 -0.000004 0.036379 -0.000004 -0.015892
# 5 -0.001952 -0.008769 0.004791 -0.000004 0.048196 0.000000
# 6 0.000000 0.000000 0.000000 -0.015892 0.000000 0.032127
#
#
# Mechanical properties :
#
#
# Convention : Reuss Voigt Hill
#
# Bulk Modulus (GPa) = 29.76809 50.61271 40.19040
# Shear Modulus (GPa) = 24.73255 33.53186 29.13221
#
# Velocity S-wave (km/s) = 3.25427 3.78920 3.53188
# Velocity P-wave (km/s) = 5.18332 6.38874 5.81734
#
# Compressibility (1/GPa) = 0.03359302
#
# Stress axis : x y z
#
# Youngs Moduli (GPa) = 49.70941 77.03652 48.00747
#
# Poissons Ratio (x) = 0.62337 -0.28712
# Poissons Ratio (y) = 0.40224 0.38676
# Poissons Ratio (z) = -0.29730 0.62063
#
# Static dielectric constant tensor:
#      x y z
#    x 1.850850 0.000000 -0.004620 
#    y 0.000000 1.926320 0.000000 
#    z -0.004620 0.000000 1.950920 
# 
# From -- ./inp_files/60396.got.cif
#   From: 2010.05.17/outbox.cif.g08.bks.cpg/sg5_31_cif.got.tgz:60396.got - 2010.06.03 18:56:24.
