data_PCOD9130897
_publ_section_title
;
Structure prediction by ZEFSAII (Michael W. Deem and Ramdas Pophale) SiO2 
 PCOD9130897
Probable space group: P M
;
_chemical_formula_sum "Si O2"
_cell_formula_units_Z 16
_cell_length_a 13.031482
_cell_length_b 8.199590
_cell_length_c 12.916476
_cell_angle_alpha 90.000000
_cell_angle_beta 35.117872
_cell_angle_gamma 90.000000
_cell_volume 793.952435
_symmetry_space_group_name_H-M "P M"
_symmetry_group_IT_number 6
_symmetry_cell_setting 'monoclinic'
loop_
_space_group_symop_operation_xyz
x,y,z
x,-y,z
loop_
_atom_site_type_symbol
_atom_site_label
_atom_site_fract_x
_atom_site_fract_y
_atom_site_fract_z
Si Si1 0.879050 0.310916 0.075450
Si Si2 0.398074 0.800377 0.925799
Si Si3 0.265410 0.689668 0.441997
Si Si4 0.773565 0.800935 0.710761
Si Si5 0.160312 0.802979 0.312564
Si Si6 0.273246 0.803116 0.803765
Si Si7 0.503812 0.191284 0.418687
Si Si8 0.895656 0.190765 0.831710
O O1 0.862584 0.500000 0.113347
O O2 0.712568 0.217902 0.262235
O O3 0.868600 0.284262 0.960342
O O4 0.069542 0.247035 0.955701
O O5 0.593051 0.747561 0.804186
O O6 0.349959 0.745452 0.850231
O O7 0.399484 0.000000 0.924008
O O8 0.249298 0.749343 0.132203
O O9 0.217674 0.500000 0.485794
O O10 0.276847 0.744322 0.313948
O O11 0.438015 0.722025 0.368592
O O12 0.102274 0.790059 0.627364
O O13 0.787015 0.751543 0.820307
O O14 0.956779 0.748755 0.502884
O O15 0.775083 0.000000 0.710230
O O16 0.159784 0.000000 0.314205
O O17 0.389702 0.745347 0.609968
O O18 0.282289 0.000000 0.796170
O O19 0.467187 0.000000 0.436331
O O20 0.856471 0.000000 0.882803
#
# Coordination Sequence:
#
# PCOD9130897 Si02
#       8
#     2   2   2   2   2   2   2   2
#     4  12  25  39  59  88 123 160 202 252 312 367
#     4   9  18  34  59  88 113 148 199 252 298 347
#     4  11  21  35  57  87 125 160 196 245 305 362
#     4   8  16  30  51  84 116 144 185 238 290 346
#     4   9  18  33  56  84 117 154 192 241 299 356
#     4  10  22  41  64  89 120 158 206 256 302 359
#     4  11  23  39  61  87 119 161 208 252 302 362
#     4  10  19  35  59  87 121 159 200 244 302 363
#
# _framework density 20.152341
#
# number of rings (size 3 to 8) (size 9 to 14) (size 15 to 20)
#    0.000    2.000    1.250    3.750    1.750    1.500 
#    0.000    4.375    0.000    3.750    0.000    0.000 
#    0.000    0.000    0.000    0.000    0.000    0.000 
#
# Total GULP energy -89376.342885 kJ/mol
# GULP energy per Si atom -5586.021430 kJ/mol
# Density = 2.010647 g / cm^3
# Si number density = 20.152341 Si / 1000 Ang^3
#
#
#
# Elastic Constant Matrix: (Units=GPa)
#
#
# Indices 1 2 3 4 5 6 
#
# 1 142.1930 2.1429 52.1667 0.0000 -11.5775 0.0000
# 2 2.1429 16.8831 -5.8286 0.0000 3.9316 0.0000
# 3 52.1667 -5.8286 56.0999 0.0000 -11.7264 0.0000
# 4 0.0000 0.0000 0.0000 -6.4803 0.0000 -4.8299
# 5 -11.5775 3.9316 -11.7264 0.0000 24.0093 0.0000
# 6 0.0000 0.0000 0.0000 -4.8299 0.0000 -13.3006
#
#
#
# Elastic Compliance Matrix: (Units=1/GPa)
#
#
# Indices 1 2 3 4 5 6 
#
# 1 0.011112 -0.005333 -0.010674 0.000000 0.001018 0.000000
# 2 -0.005333 0.065310 0.009991 0.000000 -0.008386 0.000000
# 3 -0.010674 0.009991 0.030483 0.000000 0.008105 0.000000
# 4 0.000000 0.000000 0.000000 -0.211577 0.000000 0.076830
# 5 0.001018 -0.008386 0.008105 0.000000 0.047473 0.000000
# 6 0.000000 0.000000 0.000000 0.076830 0.000000 -0.103084
#
#
# Mechanical properties :
#
#
# Convention : Reuss Voigt Hill
#
# Bulk Modulus (GPa) = 10.54027 34.68201 22.61114
# Shear Modulus (GPa) = -42.87183 11.95868 -15.45657
#
# Velocity S-wave (km/s) = -4.61736 2.43865 -2.77246
# Velocity P-wave (km/s) = 4.81509 5.01763 0.99789
#
# Compressibility (1/GPa) = 0.09487420
#
# Stress axis : x y z
#
# Youngs Moduli (GPa) = 89.99269 15.31163 32.80478
#
# Poissons Ratio (x) = 0.08165 0.35016
# Poissons Ratio (y) = 0.47989 -0.32776
# Poissons Ratio (z) = 0.96060 -0.15298
#
# Static dielectric constant tensor:
#      x y z
#    x 1.697550 0.000000 -0.004670 
#    y 0.000000 1.681530 0.000000 
#    z -0.004670 0.000000 1.711340 
# 
# From -- ./inp_files/5024.got.cif
#   From: 2010.05.17/outbox.cif.g08.bks.cpg/sg6_3_cif.got.tgz:5024.got - 2010.06.03 19:42:10.
