data_PCOD9130823
_publ_section_title
;
Structure prediction by ZEFSAII (Michael W. Deem and Ramdas Pophale) SiO2 
 PCOD9130823
Probable space group: P M
;
_chemical_formula_sum "Si O2"
_cell_formula_units_Z 16
_cell_length_a 15.986020
_cell_length_b 7.579030
_cell_length_c 7.360483
_cell_angle_alpha 90.000000
_cell_angle_beta 134.754757
_cell_angle_gamma 90.000000
_cell_volume 633.280725
_symmetry_space_group_name_H-M "P M"
_symmetry_group_IT_number 6
_symmetry_cell_setting 'monoclinic'
loop_
_space_group_symop_operation_xyz
x,y,z
x,-y,z
loop_
_atom_site_type_symbol
_atom_site_label
_atom_site_fract_x
_atom_site_fract_y
_atom_site_fract_z
Si Si1 0.262930 0.301246 0.155140
Si Si2 0.014849 0.717109 0.832670
Si Si3 0.518831 0.306186 0.510115
Si Si4 0.516490 0.203620 0.108416
Si Si5 0.263592 0.784611 0.566270
Si Si6 0.772926 0.209941 0.854380
Si Si7 0.762614 0.701106 0.413632
Si Si8 0.020535 0.796885 0.272530
O O1 0.271696 0.500000 0.091582
O O2 0.391374 0.212354 0.331803
O O3 0.251296 0.305451 0.354170
O O4 0.134006 0.225079 0.911049
O O5 0.015127 0.500000 0.839284
O O6 0.890518 0.776124 0.556688
O O7 0.017308 0.786435 0.044680
O O8 0.505919 0.500000 0.574469
O O9 0.647695 0.236870 0.760822
O O10 0.530016 0.314496 0.310240
O O11 0.393894 0.255779 0.832833
O O12 0.507059 0.000000 0.151437
O O13 0.636071 0.216584 0.175637
O O14 0.256916 0.000000 0.537358
O O15 0.151161 0.725276 0.513564
O O16 0.768799 0.289725 0.644845
O O17 0.893076 0.280075 0.130150
O O18 0.785387 0.000000 0.847951
O O19 0.757536 0.500000 0.345762
O O20 0.020947 0.000000 0.331171
#
# Coordination Sequence:
#
# PCOD9130823 Si02
#       8
#     2   2   2   2   2   2   2   2
#     4   9  18  31  47  67  90 116 146 181 220 261
#     4   8  14  25  41  62  85 109 140 179 219 255
#     4  10  19  30  45  66  92 119 147 180 217 259
#     4  10  19  30  45  66  92 119 147 180 217 259
#     4   9  18  31  47  67  90 116 146 181 220 261
#     4   9  15  24  41  63  86 112 143 180 219 257
#     4   9  15  24  41  63  86 112 143 180 219 257
#     4   8  14  25  41  62  85 109 140 179 219 255
#
# _framework density 25.265255
#
# number of rings (size 3 to 8) (size 9 to 14) (size 15 to 20)
#    0.000    3.000    0.000    3.000    0.000    3.000 
#    0.000    0.000    0.000    1.500    0.000    7.000 
#    0.000    0.000    0.000    0.000    0.000    0.000 
#
# Total GULP energy -89114.133544 kJ/mol
# GULP energy per Si atom -5569.633347 kJ/mol
# Density = 2.520775 g / cm^3
# Si number density = 25.265255 Si / 1000 Ang^3
#
#
#
# Elastic Constant Matrix: (Units=GPa)
#
#
# Indices 1 2 3 4 5 6 
#
# 1 80.3226 -0.3174 64.3962 0.0000 34.5772 0.0000
# 2 -0.3174 72.8643 10.5436 0.0000 6.8071 0.0000
# 3 64.3962 10.5436 185.8439 0.0000 94.2185 0.0000
# 4 0.0000 0.0000 0.0000 2.1535 0.0000 10.0318
# 5 34.5772 6.8071 94.2185 0.0000 77.5235 0.0000
# 6 0.0000 0.0000 0.0000 10.0318 0.0000 4.4881
#
#
#
# Elastic Compliance Matrix: (Units=1/GPa)
#
#
# Indices 1 2 3 4 5 6 
#
# 1 0.017345 0.000977 -0.005471 0.000000 -0.001173 0.000000
# 2 0.000977 0.013907 -0.000749 0.000000 -0.000746 0.000000
# 3 -0.005471 -0.000749 0.015758 0.000000 -0.016646 0.000000
# 4 0.000000 0.000000 0.000000 -0.049335 0.000000 0.110274
# 5 -0.001173 -0.000746 -0.016646 0.000000 0.033718 0.000000
# 6 0.000000 0.000000 0.000000 0.110274 0.000000 -0.023672
#
#
# Mechanical properties :
#
#
# Convention : Reuss Voigt Hill
#
# Bulk Modulus (GPa) = 27.37998 54.25285 40.81641
# Shear Modulus (GPa) = 164.57607 34.46025 99.51816
#
# Velocity S-wave (km/s) = 8.07965 3.69716 6.28290
# Velocity P-wave (km/s) = 9.89452 6.30438 8.29598
#
# Compressibility (1/GPa) = 0.03652304
#
# Stress axis : x y z
#
# Youngs Moduli (GPa) = 57.65475 71.90877 63.45977
#
# Poissons Ratio (x) = -0.07024 0.34718
# Poissons Ratio (y) = -0.05632 0.04753
# Poissons Ratio (z) = 0.31542 0.05386
#
# Static dielectric constant tensor:
#      x y z
#    x 2.046550 0.000000 0.083700 
#    y 0.000000 2.003730 0.000000 
#    z 0.083700 0.000000 2.165860 
# 
# From -- ./inp_files/4908.got.cif
#   From: 2010.05.17/outbox.cif.g08.bks.cpg/sg6_3_cif.got.tgz:4908.got - 2010.06.03 19:42:10.
