data_PCOD9130929
_publ_section_title
;
Structure prediction by ZEFSAII (Michael W. Deem and Ramdas Pophale) SiO2 
 PCOD9130929
Probable space group: P M
;
_chemical_formula_sum "Si O2"
_cell_formula_units_Z 16
_cell_length_a 5.250272
_cell_length_b 9.615747
_cell_length_c 14.770583
_cell_angle_alpha 90.000000
_cell_angle_beta 98.603256
_cell_angle_gamma 90.000000
_cell_volume 737.306453
_symmetry_space_group_name_H-M "P M"
_symmetry_group_IT_number 6
_symmetry_cell_setting 'monoclinic'
loop_
_space_group_symop_operation_xyz
x,y,z
x,-y,z
loop_
_atom_site_type_symbol
_atom_site_label
_atom_site_fract_x
_atom_site_fract_y
_atom_site_fract_z
Si Si1 0.752020 0.167229 0.354210
Si Si2 0.070169 0.348902 0.717373
Si Si3 0.706850 0.152442 0.620519
Si Si4 0.508595 0.150589 0.811900
Si Si5 0.259638 0.334132 0.072389
Si Si6 0.292279 0.831614 0.453444
Si Si7 0.784660 0.169837 0.141028
Si Si8 0.859297 0.352213 0.902103
O O1 0.487406 0.218366 0.385030
O O2 0.779301 0.191259 0.249311
O O3 0.004689 0.220297 0.420570
O O4 0.744164 0.000000 0.364200
O O5 0.165453 0.500000 0.694454
O O6 0.289305 0.254681 0.770812
O O7 0.922090 0.269556 0.630307
O O8 0.889458 0.366345 0.795976
O O9 0.657306 0.134119 0.724459
O O10 0.448563 0.194527 0.554402
O O11 0.791774 0.000000 0.589373
O O12 0.683799 0.216943 0.899009
O O13 0.405856 0.000000 0.833376
O O14 0.283261 0.500000 0.099199
O O15 0.527818 0.250872 0.093152
O O16 0.039403 0.248194 0.116390
O O17 0.131440 0.334621 0.965463
O O18 0.274919 0.000000 0.447082
O O19 0.785081 0.000000 0.124130
O O20 0.747404 0.500000 0.930811
#
# Coordination Sequence:
#
# PCOD9130929 Si02
#       8
#     2   2   2   2   2   2   2   2
#     4   9  18  33  56  87 118 150 190 243 301 357
#     4  10  20  35  55  76 108 154 194 231 283 350
#     4   9  19  33  52  81 111 143 189 242 288 333
#     4  10  20  33  53  82 114 145 185 241 295 339
#     4  11  24  42  65  92 124 166 210 252 308 380
#     4   9  17  30  54  85 116 150 191 239 294 353
#     4  11  23  41  65  96 127 158 204 262 316 367
#     4   9  21  39  56  77 108 152 201 238 283 355
#
# _framework density 21.700613000000001
#
# number of rings (size 3 to 8) (size 9 to 14) (size 15 to 20)
#    0.000    2.250    0.000    2.250    3.500    4.000 
#    0.000    0.000    0.000    4.500    0.000    0.000 
#    0.000    0.000    0.000    0.000    0.000    0.000 
#
# Total GULP energy -89173.998179 kJ/mol
# GULP energy per Si atom -5573.374886 kJ/mol
# Density = 2.165122 g / cm^3
# Si number density = 21.700613 Si / 1000 Ang^3
#
#
#
# Elastic Constant Matrix: (Units=GPa)
#
#
# Indices 1 2 3 4 5 6 
#
# 1 75.4232 39.1155 12.3258 0.0000 5.8499 0.0000
# 2 39.1155 142.7924 26.4380 0.0000 21.2646 0.0000
# 3 12.3258 26.4380 85.4620 0.0000 7.8054 0.0000
# 4 0.0000 0.0000 0.0000 40.0704 0.0000 21.0931
# 5 5.8499 21.2646 7.8054 0.0000 36.6494 0.0000
# 6 0.0000 0.0000 0.0000 21.0931 0.0000 30.9328
#
#
#
# Elastic Compliance Matrix: (Units=1/GPa)
#
#
# Indices 1 2 3 4 5 6 
#
# 1 0.015531 -0.004087 -0.000985 0.000000 0.000102 0.000000
# 2 -0.004087 0.009093 -0.001837 0.000000 -0.004232 0.000000
# 3 -0.000985 -0.001837 0.012544 0.000000 -0.001448 0.000000
# 4 0.000000 0.000000 0.000000 0.038930 0.000000 -0.026546
# 5 0.000102 -0.004232 -0.001448 0.000000 0.030033 0.000000
# 6 0.000000 0.000000 0.000000 -0.026546 0.000000 0.050430
#
#
# Mechanical properties :
#
#
# Convention : Reuss Voigt Hill
#
# Bulk Modulus (GPa) = 42.82701 51.04846 46.93774
# Shear Modulus (GPa) = 28.06409 36.58375 32.32392
#
# Velocity S-wave (km/s) = 3.60007 4.11035 3.86364
# Velocity P-wave (km/s) = 6.08760 6.78982 6.44828
#
# Compressibility (1/GPa) = 0.02334975
#
# Stress axis : x y z
#
# Youngs Moduli (GPa) = 64.38603 109.97175 79.72120
#
# Poissons Ratio (x) = 0.44950 0.07852
# Poissons Ratio (y) = 0.26317 0.14645
# Poissons Ratio (z) = 0.06341 0.20202
#
# Static dielectric constant tensor:
#      x y z
#    x 1.856480 0.000000 -0.052190 
#    y 0.000000 2.101280 0.000000 
#    z -0.052190 0.000000 1.797470 
# 
# From -- ./inp_files/1885.got.cif
#   From: 2010.05.17/outbox.cif.g08.bks.cpg/sg6_1_cif.got.tgz:1885.got - 2010.06.03 19:42:10.
