data_PCOD9130746
_publ_section_title
;
Structure prediction by ZEFSAII (Michael W. Deem and Ramdas Pophale) SiO2 
 PCOD9130746
Probable space group: C 2
;
_chemical_formula_sum "Si O2"
_cell_formula_units_Z 13
_cell_length_a 15.000000
_cell_length_b 12.000000
_cell_length_c 21.000000
_cell_angle_alpha 90.000000
_cell_angle_beta 160.000000
_cell_angle_gamma 90.000000
_cell_volume 1292.836142
_symmetry_space_group_name_H-M "C 2"
_symmetry_group_IT_number 5
_symmetry_cell_setting 'monoclinic'
loop_
_space_group_symop_operation_xyz
x,y,z
-x,y,-z
1/2+x,1/2+y,z
1/2-x,1/2+y,-z
loop_
_atom_site_type_symbol
_atom_site_label
_atom_site_fract_x
_atom_site_fract_y
_atom_site_fract_z
Si Si1 0.982241 0.037330 0.738078
Si Si2 0.500000 0.580373 0.000000
Si Si3 0.281107 0.059129 0.718654
Si Si4 0.210025 0.885197 0.784275
Si Si5 0.605919 0.234393 0.000693
Si Si6 0.467605 0.173133 0.401037
Si Si7 0.757407 0.968413 0.957887
O O1 0.695641 0.086897 0.535800
O O2 0.180803 0.136579 0.852797
O O3 0.062539 0.935630 0.746298
O O4 0.037103 0.004817 0.848710
O O5 0.299138 0.633619 0.812975
O O6 0.315052 0.517834 0.926818
O O7 0.000000 0.062405 0.500000
O O8 0.275315 0.981388 0.777192
O O9 0.486379 0.009312 0.805966
O O10 0.374811 0.179882 0.804560
O O11 0.024671 0.796431 0.624496
O O12 0.500000 0.842476 0.000000
O O13 0.725051 0.337024 0.042225
O O14 0.500000 0.263594 0.000000
O O15 0.500000 0.182420 0.500000
#
# Coordination Sequence:
#
# PCOD9130746 Si02
#       7
#     4   2   4   4   4   4   4
#     4  11  25  47  70 106 144 188 243 305 351 445
#     4  12  26  46  70 108 150 192 240 306 358 438
#     4  11  25  44  69 106 141 183 245 295 352 437
#     4  12  23  47  74 103 141 187 242 301 358 425
#     4  11  22  45  72  98 140 188 232 293 360 421
#     4  12  28  46  74 106 146 194 247 293 373 432
#     4  11  25  44  73 102 147 191 240 297 372 421
#
# _framework density 10.055412
#
# number of rings (size 3 to 8) (size 9 to 14) (size 15 to 20)
#    0.000    0.615    7.692    0.462    6.462    2.462 
#    2.769    0.000    0.000    0.000    0.000    0.000 
#    0.000    0.000    0.000    0.000    0.000    0.000 
#
# Total GULP energy -72533.798324 kJ/mol
# GULP energy per Si atom -5579.522948 kJ/mol
# Density = 1.003253 g / cm^3
# Si number density = 10.055412 Si / 1000 Ang^3
#
#
#
# Elastic Constant Matrix: (Units=GPa)
#
#
# Indices 1 2 3 4 5 6 
#
# 1 148.8347 50.5906 34.5319 0.0201 -17.9595 0.0203
# 2 50.5906 74.5089 44.5032 0.1648 -6.2387 0.0438
# 3 34.5319 44.5032 139.9538 0.1509 -19.8685 0.0372
# 4 0.0201 0.1648 0.1509 11.4496 -0.0499 -21.8808
# 5 -17.9595 -6.2387 -19.8685 -0.0499 25.1802 -0.0018
# 6 0.0203 0.0438 0.0372 -21.8808 -0.0018 21.3586
#
#
#
# Elastic Compliance Matrix: (Units=1/GPa)
#
#
# Indices 1 2 3 4 5 6 
#
# 1 0.009378 -0.006161 0.000426 -0.000101 0.005498 -0.000100
# 2 -0.006161 0.020615 -0.005557 0.000293 -0.003671 0.000273
# 3 0.000426 -0.005557 0.009746 0.000032 0.006618 0.000027
# 4 -0.000101 0.000293 0.000032 -0.091184 -0.000162 -0.093414
# 5 0.005498 -0.003671 0.006618 -0.000162 0.047947 -0.000171
# 6 -0.000100 0.000273 0.000027 -0.093414 -0.000171 -0.048878
#
#
# Mechanical properties :
#
#
# Convention : Reuss Voigt Hill
#
# Bulk Modulus (GPa) = 58.28913 69.17209 63.73061
# Shear Modulus (GPa) = -207.69725 27.17582 -90.26072
#
# Velocity S-wave (km/s) = -10.17352 3.68000 -6.70665
# Velocity P-wave (km/s) = 10.43810 7.24752 5.31165
#
# Compressibility (1/GPa) = 0.01715586
#
# Stress axis : x y z
#
# Youngs Moduli (GPa) = 106.63566 48.50764 102.60122
#
# Poissons Ratio (x) = 0.29886 -0.04370
# Poissons Ratio (y) = 0.65700 0.57012
# Poissons Ratio (z) = -0.04542 0.26954
#
# Static dielectric constant tensor:
#      x y z
#    x 1.677230 -0.000020 0.005380 
#    y -0.000020 1.763310 -0.000020 
#    z 0.005380 -0.000020 1.716220 
# 
# From -- ./inp_files/23538.got.cif
#   From: 2010.05.17/outbox.ucp.g08.bks.cvg/sg5_12_cif.got.tgz:23538.got - 2010.06.11 12:53:14.
