data_PCOD9130799
_publ_section_title
;
Structure prediction by ZEFSAII (Michael W. Deem and Ramdas Pophale) SiO2 
 PCOD9130799
Probable space group: P M
;
_chemical_formula_sum "Si O2"
_cell_formula_units_Z 16
_cell_length_a 8.732422
_cell_length_b 7.903339
_cell_length_c 13.306888
_cell_angle_alpha 90.000000
_cell_angle_beta 53.416632
_cell_angle_gamma 90.000000
_cell_volume 737.449428
_symmetry_space_group_name_H-M "P M"
_symmetry_group_IT_number 6
_symmetry_cell_setting 'monoclinic'
loop_
_space_group_symop_operation_xyz
x,y,z
x,-y,z
loop_
_atom_site_type_symbol
_atom_site_label
_atom_site_fract_x
_atom_site_fract_y
_atom_site_fract_z
Si Si1 0.608260 0.808894 0.459510
Si Si2 0.101708 0.809443 0.396985
Si Si3 0.884604 0.205375 0.070421
Si Si4 0.510497 0.301356 0.709127
Si Si5 0.034904 0.809226 0.210925
Si Si6 0.098645 0.299276 0.789709
Si Si7 0.476779 0.312459 0.312266
Si Si8 0.872713 0.299701 0.680850
O O1 0.624848 0.722204 0.559997
O O2 0.810805 0.821131 0.325321
O O3 0.486064 0.702640 0.429229
O O4 0.534752 0.000000 0.499848
O O5 0.321166 0.818775 0.339308
O O6 0.104893 0.724211 0.285585
O O7 0.994152 0.724250 0.531471
O O8 0.018815 0.000000 0.418719
O O9 0.034070 0.263551 0.099301
O O10 0.678778 0.275126 0.182238
O O11 0.880452 0.000000 0.074691
O O12 0.949646 0.268890 0.937385
O O13 0.483278 0.500000 0.742075
O O14 0.301323 0.231567 0.756515
O O15 0.657515 0.232611 0.737233
O O16 0.117807 0.000000 0.173384
O O17 0.130860 0.500000 0.760631
O O18 0.998978 0.231729 0.725724
O O19 0.413193 0.500000 0.310272
O O20 0.848987 0.500000 0.708844
#
# Coordination Sequence:
#
# PCOD9130799 Si02
#       8
#     2   2   2   2   2   2   2   2
#     4  10  18  33  56  84 115 149 189 237 290 347
#     4  11  20  35  58  88 121 151 189 240 300 357
#     4  10  21  41  62  82 110 150 199 246 294 350
#     4  10  20  35  57  85 119 160 199 242 298 354
#     4   8  17  33  55  81 113 144 178 233 291 341
#     4  10  22  40  58  80 117 160 203 248 293 348
#     4  11  22  36  56  85 117 153 192 237 298 361
#     4  10  21  37  58  87 124 159 197 245 296 356
#
# _framework density 21.696403
#
# number of rings (size 3 to 8) (size 9 to 14) (size 15 to 20)
#    0.000    2.000    1.250    3.750    0.000    2.000 
#    2.250    1.875    0.000    0.000    0.000    0.000 
#    0.000    0.000    0.000    0.000    0.000    0.000 
#
# Total GULP energy -89077.595807 kJ/mol
# GULP energy per Si atom -5567.349738 kJ/mol
# Density = 2.164702 g / cm^3
# Si number density = 21.696403 Si / 1000 Ang^3
#
#
#
# Elastic Constant Matrix: (Units=GPa)
#
#
# Indices 1 2 3 4 5 6 
#
# 1 151.5420 14.4968 51.7067 0.0000 23.5221 0.0000
# 2 14.4968 40.7206 -10.6784 0.0000 -0.2188 0.0000
# 3 51.7067 -10.6784 66.8076 0.0000 24.3738 0.0000
# 4 0.0000 0.0000 0.0000 23.7409 0.0000 -6.5471
# 5 23.5221 -0.2188 24.3738 0.0000 30.6415 0.0000
# 6 0.0000 0.0000 0.0000 -6.5471 0.0000 15.0287
#
#
#
# Elastic Compliance Matrix: (Units=1/GPa)
#
#
# Indices 1 2 3 4 5 6 
#
# 1 0.010209 -0.005843 -0.008399 0.000000 -0.001198 0.000000
# 2 -0.005843 0.029392 0.010577 0.000000 -0.003718 0.000000
# 3 -0.008399 0.010577 0.029275 0.000000 -0.016764 0.000000
# 4 0.000000 0.000000 0.000000 0.047873 0.000000 0.020855
# 5 -0.001198 -0.003718 -0.016764 0.000000 0.046864 0.000000
# 6 0.000000 0.000000 0.000000 0.020855 0.000000 0.075625
#
#
# Mechanical properties :
#
#
# Convention : Reuss Voigt Hill
#
# Bulk Modulus (GPa) = 16.24797 41.12450 28.68623
# Shear Modulus (GPa) = 18.72070 27.45188 23.08629
#
# Velocity S-wave (km/s) = 2.94061 3.56093 3.26553
# Velocity P-wave (km/s) = 4.36287 5.99188 5.24105
#
# Compressibility (1/GPa) = 0.06154616
#
# Stress axis : x y z
#
# Youngs Moduli (GPa) = 97.94836 34.02340 34.15839
#
# Poissons Ratio (x) = 0.19881 0.28688
# Poissons Ratio (y) = 0.57236 -0.36129
# Poissons Ratio (z) = 0.82262 -0.35986
#
# Static dielectric constant tensor:
#      x y z
#    x 1.884930 0.000000 0.031030 
#    y 0.000000 1.791760 0.000000 
#    z 0.031030 0.000000 1.785380 
# 
# From -- ./inp_files/3570.got.cif
#   From: 2010.05.17/outbox.cif.g08.bks.cpg/sg6_2_cif.got.tgz:3570.got - 2010.06.03 19:42:10.
