data_PCOD9130681
_publ_section_title
;
Structure prediction by ZEFSAII (Michael W. Deem and Ramdas Pophale) SiO2 
 PCOD9130681
Probable space group: C 2
;
_chemical_formula_sum "Si O2"
_cell_formula_units_Z 16
_cell_length_a 15.000000
_cell_length_b 9.000000
_cell_length_c 24.000000
_cell_angle_alpha 90.000000
_cell_angle_beta 150.000000
_cell_angle_gamma 90.000000
_cell_volume 1620.000000
_symmetry_space_group_name_H-M "C 2"
_symmetry_group_IT_number 5
_symmetry_cell_setting 'monoclinic'
loop_
_space_group_symop_operation_xyz
x,y,z
-x,y,-z
1/2+x,1/2+y,z
1/2-x,1/2+y,-z
loop_
_atom_site_type_symbol
_atom_site_label
_atom_site_fract_x
_atom_site_fract_y
_atom_site_fract_z
Si Si1 0.705774 0.689290 0.616705
Si Si2 0.972549 0.257664 0.717989
Si Si3 0.803130 0.502491 0.557628
Si Si4 0.205807 0.514402 0.991780
Si Si5 0.491092 0.416898 0.237848
Si Si6 0.010532 0.787881 0.648156
Si Si7 0.352719 0.326714 0.972312
Si Si8 0.324077 0.909384 0.745905
O O1 0.500000 0.733642 0.500000
O O2 0.750194 0.596364 0.584296
O O3 0.837867 0.829279 0.693815
O O4 0.743907 0.570709 0.686278
O O5 0.919023 0.357287 0.636416
O O6 0.856414 0.319935 0.706431
O O7 0.172851 0.300875 0.840906
O O8 0.959068 0.080074 0.711432
O O9 0.915425 0.628737 0.585746
O O10 0.629988 0.421614 0.439166
O O11 0.333647 0.445567 0.108528
O O12 0.152129 0.681718 0.986635
O O13 0.316265 0.472127 0.993490
O O14 0.015281 0.434807 0.878685
O O15 0.433024 0.309831 0.257031
O O16 0.182989 0.818148 0.704954
O O17 0.500000 0.332540 0.000000
#
# Coordination Sequence:
#
# PCOD9130681 Si02
#       8
#     4   4   4   4   4   4   4   4
#     4  10  19  39  63  91 122 172 212 265 341 398
#     4   9  21  42  59  90 131 161 220 277 326 406
#     4  10  21  40  61  87 130 163 214 283 325 412
#     4  10  22  42  66  98 137 168 233 282 323 420
#     4  10  22  39  60  91 133 166 212 279 328 397
#     4  11  22  38  61  93 120 174 219 265 349 399
#     4  10  22  43  69  97 132 185 219 278 348 392
#     4  10  21  38  66  90 124 173 215 273 337 395
#
# _framework density 9.8765429999999999
#
# number of rings (size 3 to 8) (size 9 to 14) (size 15 to 20)
#    0.000    2.000    1.250    1.500    3.500    1.000 
#   13.500    0.625    0.000    0.000    0.000    0.000 
#    0.000    0.000    0.000    0.000    0.000    0.000 
#
# Total GULP energy -89109.498162 kJ/mol
# GULP energy per Si atom -5569.343635 kJ/mol
# Density = 0.985406 g / cm^3
# Si number density = 9.876543 Si / 1000 Ang^3
#
#
#
# Elastic Constant Matrix: (Units=GPa)
#
#
# Indices 1 2 3 4 5 6 
#
# 1 104.7555 30.4293 27.1905 0.0000 26.6452 0.0000
# 2 30.4293 77.8159 28.1838 0.0000 3.7973 0.0000
# 3 27.1905 28.1838 96.5952 0.0001 9.2604 0.0000
# 4 0.0000 0.0000 0.0001 34.6502 0.0000 -3.9252
# 5 26.6452 3.7973 9.2604 0.0000 26.9543 0.0000
# 6 0.0000 0.0000 0.0000 -3.9252 0.0000 30.8628
#
#
#
# Elastic Compliance Matrix: (Units=1/GPa)
#
#
# Indices 1 2 3 4 5 6 
#
# 1 0.014642 -0.004524 -0.001525 0.000000 -0.013313 0.000000
# 2 -0.004524 0.015776 -0.003666 0.000000 0.003509 0.000000
# 3 -0.001525 -0.003666 0.012055 0.000000 -0.002117 0.000000
# 4 0.000000 0.000000 0.000000 0.029282 0.000000 0.003724
# 5 -0.013313 0.003509 -0.002117 0.000000 0.050493 0.000000
# 6 0.000000 0.000000 0.000000 0.003724 0.000000 0.032875
#
#
# Mechanical properties :
#
#
# Convention : Reuss Voigt Hill
#
# Bulk Modulus (GPa) = 43.39764 50.08598 46.74181
# Shear Modulus (GPa) = 27.43717 31.38432 29.41075
#
# Velocity S-wave (km/s) = 3.73098 3.99034 3.86284
# Velocity P-wave (km/s) = 6.37009 6.82946 6.60377
#
# Compressibility (1/GPa) = 0.02304273
#
# Stress axis : x y z
#
# Youngs Moduli (GPa) = 68.29554 63.38607 82.95647
#
# Poissons Ratio (x) = 0.28673 0.12655
# Poissons Ratio (y) = 0.30894 0.30413
# Poissons Ratio (z) = 0.10418 0.23238
#
# Static dielectric constant tensor:
#      x y z
#    x 1.737720 0.000000 -0.025720 
#    y 0.000000 1.714580 0.000000 
#    z -0.025720 0.000000 1.703940 
# 
# From -- ./inp_files/68783.got.cif
#   From: 2010.05.17/outbox.ucp.g08.bks.cvg/sg5_35_cif.got.tgz:68783.got - 2010.06.11 12:53:14.
