data_PCOD9130175
_publ_section_title
;
Structure prediction by ZEFSAII (Michael W. Deem and Ramdas Pophale) SiO2 
 PCOD9130175
Probable space group: C 2
;
_chemical_formula_sum "Si O2"
_cell_formula_units_Z 26
_cell_length_a 20.063291
_cell_length_b 11.664118
_cell_length_c 5.292213
_cell_angle_alpha 90.000000
_cell_angle_beta 114.284735
_cell_angle_gamma 90.000000
_cell_volume 1128.896698
_symmetry_space_group_name_H-M "C 2"
_symmetry_group_IT_number 5
_symmetry_cell_setting 'monoclinic'
loop_
_space_group_symop_operation_xyz
x,y,z
-x,y,-z
1/2+x,1/2+y,z
1/2-x,1/2+y,-z
loop_
_atom_site_type_symbol
_atom_site_label
_atom_site_fract_x
_atom_site_fract_y
_atom_site_fract_z
Si Si1 0.699612 0.946860 0.041826
Si Si2 0.417915 0.037317 0.820930
Si Si3 0.923537 0.787749 0.962809
Si Si4 0.427874 0.595396 0.717588
Si Si5 0.914275 0.337095 0.430134
Si Si6 0.796434 0.957043 0.697564
Si Si7 0.500000 0.396715 0.500000
O O1 0.635938 0.035558 0.022692
O O2 0.749349 0.943065 0.369022
O O3 0.645827 0.840565 0.887522
O O4 0.749301 0.972741 0.877433
O O5 0.392957 0.946497 0.572531
O O6 0.500000 0.996558 0.000000
O O7 0.425183 0.172913 0.798862
O O8 0.941267 0.807736 0.284753
O O9 0.000000 0.850299 0.000000
O O10 0.846522 0.845073 0.799571
O O11 0.410583 0.714628 0.555822
O O12 0.356763 0.556532 0.761393
O O13 0.447294 0.491289 0.556800
O O14 0.500000 0.613327 0.000000
O O15 0.000000 0.353523 0.500000
#
# Coordination Sequence:
#
# PCOD9130175 Si02
#       7
#     4   4   4   4   4   4   2
#     4  12  28  51  73 113 157 211 253 313 416 464
#     4  11  25  51  76 108 149 206 266 324 378 476
#     4  11  25  46  78 110 147 203 260 322 385 465
#     4  12  26  46  81 117 151 207 269 336 394 467
#     4  12  26  50  79 113 154 207 275 331 391 477
#     4  12  26  52  73 112 165 196 257 326 394 488
#     4  12  20  48  74 122 146 190 276 322 404 444
#
# _framework density 23.031336
#
# number of rings (size 3 to 8) (size 9 to 14) (size 15 to 20)
#    0.000    0.308    6.923    1.385    0.000    3.692 
#    5.538    0.000    0.000    0.000    0.000    0.000 
#    0.000    0.000    0.000    0.000    0.000    0.000 
#
# Total GULP energy -72408.319238 kJ/mol
# GULP energy per Si atom -5569.870711 kJ/mol
# Density = 2.297892 g / cm^3
# Si number density = 23.031336 Si / 1000 Ang^3
#
#
#
# Elastic Constant Matrix: (Units=GPa)
#
#
# Indices 1 2 3 4 5 6 
#
# 1 192.4136 5.8978 56.1497 0.0000 2.0521 0.0000
# 2 5.8978 81.8800 34.1914 0.0000 -3.9617 0.0000
# 3 56.1497 34.1914 144.6133 0.0000 20.5629 0.0000
# 4 0.0000 0.0000 0.0000 25.6258 0.0000 -9.3014
# 5 2.0521 -3.9617 20.5629 0.0000 38.8054 0.0000
# 6 0.0000 0.0000 0.0000 -9.3014 0.0000 7.7584
#
#
#
# Elastic Compliance Matrix: (Units=1/GPa)
#
#
# Indices 1 2 3 4 5 6 
#
# 1 0.005933 0.000732 -0.002642 0.000000 0.001161 0.000000
# 2 0.000732 0.014052 -0.004115 0.000000 0.003576 0.000000
# 3 -0.002642 -0.004115 0.009683 0.000000 -0.005411 0.000000
# 4 0.000000 0.000000 0.000000 0.069087 0.000000 0.082826
# 5 0.001161 0.003576 -0.005411 0.000000 0.028941 0.000000
# 6 0.000000 0.000000 0.000000 0.082826 0.000000 0.228190
#
#
# Mechanical properties :
#
#
# Convention : Reuss Voigt Hill
#
# Bulk Modulus (GPa) = 56.75929 67.93165 62.34547
# Shear Modulus (GPa) = 13.37585 35.94914 24.66249
#
# Velocity S-wave (km/s) = 2.41253 3.95508 3.27589
# Velocity P-wave (km/s) = 5.69721 7.10044 6.43718
#
# Compressibility (1/GPa) = 0.01761826
#
# Stress axis : x y z
#
# Youngs Moduli (GPa) = 168.54125 71.16601 103.27201
#
# Poissons Ratio (x) = -0.05209 0.27283
# Poissons Ratio (y) = -0.12337 0.42497
# Poissons Ratio (z) = 0.44526 0.29285
#
# Static dielectric constant tensor:
#      x y z
#    x 2.037070 0.000000 -0.320460 
#    y 0.000000 1.890870 0.000000 
#    z -0.320460 0.000000 2.498070 
# 
# From -- ./inp_files/9636.got.cif
#   From: 2010.05.17/outbox.cif.g08.bks.cpg/sg5_5_cif.got.tgz:9636.got - 2010.06.03 18:56:24.
