data_PCOD9130111
_publ_section_title
;
Structure prediction by ZEFSAII (Michael W. Deem and Ramdas Pophale) SiO2 
 PCOD9130111
Probable space group: C 2
;
_chemical_formula_sum "Si O2"
_cell_formula_units_Z 32
_cell_length_a 17.051949
_cell_length_b 5.048676
_cell_length_c 18.541696
_cell_angle_alpha 90.000000
_cell_angle_beta 109.418149
_cell_angle_gamma 90.000000
_cell_volume 1505.451391
_symmetry_space_group_name_H-M "C 2"
_symmetry_group_IT_number 5
_symmetry_cell_setting 'monoclinic'
loop_
_space_group_symop_operation_xyz
x,y,z
-x,y,-z
1/2+x,1/2+y,z
1/2-x,1/2+y,-z
loop_
_atom_site_type_symbol
_atom_site_label
_atom_site_fract_x
_atom_site_fract_y
_atom_site_fract_z
Si Si1 0.541497 0.596560 0.937800
Si Si2 0.641740 0.316823 0.805005
Si Si3 0.410026 0.939778 0.323599
Si Si4 0.469612 0.585581 0.713495
Si Si5 0.030737 0.945391 0.588757
Si Si6 0.355516 0.093687 0.039418
Si Si7 0.211519 0.676847 0.139563
Si Si8 0.373241 0.676736 0.812632
O O1 0.565236 0.289355 0.945747
O O2 0.471150 0.669563 0.860442
O O3 0.620055 0.786577 0.952093
O O4 0.500000 0.668062 0.000000
O O5 0.544913 0.405493 0.770797
O O6 0.671397 0.181048 0.888738
O O7 0.694733 0.585228 0.815503
O O8 0.654206 0.111144 0.743428
O O9 0.483754 0.864306 0.289085
O O10 0.400391 0.657374 0.360579
O O11 0.437973 0.147389 0.392847
O O12 0.459997 0.475949 0.629013
O O13 0.384360 0.615372 0.731340
O O14 0.000000 0.006576 0.500000
O O15 0.303258 0.153899 0.951440
O O16 0.173908 0.949624 0.157162
O O17 0.160682 0.451747 0.167985
#
# Coordination Sequence:
#
# PCOD9130111 Si02
#       8
#     4   4   4   4   4   4   4   4
#     4  12  21  38  60  80 110 150 211 269 327 363
#     4  11  25  42  60  83 126 165 213 254 310 376
#     4   9  20  36  61  90 120 165 195 229 316 357
#     4   9  22  39  67  87 122 166 198 239 316 371
#     4   9  18  34  61 102 131 143 189 252 300 361
#     4  12  24  39  60  81 110 169 215 272 311 360
#     4  12  28  39  57  88 122 160 217 271 312 341
#     4  12  24  40  60  85 118 158 211 263 310 373
#
# _framework density 21.256084999999999
#
# number of rings (size 3 to 8) (size 9 to 14) (size 15 to 20)
#    0.750    0.500    3.750    2.250    5.250    2.000 
#    0.000    0.000    0.000    0.000    0.000   10.500 
#    0.000    0.000    0.000    0.000    0.000    0.000 
#
# Total GULP energy -89164.019077 kJ/mol
# GULP energy per Si atom -5572.751192 kJ/mol
# Density = 2.120771 g / cm^3
# Si number density = 21.256085 Si / 1000 Ang^3
#
#
#
# Elastic Constant Matrix: (Units=GPa)
#
#
# Indices 1 2 3 4 5 6 
#
# 1 47.8923 8.0653 28.0628 0.0000 -8.9083 0.0000
# 2 8.0653 88.2862 6.2259 0.0001 1.1618 0.0000
# 3 28.0628 6.2259 112.7798 0.0000 -18.1560 0.0000
# 4 0.0000 0.0001 0.0000 15.2484 0.0000 15.8829
# 5 -8.9083 1.1618 -18.1560 0.0000 17.5657 0.0000
# 6 0.0000 0.0000 0.0000 15.8829 0.0000 12.0186
#
#
#
# Elastic Compliance Matrix: (Units=1/GPa)
#
#
# Indices 1 2 3 4 5 6 
#
# 1 0.025636 -0.002096 -0.004976 0.000000 0.007997 0.000000
# 2 -0.002096 0.011584 -0.000495 0.000000 -0.002341 0.000000
# 3 -0.004976 -0.000495 0.011674 0.000000 0.009575 0.000000
# 4 0.000000 0.000000 0.000000 -0.174175 0.000000 0.230178
# 5 0.007997 -0.002341 0.009575 0.000000 0.071036 0.000000
# 6 0.000000 0.000000 0.000000 0.230178 0.000000 -0.220983
#
#
# Mechanical properties :
#
#
# Convention : Reuss Voigt Hill
#
# Bulk Modulus (GPa) = 29.62065 37.07405 33.34735
# Shear Modulus (GPa) = -20.09321 22.74016 1.32347
#
# Velocity S-wave (km/s) = -3.07790 3.27436 0.78993
# Velocity P-wave (km/s) = 1.15505 5.63690 4.06871
#
# Compressibility (1/GPa) = 0.03376023
#
# Stress axis : x y z
#
# Youngs Moduli (GPa) = 39.00715 86.32606 85.66191
#
# Poissons Ratio (x) = 0.18096 0.42625
# Poissons Ratio (y) = 0.08177 0.04237
# Poissons Ratio (z) = 0.19410 0.04270
#
# Static dielectric constant tensor:
#      x y z
#    x 1.888850 0.000000 -0.177810 
#    y 0.000000 1.801710 0.000000 
#    z -0.177810 0.000000 2.202430 
# 
# From -- ./inp_files/62600.got.cif
#   From: 2010.05.17/outbox.cif.g08.bks.cpg/sg5_32_cif.got.tgz:62600.got - 2010.06.03 18:56:24.
