data_PCOD9130241
_publ_section_title
;
Structure prediction by ZEFSAII (Michael W. Deem and Ramdas Pophale) SiO2 
 PCOD9130241
Probable space group: C 2
;
_chemical_formula_sum "Si O2"
_cell_formula_units_Z 30
_cell_length_a 27.462740
_cell_length_b 5.277258
_cell_length_c 9.043272
_cell_angle_alpha 90.000000
_cell_angle_beta 66.743369
_cell_angle_gamma 90.000000
_cell_volume 1204.129011
_symmetry_space_group_name_H-M "C 2"
_symmetry_group_IT_number 5
_symmetry_cell_setting 'monoclinic'
loop_
_space_group_symop_operation_xyz
x,y,z
-x,y,-z
1/2+x,1/2+y,z
1/2-x,1/2+y,-z
loop_
_atom_site_type_symbol
_atom_site_label
_atom_site_fract_x
_atom_site_fract_y
_atom_site_fract_z
Si Si1 0.500000 0.580991 0.000000
Si Si2 0.677033 0.959174 0.248238
Si Si3 0.589094 0.605691 0.400422
Si Si4 0.434262 0.248220 0.846816
Si Si5 0.271299 0.754399 0.095495
Si Si6 0.532446 0.898078 0.706099
Si Si7 0.861922 0.719189 0.441652
Si Si8 0.674873 0.244317 0.848216
O O1 0.534170 0.414932 0.070124
O O2 0.462524 0.756463 0.144109
O O3 0.617549 0.855698 0.300165
O O4 0.708212 0.212585 0.162454
O O5 0.674794 0.014632 0.427422
O O6 0.706855 0.776134 0.097292
O O7 0.573901 0.412534 0.290905
O O8 0.542944 0.700544 0.562993
O O9 0.630378 0.461907 0.461097
O O10 0.474530 0.018580 0.769040
O O11 0.377591 0.195034 0.989370
O O12 0.296604 0.504554 0.139047
O O13 0.289032 0.997557 0.167243
O O14 0.578683 0.105024 0.640759
O O15 0.841122 0.768762 0.303814
#
# Coordination Sequence:
#
# PCOD9130241 Si02
#       8
#     2   4   4   4   4   4   4   4
#     4  12  26  44  76 112 164 220 268 342 398 500
#     4  11  27  50  82 111 158 207 278 340 424 491
#     4  11  26  49  78 113 155 221 268 349 410 503
#     4  12  26  48  78 118 160 220 278 332 417 497
#     4  12  28  50  83 119 154 213 276 344 418 505
#     4  11  26  46  73 110 162 212 270 337 409 486
#     4  11  27  48  77 115 166 213 273 347 414 498
#     4  12  28  48  81 121 161 213 276 340 423 497
#
# _framework density 24.914276999999998
#
# number of rings (size 3 to 8) (size 9 to 14) (size 15 to 20)
#    0.000    0.533    1.333    5.200   11.200    6.400 
#    0.000    0.000    0.000    0.000    0.000    0.000 
#    0.000    0.000    0.000    0.000    0.000    0.000 
#
# Total GULP energy -83952.427438 kJ/mol
# GULP energy per Si atom -5596.828496 kJ/mol
# Density = 2.485757 g / cm^3
# Si number density = 24.914277 Si / 1000 Ang^3
#
#
#
# Elastic Constant Matrix: (Units=GPa)
#
#
# Indices 1 2 3 4 5 6 
#
# 1 115.1425 70.4975 66.4154 0.0000 30.5504 0.0000
# 2 70.4975 143.6551 55.8875 0.0000 21.3749 0.0000
# 3 66.4154 55.8875 172.5033 0.0000 18.7403 0.0000
# 4 0.0000 0.0000 0.0000 54.1756 0.0000 -1.3756
# 5 30.5504 21.3749 18.7403 0.0000 46.1503 0.0000
# 6 0.0000 0.0000 0.0000 -1.3756 0.0000 31.8035
#
#
#
# Elastic Compliance Matrix: (Units=1/GPa)
#
#
# Indices 1 2 3 4 5 6 
#
# 1 0.015791 -0.005370 -0.003635 0.000000 -0.006490 0.000000
# 2 -0.005370 0.010143 -0.001145 0.000000 -0.000678 0.000000
# 3 -0.003635 -0.001145 0.007583 0.000000 -0.000143 0.000000
# 4 0.000000 0.000000 0.000000 0.018479 0.000000 0.000799
# 5 -0.006490 -0.000678 -0.000143 0.000000 0.026337 0.000000
# 6 0.000000 0.000000 0.000000 0.000799 0.000000 0.031478
#
#
# Mechanical properties :
#
#
# Convention : Reuss Voigt Hill
#
# Bulk Modulus (GPa) = 75.65655 90.76686 83.21170
# Shear Modulus (GPa) = 37.17055 42.32591 39.74823
#
# Velocity S-wave (km/s) = 3.86675 4.12620 3.99858
# Velocity P-wave (km/s) = 7.09707 7.69490 7.40202
#
# Compressibility (1/GPa) = 0.01321763
#
# Stress axis : x y z
#
# Youngs Moduli (GPa) = 63.32600 98.59498 131.87448
#
# Poissons Ratio (x) = 0.52941 0.47938
# Poissons Ratio (y) = 0.34003 0.15099
# Poissons Ratio (z) = 0.23020 0.11289
#
# Static dielectric constant tensor:
#      x y z
#    x 1.971870 0.000000 -0.020090 
#    y 0.000000 1.998040 0.000000 
#    z -0.020090 0.000000 1.935790 
# 
# From -- ./inp_files/32244.got.cif
#   From: 2010.05.17/outbox.cif.g08.bks.cpg/sg5_17_cif.got.tgz:32244.got - 2010.06.03 18:56:24.
