data_PCOD9130259
_publ_section_title
;
Structure prediction by ZEFSAII (Michael W. Deem and Ramdas Pophale) SiO2 
 PCOD9130259
Probable space group: C 2
;
_chemical_formula_sum "Si O2"
_cell_formula_units_Z 16
_cell_length_a 5.193985
_cell_length_b 23.430117
_cell_length_c 5.131386
_cell_angle_alpha 90.000000
_cell_angle_beta 85.839307
_cell_angle_gamma 90.000000
_cell_volume 622.821697
_symmetry_space_group_name_H-M "C 2"
_symmetry_group_IT_number 5
_symmetry_cell_setting 'monoclinic'
loop_
_space_group_symop_operation_xyz
x,y,z
-x,y,-z
1/2+x,1/2+y,z
1/2-x,1/2+y,-z
loop_
_atom_site_type_symbol
_atom_site_label
_atom_site_fract_x
_atom_site_fract_y
_atom_site_fract_z
Si Si1 0.500000 0.334991 0.000000
Si Si2 0.315805 0.925895 0.760656
Si Si3 0.166164 0.230822 0.226573
Si Si4 0.500000 0.140989 0.000000
Si Si5 0.768196 0.055737 0.323763
O O1 0.423567 0.382301 0.221969
O O2 0.279639 0.289378 0.097731
O O3 0.500000 0.918030 0.500000
O O4 0.210819 0.990387 0.770634
O O5 0.500000 0.915841 0.000000
O O6 0.000000 0.238806 0.500000
O O7 0.392359 0.184109 0.228677
O O8 0.000000 0.207715 0.000000
O O9 0.282619 0.098937 0.906021
O O10 0.500000 0.057624 0.500000
O O11 0.000000 0.070502 0.500000
#
# Coordination Sequence:
#
# PCOD9130259 Si02
#       5
#     2   4   4   2   4
#     4  11  26  48  84 110 162 209 272 338 414 483
#     4  11  26  47  76 118 165 213 265 333 408 495
#     4  11  28  51  79 116 157 210 279 340 407 484
#     4  11  28  48  82 116 164 219 270 340 414 489
#     4  11  28  49  79 122 172 217 274 335 414 499
#
# _framework density 25.689537999999999
#
# number of rings (size 3 to 8) (size 9 to 14) (size 15 to 20)
#    0.000    1.000    1.250    1.500   14.000    5.000 
#    0.000    0.000    0.000    0.000    0.000    0.000 
#    0.000    0.000    0.000    0.000    0.000    0.000 
#
# Total GULP energy -44718.700636 kJ/mol
# GULP energy per Si atom -5589.837580 kJ/mol
# Density = 2.563107 g / cm^3
# Si number density = 25.689538 Si / 1000 Ang^3
#
#
#
# Elastic Constant Matrix: (Units=GPa)
#
#
# Indices 1 2 3 4 5 6 
#
# 1 142.0352 58.1257 85.3174 0.0000 -5.7565 0.0000
# 2 58.1257 203.3212 45.4398 0.0000 -9.6870 0.0000
# 3 85.3174 45.4398 192.9322 0.0000 -15.5723 0.0000
# 4 0.0000 0.0000 0.0000 43.0276 0.0000 -17.3611
# 5 -5.7565 -9.6870 -15.5723 0.0000 63.3760 0.0000
# 6 0.0000 0.0000 0.0000 -17.3611 0.0000 -34.8891
#
#
#
# Elastic Compliance Matrix: (Units=1/GPa)
#
#
# Indices 1 2 3 4 5 6 
#
# 1 0.010340 -0.002054 -0.004120 0.000000 -0.000387 0.000000
# 2 -0.002054 0.005615 -0.000367 0.000000 0.000581 0.000000
# 3 -0.004120 -0.000367 0.007200 0.000000 0.001339 0.000000
# 4 0.000000 0.000000 0.000000 0.019355 0.000000 -0.009631
# 5 -0.000387 0.000581 0.001339 0.000000 0.016162 0.000000
# 6 0.000000 0.000000 0.000000 -0.009631 0.000000 -0.023870
#
#
# Mechanical properties :
#
#
# Convention : Reuss Voigt Hill
#
# Bulk Modulus (GPa) = 99.27844 101.78382 100.53113
# Shear Modulus (GPa) = 97.57680 37.59661 67.58671
#
# Velocity S-wave (km/s) = 6.16973 3.82972 5.13480
# Velocity P-wave (km/s) = 9.45957 7.69821 8.62397
#
# Compressibility (1/GPa) = 0.01007268
#
# Stress axis : x y z
#
# Youngs Moduli (GPa) = 96.71076 178.08641 138.89430
#
# Poissons Ratio (x) = 0.36573 0.57226
# Poissons Ratio (y) = 0.19861 0.05103
# Poissons Ratio (z) = 0.39846 0.06543
#
# Static dielectric constant tensor:
#      x y z
#    x 1.988440 0.000000 -0.134680 
#    y 0.000000 1.987230 0.000000 
#    z -0.134680 0.000000 2.032580 
# 
# From -- ./inp_files/622.got.cif
#   From: 2010.05.17/outbox.cif.g08.bks.cpg/sg5_1_cif.got.tgz:622.got - 2010.06.03 18:56:24.
