data_PCOD9130585
_publ_section_title
;
Structure prediction by ZEFSAII (Michael W. Deem and Ramdas Pophale) SiO2 
 PCOD9130585
Probable space group: C 2
;
_chemical_formula_sum "Si O2"
_cell_formula_units_Z 18
_cell_length_a 10.639686
_cell_length_b 11.078205
_cell_length_c 7.390224
_cell_angle_alpha 90.000000
_cell_angle_beta 60.096699
_cell_angle_gamma 90.000000
_cell_volume 755.107522
_symmetry_space_group_name_H-M "C 2"
_symmetry_group_IT_number 5
_symmetry_cell_setting 'monoclinic'
loop_
_space_group_symop_operation_xyz
x,y,z
-x,y,-z
1/2+x,1/2+y,z
1/2-x,1/2+y,-z
loop_
_atom_site_type_symbol
_atom_site_label
_atom_site_fract_x
_atom_site_fract_y
_atom_site_fract_z
Si Si1 0.267766 0.484650 0.004951
Si Si2 0.856550 0.804207 0.223281
Si Si3 0.293262 0.856402 0.318623
Si Si4 0.500000 0.655460 0.000000
Si Si5 0.972803 0.577152 0.309222
O O1 0.248020 0.382834 0.177081
O O2 0.268155 0.412498 0.819942
O O3 0.131843 0.575073 0.109346
O O4 0.407196 0.567109 0.939282
O O5 0.833384 0.853925 0.441845
O O6 0.863913 0.664186 0.278144
O O7 0.000000 0.820995 0.000000
O O8 0.411504 0.944509 0.322438
O O9 0.383953 0.736995 0.194438
O O10 0.000000 0.608628 0.500000
#
# Coordination Sequence:
#
# PCOD9130585 Si02
#       5
#     4   4   4   2   4
#     4  12  27  52  77 117 157 199 268 320 392 468
#     4  12  29  48  78 118 151 208 262 315 387 467
#     4  12  28  51  80 116 157 209 256 327 394 460
#     4  12  28  50  82 116 154 202 268 320 388 470
#     4  12  26  51  82 114 162 212 254 326 397 463
#
# _framework density 23.837665000000001
#
# number of rings (size 3 to 8) (size 9 to 14) (size 15 to 20)
#    0.000    0.000    5.556    2.667    9.333    0.000 
#    0.000    2.222    0.000    0.000    0.000    0.000 
#    0.000    0.000    0.000    0.000    0.000    0.000 
#
# Total GULP energy -50248.094483 kJ/mol
# GULP energy per Si atom -5583.121609 kJ/mol
# Density = 2.378341 g / cm^3
# Si number density = 23.837665 Si / 1000 Ang^3
#
#
#
# Elastic Constant Matrix: (Units=GPa)
#
#
# Indices 1 2 3 4 5 6 
#
# 1 85.0382 55.9146 47.8650 0.0000 25.1358 0.0000
# 2 55.9146 108.7049 36.6991 0.0000 18.6129 0.0000
# 3 47.8650 36.6991 180.7618 0.0000 48.3841 0.0000
# 4 0.0000 0.0000 0.0000 11.3822 0.0000 20.6776
# 5 25.1358 18.6129 48.3841 0.0000 48.8126 0.0000
# 6 0.0000 0.0000 0.0000 20.6776 0.0000 -10.2555
#
#
#
# Elastic Compliance Matrix: (Units=1/GPa)
#
#
# Indices 1 2 3 4 5 6 
#
# 1 0.020277 -0.008834 -0.002290 0.000000 -0.004803 0.000000
# 2 -0.008834 0.013940 -0.000389 0.000000 -0.000381 0.000000
# 3 -0.002290 -0.000389 0.007979 0.000000 -0.006582 0.000000
# 4 0.000000 0.000000 0.000000 0.018842 0.000000 0.037990
# 5 -0.004803 -0.000381 -0.006582 0.000000 0.029629 0.000000
# 6 0.000000 0.000000 0.000000 0.037990 0.000000 -0.020912
#
#
# Mechanical properties :
#
#
# Convention : Reuss Voigt Hill
#
# Bulk Modulus (GPa) = 52.16698 72.82915 62.49807
# Shear Modulus (GPa) = 50.41801 25.58959 38.00380
#
# Velocity S-wave (km/s) = 4.60396 3.27998 3.99717
# Velocity P-wave (km/s) = 7.08475 6.70543 6.89770
#
# Compressibility (1/GPa) = 0.01916921
#
# Stress axis : x y z
#
# Youngs Moduli (GPa) = 49.31742 71.73692 125.32628
#
# Poissons Ratio (x) = 0.63375 0.28701
# Poissons Ratio (y) = 0.43568 0.04874
# Poissons Ratio (z) = 0.11294 0.02790
#
# Static dielectric constant tensor:
#      x y z
#    x 1.946190 0.000000 -0.013800 
#    y 0.000000 1.964880 0.000000 
#    z -0.013800 0.000000 1.946060 
# 
# From -- ./inp_files/18915.got.cif
#   From: 2010.05.17/outbox.cif.g08.bks.cpg/sg5_10_cif.got.tgz:18915.got - 2010.06.03 18:56:24.
