data_PCOD9130680
_publ_section_title
;
Structure prediction by ZEFSAII (Michael W. Deem and Ramdas Pophale) SiO2 
 PCOD9130680
Probable space group: C 2
;
_chemical_formula_sum "Si O2"
_cell_formula_units_Z 16
_cell_length_a 15.000000
_cell_length_b 9.000000
_cell_length_c 24.000000
_cell_angle_alpha 90.000000
_cell_angle_beta 150.000000
_cell_angle_gamma 90.000000
_cell_volume 1620.000000
_symmetry_space_group_name_H-M "C 2"
_symmetry_group_IT_number 5
_symmetry_cell_setting 'monoclinic'
loop_
_space_group_symop_operation_xyz
x,y,z
-x,y,-z
1/2+x,1/2+y,z
1/2-x,1/2+y,-z
loop_
_atom_site_type_symbol
_atom_site_label
_atom_site_fract_x
_atom_site_fract_y
_atom_site_fract_z
Si Si1 0.390947 0.800680 0.790466
Si Si2 0.280813 0.418663 0.604526
Si Si3 0.483817 0.269993 0.364943
Si Si4 0.583747 0.978568 0.986886
Si Si5 0.556204 0.315423 0.094721
Si Si6 0.516619 0.466210 0.833377
Si Si7 0.709964 0.777925 0.388943
Si Si8 0.961701 0.412362 0.350065
O O1 0.445273 0.628237 0.813094
O O2 0.342145 0.840226 0.699907
O O3 0.215109 0.822906 0.732544
O O4 0.535636 0.887368 0.905014
O O5 0.412166 0.342620 0.630490
O O6 0.363939 0.387566 0.711451
O O7 0.299415 0.598116 0.614163
O O8 0.078831 0.381448 0.471324
O O9 0.593612 0.309155 0.480599
O O10 0.469540 0.091540 0.350758
O O11 0.492495 0.140896 0.931965
O O12 0.500000 0.916667 0.000000
O O13 0.800444 0.984955 0.103243
O O14 0.449093 0.384318 0.089199
O O15 0.760864 0.354452 0.225740
O O16 0.500000 0.365640 0.000000
O O17 0.579077 0.843068 0.364376
#
# Coordination Sequence:
#
# PCOD9130680 Si02
#       8
#     4   4   4   4   4   4   4   4
#     4  11  22  38  64  91 120 162 208 264 310 378
#     4   9  21  38  68  90 126 163 210 266 311 380
#     4  10  19  39  60  96 122 161 211 251 318 370
#     4  11  26  42  64  91 125 169 212 265 319 379
#     4  11  26  43  64  91 130 172 208 262 317 384
#     4  11  23  44  63  95 122 166 213 264 321 375
#     4   9  21  36  65  88 126 163 202 262 312 382
#     4  10  21  40  62  94 125 169 208 254 321 371
#
# _framework density 9.8765429999999999
#
# number of rings (size 3 to 8) (size 9 to 14) (size 15 to 20)
#    0.000    1.750    1.250    1.875   10.500    2.000 
#    2.250    0.000    2.750    0.000    0.000    0.000 
#    0.000    0.000    0.000    0.000    0.000    0.000 
#
# Total GULP energy -89127.801672 kJ/mol
# GULP energy per Si atom -5570.487605 kJ/mol
# Density = 0.985406 g / cm^3
# Si number density = 9.876543 Si / 1000 Ang^3
#
#
#
# Elastic Constant Matrix: (Units=GPa)
#
#
# Indices 1 2 3 4 5 6 
#
# 1 88.5668 13.8425 50.8361 0.0000 -16.2474 0.0000
# 2 13.8425 24.1363 27.0562 0.0000 -14.6202 0.0000
# 3 50.8361 27.0562 149.8178 0.0000 -10.8736 0.0000
# 4 0.0000 0.0000 0.0000 33.1661 0.0000 -3.7938
# 5 -16.2474 -14.6202 -10.8736 0.0000 57.9302 0.0000
# 6 0.0000 0.0000 0.0000 -3.7938 0.0000 33.7947
#
#
#
# Elastic Compliance Matrix: (Units=1/GPa)
#
#
# Indices 1 2 3 4 5 6 
#
# 1 0.014632 -0.001673 -0.004456 0.000000 0.002845 0.000000
# 2 -0.001673 0.060993 -0.009494 0.000000 0.013142 0.000000
# 3 -0.004456 -0.009494 0.009770 0.000000 -0.001812 0.000000
# 4 0.000000 0.000000 0.000000 0.030543 0.000000 0.003429
# 5 0.002845 0.013142 -0.001812 0.000000 0.021037 0.000000
# 6 0.000000 0.000000 0.000000 0.003429 0.000000 0.029975
#
#
# Mechanical properties :
#
#
# Convention : Reuss Voigt Hill
#
# Bulk Modulus (GPa) = 18.46726 49.55449 34.01087
# Shear Modulus (GPa) = 23.12176 36.36395 29.74286
#
# Velocity S-wave (km/s) = 3.42503 4.29526 3.88459
# Velocity P-wave (km/s) = 5.00104 7.05269 6.11354
#
# Compressibility (1/GPa) = 0.05414988
#
# Stress axis : x y z
#
# Youngs Moduli (GPa) = 68.34241 16.39523 102.35537
#
# Poissons Ratio (x) = 0.02743 0.45614
# Poissons Ratio (y) = 0.11432 0.97172
# Poissons Ratio (z) = 0.30456 0.15565
#
# Static dielectric constant tensor:
#      x y z
#    x 1.710470 0.000000 0.006760 
#    y 0.000000 1.679710 0.000000 
#    z 0.006760 0.000000 1.761700 
# 
# From -- ./inp_files/57683.got.cif
#   From: 2010.05.17/outbox.ucp.g08.bks.cvg/sg5_29_cif.got.tgz:57683.got - 2010.06.11 12:53:14.
