data_PCOD9130436
_publ_section_title
;
Structure prediction by ZEFSAII (Michael W. Deem and Ramdas Pophale) SiO2 
 PCOD9130436
Probable space group: C 2
;
_chemical_formula_sum "Si O2"
_cell_formula_units_Z 24
_cell_length_a 7.952928
_cell_length_b 5.382595
_cell_length_c 21.737031
_cell_angle_alpha 90.000000
_cell_angle_beta 80.297827
_cell_angle_gamma 90.000000
_cell_volume 917.196626
_symmetry_space_group_name_H-M "C 2"
_symmetry_group_IT_number 5
_symmetry_cell_setting 'monoclinic'
loop_
_space_group_symop_operation_xyz
x,y,z
-x,y,-z
1/2+x,1/2+y,z
1/2-x,1/2+y,-z
loop_
_atom_site_type_symbol
_atom_site_label
_atom_site_fract_x
_atom_site_fract_y
_atom_site_fract_z
Si Si1 0.500000 0.662860 0.000000
Si Si2 0.330883 0.618771 0.256452
Si Si3 0.347279 0.415855 0.827785
Si Si4 0.844341 0.656527 0.421138
Si Si5 0.793565 0.411449 0.907506
Si Si6 0.000000 0.031301 0.500000
Si Si7 0.921895 0.298012 0.658439
O O1 0.373309 0.484132 0.044432
O O2 0.574331 0.840663 0.047599
O O3 0.458932 0.472034 0.204089
O O4 0.155979 0.489489 0.287327
O O5 0.442041 0.646173 0.311204
O O6 0.272526 0.866082 0.224226
O O7 0.285757 0.660249 0.867696
O O8 0.339182 0.158569 0.866129
O O9 0.968800 0.864963 0.440764
O O10 0.685473 0.649892 0.477913
O O11 0.745687 0.683867 0.362588
O O12 0.970248 0.426668 0.402740
#
# Coordination Sequence:
#
# PCOD9130436 Si02
#       7
#     2   4   4   4   4   2   4
#     4  12  30  52  80 114 154 200 252 310 380 452
#     4  12  27  47  74 107 146 194 248 307 374 446
#     4  12  29  51  78 113 152 199 254 313 377 452
#     4  12  24  43  68 100 141 186 242 302 366 438
#     4  12  30  52  80 114 154 200 252 313 377 452
#     4  12  24  42  68 100 138 188 240 300 364 436
#     4  12  25  45  70 103 143 190 242 304 368 440
#
# _framework density 26.166691
#
# number of rings (size 3 to 8) (size 9 to 14) (size 15 to 20)
#    0.000    0.000    0.000    9.000    0.000   18.000 
#    0.000    0.000    0.000    0.000    0.000    0.000 
#    0.000    0.000    0.000    0.000    0.000    0.000 
#
# Total GULP energy -67273.296527 kJ/mol
# GULP energy per Si atom -5606.108044 kJ/mol
# Density = 2.610713 g / cm^3
# Si number density = 26.166691 Si / 1000 Ang^3
#
#
#
# Elastic Constant Matrix: (Units=GPa)
#
#
# Indices 1 2 3 4 5 6 
#
# 1 127.4101 37.1868 20.5991 0.0000 -5.7772 0.0000
# 2 37.1868 114.8924 34.4696 0.0000 -13.3814 0.0000
# 3 20.5991 34.4696 101.0433 0.0000 -23.7662 0.0000
# 4 0.0000 0.0000 0.0000 77.7504 0.0000 11.3601
# 5 -5.7772 -13.3814 -23.7662 0.0000 73.1149 0.0000
# 6 0.0000 0.0000 0.0000 11.3601 0.0000 65.4971
#
#
#
# Elastic Compliance Matrix: (Units=1/GPa)
#
#
# Indices 1 2 3 4 5 6 
#
# 1 0.008742 -0.002561 -0.000927 0.000000 -0.000079 0.000000
# 2 -0.002561 0.010485 -0.002871 0.000000 0.000784 0.000000
# 3 -0.000927 -0.002871 0.011829 0.000000 0.003246 0.000000
# 4 0.000000 0.000000 0.000000 0.013196 0.000000 -0.002289
# 5 -0.000079 0.000784 0.003246 0.000000 0.014869 0.000000
# 6 0.000000 0.000000 0.000000 -0.002289 0.000000 0.015665
#
#
# Mechanical properties :
#
#
# Convention : Reuss Voigt Hill
#
# Bulk Modulus (GPa) = 54.52870 58.65076 56.58973
# Shear Modulus (GPa) = 53.40944 60.01183 56.71063
#
# Velocity S-wave (km/s) = 4.52278 4.79419 4.66046
# Velocity P-wave (km/s) = 6.93962 7.28756 7.11572
#
# Compressibility (1/GPa) = 0.01833897
#
# Stress axis : x y z
#
# Youngs Moduli (GPa) = 114.38546 95.37399 84.54091
#
# Poissons Ratio (x) = 0.24422 0.07840
# Poissons Ratio (y) = 0.29290 0.24268
# Poissons Ratio (z) = 0.10608 0.27377
#
# Static dielectric constant tensor:
#      x y z
#    x 1.923230 0.000000 0.022990 
#    y 0.000000 2.021260 0.000000 
#    z 0.022990 0.000000 2.072470 
# 
# From -- ./inp_files/67841.got.cif
#   From: 2010.05.17/outbox.cif.g08.bks.cpg/sg5_34_cif.got.tgz:67841.got - 2010.06.03 18:56:24.
