data_PCOD9130593
_publ_section_title
;
Structure prediction by ZEFSAII (Michael W. Deem and Ramdas Pophale) SiO2 
 PCOD9130593
Probable space group: C 2
;
_chemical_formula_sum "Si O2"
_cell_formula_units_Z 14
_cell_length_a 9.891615
_cell_length_b 10.648292
_cell_length_c 5.900050
_cell_angle_alpha 90.000000
_cell_angle_beta 74.431652
_cell_angle_gamma 90.000000
_cell_volume 598.644999
_symmetry_space_group_name_H-M "C 2"
_symmetry_group_IT_number 5
_symmetry_cell_setting 'monoclinic'
loop_
_space_group_symop_operation_xyz
x,y,z
-x,y,-z
1/2+x,1/2+y,z
1/2-x,1/2+y,-z
loop_
_atom_site_type_symbol
_atom_site_label
_atom_site_fract_x
_atom_site_fract_y
_atom_site_fract_z
Si Si1 0.243196 0.477250 0.118364
Si Si2 0.358162 0.296245 0.416181
Si Si3 0.339994 0.740378 0.106581
Si Si4 0.500000 0.112276 0.000000
O O1 0.295710 0.423531 0.334437
O O2 0.330694 0.599905 0.011452
O O3 0.087095 0.530772 0.143422
O O4 0.249402 0.354208 0.959952
O O5 0.500000 0.315978 0.500000
O O6 0.231544 0.234049 0.615305
O O7 0.403400 0.200805 0.197656
O O8 0.500000 0.777381 0.000000
#
# Coordination Sequence:
#
# PCOD9130593 Si02
#       4
#     4   4   4   2
#     4  12  27  52  78 116 157 203 259 319 387 460
#     4  12  27  52  79 113 159 207 253 320 388 461
#     4  12  30  47  79 116 156 201 258 318 387 459
#     4  12  26  54  76 114 160 208 252 318 390 462
#
# _framework density 23.386147000000001
#
# number of rings (size 3 to 8) (size 9 to 14) (size 15 to 20)
#    0.000    0.000    7.143    0.000   10.000    3.429 
#    0.000    0.000    0.000    0.000    0.000    0.000 
#    0.000    0.000    0.000    0.000    0.000    0.000 
#
# Total GULP energy -39049.531371 kJ/mol
# GULP energy per Si atom -5578.504482 kJ/mol
# Density = 2.333292 g / cm^3
# Si number density = 23.386147 Si / 1000 Ang^3
#
#
#
# Elastic Constant Matrix: (Units=GPa)
#
#
# Indices 1 2 3 4 5 6 
#
# 1 130.1545 47.2068 63.1791 0.0000 0.9592 0.0000
# 2 47.2068 175.9034 45.1402 0.0000 11.1830 0.0000
# 3 63.1791 45.1402 109.5200 0.0000 -19.7833 0.0000
# 4 0.0000 0.0000 0.0000 28.3029 0.0000 12.1504
# 5 0.9592 11.1830 -19.7833 0.0000 41.2133 0.0000
# 6 0.0000 0.0000 0.0000 12.1504 0.0000 64.9738
#
#
#
# Elastic Compliance Matrix: (Units=1/GPa)
#
#
# Indices 1 2 3 4 5 6 
#
# 1 0.011344 -0.001140 -0.006642 0.000000 -0.003143 0.000000
# 2 -0.001140 0.006900 -0.002759 0.000000 -0.003170 0.000000
# 3 -0.006642 -0.002759 0.015617 0.000000 0.008400 0.000000
# 4 0.000000 0.000000 0.000000 0.038416 0.000000 -0.007184
# 5 -0.003143 -0.003170 0.008400 0.000000 0.029229 0.000000
# 6 0.000000 0.000000 0.000000 -0.007184 0.000000 0.016734
#
#
# Mechanical properties :
#
#
# Convention : Reuss Voigt Hill
#
# Bulk Modulus (GPa) = 78.25293 80.73667 79.49480
# Shear Modulus (GPa) = 34.82319 44.23479 39.52899
#
# Velocity S-wave (km/s) = 3.86301 4.35385 4.11575
# Velocity P-wave (km/s) = 7.30965 7.73776 7.52675
#
# Compressibility (1/GPa) = 0.01277907
#
# Stress axis : x y z
#
# Youngs Moduli (GPa) = 88.15322 144.91707 64.03411
#
# Poissons Ratio (x) = 0.16522 0.42530
# Poissons Ratio (y) = 0.10051 0.17668
# Poissons Ratio (z) = 0.58549 0.39984
#
# Static dielectric constant tensor:
#      x y z
#    x 2.012700 0.000000 0.035370 
#    y 0.000000 1.881740 0.000000 
#    z 0.035370 0.000000 1.910360 
# 
# From -- ./inp_files/1578.got.cif
#   From: 2010.05.17/outbox.cif.g08.bks.cpg/sg5_1_cif.got.tgz:1578.got - 2010.06.03 18:56:24.
