data_PCOD9130922
_publ_section_title
;
Structure prediction by ZEFSAII (Michael W. Deem and Ramdas Pophale) SiO2 
 PCOD9130922
Probable space group: P M
;
_chemical_formula_sum "Si O2"
_cell_formula_units_Z 14
_cell_length_a 5.252393
_cell_length_b 13.379102
_cell_length_c 12.052729
_cell_angle_alpha 90.000000
_cell_angle_beta 127.956565
_cell_angle_gamma 90.000000
_cell_volume 667.818949
_symmetry_space_group_name_H-M "P M"
_symmetry_group_IT_number 6
_symmetry_cell_setting 'monoclinic'
loop_
_space_group_symop_operation_xyz
x,y,z
x,-y,z
loop_
_atom_site_type_symbol
_atom_site_label
_atom_site_fract_x
_atom_site_fract_y
_atom_site_fract_z
Si Si1 0.934680 0.192492 0.956590
Si Si2 0.457251 0.117535 0.654025
Si Si3 0.800475 0.731277 0.301908
Si Si4 0.746849 0.803511 0.514721
Si Si5 0.392245 0.613990 0.445904
Si Si6 0.198211 0.386943 0.133007
Si Si7 0.657117 0.886402 0.101348
O O1 0.724391 0.182544 0.789919
O O2 0.754120 0.125910 0.999963
O O3 0.967420 0.303050 0.019046
O O4 0.292175 0.150734 0.026663
O O5 0.528672 0.135568 0.542627
O O6 0.105971 0.152378 0.602468
O O7 0.497994 0.000000 0.688441
O O8 0.640048 0.796464 0.357131
O O9 0.552853 0.649435 0.188928
O O10 0.881846 0.810768 0.230169
O O11 0.103514 0.671088 0.430854
O O12 0.697630 0.687066 0.536295
O O13 0.445711 0.500000 0.492944
O O14 0.253929 0.613802 0.281630
O O15 0.120605 0.500000 0.079682
O O16 0.692946 0.000000 0.147164
#
# Coordination Sequence:
#
# PCOD9130922 Si02
#       7
#     2   2   2   2   2   2   2
#     4  11  23  42  62  91 125 161 216 255 298 378
#     4  12  25  43  65  86 124 179 219 256 307 364
#     4  10  20  38  63  97 129 158 205 257 314 385
#     4  11  24  43  61  94 125 160 222 261 300 374
#     4  10  19  39  68  95 127 164 201 256 327 381
#     4   9  19  36  64  97 126 160 197 254 319 374
#     4  11  22  37  61  92 126 160 200 261 319 362
#
# _framework density 20.963764999999999
#
# number of rings (size 3 to 8) (size 9 to 14) (size 15 to 20)
#    0.000    1.429    2.857    3.000    0.000    1.714 
#    0.000    1.429    0.000    0.000    0.000    0.000 
#    0.000    0.000    0.000    0.000    0.000    0.000 
#
# Total GULP energy -78075.525713 kJ/mol
# GULP energy per Si atom -5576.823265 kJ/mol
# Density = 2.091605 g / cm^3
# Si number density = 20.963765 Si / 1000 Ang^3
#
#
#
# Elastic Constant Matrix: (Units=GPa)
#
#
# Indices 1 2 3 4 5 6 
#
# 1 108.6552 30.6597 13.4548 0.0000 3.9410 0.0000
# 2 30.6597 141.6310 25.6659 0.0000 8.0350 0.0000
# 3 13.4548 25.6659 41.4726 0.0000 3.1415 0.0000
# 4 0.0000 0.0000 0.0000 28.0366 0.0000 -0.8708
# 5 3.9410 8.0350 3.1415 0.0000 25.8604 0.0000
# 6 0.0000 0.0000 0.0000 -0.8708 0.0000 15.9955
#
#
#
# Elastic Compliance Matrix: (Units=1/GPa)
#
#
# Indices 1 2 3 4 5 6 
#
# 1 0.009981 -0.001738 -0.002108 0.000000 -0.000725 0.000000
# 2 -0.001738 0.008348 -0.004467 0.000000 -0.001786 0.000000
# 3 -0.002108 -0.004467 0.027686 0.000000 -0.001654 0.000000
# 4 0.000000 0.000000 0.000000 0.035728 0.000000 0.001945
# 5 -0.000725 -0.001786 -0.001654 0.000000 0.039536 0.000000
# 6 0.000000 0.000000 0.000000 0.001945 0.000000 0.062624
#
#
# Mechanical properties :
#
#
# Convention : Reuss Voigt Hill
#
# Bulk Modulus (GPa) = 34.02555 47.92440 40.97498
# Shear Modulus (GPa) = 23.77294 28.77706 26.27500
#
# Velocity S-wave (km/s) = 3.37115 3.70902 3.54411
# Velocity P-wave (km/s) = 5.60524 6.42282 6.02791
#
# Compressibility (1/GPa) = 0.02938968
#
# Stress axis : x y z
#
# Youngs Moduli (GPa) = 100.19005 119.79536 36.11946
#
# Poissons Ratio (x) = 0.20815 0.07614
# Poissons Ratio (y) = 0.17408 0.16135
# Poissons Ratio (z) = 0.21119 0.53513
#
# Static dielectric constant tensor:
#      x y z
#    x 1.837930 0.000000 -0.012320 
#    y 0.000000 1.738810 0.000000 
#    z -0.012320 0.000000 1.775690 
# 
# From -- ./inp_files/5423.got.cif
#   From: 2010.05.17/outbox.cif.g08.bks.cpg/sg6_3_cif.got.tgz:5423.got - 2010.06.03 19:42:10.
