data_PCOD9130694
_publ_section_title
;
Structure prediction by ZEFSAII (Michael W. Deem and Ramdas Pophale) SiO2 
 PCOD9130694
Probable space group: C 2
;
_chemical_formula_sum "Si O2"
_cell_formula_units_Z 14
_cell_length_a 27.000000
_cell_length_b 9.000000
_cell_length_c 9.000000
_cell_angle_alpha 90.000000
_cell_angle_beta 140.000000
_cell_angle_gamma 90.000000
_cell_volume 1405.776502
_symmetry_space_group_name_H-M "C 2"
_symmetry_group_IT_number 5
_symmetry_cell_setting 'monoclinic'
loop_
_space_group_symop_operation_xyz
x,y,z
-x,y,-z
1/2+x,1/2+y,z
1/2-x,1/2+y,-z
loop_
_atom_site_type_symbol
_atom_site_label
_atom_site_fract_x
_atom_site_fract_y
_atom_site_fract_z
Si Si1 0.730765 0.607610 0.621616
Si Si2 0.351618 0.858628 0.410370
Si Si3 0.166317 0.855360 0.275383
Si Si4 0.288414 0.419506 0.129452
Si Si5 0.383816 0.193178 0.534892
Si Si6 0.428514 0.616386 0.439767
Si Si7 0.993501 0.905828 0.160409
O O1 0.663119 0.726570 0.505268
O O2 0.795965 0.723841 0.729979
O O3 0.714667 0.494958 0.448778
O O4 0.743163 0.507019 0.796903
O O5 0.413150 0.786802 0.440543
O O6 0.374507 0.018180 0.523279
O O7 0.274676 0.880909 0.136504
O O8 0.138831 0.773166 0.363274
O O9 0.096219 0.917409 0.017228
O O10 0.330532 0.270927 0.287237
O O11 0.351371 0.534233 0.209498
O O12 0.471179 0.247885 0.709726
O O13 0.500000 0.595230 0.500000
O O14 0.452967 0.526402 0.642098
O O15 0.000000 0.924003 0.000000
#
# Coordination Sequence:
#
# PCOD9130694 Si02
#       7
#     4   4   4   4   4   4   4
#     4  10  21  36  59  87 114 151 195 246 288 354
#     4  11  20  37  59  84 123 154 191 243 295 343
#     4  10  20  38  57  87 113 147 200 243 291 351
#     4   9  20  38  60  81 117 161 197 233 302 348
#     4   9  18  35  58  83 112 153 190 239 289 353
#     4  10  22  39  58  89 118 157 203 241 290 357
#     4   9  19  39  60  78 116 157 191 236 302 357
#
# _framework density 9.9589090000000002
#
# number of rings (size 3 to 8) (size 9 to 14) (size 15 to 20)
#    0.000    2.286    0.000    5.143    2.000    0.000 
#    7.714    7.143    0.000    0.000    0.000    0.000 
#    0.000    0.000    0.000    0.000    0.000    0.000 
#
# Total GULP energy -77954.579611 kJ/mol
# GULP energy per Si atom -5568.184258 kJ/mol
# Density = 0.993624 g / cm^3
# Si number density = 9.958909 Si / 1000 Ang^3
#
#
#
# Elastic Constant Matrix: (Units=GPa)
#
#
# Indices 1 2 3 4 5 6 
#
# 1 35.8187 8.3925 17.2576 0.0000 9.6745 0.0000
# 2 8.3925 98.6239 11.4876 0.0000 1.9837 0.0000
# 3 17.2576 11.4876 54.1448 0.0000 8.0907 0.0000
# 4 0.0000 0.0000 0.0000 -7.9772 0.0000 -10.3948
# 5 9.6745 1.9837 8.0907 0.0000 12.0907 0.0000
# 6 0.0000 0.0000 0.0000 -10.3948 0.0000 18.8246
#
#
#
# Elastic Compliance Matrix: (Units=1/GPa)
#
#
# Indices 1 2 3 4 5 6 
#
# 1 0.039254 -0.001860 -0.008299 0.000000 -0.025551 0.000000
# 2 -0.001860 0.010485 -0.001775 0.000000 0.000955 0.000000
# 3 -0.008299 -0.001775 0.022727 0.000000 -0.008277 0.000000
# 4 0.000000 0.000000 0.000000 -0.072902 0.000000 -0.040256
# 5 -0.025551 0.000955 -0.008277 0.000000 0.108535 0.000000
# 6 0.000000 0.000000 0.000000 -0.040256 0.000000 0.030893
#
#
# Mechanical properties :
#
#
# Convention : Reuss Voigt Hill
#
# Bulk Modulus (GPa) = 20.57611 29.20696 24.89153
# Shear Modulus (GPa) = 27.92376 14.68427 21.30402
#
# Velocity S-wave (km/s) = 3.74832 2.71817 3.27402
# Velocity P-wave (km/s) = 5.39316 4.95447 5.17846
#
# Compressibility (1/GPa) = 0.04860006
#
# Stress axis : x y z
#
# Youngs Moduli (GPa) = 25.47532 95.37187 43.99987
#
# Poissons Ratio (x) = 0.17737 0.36514
# Poissons Ratio (y) = 0.04738 0.07808
# Poissons Ratio (z) = 0.21141 0.16925
#
# Static dielectric constant tensor:
#      x y z
#    x 1.872720 0.000000 0.020100 
#    y 0.000000 1.692710 0.000000 
#    z 0.020100 0.000000 1.720720 
# 
# From -- ./inp_files/31775.got.cif
#   From: 2010.05.17/outbox.ucp.g08.bks.cvg/sg5_16_cif.got.tgz:31775.got - 2010.06.11 12:53:14.
