data_PCOD9130304
_publ_section_title
;
Structure prediction by ZEFSAII (Michael W. Deem and Ramdas Pophale) SiO2 
 PCOD9130304
Probable space group: C 2
;
_chemical_formula_sum "Si O2"
_cell_formula_units_Z 22
_cell_length_a 28.300683
_cell_length_b 6.875346
_cell_length_c 8.236250
_cell_angle_alpha 90.000000
_cell_angle_beta 145.344517
_cell_angle_gamma 90.000000
_cell_volume 911.294689
_symmetry_space_group_name_H-M "C 2"
_symmetry_group_IT_number 5
_symmetry_cell_setting 'monoclinic'
loop_
_space_group_symop_operation_xyz
x,y,z
-x,y,-z
1/2+x,1/2+y,z
1/2-x,1/2+y,-z
loop_
_atom_site_type_symbol
_atom_site_label
_atom_site_fract_x
_atom_site_fract_y
_atom_site_fract_z
Si Si1 0.157588 0.826960 0.548772
Si Si2 0.717851 0.107728 0.187950
Si Si3 0.286510 0.553686 0.736402
Si Si4 0.500000 0.475394 0.000000
Si Si5 0.527644 0.711768 0.761124
Si Si6 0.937411 0.604748 0.443838
O O1 0.227626 0.679750 0.685946
O O2 0.110031 0.740924 0.566893
O O3 0.204321 0.032886 0.698176
O O4 0.083191 0.851164 0.209271
O O5 0.705487 0.338475 0.166816
O O6 0.739748 0.036891 0.430919
O O7 0.635906 0.019481 0.875506
O O8 0.374730 0.657416 0.954655
O O9 0.511388 0.599992 0.195084
O O10 0.500000 0.657777 0.500000
O O11 0.492241 0.932928 0.677484
O O12 0.000000 0.713151 0.500000
#
# Coordination Sequence:
#
# PCOD9130304 Si02
#       6
#     4   4   4   2   4   4
#     4  12  29  48  78 120 161 218 275 341 420 495
#     4  12  27  50  82 122 161 217 275 340 422 499
#     4  12  27  52  84 114 169 215 274 349 420 501
#     4  12  28  48  80 124 158 222 284 338 424 500
#     4  11  27  54  82 117 165 220 275 347 418 492
#     4  11  30  50  81 117 167 215 280 346 415 494
#
# _framework density 24.141475
#
# number of rings (size 3 to 8) (size 9 to 14) (size 15 to 20)
#    0.000    0.364    3.636    2.182   12.727    0.727 
#    0.000    0.000    0.000    0.000    0.000    0.000 
#    0.000    0.000    0.000    0.000    0.000    0.000 
#
# Total GULP energy -61543.442234 kJ/mol
# GULP energy per Si atom -5594.858385 kJ/mol
# Density = 2.408653 g / cm^3
# Si number density = 24.141475 Si / 1000 Ang^3
#
#
#
# Elastic Constant Matrix: (Units=GPa)
#
#
# Indices 1 2 3 4 5 6 
#
# 1 165.1102 53.7956 45.4633 0.0000 18.1964 0.0000
# 2 53.7956 128.4638 32.0342 0.0000 17.9523 0.0000
# 3 45.4633 32.0342 107.5957 0.0000 25.6023 0.0000
# 4 0.0000 0.0000 0.0000 28.5886 0.0000 3.2439
# 5 18.1964 17.9523 25.6023 0.0000 57.1813 0.0000
# 6 0.0000 0.0000 0.0000 3.2439 0.0000 44.1821
#
#
#
# Elastic Compliance Matrix: (Units=1/GPa)
#
#
# Indices 1 2 3 4 5 6 
#
# 1 0.007577 -0.002514 -0.002314 0.000000 -0.000586 0.000000
# 2 -0.002514 0.009393 -0.001369 0.000000 -0.001536 0.000000
# 3 -0.002314 -0.001369 0.011642 0.000000 -0.004047 0.000000
# 4 0.000000 0.000000 0.000000 0.035273 0.000000 -0.002590
# 5 -0.000586 -0.001536 -0.004047 0.000000 0.019969 0.000000
# 6 0.000000 0.000000 0.000000 -0.002590 0.000000 0.022824
#
#
# Mechanical properties :
#
#
# Convention : Reuss Voigt Hill
#
# Bulk Modulus (GPa) = 61.65531 73.75065 67.70298
# Shear Modulus (GPa) = 40.16775 43.98217 42.07496
#
# Velocity S-wave (km/s) = 4.08345 4.27294 4.17927
# Velocity P-wave (km/s) = 6.91574 7.41348 7.16893
#
# Compressibility (1/GPa) = 0.01621920
#
# Stress axis : x y z
#
# Youngs Moduli (GPa) = 131.97098 106.46066 85.89521
#
# Poissons Ratio (x) = 0.26767 0.19874
# Poissons Ratio (y) = 0.33181 0.11757
# Poissons Ratio (z) = 0.30535 0.14571
#
# Static dielectric constant tensor:
#      x y z
#    x 1.934590 0.000000 -0.025660 
#    y 0.000000 2.010740 0.000000 
#    z -0.025660 0.000000 1.941620 
# 
# From -- ./inp_files/32445.got.cif
#   From: 2010.05.17/outbox.cif.g08.bks.cpg/sg5_17_cif.got.tgz:32445.got - 2010.06.03 18:56:24.
