data_PCOD9130901
_publ_section_title
;
Structure prediction by ZEFSAII (Michael W. Deem and Ramdas Pophale) SiO2 
 PCOD9130901
Probable space group: P M
;
_chemical_formula_sum "Si O2"
_cell_formula_units_Z 14
_cell_length_a 8.832706
_cell_length_b 16.308439
_cell_length_c 10.167924
_cell_angle_alpha 90.000000
_cell_angle_beta 30.092555
_cell_angle_gamma 90.000000
_cell_volume 734.380828
_symmetry_space_group_name_H-M "P M"
_symmetry_group_IT_number 6
_symmetry_cell_setting 'monoclinic'
loop_
_space_group_symop_operation_xyz
x,y,z
x,-y,z
loop_
_atom_site_type_symbol
_atom_site_label
_atom_site_fract_x
_atom_site_fract_y
_atom_site_fract_z
Si Si1 0.622590 0.406726 0.369570
Si Si2 0.916499 0.234724 0.738902
Si Si3 0.590898 0.000000 0.369895
Si Si4 0.512889 0.177266 0.804307
Si Si5 0.864498 0.247724 0.295643
Si Si6 0.305878 0.000000 0.872858
Si Si7 0.914385 0.405353 0.866645
Si Si8 0.591669 0.173127 0.239565
O O1 0.696902 0.500000 0.347940
O O2 0.798386 0.343351 0.328161
O O3 0.262999 0.395247 0.649273
O O4 0.714371 0.394737 0.147880
O O5 0.760890 0.199058 0.726400
O O6 0.851691 0.331375 0.813264
O O7 0.274123 0.219787 0.466959
O O8 0.777906 0.186069 0.967029
O O9 0.400777 0.000000 0.647644
O O10 0.531731 0.920087 0.326721
O O11 0.942718 0.000000 0.149006
O O12 0.637963 0.209303 0.571371
O O13 0.434267 0.081596 0.845103
O O14 0.204901 0.223970 0.072823
O O15 0.786326 0.209883 0.212530
O O16 0.878914 0.500000 0.846096
#
# Coordination Sequence:
#
# PCOD9130901 Si02
#       8
#     2   2   1   2   2   1   2   2
#     4  10  20  34  62  93 118 151 203 257 292 342
#     4  12  24  42  60  96 124 160 199 251 309 358
#     4  12  24  38  66  94 114 154 216 256 292 340
#     4  12  26  39  64  87 130 166 193 246 315 366
#     4  12  21  42  63  92 116 165 205 244 298 365
#     4  12  22  42  58  90 122 160 204 244 306 372
#     4  10  19  35  60  89 119 156 199 249 301 355
#     4  12  23  40  67  87 121 153 213 257 286 352
#
# _framework density 19.063679
#
# number of rings (size 3 to 8) (size 9 to 14) (size 15 to 20)
#    0.000    0.571    5.714    3.429    0.000    1.143 
#    0.000    1.429    0.000    0.000    0.000    0.000 
#    0.000    0.000    0.000    0.000    0.000    0.000 
#
# Total GULP energy -78276.261655 kJ/mol
# GULP energy per Si atom -5591.161547 kJ/mol
# Density = 1.902029 g / cm^3
# Si number density = 19.063679 Si / 1000 Ang^3
#
#
#
# Elastic Constant Matrix: (Units=GPa)
#
#
# Indices 1 2 3 4 5 6 
#
# 1 48.4817 16.6752 -14.5258 0.0000 4.9914 0.0000
# 2 16.6752 135.1082 -1.4625 0.0000 0.0685 0.0000
# 3 -14.5258 -1.4625 67.3043 0.0000 -13.1873 0.0000
# 4 0.0000 0.0000 0.0000 28.6576 0.0000 -3.9608
# 5 4.9914 0.0685 -13.1873 0.0000 25.5102 0.0000
# 6 0.0000 0.0000 0.0000 -3.9608 0.0000 22.1706
#
#
#
# Elastic Compliance Matrix: (Units=1/GPa)
#
#
# Indices 1 2 3 4 5 6 
#
# 1 0.023170 -0.002810 0.004509 0.000000 -0.002195 0.000000
# 2 -0.002810 0.007744 -0.000372 0.000000 0.000337 0.000000
# 3 0.004509 -0.000372 0.017414 0.000000 0.008121 0.000000
# 4 0.000000 0.000000 0.000000 0.035778 0.000000 0.006392
# 5 -0.002195 0.000337 0.008121 0.000000 0.043827 0.000000
# 6 0.000000 0.000000 0.000000 0.006392 0.000000 0.046247
#
#
# Mechanical properties :
#
#
# Convention : Reuss Voigt Hill
#
# Bulk Modulus (GPa) = 19.61430 28.02979 23.82204
# Shear Modulus (GPa) = 26.52256 31.94815 29.23535
#
# Velocity S-wave (km/s) = 3.73401 4.09817 3.92032
# Velocity P-wave (km/s) = 5.37602 6.09332 5.74587
#
# Compressibility (1/GPa) = 0.05098321
#
# Stress axis : x y z
#
# Youngs Moduli (GPa) = 43.15959 129.13126 57.42441
#
# Poissons Ratio (x) = 0.36282 -0.25895
# Poissons Ratio (y) = 0.12127 0.02137
# Poissons Ratio (z) = -0.19463 0.04806
#
# Static dielectric constant tensor:
#      x y z
#    x 1.607080 0.000000 -0.003900 
#    y 0.000000 1.705640 0.000000 
#    z -0.003900 0.000000 1.635360 
# 
# From -- ./inp_files/3206.got.cif
#   From: 2010.05.17/outbox.cif.g08.bks.cpg/sg6_2_cif.got.tgz:3206.got - 2010.06.03 19:42:10.
