data_PCOD9130050
_publ_section_title
;
Structure prediction by ZEFSAII (Michael W. Deem and Ramdas Pophale) SiO2 
 PCOD9130050
Probable space group: C 2
;
_chemical_formula_sum "Si O2"
_cell_formula_units_Z 28
_cell_length_a 17.975168
_cell_length_b 13.571041
_cell_length_c 7.548263
_cell_angle_alpha 90.000000
_cell_angle_beta 142.856604
_cell_angle_gamma 90.000000
_cell_volume 1111.820858
_symmetry_space_group_name_H-M "C 2"
_symmetry_group_IT_number 5
_symmetry_cell_setting 'monoclinic'
loop_
_space_group_symop_operation_xyz
x,y,z
-x,y,-z
1/2+x,1/2+y,z
1/2-x,1/2+y,-z
loop_
_atom_site_type_symbol
_atom_site_label
_atom_site_fract_x
_atom_site_fract_y
_atom_site_fract_z
Si Si1 0.544153 0.126120 0.388224
Si Si2 0.510088 0.804312 0.814892
Si Si3 0.857261 0.981041 0.255197
Si Si4 0.758406 0.769518 0.101749
Si Si5 0.808578 0.451923 0.377918
Si Si6 0.873141 0.777984 0.854987
Si Si7 0.325364 0.654481 0.412711
O O1 0.500000 0.090208 0.500000
O O2 0.656976 0.199354 0.625437
O O3 0.599906 0.037483 0.376044
O O4 0.436959 0.196931 0.110917
O O5 0.412095 0.871257 0.523559
O O6 0.463400 0.691696 0.710593
O O7 0.500000 0.834448 0.000000
O O8 0.644038 0.812132 0.991565
O O9 0.844281 0.863546 0.227078
O O10 0.000000 0.007846 0.500000
O O11 0.814932 0.039492 0.350652
O O12 0.764637 0.005916 0.919386
O O13 0.711799 0.709442 0.842317
O O14 0.701757 0.381443 0.259041
O O15 0.756927 0.705616 0.591618
O O16 0.000000 0.807132 0.000000
#
# Coordination Sequence:
#
# PCOD9130050 Si02
#       7
#     4   4   4   4   4   4   4
#     4  12  24  45  75 109 145 192 258 321 380 449
#     4  11  27  46  68 106 154 197 249 312 382 471
#     4  12  23  43  73 111 143 186 262 324 376 449
#     4  12  23  42  74 105 141 198 253 321 374 445
#     4  11  25  45  74 104 145 199 252 307 388 449
#     4  11  25  47  71 105 154 196 242 317 382 467
#     4  11  24  46  73 104 142 198 256 312 384 439
#
# _framework density 25.183913
#
# number of rings (size 3 to 8) (size 9 to 14) (size 15 to 20)
#    0.000    0.571    5.714    2.571    8.000    0.571 
#    0.000    0.714    0.000    0.000    0.000    0.000 
#    0.000    0.000    0.000    0.000    0.000    0.000 
#
# Total GULP energy -77994.779072 kJ/mol
# GULP energy per Si atom -5571.055648 kJ/mol
# Density = 2.512659 g / cm^3
# Si number density = 25.183913 Si / 1000 Ang^3
#
#
#
# Elastic Constant Matrix: (Units=GPa)
#
#
# Indices 1 2 3 4 5 6 
#
# 1 109.3724 17.7396 23.8197 0.0000 38.9705 0.0000
# 2 17.7396 98.7307 5.1582 0.0000 1.4468 0.0000
# 3 23.8197 5.1582 78.7475 0.0000 26.6559 0.0000
# 4 0.0000 0.0000 0.0000 27.4227 0.0000 11.0263
# 5 38.9705 1.4468 26.6559 0.0000 41.2940 0.0000
# 6 0.0000 0.0000 0.0000 11.0263 0.0000 28.7747
#
#
#
# Elastic Compliance Matrix: (Units=1/GPa)
#
#
# Indices 1 2 3 4 5 6 
#
# 1 0.014325 -0.002397 0.000476 0.000000 -0.013742 0.000000
# 2 -0.002397 0.010565 -0.000777 0.000000 0.002394 0.000000
# 3 0.000476 -0.000777 0.016313 0.000000 -0.010952 0.000000
# 4 0.000000 0.000000 0.000000 0.043108 0.000000 -0.016519
# 5 -0.013742 0.002394 -0.010952 0.000000 0.044171 0.000000
# 6 0.000000 0.000000 0.000000 -0.016519 0.000000 0.041083
#
#
# Mechanical properties :
#
#
# Convention : Reuss Voigt Hill
#
# Bulk Modulus (GPa) = 27.92929 42.25395 35.09162
# Shear Modulus (GPa) = 26.75273 35.50715 31.12994
#
# Velocity S-wave (km/s) = 3.26282 3.75896 3.51964
# Velocity P-wave (km/s) = 5.03079 5.97112 5.52101
#
# Compressibility (1/GPa) = 0.03580470
#
# Stress axis : x y z
#
# Youngs Moduli (GPa) = 69.80992 94.65378 61.30053
#
# Poissons Ratio (x) = 0.22691 -0.02915
# Poissons Ratio (y) = 0.16735 0.04765
# Poissons Ratio (z) = -0.03320 0.07357
#
# Static dielectric constant tensor:
#      x y z
#    x 2.105750 0.000000 -0.103680 
#    y 0.000000 2.003040 0.000000 
#    z -0.103680 0.000000 2.037190 
# 
# From -- ./inp_files/29930.got.cif
#   From: 2010.05.17/outbox.cif.g08.bks.cpg/sg5_15_cif.got.tgz:29930.got - 2010.06.03 18:56:24.
