data_PCOD9130103
_publ_section_title
;
Structure prediction by ZEFSAII (Michael W. Deem and Ramdas Pophale) SiO2 
 PCOD9130103
Probable space group: C 2
;
_chemical_formula_sum "Si O2"
_cell_formula_units_Z 20
_cell_length_a 14.256006
_cell_length_b 5.288032
_cell_length_c 22.488966
_cell_angle_alpha 90.000000
_cell_angle_beta 155.888675
_cell_angle_gamma 90.000000
_cell_volume 692.572211
_symmetry_space_group_name_H-M "C 2"
_symmetry_group_IT_number 5
_symmetry_cell_setting 'monoclinic'
loop_
_space_group_symop_operation_xyz
x,y,z
-x,y,-z
1/2+x,1/2+y,z
1/2-x,1/2+y,-z
loop_
_atom_site_type_symbol
_atom_site_label
_atom_site_fract_x
_atom_site_fract_y
_atom_site_fract_z
Si Si1 0.761140 0.217200 0.084467
Si Si2 0.737528 0.857600 0.170379
Si Si3 0.494285 0.215500 0.823619
Si Si4 0.749831 0.210571 0.425261
Si Si5 0.012609 0.711824 0.578795
O O1 0.243238 0.138072 0.849436
O O2 0.876127 0.474839 0.130268
O O3 0.500000 0.762193 0.000000
O O4 0.895949 0.981951 0.132758
O O5 0.479032 0.206445 0.090305
O O6 0.984885 0.744218 0.292328
O O7 0.754245 0.775999 0.249630
O O8 0.257953 0.212282 0.651963
O O9 0.849486 0.944733 0.501933
O O10 0.903946 0.445081 0.533641
O O11 0.000000 0.713581 0.500000
#
# Coordination Sequence:
#
# PCOD9130103 Si02
#       5
#     4   4   4   4   4
#     4   9  19  37  63 105 148 182 235 309 366 431
#     4  11  26  49  75 117 152 201 256 318 374 457
#     4   9  18  37  69 105 136 189 245 296 370 438
#     4  11  24  50  80 105 151 208 248 311 385 456
#     4  12  28  51  77 110 153 202 259 311 385 459
#
# _framework density 28.877853000000002
#
# number of rings (size 3 to 8) (size 9 to 14) (size 15 to 20)
#    0.000    1.600    0.000    4.200    2.800    3.200 
#   10.800   12.000    0.000    0.000    0.000    0.000 
#    0.000    0.000    0.000    0.000    0.000    0.000 
#
# Total GULP energy -55918.392090 kJ/mol
# GULP energy per Si atom -5591.839209 kJ/mol
# Density = 2.881213 g / cm^3
# Si number density = 28.877853 Si / 1000 Ang^3
#
#
#
# Elastic Constant Matrix: (Units=GPa)
#
#
# Indices 1 2 3 4 5 6 
#
# 1 188.7057 46.1306 58.0402 0.0010 -38.0114 0.0007
# 2 46.1306 175.4019 46.8172 0.0015 10.1013 0.0090
# 3 58.0402 46.8172 192.1266 0.0126 -35.2196 -0.0003
# 4 0.0010 0.0015 0.0126 44.1938 -0.0015 20.7795
# 5 -38.0114 10.1013 -35.2196 -0.0015 76.8848 0.0001
# 6 0.0007 0.0090 -0.0003 20.7795 0.0001 -59.2287
#
#
#
# Elastic Compliance Matrix: (Units=1/GPa)
#
#
# Indices 1 2 3 4 5 6 
#
# 1 0.006629 -0.001636 -0.001052 0.000000 0.003010 0.000000
# 2 -0.001636 0.006692 -0.001578 0.000000 -0.002411 0.000001
# 3 -0.001052 -0.001578 0.006386 -0.000001 0.002613 -0.000001
# 4 0.000000 0.000000 -0.000001 0.019424 0.000000 0.006814
# 5 0.003010 -0.002411 0.002613 0.000000 0.016008 0.000000
# 6 0.000000 0.000001 -0.000001 0.006814 0.000000 -0.014493
#
#
# Mechanical properties :
#
#
# Convention : Reuss Voigt Hill
#
# Bulk Modulus (GPa) = 89.49255 95.35670 92.42463
# Shear Modulus (GPa) = 94.51138 39.38639 66.94888
#
# Velocity S-wave (km/s) = 5.72704 3.69710 4.82015
# Velocity P-wave (km/s) = 8.64808 7.16360 7.94061
#
# Compressibility (1/GPa) = 0.01117411
#
# Stress axis : x y z
#
# Youngs Moduli (GPa) = 150.84792 149.44126 156.58554
#
# Poissons Ratio (x) = 0.24449 0.16475
# Poissons Ratio (y) = 0.24679 0.24715
# Poissons Ratio (z) = 0.15871 0.23587
#
# Static dielectric constant tensor:
#      x y z
#    x 2.529520 0.000000 -0.066190 
#    y 0.000000 2.240480 0.000000 
#    z -0.066190 0.000000 2.265880 
# 
# From -- ./inp_files/70467.got.cif
#   From: 2010.05.17/outbox.cif.g08.bks.cpg/sg5_36_cif.got.tgz:70467.got - 2010.06.03 18:56:24.
