data_PCOD9130205
_publ_section_title
;
Structure prediction by ZEFSAII (Michael W. Deem and Ramdas Pophale) SiO2 
 PCOD9130205
Probable space group: C 2
;
_chemical_formula_sum "Si O2"
_cell_formula_units_Z 20
_cell_length_a 10.326336
_cell_length_b 9.825302
_cell_length_c 11.162291
_cell_angle_alpha 90.000000
_cell_angle_beta 128.189761
_cell_angle_gamma 90.000000
_cell_volume 890.123014
_symmetry_space_group_name_H-M "C 2"
_symmetry_group_IT_number 5
_symmetry_cell_setting 'monoclinic'
loop_
_space_group_symop_operation_xyz
x,y,z
-x,y,-z
1/2+x,1/2+y,z
1/2-x,1/2+y,-z
loop_
_atom_site_type_symbol
_atom_site_label
_atom_site_fract_x
_atom_site_fract_y
_atom_site_fract_z
Si Si1 0.739392 0.897230 0.863477
Si Si2 0.033236 0.871855 0.215940
Si Si3 0.882835 0.674082 0.320509
Si Si4 0.860304 0.074573 0.521013
Si Si5 0.871241 0.334789 0.669893
O O1 0.565831 0.834603 0.803205
O O2 0.827938 0.826977 0.800182
O O3 0.695768 0.045482 0.788187
O O4 0.871411 0.902303 0.044502
O O5 0.986878 0.758726 0.285187
O O6 0.084019 0.003410 0.322446
O O7 0.739603 0.771054 0.289473
O O8 0.000000 0.636023 0.500000
O O9 0.700308 0.985672 0.394362
O O10 0.000000 0.053761 0.500000
O O11 0.843150 0.233698 0.540917
#
# Coordination Sequence:
#
# PCOD9130205 Si02
#       5
#     4   4   4   4   4
#     4  11  29  44  72 105 147 190 238 296 366 427
#     4  11  25  49  66 105 147 183 235 303 354 423
#     4  12  24  48  76 102 145 191 245 298 358 430
#     4  12  26  46  72 108 145 184 245 305 352 428
#     4  12  26  44  76 105 138 192 242 292 359 428
#
# _framework density 22.468805
#
# number of rings (size 3 to 8) (size 9 to 14) (size 15 to 20)
#    0.000    0.400    6.000    1.200    5.600    0.800 
#    0.000    0.000    0.000    0.000    0.000    0.000 
#    0.000    0.000    0.000    0.000    0.000    0.000 
#
# Total GULP energy -56003.271852 kJ/mol
# GULP energy per Si atom -5600.327185 kJ/mol
# Density = 2.241766 g / cm^3
# Si number density = 22.468805 Si / 1000 Ang^3
#
#
#
# Elastic Constant Matrix: (Units=GPa)
#
#
# Indices 1 2 3 4 5 6 
#
# 1 118.7934 -4.2104 22.9624 0.0000 25.1931 0.0000
# 2 -4.2104 57.5657 -11.4353 0.0000 5.1495 0.0000
# 3 22.9624 -11.4353 94.1610 0.0000 11.8407 0.0000
# 4 0.0000 0.0000 0.0000 22.9351 0.0000 8.1289
# 5 25.1931 5.1495 11.8407 0.0000 41.5169 0.0000
# 6 0.0000 0.0000 0.0000 8.1289 0.0000 28.0179
#
#
#
# Elastic Compliance Matrix: (Units=1/GPa)
#
#
# Indices 1 2 3 4 5 6 
#
# 1 0.009971 0.000922 -0.001602 0.000000 -0.005708 0.000000
# 2 0.000922 0.018236 0.002432 0.000000 -0.003515 0.000000
# 3 -0.001602 0.002432 0.011639 0.000000 -0.002649 0.000000
# 4 0.000000 0.000000 0.000000 0.048599 0.000000 -0.014100
# 5 -0.005708 -0.003515 -0.002649 0.000000 0.028742 0.000000
# 6 0.000000 0.000000 0.000000 -0.014100 0.000000 0.039782
#
#
# Mechanical properties :
#
#
# Convention : Reuss Voigt Hill
#
# Bulk Modulus (GPa) = 23.06807 31.68371 27.37589
# Shear Modulus (GPa) = 29.77688 36.04088 32.90888
#
# Velocity S-wave (km/s) = 3.64435 4.00939 3.83122
# Velocity P-wave (km/s) = 5.29126 5.96368 5.63750
#
# Compressibility (1/GPa) = 0.04334996
#
# Stress axis : x y z
#
# Youngs Moduli (GPa) = 100.29317 54.83542 85.91649
#
# Poissons Ratio (x) = -0.05054 0.13762
# Poissons Ratio (y) = -0.09244 -0.20894
# Poissons Ratio (z) = 0.16065 -0.13336
#
# Static dielectric constant tensor:
#      x y z
#    x 1.858680 0.000000 0.040690 
#    y 0.000000 1.858640 0.000000 
#    z 0.040690 0.000000 1.822330 
# 
# From -- ./inp_files/39321.got.cif
#   From: 2010.05.17/outbox.cif.g08.bks.cpg/sg5_20_cif.got.tgz:39321.got - 2010.06.03 18:56:24.
