data_PCOD9130882
_publ_section_title
;
Structure prediction by ZEFSAII (Michael W. Deem and Ramdas Pophale) SiO2 
 PCOD9130882
Probable space group: P M
;
_chemical_formula_sum "Si O2"
_cell_formula_units_Z 16
_cell_length_a 10.469180
_cell_length_b 8.880274
_cell_length_c 8.515303
_cell_angle_alpha 90.000000
_cell_angle_beta 94.983615
_cell_angle_gamma 90.000000
_cell_volume 788.667987
_symmetry_space_group_name_H-M "P M"
_symmetry_group_IT_number 6
_symmetry_cell_setting 'monoclinic'
loop_
_space_group_symop_operation_xyz
x,y,z
x,-y,z
loop_
_atom_site_type_symbol
_atom_site_label
_atom_site_fract_x
_atom_site_fract_y
_atom_site_fract_z
Si Si1 0.493840 0.679878 0.155470
Si Si2 0.745123 0.832557 0.057932
Si Si3 0.618820 0.331614 0.476533
Si Si4 0.805727 0.166582 0.702589
Si Si5 0.200462 0.319469 0.088125
Si Si6 0.079328 0.680130 0.738714
Si Si7 0.883836 0.665649 0.313162
Si Si8 0.125519 0.175292 0.419855
O O1 0.520303 0.500000 0.145427
O O2 0.603503 0.772039 0.079375
O O3 0.508484 0.715401 0.343730
O O4 0.351863 0.708649 0.080314
O O5 0.847510 0.713763 0.135306
O O6 0.760701 0.000000 0.132078
O O7 0.772841 0.843311 0.880324
O O8 0.591782 0.500000 0.534393
O O9 0.672659 0.221503 0.611887
O O10 0.746996 0.339639 0.382596
O O11 0.929132 0.275329 0.703698
O O12 0.840991 0.000000 0.647564
O O13 0.180759 0.500000 0.100512
O O14 0.169549 0.247342 0.256394
O O15 0.127596 0.270133 0.919087
O O16 0.092275 0.500000 0.732506
O O17 0.154039 0.749691 0.594291
O O18 0.943521 0.500000 0.333332
O O19 0.973610 0.793408 0.389735
O O20 0.158383 0.000000 0.426231
#
# Coordination Sequence:
#
# PCOD9130882 Si02
#       8
#     2   2   2   2   2   2   2   2
#     4   9  20  41  63  84 111 152 205 254 298 352
#     4  10  21  35  55  86 121 158 194 242 306 366
#     4   9  18  33  57  83 111 146 187 239 294 349
#     4  11  22  35  54  86 124 155 191 241 303 369
#     4  10  23  44  67  89 119 163 215 262 303 360
#     4  11  23  40  64  92 124 162 206 257 308 365
#     4  10  19  34  57  84 114 150 194 243 294 357
#     4  12  24  38  61  92 126 164 202 252 314 374
#
# _framework density 20.287369999999999
#
# number of rings (size 3 to 8) (size 9 to 14) (size 15 to 20)
#    0.000    1.750    1.250    4.125    0.000    7.500 
#    2.250    0.000    0.000    0.000    0.000    0.000 
#    0.000    0.000    0.000    0.000    0.000    0.000 
#
# Total GULP energy -89123.335176 kJ/mol
# GULP energy per Si atom -5570.208448 kJ/mol
# Density = 2.024120 g / cm^3
# Si number density = 20.287370 Si / 1000 Ang^3
#
#
#
# Elastic Constant Matrix: (Units=GPa)
#
#
# Indices 1 2 3 4 5 6 
#
# 1 34.6637 -1.8290 17.1018 0.0000 6.3625 0.0000
# 2 -1.8290 63.6148 33.1529 0.0000 -10.9252 0.0000
# 3 17.1018 33.1529 109.8652 0.0000 -7.7379 0.0000
# 4 0.0000 0.0000 0.0000 31.1009 0.0000 -5.4133
# 5 6.3625 -10.9252 -7.7379 0.0000 27.9853 0.0000
# 6 0.0000 0.0000 0.0000 -5.4133 0.0000 6.0699
#
#
#
# Elastic Compliance Matrix: (Units=1/GPa)
#
#
# Indices 1 2 3 4 5 6 
#
# 1 0.033903 0.003076 -0.006796 0.000000 -0.008386 0.000000
# 2 0.003076 0.019917 -0.006110 0.000000 0.005387 0.000000
# 3 -0.006796 -0.006110 0.012182 0.000000 0.002528 0.000000
# 4 0.000000 0.000000 0.000000 0.038062 0.000000 0.033944
# 5 -0.008386 0.005387 0.002528 0.000000 0.040442 0.000000
# 6 0.000000 0.000000 0.000000 0.033944 0.000000 0.195018
#
#
# Mechanical properties :
#
#
# Convention : Reuss Voigt Hill
#
# Bulk Modulus (GPa) = 21.57822 33.88832 27.73327
# Shear Modulus (GPa) = 13.34646 23.67910 18.51278
#
# Velocity S-wave (km/s) = 2.56768 3.42011 3.02408
# Velocity P-wave (km/s) = 4.41022 5.68653 5.08855
#
# Compressibility (1/GPa) = 0.04634303
#
# Stress axis : x y z
#
# Youngs Moduli (GPa) = 29.49558 50.20768 82.09006
#
# Poissons Ratio (x) = -0.15446 0.55792
# Poissons Ratio (y) = -0.09074 0.50155
# Poissons Ratio (z) = 0.20047 0.30675
#
# Static dielectric constant tensor:
#      x y z
#    x 1.705160 0.000000 -0.006260 
#    y 0.000000 1.739720 0.000000 
#    z -0.006260 0.000000 1.793510 
# 
# From -- ./inp_files/3642.got.cif
#   From: 2010.05.17/outbox.cif.g08.bks.cpg/sg6_2_cif.got.tgz:3642.got - 2010.06.03 19:42:10.
