data_PCOD9130735
_publ_section_title
;
Structure prediction by ZEFSAII (Michael W. Deem and Ramdas Pophale) SiO2 
 PCOD9130735
Probable space group: C 2
;
_chemical_formula_sum "Si O2"
_cell_formula_units_Z 12
_cell_length_a 24.000000
_cell_length_b 12.000000
_cell_length_c 12.000000
_cell_angle_alpha 90.000000
_cell_angle_beta 20.000000
_cell_angle_gamma 90.000000
_cell_volume 1182.021615
_symmetry_space_group_name_H-M "C 2"
_symmetry_group_IT_number 5
_symmetry_cell_setting 'monoclinic'
loop_
_space_group_symop_operation_xyz
x,y,z
-x,y,-z
1/2+x,1/2+y,z
1/2-x,1/2+y,-z
loop_
_atom_site_type_symbol
_atom_site_label
_atom_site_fract_x
_atom_site_fract_y
_atom_site_fract_z
Si Si1 0.503203 0.361440 0.268837
Si Si2 0.233288 0.023106 0.971195
Si Si3 0.602506 0.157862 0.924750
Si Si4 0.669082 0.739977 0.966489
Si Si5 0.035461 0.083725 0.804157
Si Si6 0.051650 0.484042 0.221246
O O1 0.347986 0.293814 0.609614
O O2 0.457831 0.468082 0.277436
O O3 0.613326 0.422127 0.157745
O O4 0.584316 0.270239 0.033438
O O5 0.166172 0.147952 0.071497
O O6 0.388513 0.012734 0.596379
O O7 0.298814 0.012687 0.974540
O O8 0.789954 0.141299 0.538987
O O9 0.500000 0.159137 0.000000
O O10 0.558278 0.056143 0.094563
O O11 0.601856 0.665609 0.990039
O O12 0.560044 0.850740 0.186890
O O13 0.000000 0.062144 0.000000
#
# Coordination Sequence:
#
# PCOD9130735 Si02
#       6
#     4   4   4   4   4   4
#     4  11  23  45  71  98 133 180 231 284 344 413
#     4  10  25  43  71  98 139 176 228 292 338 415
#     4  12  25  44  69  99 139 185 227 283 346 411
#     4  11  23  45  67 102 133 178 227 285 351 400
#     4  11  25  44  67  99 136 179 232 282 340 410
#     4  11  24  44  67 104 134 182 227 280 351 404
#
# _framework density 10.152099
#
# number of rings (size 3 to 8) (size 9 to 14) (size 15 to 20)
#    0.000    1.000    3.333    2.500    4.667    1.333 
#    3.000    0.000    0.000    0.000    0.000    0.000 
#    0.000    0.000    0.000    0.000    0.000    0.000 
#
# Total GULP energy -67085.417477 kJ/mol
# GULP energy per Si atom -5590.451456 kJ/mol
# Density = 1.012899 g / cm^3
# Si number density = 10.152099 Si / 1000 Ang^3
#
#
#
# Elastic Constant Matrix: (Units=GPa)
#
#
# Indices 1 2 3 4 5 6 
#
# 1 126.7742 38.7173 3.1026 0.0000 -13.2301 0.0000
# 2 38.7173 159.7853 11.3506 0.0000 -11.1576 0.0000
# 3 3.1026 11.3506 71.4689 0.0000 -9.5357 0.0000
# 4 0.0000 0.0000 0.0000 43.2864 0.0000 -4.1224
# 5 -13.2301 -11.1576 -9.5357 0.0000 32.7733 0.0000
# 6 0.0000 0.0000 0.0000 -4.1224 0.0000 31.2520
#
#
#
# Elastic Compliance Matrix: (Units=1/GPa)
#
#
# Indices 1 2 3 4 5 6 
#
# 1 0.008785 -0.001944 0.000325 0.000000 0.002979 0.000000
# 2 -0.001944 0.006880 -0.000833 0.000000 0.001315 0.000000
# 3 0.000325 -0.000833 0.014659 0.000000 0.004113 0.000000
# 4 0.000000 0.000000 0.000000 0.023396 0.000000 0.003086
# 5 0.002979 0.001315 0.004113 0.000000 0.033360 0.000000
# 6 0.000000 0.000000 0.000000 0.003086 0.000000 0.032405
#
#
# Mechanical properties :
#
#
# Convention : Reuss Voigt Hill
#
# Bulk Modulus (GPa) = 39.33815 51.59661 45.46738
# Shear Modulus (GPa) = 37.63320 41.78620 39.70970
#
# Velocity S-wave (km/s) = 4.30986 4.54145 4.42717
# Velocity P-wave (km/s) = 6.64703 7.27782 6.96956
#
# Compressibility (1/GPa) = 0.02542062
#
# Stress axis : x y z
#
# Youngs Moduli (GPa) = 113.83589 145.34090 68.21743
#
# Poissons Ratio (x) = 0.28249 -0.02216
# Poissons Ratio (y) = 0.22125 0.05681
# Poissons Ratio (z) = -0.03697 0.12105
#
# Static dielectric constant tensor:
#      x y z
#    x 1.715740 0.000000 -0.023240 
#    y 0.000000 1.696800 0.000000 
#    z -0.023240 0.000000 1.754970 
# 
# From -- ./inp_files/35344.got.cif
#   From: 2010.05.17/outbox.ucp.g08.bks.cvg/sg5_18_cif.got.tgz:35344.got - 2010.06.11 12:53:14.
