data_PCOD9130555
_publ_section_title
;
Structure prediction by ZEFSAII (Michael W. Deem and Ramdas Pophale) SiO2 
 PCOD9130555
Probable space group: C 2
;
_chemical_formula_sum "Si O2"
_cell_formula_units_Z 14
_cell_length_a 10.540062
_cell_length_b 8.218591
_cell_length_c 6.851496
_cell_angle_alpha 90.000000
_cell_angle_beta 51.442323
_cell_angle_gamma 90.000000
_cell_volume 464.111362
_symmetry_space_group_name_H-M "C 2"
_symmetry_group_IT_number 5
_symmetry_cell_setting 'monoclinic'
loop_
_space_group_symop_operation_xyz
x,y,z
-x,y,-z
1/2+x,1/2+y,z
1/2-x,1/2+y,-z
loop_
_atom_site_type_symbol
_atom_site_label
_atom_site_fract_x
_atom_site_fract_y
_atom_site_fract_z
Si Si1 0.241121 0.367760 0.009758
Si Si2 0.322350 0.285855 0.327906
Si Si3 0.998376 0.112306 0.253792
Si Si4 0.500000 0.085962 0.500000
O O1 0.378703 0.473191 0.289778
O O2 0.123441 0.235906 0.022508
O O3 0.122510 0.480944 0.250710
O O4 0.365958 0.486990 0.779692
O O5 0.344198 0.265379 0.072685
O O6 0.404300 0.192567 0.430302
O O7 0.131674 0.236356 0.529860
#
# Coordination Sequence:
#
# PCOD9130555 Si02
#       4
#     4   4   4   2
#     4  12  26  51  77 120 159 210 269 334 398 489
#     4  12  26  47  79 116 161 211 259 337 390 487
#     4  12  26  51  82 114 165 206 271 328 410 470
#     4  12  26  46  80 114 164 206 276 318 406 476
#
# _framework density 30.165171999999998
#
# number of rings (size 3 to 8) (size 9 to 14) (size 15 to 20)
#    0.000    0.000    5.714    2.571    4.000    0.000 
#    0.000    0.000    0.000    0.000    0.000    0.000 
#    0.000    0.000    0.000    0.000    0.000    0.000 
#
# Total GULP energy -39027.055870 kJ/mol
# GULP energy per Si atom -5575.293696 kJ/mol
# Density = 3.009651 g / cm^3
# Si number density = 30.165172 Si / 1000 Ang^3
#
#
#
# Elastic Constant Matrix: (Units=GPa)
#
#
# Indices 1 2 3 4 5 6 
#
# 1 228.4972 118.5859 47.6972 0.0000 -4.9559 0.0000
# 2 118.5859 210.1375 92.8176 0.0000 -42.0721 0.0000
# 3 47.6972 92.8176 166.4525 0.0000 -29.4162 0.0000
# 4 0.0000 0.0000 0.0000 99.3173 0.0000 -27.4442
# 5 -4.9559 -42.0721 -29.4162 0.0000 52.5829 0.0000
# 6 0.0000 0.0000 0.0000 -27.4442 0.0000 81.3780
#
#
#
# Elastic Compliance Matrix: (Units=1/GPa)
#
#
# Indices 1 2 3 4 5 6 
#
# 1 0.006511 -0.004230 0.000004 0.000000 -0.002769 0.000000
# 2 -0.004230 0.009670 -0.003200 0.000000 0.005549 0.000000
# 3 0.000004 -0.003200 0.008143 0.000000 0.001996 0.000000
# 4 0.000000 0.000000 0.000000 0.011103 0.000000 0.003745
# 5 -0.002769 0.005549 0.001996 0.000000 0.024313 0.000000
# 6 0.000000 0.000000 0.000000 0.003745 0.000000 0.013551
#
#
# Mechanical properties :
#
#
# Convention : Reuss Voigt Hill
#
# Bulk Modulus (GPa) = 105.56722 124.80985 115.18854
# Shear Modulus (GPa) = 54.76322 69.72140 62.24231
#
# Velocity S-wave (km/s) = 4.26543 4.81284 4.54738
# Velocity P-wave (km/s) = 7.70265 8.50587 8.11421
#
# Compressibility (1/GPa) = 0.00947264
#
# Stress axis : x y z
#
# Youngs Moduli (GPa) = 153.58390 103.40930 122.79754
#
# Poissons Ratio (x) = 0.43747 -0.00048
# Poissons Ratio (y) = 0.64974 0.39290
# Poissons Ratio (z) = -0.00060 0.33086
#
# Static dielectric constant tensor:
#      x y z
#    x 2.430080 0.000000 -0.044290 
#    y 0.000000 2.299100 0.000000 
#    z -0.044290 0.000000 2.387040 
# 
# From -- ./inp_files/13855.got.cif
#   From: 2010.05.17/outbox.cif.g08.bks.cpg/sg5_7_cif.got.tgz:13855.got - 2010.06.03 18:56:24.
