data_PCOD9130651
_publ_section_title
;
Structure prediction by ZEFSAII (Michael W. Deem and Ramdas Pophale) SiO2 
 PCOD9130651
Probable space group: C 2
;
_chemical_formula_sum "Si O2"
_cell_formula_units_Z 20
_cell_length_a 6.797452
_cell_length_b 11.815643
_cell_length_c 12.788976
_cell_angle_alpha 90.000000
_cell_angle_beta 52.131957
_cell_angle_gamma 90.000000
_cell_volume 810.869619
_symmetry_space_group_name_H-M "C 2"
_symmetry_group_IT_number 5
_symmetry_cell_setting 'monoclinic'
loop_
_space_group_symop_operation_xyz
x,y,z
-x,y,-z
1/2+x,1/2+y,z
1/2-x,1/2+y,-z
loop_
_atom_site_type_symbol
_atom_site_label
_atom_site_fract_x
_atom_site_fract_y
_atom_site_fract_z
Si Si1 0.276037 0.009730 0.490356
Si Si2 0.106948 0.344699 0.733617
Si Si3 0.960926 0.097653 0.764219
Si Si4 0.218640 0.530040 0.045493
Si Si5 0.565571 0.172689 0.271463
O O1 0.500000 0.992507 0.500000
O O2 0.025945 0.030614 0.638390
O O3 0.327673 0.127240 0.410286
O O4 0.298818 0.909624 0.399516
O O5 0.948137 0.233089 0.751788
O O6 0.336338 0.294506 0.727208
O O7 0.935700 0.424047 0.860961
O O8 0.218891 0.094295 0.746480
O O9 0.759944 0.047317 0.908617
O O10 0.086534 0.639305 0.143890
O O11 0.500000 0.521968 0.000000
#
# Coordination Sequence:
#
# PCOD9130651 Si02
#       5
#     4   4   4   4   4
#     4   9  15  30  50  76 101 127 171 211 250 308
#     4   9  17  28  50  77  99 138 167 205 268 297
#     4   8  16  28  46  77 102 124 176 211 244 317
#     4   9  15  30  50  76 101 127 171 211 250 308
#     4   7  15  28  48  74 101 126 171 212 244 314
#
# _framework density 24.664878999999999
#
# number of rings (size 3 to 8) (size 9 to 14) (size 15 to 20)
#    1.200    2.400    0.000    1.200    0.000    0.000 
#    0.000    6.000    0.000    0.000   31.200    0.000 
#    0.000    0.000    0.000    0.000    0.000    0.000 
#
# Total GULP energy -55789.925916 kJ/mol
# GULP energy per Si atom -5578.992592 kJ/mol
# Density = 2.460874 g / cm^3
# Si number density = 24.664879 Si / 1000 Ang^3
#
#
#
# Elastic Constant Matrix: (Units=GPa)
#
#
# Indices 1 2 3 4 5 6 
#
# 1 82.9434 33.5918 41.8283 -0.0005 12.8896 0.0008
# 2 33.5918 172.8267 138.6183 -0.0001 4.1805 0.0002
# 3 41.8283 138.6183 293.2179 -0.0004 -0.7869 0.0005
# 4 -0.0005 -0.0001 -0.0004 20.9044 0.0004 -2.0636
# 5 12.8896 4.1805 -0.7869 0.0004 19.1425 -0.0006
# 6 0.0008 0.0002 0.0005 -2.0636 -0.0006 39.4486
#
#
#
# Elastic Compliance Matrix: (Units=1/GPa)
#
#
# Indices 1 2 3 4 5 6 
#
# 1 0.014912 -0.001506 -0.001442 0.000000 -0.009771 0.000000
# 2 -0.001506 0.009567 -0.004311 0.000000 -0.001253 0.000000
# 3 -0.001442 -0.004311 0.005660 0.000000 0.002145 0.000000
# 4 0.000000 0.000000 0.000000 0.048085 -0.000001 0.002515
# 5 -0.009771 -0.001253 0.002145 -0.000001 0.059181 0.000001
# 6 0.000000 0.000000 0.000000 0.002515 0.000001 0.025481
#
#
# Mechanical properties :
#
#
# Convention : Reuss Voigt Hill
#
# Bulk Modulus (GPa) = 64.01474 108.56276 86.28875
# Shear Modulus (GPa) = 27.38067 38.22906 32.80486
#
# Velocity S-wave (km/s) = 3.33544 3.94120 3.65090
# Velocity P-wave (km/s) = 6.39091 8.05117 7.26860
#
# Compressibility (1/GPa) = 0.01562140
#
# Stress axis : x y z
#
# Youngs Moduli (GPa) = 67.06153 104.52427 176.67683
#
# Poissons Ratio (x) = 0.15739 0.25469
# Poissons Ratio (y) = 0.10098 0.76173
# Poissons Ratio (z) = 0.09667 0.45065
#
# Static dielectric constant tensor:
#      x y z
#    x 2.021930 0.000000 0.004000 
#    y 0.000000 1.917320 0.000000 
#    z 0.004000 0.000000 1.959850 
# 
# From -- ./inp_files/35160.got.cif
#   From: 2010.05.17/outbox.cif.g08.bks.cpg/sg5_18_cif.got.tgz:35160.got - 2010.06.03 18:56:24.
