data_PCOD9130682
_publ_section_title
;
Structure prediction by ZEFSAII (Michael W. Deem and Ramdas Pophale) SiO2 
 PCOD9130682
Probable space group: C 2
;
_chemical_formula_sum "Si O2"
_cell_formula_units_Z 13
_cell_length_a 15.000000
_cell_length_b 9.000000
_cell_length_c 15.000000
_cell_angle_alpha 90.000000
_cell_angle_beta 140.000000
_cell_angle_gamma 90.000000
_cell_volume 1301.644910
_symmetry_space_group_name_H-M "C 2"
_symmetry_group_IT_number 5
_symmetry_cell_setting 'monoclinic'
loop_
_space_group_symop_operation_xyz
x,y,z
-x,y,-z
1/2+x,1/2+y,z
1/2-x,1/2+y,-z
loop_
_atom_site_type_symbol
_atom_site_label
_atom_site_fract_x
_atom_site_fract_y
_atom_site_fract_z
Si Si1 0.435403 0.149980 0.548685
Si Si2 0.431878 0.904988 0.229322
Si Si3 0.887275 0.149129 0.721563
Si Si4 0.500000 0.732199 0.000000
Si Si5 0.374086 0.305183 0.962406
Si Si6 0.032797 0.879035 0.770166
Si Si7 0.327638 0.985291 0.956319
O O1 0.500000 0.147643 0.500000
O O2 0.273564 0.185350 0.411639
O O3 0.500680 0.271837 0.664603
O O4 0.474006 0.998877 0.631098
O O5 0.515797 0.759628 0.261695
O O6 0.279117 0.878023 0.156143
O O7 0.398541 0.983103 0.108446
O O8 0.941249 0.154782 0.865542
O O9 0.906581 0.984981 0.697684
O O10 0.620775 0.839983 0.055634
O O11 0.357761 0.133125 0.924883
O O12 0.500000 0.368427 0.000000
O O13 0.420716 0.306193 0.101161
O O14 0.164670 0.978070 0.846173
#
# Coordination Sequence:
#
# PCOD9130682 Si02
#       7
#     4   4   4   2   4   4   4
#     4  12  26  44  65  92 137 180 221 271 332 392
#     4  10  23  43  63  96 132 172 220 272 326 389
#     4  11  24  43  68  95 133 177 221 274 331 391
#     4  10  22  38  70 100 126 166 224 274 330 396
#     4  11  22  38  69 100 130 169 220 277 326 386
#     4  11  24  41  64  96 131 172 219 269 334 390
#     4  10  19  39  65  94 131 164 212 275 328 384
#
# _framework density 9.9873630000000002
#
# number of rings (size 3 to 8) (size 9 to 14) (size 15 to 20)
#    0.000    1.231    3.846    1.846    3.231    1.231 
#    0.000    0.769    0.000    0.000    0.000    0.000 
#    0.000    0.000    0.000    0.000    0.000    0.000 
#
# Total GULP energy -72520.381098 kJ/mol
# GULP energy per Si atom -5578.490854 kJ/mol
# Density = 0.996463 g / cm^3
# Si number density = 9.987363 Si / 1000 Ang^3
#
#
#
# Elastic Constant Matrix: (Units=GPa)
#
#
# Indices 1 2 3 4 5 6 
#
# 1 109.5901 27.9532 37.9777 0.0000 -0.5689 0.0000
# 2 27.9532 76.2396 33.3636 0.0000 -9.2466 0.0000
# 3 37.9777 33.3636 103.0456 0.0000 -6.6922 0.0000
# 4 0.0000 0.0000 0.0000 12.3784 0.0000 -3.7686
# 5 -0.5689 -9.2466 -6.6922 0.0000 41.5176 0.0000
# 6 0.0000 0.0000 0.0000 -3.7686 0.0000 10.0177
#
#
#
# Elastic Compliance Matrix: (Units=1/GPa)
#
#
# Indices 1 2 3 4 5 6 
#
# 1 0.010926 -0.002719 -0.003209 0.000000 -0.000973 0.000000
# 2 -0.002719 0.016249 -0.004069 0.000000 0.002926 0.000000
# 3 -0.003209 -0.004069 0.012271 0.000000 0.001028 0.000000
# 4 0.000000 0.000000 0.000000 0.091235 0.000000 0.034322
# 5 -0.000973 0.002926 0.001028 0.000000 0.024890 0.000000
# 6 0.000000 0.000000 0.000000 0.034322 0.000000 0.112735
#
#
# Mechanical properties :
#
#
# Convention : Reuss Voigt Hill
#
# Bulk Modulus (GPa) = 51.41155 54.16270 52.78712
# Shear Modulus (GPa) = 16.96146 25.42143 21.19145
#
# Velocity S-wave (km/s) = 2.91717 3.57133 3.26070
# Velocity P-wave (km/s) = 6.09432 6.64683 6.37656
#
# Compressibility (1/GPa) = 0.01945088
#
# Stress axis : x y z
#
# Youngs Moduli (GPa) = 91.52722 61.54210 81.49032
#
# Poissons Ratio (x) = 0.16736 0.26154
# Poissons Ratio (y) = 0.24890 0.33156
# Poissons Ratio (z) = 0.29375 0.25040
#
# Static dielectric constant tensor:
#      x y z
#    x 1.720420 0.000000 0.021370 
#    y 0.000000 1.771770 0.000000 
#    z 0.021370 0.000000 1.648480 
# 
# From -- ./inp_files/28897.got.cif
#   From: 2010.05.17/outbox.ucp.g08.bks.cvg/sg5_15_cif.got.tgz:28897.got - 2010.06.11 12:53:14.
