data_PCOD9130597
_publ_section_title
;
Structure prediction by ZEFSAII (Michael W. Deem and Ramdas Pophale) SiO2 
 PCOD9130597
Probable space group: C 2
;
_chemical_formula_sum "Si O2"
_cell_formula_units_Z 16
_cell_length_a 22.005690
_cell_length_b 5.104155
_cell_length_c 8.482128
_cell_angle_alpha 90.000000
_cell_angle_beta 37.203857
_cell_angle_gamma 90.000000
_cell_volume 576.062610
_symmetry_space_group_name_H-M "C 2"
_symmetry_group_IT_number 5
_symmetry_cell_setting 'monoclinic'
loop_
_space_group_symop_operation_xyz
x,y,z
-x,y,-z
1/2+x,1/2+y,z
1/2-x,1/2+y,-z
loop_
_atom_site_type_symbol
_atom_site_label
_atom_site_fract_x
_atom_site_fract_y
_atom_site_fract_z
Si Si1 0.298160 0.511380 0.824132
Si Si2 0.596679 0.562184 0.907043
Si Si3 0.027701 0.367659 0.598537
Si Si4 0.172237 0.691254 0.539665
O O1 0.405820 0.639996 0.616024
O O2 0.302490 0.429268 0.632583
O O3 0.274249 0.252699 0.975909
O O4 0.715575 0.612662 0.644330
O O5 0.607894 0.256985 0.829636
O O6 0.500000 0.635885 0.000000
O O7 0.564497 0.721720 0.126757
O O8 0.101994 0.511646 0.570635
O O9 0.000000 0.536440 0.500000
#
# Coordination Sequence:
#
# PCOD9130597 Si02
#       4
#     4   4   4   4
#     4  12  26  54  87 128 177 230 288 368 442 514
#     4  12  28  56  84 128 171 238 294 359 447 530
#     4  12  29  57  91 133 176 238 302 368 448 537
#     4  12  29  56  91 125 188 233 296 377 443 534
#
# _framework density 27.774757000000001
#
# number of rings (size 3 to 8) (size 9 to 14) (size 15 to 20)
#    0.000    0.000    5.000    3.000    0.000    4.000 
#   13.500    0.000    0.000    0.000    0.000    0.000 
#    0.000    0.000    0.000    0.000    0.000    0.000 
#
# Total GULP energy -44561.940117 kJ/mol
# GULP energy per Si atom -5570.242515 kJ/mol
# Density = 2.771154 g / cm^3
# Si number density = 27.774757 Si / 1000 Ang^3
#
#
#
# Elastic Constant Matrix: (Units=GPa)
#
#
# Indices 1 2 3 4 5 6 
#
# 1 161.4625 47.4408 53.8099 0.0000 -16.2244 0.0000
# 2 47.4408 140.7330 79.9561 -0.0001 6.6356 0.0008
# 3 53.8099 79.9561 172.2375 0.0000 -23.9010 0.0000
# 4 0.0000 -0.0001 0.0000 65.0787 -0.0001 7.2422
# 5 -16.2244 6.6356 -23.9010 -0.0001 53.1415 0.0000
# 6 0.0000 0.0008 0.0000 7.2422 0.0000 44.3421
#
#
#
# Elastic Compliance Matrix: (Units=1/GPa)
#
#
# Indices 1 2 3 4 5 6 
#
# 1 0.007332 -0.001927 -0.001122 0.000000 0.001975 0.000000
# 2 -0.001927 0.010783 -0.004983 0.000000 -0.004176 0.000000
# 3 -0.001122 -0.004983 0.009075 0.000000 0.004361 0.000000
# 4 0.000000 0.000000 0.000000 0.015650 0.000000 -0.002556
# 5 0.001975 -0.004176 0.004361 0.000000 0.021904 0.000000
# 6 0.000000 0.000000 0.000000 -0.002556 0.000000 0.022969
#
#
# Mechanical properties :
#
#
# Convention : Reuss Voigt Hill
#
# Bulk Modulus (GPa) = 89.88454 92.98298 91.43376
# Shear Modulus (GPa) = 46.51707 52.06086 49.28897
#
# Velocity S-wave (km/s) = 4.09687 4.33413 4.21717
# Velocity P-wave (km/s) = 7.40347 7.65483 7.53020
#
# Compressibility (1/GPa) = 0.01112538
#
# Stress axis : x y z
#
# Youngs Moduli (GPa) = 136.38888 92.73456 110.19255
#
# Poissons Ratio (x) = 0.17872 0.12363
# Poissons Ratio (y) = 0.26286 0.54912
# Poissons Ratio (z) = 0.15302 0.46213
#
# Static dielectric constant tensor:
#      x y z
#    x 2.305880 0.000000 0.066080 
#    y 0.000000 2.368450 0.000000 
#    z 0.066080 0.000000 2.138300 
# 
# From -- ./inp_files/28231.got.cif
#   From: 2010.05.17/outbox.cif.g08.bks.cpg/sg5_15_cif.got.tgz:28231.got - 2010.06.03 18:56:24.
