data_PCOD9130419
_publ_section_title
;
Structure prediction by ZEFSAII (Michael W. Deem and Ramdas Pophale) SiO2 
 PCOD9130419
Probable space group: C 2
;
_chemical_formula_sum "Si O2"
_cell_formula_units_Z 24
_cell_length_a 12.058404
_cell_length_b 9.221356
_cell_length_c 14.475491
_cell_angle_alpha 90.000000
_cell_angle_beta 31.117930
_cell_angle_gamma 90.000000
_cell_volume 831.843233
_symmetry_space_group_name_H-M "C 2"
_symmetry_group_IT_number 5
_symmetry_cell_setting 'monoclinic'
loop_
_space_group_symop_operation_xyz
x,y,z
-x,y,-z
1/2+x,1/2+y,z
1/2-x,1/2+y,-z
loop_
_atom_site_type_symbol
_atom_site_label
_atom_site_fract_x
_atom_site_fract_y
_atom_site_fract_z
Si Si1 0.910801 0.800700 0.723058
Si Si2 0.468044 0.735410 0.749109
Si Si3 0.427266 0.937490 0.925967
Si Si4 0.339519 0.547926 0.541095
Si Si5 0.546404 0.332093 0.100771
Si Si6 0.865484 0.481022 0.688011
O O1 0.015101 0.789276 0.750955
O O2 0.701242 0.902880 0.888565
O O3 0.843337 0.642977 0.740312
O O4 0.070044 0.886187 0.543293
O O5 0.205404 0.714081 0.938454
O O6 0.614360 0.620308 0.592213
O O7 0.491954 0.880326 0.670308
O O8 0.506904 0.778921 0.827499
O O9 0.221313 0.957834 0.002586
O O10 0.500000 0.623836 0.500000
O O11 0.122727 0.536118 0.755057
O O12 0.353762 0.398371 0.181842
O O13 0.000000 0.490853 0.500000
#
# Coordination Sequence:
#
# PCOD9130419 Si02
#       6
#     4   4   4   4   4   4
#     4   9  25  50  75 115 159 199 275 343 397 501
#     4   9  24  47  72 107 157 209 270 327 408 503
#     4   8  24  49  77 109 152 221 253 346 414 474
#     4  12  24  50  75 115 158 206 267 337 418 494
#     4   8  23  50  77 109 160 220 257 348 410 473
#     4  12  23  47  79 123 156 218 281 334 412 512
#
# _framework density 28.851589000000001
#
# number of rings (size 3 to 8) (size 9 to 14) (size 15 to 20)
#    2.000    0.000    0.000    1.500    2.333    7.333 
#   27.000    0.000    0.000    0.000    0.000    0.000 
#    0.000    0.000    0.000    0.000    0.000    0.000 
#
# Total GULP energy -67076.459845 kJ/mol
# GULP energy per Si atom -5589.704987 kJ/mol
# Density = 2.878592 g / cm^3
# Si number density = 28.851589 Si / 1000 Ang^3
#
#
#
# Elastic Constant Matrix: (Units=GPa)
#
#
# Indices 1 2 3 4 5 6 
#
# 1 65.2182 22.0495 31.9795 -0.0008 -8.5709 -0.0001
# 2 22.0495 109.9535 34.3170 -0.0008 -1.4487 0.0002
# 3 31.9795 34.3170 240.2269 -0.0020 -13.7843 0.0012
# 4 -0.0008 -0.0008 -0.0020 55.3459 0.0012 8.3849
# 5 -8.5709 -1.4487 -13.7843 0.0012 60.0160 -0.0005
# 6 -0.0001 0.0002 0.0012 8.3849 -0.0005 24.5663
#
#
#
# Elastic Compliance Matrix: (Units=1/GPa)
#
#
# Indices 1 2 3 4 5 6 
#
# 1 0.017462 -0.002916 -0.001793 0.000000 0.002012 0.000000
# 2 -0.002916 0.010006 -0.001065 0.000000 -0.000420 0.000000
# 3 -0.001793 -0.001065 0.004598 0.000000 0.000774 0.000000
# 4 0.000000 0.000000 0.000000 0.019053 0.000000 -0.006503
# 5 0.002012 -0.000420 0.000774 0.000000 0.017117 0.000000
# 6 0.000000 0.000000 0.000000 -0.006503 0.000000 0.042926
#
#
# Mechanical properties :
#
#
# Convention : Reuss Voigt Hill
#
# Bulk Modulus (GPa) = 48.73503 65.78786 57.26144
# Shear Modulus (GPa) = 38.59494 49.78915 44.19204
#
# Velocity S-wave (km/s) = 3.66143 4.15866 3.91794
# Velocity P-wave (km/s) = 5.89941 6.77576 6.35272
#
# Compressibility (1/GPa) = 0.02051912
#
# Stress axis : x y z
#
# Youngs Moduli (GPa) = 57.26613 99.93547 217.48618
#
# Poissons Ratio (x) = 0.29139 0.38988
# Poissons Ratio (y) = 0.16698 0.23170
# Poissons Ratio (z) = 0.10266 0.10647
#
# Static dielectric constant tensor:
#      x y z
#    x 2.472720 0.000000 -0.087840 
#    y 0.000000 2.376060 0.000000 
#    z -0.087840 0.000000 2.226170 
# 
# From -- ./inp_files/62144.got.cif
#   From: 2010.05.17/outbox.cif.g08.bks.cpg/sg5_32_cif.got.tgz:62144.got - 2010.06.03 18:56:24.
