data_PCOD9130094
_publ_section_title
;
Structure prediction by ZEFSAII (Michael W. Deem and Ramdas Pophale) SiO2 
 PCOD9130094
Probable space group: C 2
;
_chemical_formula_sum "Si O2"
_cell_formula_units_Z 26
_cell_length_a 9.719219
_cell_length_b 16.989828
_cell_length_c 8.442012
_cell_angle_alpha 90.000000
_cell_angle_beta 134.137851
_cell_angle_gamma 90.000000
_cell_volume 1000.435126
_symmetry_space_group_name_H-M "C 2"
_symmetry_group_IT_number 5
_symmetry_cell_setting 'monoclinic'
loop_
_space_group_symop_operation_xyz
x,y,z
-x,y,-z
1/2+x,1/2+y,z
1/2-x,1/2+y,-z
loop_
_atom_site_type_symbol
_atom_site_label
_atom_site_fract_x
_atom_site_fract_y
_atom_site_fract_z
Si Si1 0.103680 0.736790 0.920954
Si Si2 0.613901 0.594575 0.842880
Si Si3 0.500000 0.460038 0.500000
Si Si4 0.789621 0.816231 0.516396
Si Si5 0.918759 0.360512 0.090902
Si Si6 0.720303 0.088977 0.666617
Si Si7 0.226589 0.925713 0.224580
O O1 0.928883 0.742558 0.654118
O O2 0.237358 0.663946 0.079974
O O3 0.236661 0.803361 0.947450
O O4 0.000000 0.758521 0.000000
O O5 0.601804 0.520792 0.708770
O O6 0.392543 0.621418 0.695320
O O7 0.694946 0.580648 0.086369
O O8 0.381477 0.394493 0.507075
O O9 0.594418 0.802388 0.269520
O O10 0.731923 0.847835 0.642709
O O11 0.857174 0.421762 0.174296
O O12 0.000000 0.401650 0.000000
O O13 0.500000 0.115437 0.500000
O O14 0.717250 0.997382 0.618412
O O15 0.000000 0.929615 0.000000
#
# Coordination Sequence:
#
# PCOD9130094 Si02
#       7
#     4   4   2   4   4   4   4
#     4  12  28  53  76 113 163 222 267 339 411 500
#     4  11  28  49  77 115 168 216 279 339 415 497
#     4  12  26  52  80 128 162 206 280 360 394 492
#     4  12  24  47  80 113 155 211 270 339 410 480
#     4  12  27  42  78 117 158 206 277 338 406 484
#     4  11  24  48  79 110 162 221 271 338 423 494
#     4  12  21  47  77 111 158 209 267 339 416 485
#
# _framework density 25.988692
#
# number of rings (size 3 to 8) (size 9 to 14) (size 15 to 20)
#    0.000    0.308    6.154    2.308    4.308    3.692 
#    1.385    0.000    0.000    0.000    0.000    0.000 
#    0.000    0.000    0.000    0.000    0.000    0.000 
#
# Total GULP energy -72449.609591 kJ/mol
# GULP energy per Si atom -5573.046892 kJ/mol
# Density = 2.592954 g / cm^3
# Si number density = 25.988692 Si / 1000 Ang^3
#
#
#
# Elastic Constant Matrix: (Units=GPa)
#
#
# Indices 1 2 3 4 5 6 
#
# 1 191.9602 42.9043 48.7294 0.0000 4.1136 0.0000
# 2 42.9043 84.3422 14.7021 0.0000 9.1016 0.0000
# 3 48.7294 14.7021 118.8050 0.0000 37.1782 0.0000
# 4 0.0000 0.0000 0.0000 34.0498 0.0000 1.2187
# 5 4.1136 9.1016 37.1782 0.0000 48.9674 0.0000
# 6 0.0000 0.0000 0.0000 1.2187 0.0000 29.6933
#
#
#
# Elastic Compliance Matrix: (Units=1/GPa)
#
#
# Indices 1 2 3 4 5 6 
#
# 1 0.006630 -0.003091 -0.003072 0.000000 0.002350 0.000000
# 2 -0.003091 0.013639 0.000383 0.000000 -0.002566 0.000000
# 3 -0.003072 0.000383 0.012554 0.000000 -0.009345 0.000000
# 4 0.000000 0.000000 0.000000 0.029412 0.000000 -0.001207
# 5 0.002350 -0.002566 -0.009345 0.000000 0.027796 0.000000
# 6 0.000000 0.000000 0.000000 -0.001207 0.000000 0.033727
#
#
# Mechanical properties :
#
#
# Convention : Reuss Voigt Hill
#
# Bulk Modulus (GPa) = 47.03045 67.53100 57.28073
# Shear Modulus (GPa) = 35.11100 41.79352 38.45226
#
# Velocity S-wave (km/s) = 3.67960 4.01452 3.85070
# Velocity P-wave (km/s) = 6.01568 6.89417 6.46985
#
# Compressibility (1/GPa) = 0.02126282
#
# Stress axis : x y z
#
# Youngs Moduli (GPa) = 150.83642 73.32038 79.65480
#
# Poissons Ratio (x) = 0.22660 0.24472
# Poissons Ratio (y) = 0.46617 -0.03050
# Poissons Ratio (z) = 0.46340 -0.02807
#
# Static dielectric constant tensor:
#      x y z
#    x 2.056110 0.000000 -0.038370 
#    y 0.000000 2.245890 0.000000 
#    z -0.038370 0.000000 2.178390 
# 
# From -- ./inp_files/17059.got.cif
#   From: 2010.05.17/outbox.cif.g08.bks.cpg/sg5_9_cif.got.tgz:17059.got - 2010.06.03 18:56:24.
