data_PCOD9130318
_publ_section_title
;
Structure prediction by ZEFSAII (Michael W. Deem and Ramdas Pophale) SiO2 
 PCOD9130318
Probable space group: C 2
;
_chemical_formula_sum "Si O2"
_cell_formula_units_Z 20
_cell_length_a 10.072601
_cell_length_b 9.882745
_cell_length_c 13.261112
_cell_angle_alpha 90.000000
_cell_angle_beta 43.308391
_cell_angle_gamma 90.000000
_cell_volume 905.473511
_symmetry_space_group_name_H-M "C 2"
_symmetry_group_IT_number 5
_symmetry_cell_setting 'monoclinic'
loop_
_space_group_symop_operation_xyz
x,y,z
-x,y,-z
1/2+x,1/2+y,z
1/2-x,1/2+y,-z
loop_
_atom_site_type_symbol
_atom_site_label
_atom_site_fract_x
_atom_site_fract_y
_atom_site_fract_z
Si Si1 0.751879 0.579880 0.246201
Si Si2 0.120233 0.096194 0.645636
Si Si3 0.169656 0.321014 0.164667
Si Si4 0.146179 0.869202 0.153819
Si Si5 0.509232 0.090773 0.682530
O O1 0.516377 0.582582 0.379109
O O2 0.794006 0.720823 0.166148
O O3 0.783856 0.459666 0.148957
O O4 0.864677 0.567470 0.285836
O O5 0.341029 0.100506 0.492519
O O6 0.029806 0.233526 0.741361
O O7 0.046629 0.964400 0.746423
O O8 0.125320 0.459816 0.246363
O O9 0.265372 0.346428 0.004328
O O10 0.100168 0.730290 0.236245
#
# Coordination Sequence:
#
# PCOD9130318 Si02
#       5
#     4   4   4   4   4
#     4   8  22  35  54  84 107 131 189 212 261 321
#     4   8  20  36  51  84 109 131 185 219 254 323
#     4   9  20  33  52  82 109 136 180 217 258 322
#     4   9  20  33  52  82 109 136 180 217 258 322
#     4  12  17  37  64  70 109 151 164 224 275 294
#
# _framework density 22.087890999999999
#
# number of rings (size 3 to 8) (size 9 to 14) (size 15 to 20)
#    2.400    0.000    0.000    4.200    0.000    3.200 
#    0.000    4.000    0.000   16.800    0.000    0.000 
#    0.000    0.000    0.000    0.000    0.000    0.000 
#
# Total GULP energy -55703.031201 kJ/mol
# GULP energy per Si atom -5570.303120 kJ/mol
# Density = 2.203762 g / cm^3
# Si number density = 22.087891 Si / 1000 Ang^3
#
#
#
# Elastic Constant Matrix: (Units=GPa)
#
#
# Indices 1 2 3 4 5 6 
#
# 1 64.3259 2.3046 4.4368 0.0000 5.8531 0.0000
# 2 2.3046 157.2403 61.2252 0.0000 -18.0860 0.0000
# 3 4.4368 61.2252 154.8255 0.0000 -14.7235 0.0000
# 4 0.0000 0.0000 0.0000 17.9196 0.0000 31.4824
# 5 5.8531 -18.0860 -14.7235 0.0000 20.1540 0.0000
# 6 0.0000 0.0000 0.0000 31.4824 0.0000 -89.4801
#
#
#
# Elastic Compliance Matrix: (Units=1/GPa)
#
#
# Indices 1 2 3 4 5 6 
#
# 1 0.016148 -0.000601 -0.000776 0.000000 -0.005796 0.000000
# 2 -0.000601 0.008022 -0.002637 0.000000 0.005447 0.000000
# 3 -0.000776 -0.002637 0.007867 0.000000 0.003606 0.000000
# 4 0.000000 0.000000 0.000000 0.034487 0.000000 0.012134
# 5 -0.005796 0.005447 0.003606 0.000000 0.058824 0.000000
# 6 0.000000 0.000000 0.000000 0.012134 0.000000 -0.006907
#
#
# Mechanical properties :
#
#
# Convention : Reuss Voigt Hill
#
# Bulk Modulus (GPa) = 41.65238 56.92498 49.28868
# Shear Modulus (GPa) = 37.18224 10.28036 23.73130
#
# Velocity S-wave (km/s) = 4.10735 2.15972 3.28136
# Velocity P-wave (km/s) = 6.43368 5.66102 6.05968
#
# Compressibility (1/GPa) = 0.02400823
#
# Stress axis : x y z
#
# Youngs Moduli (GPa) = 61.92585 124.66078 127.11568
#
# Poissons Ratio (x) = 0.07494 0.09868
# Poissons Ratio (y) = 0.03723 0.33520
# Poissons Ratio (z) = 0.04807 0.32873
#
# Static dielectric constant tensor:
#      x y z
#    x 1.832190 0.000000 -0.036330 
#    y 0.000000 1.803830 0.000000 
#    z -0.036330 0.000000 1.797640 
# 
# From -- ./inp_files/22552.got.cif
#   From: 2010.05.17/outbox.cif.g08.bks.cpg/sg5_12_cif.got.tgz:22552.got - 2010.06.03 18:56:24.
