data_PCOD9130714
_publ_section_title
;
Structure prediction by ZEFSAII (Michael W. Deem and Ramdas Pophale) SiO2 
 PCOD9130714
Probable space group: C 2
;
_chemical_formula_sum "Si O2"
_cell_formula_units_Z 16
_cell_length_a 9.000000
_cell_length_b 12.000000
_cell_length_c 15.000000
_cell_angle_alpha 90.000000
_cell_angle_beta 110.000000
_cell_angle_gamma 90.000000
_cell_volume 1522.302046
_symmetry_space_group_name_H-M "C 2"
_symmetry_group_IT_number 5
_symmetry_cell_setting 'monoclinic'
loop_
_space_group_symop_operation_xyz
x,y,z
-x,y,-z
1/2+x,1/2+y,z
1/2-x,1/2+y,-z
loop_
_atom_site_type_symbol
_atom_site_label
_atom_site_fract_x
_atom_site_fract_y
_atom_site_fract_z
Si Si1 0.884192 0.991810 0.246857
Si Si2 0.183378 0.184360 0.540125
Si Si3 0.330252 0.269119 0.016723
Si Si4 0.367604 0.245010 0.235435
Si Si5 0.094148 0.532968 0.304957
Si Si6 0.347769 0.526266 0.032160
Si Si7 0.383930 0.915416 0.391997
Si Si8 0.669980 0.636567 0.343581
O O1 0.931740 0.864971 0.282760
O O2 0.704326 0.003238 0.244287
O O3 0.899305 0.004012 0.144156
O O4 0.990218 0.092597 0.306676
O O5 0.287813 0.082736 0.596103
O O6 0.193558 0.294816 0.604166
O O7 0.218883 0.203742 0.442657
O O8 0.000000 0.152122 0.500000
O O9 0.333845 0.264541 0.124836
O O10 0.274622 0.401682 0.987236
O O11 0.500000 0.263788 0.000000
O O12 0.244562 0.147138 0.980932
O O13 0.484079 0.139425 0.263106
O O14 0.221352 0.206435 0.267526
O O15 0.991099 0.432347 0.325293
O O16 0.500000 0.542935 0.000000
O O17 0.500000 0.930209 0.500000
O O18 0.265299 0.019307 0.363969
#
# Coordination Sequence:
#
# PCOD9130714 Si02
#       8
#     4   4   4   4   4   4   4   4
#     4  11  23  39  62  90 118 156 198 247 300 358
#     4  11  22  37  58  83 114 160 198 242 292 344
#     4  10  21  42  66  92 125 161 199 249 310 375
#     4  10  24  39  61  91 119 153 199 250 297 357
#     4  11  22  40  58  85 120 154 200 245 294 347
#     4  10  22  41  66  93 126 158 201 250 307 375
#     4  10  22  37  58  80 114 156 200 244 291 339
#     4  11  22  40  59  85 121 156 201 248 295 348
#
# _framework density 10.510398
#
# number of rings (size 3 to 8) (size 9 to 14) (size 15 to 20)
#    0.000    1.500    2.500    2.250    3.500    0.500 
#    0.000    3.750    0.000    0.000    0.000    0.000 
#    0.000    0.000    0.000    0.000    0.000    0.000 
#
# Total GULP energy -89153.467410 kJ/mol
# GULP energy per Si atom -5572.091713 kJ/mol
# Density = 1.048648 g / cm^3
# Si number density = 10.510398 Si / 1000 Ang^3
#
#
#
# Elastic Constant Matrix: (Units=GPa)
#
#
# Indices 1 2 3 4 5 6 
#
# 1 83.6089 22.0069 9.9743 0.0000 -32.6479 0.0000
# 2 22.0069 131.3824 12.1632 0.0000 -2.8754 0.0000
# 3 9.9743 12.1632 39.8402 0.0000 -29.4358 0.0000
# 4 0.0000 0.0000 0.0000 34.4019 0.0000 -6.1124
# 5 -32.6479 -2.8754 -29.4358 0.0000 37.9087 0.0000
# 6 0.0000 0.0000 0.0000 -6.1124 0.0000 34.5458
#
#
#
# Elastic Compliance Matrix: (Units=1/GPa)
#
#
# Indices 1 2 3 4 5 6 
#
# 1 0.028505 -0.006486 0.029600 0.000000 0.047042 0.000000
# 2 -0.006486 0.009453 -0.011399 0.000000 -0.013720 0.000000
# 3 0.029600 -0.011399 0.092345 0.000000 0.096333 0.000000
# 4 0.000000 0.000000 0.000000 0.030012 0.000000 0.005310
# 5 0.047042 -0.013720 0.096333 0.000000 0.140654 0.000000
# 6 0.000000 0.000000 0.000000 0.005310 0.000000 0.029887
#
#
# Mechanical properties :
#
#
# Convention : Reuss Voigt Hill
#
# Bulk Modulus (GPa) = 6.50471 38.12447 22.31459
# Shear Modulus (GPa) = 13.94044 35.41709 24.67876
#
# Velocity S-wave (km/s) = 2.57801 4.10916 3.43011
# Velocity P-wave (km/s) = 3.45871 6.37883 5.13089
#
# Compressibility (1/GPa) = 0.15373487
#
# Stress axis : x y z
#
# Youngs Moduli (GPa) = 35.08097 105.78944 10.82897
#
# Poissons Ratio (x) = 0.68610 -0.32054
# Poissons Ratio (y) = 0.22752 0.12344
# Poissons Ratio (z) = -1.03841 1.20589
#
# Static dielectric constant tensor:
#      x y z
#    x 1.836690 0.000000 -0.044700 
#    y 0.000000 1.787400 0.000000 
#    z -0.044700 0.000000 1.846580 
# 
# From -- ./inp_files/50521.got.cif
#   From: 2010.05.17/outbox.ucp.g08.bks.cvg/sg5_26_cif.got.tgz:50521.got - 2010.06.11 12:53:14.
