data_PCOD9130977
_publ_section_title
;
Structure prediction by ZEFSAII (Michael W. Deem and Ramdas Pophale) SiO2 
 PCOD9130977
Probable space group: P M
;
_chemical_formula_sum "Si O2"
_cell_formula_units_Z 16
_cell_length_a 7.254154
_cell_length_b 8.332306
_cell_length_c 12.549668
_cell_angle_alpha 90.000000
_cell_angle_beta 89.771714
_cell_angle_gamma 90.000000
_cell_volume 758.543989
_symmetry_space_group_name_H-M "P M"
_symmetry_group_IT_number 6
_symmetry_cell_setting 'monoclinic'
loop_
_space_group_symop_operation_xyz
x,y,z
x,-y,z
loop_
_atom_site_type_symbol
_atom_site_label
_atom_site_fract_x
_atom_site_fract_y
_atom_site_fract_z
Si Si1 0.922350 0.194421 0.839420
Si Si2 0.615074 0.692415 0.699689
Si Si3 0.772014 0.191033 0.249074
Si Si4 0.304557 0.808179 0.435140
Si Si5 0.060257 0.193996 0.070728
Si Si6 0.717477 0.311741 0.473780
Si Si7 0.358324 0.689167 0.213163
Si Si8 0.201785 0.192379 0.659163
O O1 0.722016 0.253799 0.804362
O O2 0.062155 0.255924 0.747780
O O3 0.921229 0.000000 0.838846
O O4 0.990912 0.246700 0.955185
O O5 0.604620 0.500000 0.693529
O O6 0.731814 0.750449 0.594936
O O7 0.410274 0.761911 0.690547
O O8 0.918936 0.250321 0.162667
O O9 0.813989 0.231456 0.372397
O O10 0.570989 0.259581 0.220379
O O11 0.760925 0.000000 0.240984
O O12 0.498980 0.717796 0.452174
O O13 0.254162 0.770045 0.314256
O O14 0.178128 0.757067 0.535257
O O15 0.335688 0.000000 0.443269
O O16 0.259766 0.255185 0.105789
O O17 0.063813 0.000000 0.071441
O O18 0.758609 0.500000 0.471038
O O19 0.344834 0.500000 0.225035
O O20 0.185773 0.000000 0.660784
#
# Coordination Sequence:
#
# PCOD9130977 Si02
#       8
#     2   2   2   2   2   2   2   2
#     4  10  22  40  59  79 106 143 189 232 267 315
#     4  10  21  36  56  83 115 146 175 218 275 329
#     4  10  20  36  59  83 109 143 182 226 271 318
#     4   9  16  30  54  83 112 140 176 220 266 322
#     4  10  23  41  58  78 106 144 190 232 268 314
#     4   9  17  31  52  81 114 144 175 214 268 329
#     4  11  22  36  57  83 113 146 177 220 276 329
#     4   9  19  36  59  84 109 142 182 224 269 318
#
# _framework density 21.093040999999999
#
# number of rings (size 3 to 8) (size 9 to 14) (size 15 to 20)
#    0.000    2.250    0.000    4.125    0.000    6.000 
#    0.000    8.750    0.000    0.000    0.000    0.000 
#    0.000    0.000    0.000    0.000    0.000    0.000 
#
# Total GULP energy -89336.802106 kJ/mol
# GULP energy per Si atom -5583.550132 kJ/mol
# Density = 2.104503 g / cm^3
# Si number density = 21.093041 Si / 1000 Ang^3
#
#
#
# Elastic Constant Matrix: (Units=GPa)
#
#
# Indices 1 2 3 4 5 6 
#
# 1 51.6901 -9.8679 20.3322 0.0000 3.2062 0.0000
# 2 -9.8679 18.6742 0.7917 0.0000 -4.8416 0.0000
# 3 20.3322 0.7917 97.5416 0.0000 21.0103 0.0000
# 4 0.0000 0.0000 0.0000 31.0021 0.0000 30.3738
# 5 3.2062 -4.8416 21.0103 0.0000 35.0233 0.0000
# 6 0.0000 0.0000 0.0000 30.3738 0.0000 28.0058
#
#
#
# Elastic Compliance Matrix: (Units=1/GPa)
#
#
# Indices 1 2 3 4 5 6 
#
# 1 0.024069 0.013793 -0.005817 0.000000 0.003193 0.000000
# 2 0.013793 0.063945 -0.005772 0.000000 0.011040 0.000000
# 3 -0.005817 -0.005772 0.013285 0.000000 -0.008235 0.000000
# 4 0.000000 0.000000 0.000000 -0.515504 0.000000 0.559091
# 5 0.003193 0.011040 -0.008235 0.000000 0.034727 0.000000
# 6 0.000000 0.000000 0.000000 0.559091 0.000000 -0.570656
#
#
# Mechanical properties :
#
#
# Convention : Reuss Voigt Hill
#
# Bulk Modulus (GPa) = 9.45999 21.15756 15.30877
# Shear Modulus (GPa) = -5.43889 29.24957 11.90534
#
# Velocity S-wave (km/s) = -1.60752 3.72787 2.37833
# Velocity P-wave (km/s) = 1.02427 5.34619 3.84908
#
# Compressibility (1/GPa) = 0.10570839
#
# Stress axis : x y z
#
# Youngs Moduli (GPa) = 41.54677 15.63834 75.27152
#
# Poissons Ratio (x) = -0.21570 0.43784
# Poissons Ratio (y) = -0.57306 0.43448
# Poissons Ratio (z) = 0.24167 0.09027
#
# Static dielectric constant tensor:
#      x y z
#    x 1.773680 0.000000 -0.017410 
#    y 0.000000 1.714590 0.000000 
#    z -0.017410 0.000000 1.790790 
# 
# From -- ./inp_files/4572.got.cif
#   From: 2010.05.17/outbox.cif.g08.bks.cpg/sg6_3_cif.got.tgz:4572.got - 2010.06.03 19:42:10.
