data_PCOD9130602
_publ_section_title
;
Structure prediction by ZEFSAII (Michael W. Deem and Ramdas Pophale) SiO2 
 PCOD9130602
Probable space group: C 2
;
_chemical_formula_sum "Si O2"
_cell_formula_units_Z 16
_cell_length_a 5.663757
_cell_length_b 22.756915
_cell_length_c 4.973764
_cell_angle_alpha 90.000000
_cell_angle_beta 92.094529
_cell_angle_gamma 90.000000
_cell_volume 640.638330
_symmetry_space_group_name_H-M "C 2"
_symmetry_group_IT_number 5
_symmetry_cell_setting 'monoclinic'
loop_
_space_group_symop_operation_xyz
x,y,z
-x,y,-z
1/2+x,1/2+y,z
1/2-x,1/2+y,-z
loop_
_atom_site_type_symbol
_atom_site_label
_atom_site_fract_x
_atom_site_fract_y
_atom_site_fract_z
Si Si1 0.145310 0.604040 0.763802
Si Si2 0.000000 0.007218 0.000000
Si Si3 0.843164 0.227428 0.732108
Si Si4 0.173668 0.411880 0.743627
Si Si5 0.000000 0.813445 0.500000
O O1 0.291287 0.555095 0.934659
O O2 0.285191 0.659835 0.659832
O O3 0.000000 0.580229 0.500000
O O4 0.000000 0.632842 0.000000
O O5 0.884155 0.958843 0.795200
O O6 0.619873 0.269799 0.718924
O O7 0.000000 0.251747 0.500000
O O8 0.000000 0.228378 0.000000
O O9 0.310317 0.354447 0.644622
O O10 0.000000 0.432220 0.500000
O O11 0.000000 0.405640 0.000000
#
# Coordination Sequence:
#
# PCOD9130602 Si02
#       5
#     4   2   4   4   2
#     4  12  27  49  78 117 159 202 259 319 392 471
#     4  12  28  50  86 112 162 204 260 328 396 458
#     4  12  28  50  78 117 159 206 258 319 393 470
#     4  12  29  54  78 119 157 212 269 322 394 469
#     4  12  30  52  84 114 166 208 264 328 396 466
#
# _framework density 24.975093999999999
#
# number of rings (size 3 to 8) (size 9 to 14) (size 15 to 20)
#    0.000    0.000    2.500    5.250    0.000   14.000 
#    0.000    0.000    0.000    0.000    0.000    0.000 
#    0.000    0.000    0.000    0.000    0.000    0.000 
#
# Total GULP energy -44629.841641 kJ/mol
# GULP energy per Si atom -5578.730205 kJ/mol
# Density = 2.491825 g / cm^3
# Si number density = 24.975094 Si / 1000 Ang^3
#
#
#
# Elastic Constant Matrix: (Units=GPa)
#
#
# Indices 1 2 3 4 5 6 
#
# 1 86.2718 32.2125 67.0847 0.0000 16.3424 0.0000
# 2 32.2125 140.7957 12.4656 0.0000 9.8520 0.0000
# 3 67.0847 12.4656 142.9228 0.0000 18.4856 0.0000
# 4 0.0000 0.0000 0.0000 -16.1717 0.0000 77.2310
# 5 16.3424 9.8520 18.4856 0.0000 67.9370 0.0000
# 6 0.0000 0.0000 0.0000 77.2310 0.0000 -26.8112
#
#
#
# Elastic Compliance Matrix: (Units=1/GPa)
#
#
# Indices 1 2 3 4 5 6 
#
# 1 0.020310 -0.003720 -0.008962 0.000000 -0.001908 0.000000
# 2 -0.003720 0.007893 0.001130 0.000000 -0.000557 0.000000
# 3 -0.008962 0.001130 0.011243 0.000000 -0.001067 0.000000
# 4 0.000000 0.000000 0.000000 0.004847 0.000000 0.013963
# 5 -0.001908 -0.000557 -0.001067 0.000000 0.015550 0.000000
# 6 0.000000 0.000000 0.000000 0.013963 0.000000 0.002924
#
#
# Mechanical properties :
#
#
# Convention : Reuss Voigt Hill
#
# Bulk Modulus (GPa) = 61.19435 65.94619 63.57027
# Shear Modulus (GPa) = 54.75360 22.20600 38.47980
#
# Velocity S-wave (km/s) = 4.68731 2.98506 3.92947
# Velocity P-wave (km/s) = 7.33824 6.19216 6.78943
#
# Compressibility (1/GPa) = 0.01634138
#
# Stress axis : x y z
#
# Youngs Moduli (GPa) = 49.23575 126.70235 88.94522
#
# Poissons Ratio (x) = 0.47131 0.79713
# Poissons Ratio (y) = 0.18315 -0.10048
# Poissons Ratio (z) = 0.44125 -0.14313
#
# Static dielectric constant tensor:
#      x y z
#    x 2.152460 0.000000 0.063950 
#    y 0.000000 1.935670 0.000000 
#    z 0.063950 0.000000 1.902210 
# 
# From -- ./inp_files/696.got.cif
#   From: 2010.05.17/outbox.cif.g08.bks.cpg/sg5_1_cif.got.tgz:696.got - 2010.06.03 18:56:24.
