data_PCOD9130177
_publ_section_title
;
Structure prediction by ZEFSAII (Michael W. Deem and Ramdas Pophale) SiO2 
 PCOD9130177
Probable space group: C 2
;
_chemical_formula_sum "Si O2"
_cell_formula_units_Z 22
_cell_length_a 25.946057
_cell_length_b 5.527724
_cell_length_c 9.099961
_cell_angle_alpha 90.000000
_cell_angle_beta 140.171524
_cell_angle_gamma 90.000000
_cell_volume 835.931308
_symmetry_space_group_name_H-M "C 2"
_symmetry_group_IT_number 5
_symmetry_cell_setting 'monoclinic'
loop_
_space_group_symop_operation_xyz
x,y,z
-x,y,-z
1/2+x,1/2+y,z
1/2-x,1/2+y,-z
loop_
_atom_site_type_symbol
_atom_site_label
_atom_site_fract_x
_atom_site_fract_y
_atom_site_fract_z
Si Si1 0.374412 0.136580 0.233221
Si Si2 0.500000 0.797164 0.000000
Si Si3 0.222323 0.971925 0.368031
Si Si4 0.296404 0.773657 0.251671
Si Si5 0.929439 0.665845 0.022894
Si Si6 0.076658 0.948114 0.403957
O O1 0.419400 0.351789 0.418144
O O2 0.368935 0.892849 0.317899
O O3 0.280353 0.203468 0.011897
O O4 0.407365 0.100227 0.141888
O O5 0.531116 0.657568 0.213231
O O6 0.575541 0.947049 0.099964
O O7 0.258968 0.735009 0.529045
O O8 0.262783 0.960437 0.296025
O O9 0.128727 0.888563 0.146919
O O10 0.331717 0.537068 0.410812
O O11 0.023876 0.731092 0.222358
#
# Coordination Sequence:
#
# PCOD9130177 Si02
#       6
#     4   2   4   4   4   4
#     4  11  25  50  75 117 153 215 273 348 412 507
#     4  12  28  48  78 116 166 214 272 344 426 504
#     4  11  28  48  79 117 164 217 279 344 415 512
#     4  11  25  46  81 109 160 215 278 338 421 496
#     4  11  28  48  75 118 164 210 276 342 427 492
#     4  12  26  46  78 113 159 210 273 342 413 503
#
# _framework density 26.317952999999999
#
# number of rings (size 3 to 8) (size 9 to 14) (size 15 to 20)
#    0.000    0.727    1.818    3.273   10.182    2.909 
#    0.000    0.000    0.000    0.000    0.000    0.000 
#    0.000    0.000    0.000    0.000    0.000    0.000 
#
# Total GULP energy -61403.203824 kJ/mol
# GULP energy per Si atom -5582.109439 kJ/mol
# Density = 2.625805 g / cm^3
# Si number density = 26.317953 Si / 1000 Ang^3
#
#
#
# Elastic Constant Matrix: (Units=GPa)
#
#
# Indices 1 2 3 4 5 6 
#
# 1 101.6037 70.7142 55.5966 0.0000 -15.1268 0.0000
# 2 70.7142 119.2377 51.2948 0.0000 -9.2385 0.0001
# 3 55.5966 51.2948 150.3148 0.0000 13.7788 0.0000
# 4 0.0000 0.0000 0.0000 43.0943 0.0000 -2.0662
# 5 -15.1268 -9.2385 13.7788 0.0000 36.0017 0.0000
# 6 0.0000 0.0001 0.0000 -2.0662 0.0000 20.1446
#
#
#
# Elastic Compliance Matrix: (Units=1/GPa)
#
#
# Indices 1 2 3 4 5 6 
#
# 1 0.020214 -0.009173 -0.005088 0.000000 0.008087 0.000000
# 2 -0.009173 0.014564 -0.001623 0.000000 0.000505 0.000000
# 3 -0.005088 -0.001623 0.009662 0.000000 -0.006252 0.000000
# 4 0.000000 0.000000 0.000000 0.023320 0.000000 0.002392
# 5 0.008087 0.000505 -0.006252 0.000000 0.033697 0.000000
# 6 0.000000 0.000000 0.000000 0.002392 0.000000 0.049886
#
#
# Mechanical properties :
#
#
# Convention : Reuss Voigt Hill
#
# Bulk Modulus (GPa) = 78.91483 80.70750 79.81117
# Shear Modulus (GPa) = 26.69029 32.75151 29.72090
#
# Velocity S-wave (km/s) = 3.18802 3.53151 3.36415
# Velocity P-wave (km/s) = 6.60315 6.88198 6.74401
#
# Compressibility (1/GPa) = 0.01267189
#
# Stress axis : x y z
#
# Youngs Moduli (GPa) = 49.47035 68.66209 103.50302
#
# Poissons Ratio (x) = 0.62983 0.52658
# Poissons Ratio (y) = 0.45378 0.16804
# Poissons Ratio (z) = 0.25169 0.11147
#
# Static dielectric constant tensor:
#      x y z
#    x 2.039450 0.000000 -0.015670 
#    y 0.000000 2.102280 0.000000 
#    z -0.015670 0.000000 2.115840 
# 
# From -- ./inp_files/28385.got.cif
#   From: 2010.05.17/outbox.cif.g08.bks.cpg/sg5_15_cif.got.tgz:28385.got - 2010.06.03 18:56:24.
