data_PCOD9130306
_publ_section_title
;
Structure prediction by ZEFSAII (Michael W. Deem and Ramdas Pophale) SiO2 
 PCOD9130306
Probable space group: C 2
;
_chemical_formula_sum "Si O2"
_cell_formula_units_Z 18
_cell_length_a 6.987117
_cell_length_b 7.523104
_cell_length_c 15.470670
_cell_angle_alpha 90.000000
_cell_angle_beta 113.665136
_cell_angle_gamma 90.000000
_cell_volume 744.827297
_symmetry_space_group_name_H-M "C 2"
_symmetry_group_IT_number 5
_symmetry_cell_setting 'monoclinic'
loop_
_space_group_symop_operation_xyz
x,y,z
-x,y,-z
1/2+x,1/2+y,z
1/2-x,1/2+y,-z
loop_
_atom_site_type_symbol
_atom_site_label
_atom_site_fract_x
_atom_site_fract_y
_atom_site_fract_z
Si Si1 0.279366 0.807330 0.619875
Si Si2 0.000000 0.283882 0.000000
Si Si3 0.785325 0.265262 0.252879
Si Si4 0.395917 0.504476 0.127464
Si Si5 0.814352 0.894279 0.589022
O O1 0.486228 0.858097 0.710135
O O2 0.749331 0.752833 0.650173
O O3 0.295277 0.868577 0.523089
O O4 0.059710 0.870775 0.616114
O O5 0.207495 0.400584 0.048046
O O6 0.973272 0.160284 0.078771
O O7 0.592031 0.378846 0.183082
O O8 0.807799 0.091352 0.199092
O O9 0.227330 0.092026 0.384086
#
# Coordination Sequence:
#
# PCOD9130306 Si02
#       5
#     4   2   4   4   4
#     4  11  28  47  73 109 159 203 248 300 360 424
#     4  12  28  56  72 116 140 194 232 318 388 462
#     4  12  27  49  78 118 142 202 246 313 347 458
#     4  12  28  48  84 104 154 182 252 302 388 438
#     4  11  28  47  73 109 159 203 248 300 360 424
#
# _framework density 24.166675000000001
#
# number of rings (size 3 to 8) (size 9 to 14) (size 15 to 20)
#    0.000    0.444    2.222    3.333   15.556    3.556 
#    0.000    0.000    0.000    0.000    0.000    0.000 
#    0.000    0.000    0.000    0.000    0.000    0.000 
#
# Total GULP energy -50494.271459 kJ/mol
# GULP energy per Si atom -5610.474607 kJ/mol
# Density = 2.411167 g / cm^3
# Si number density = 24.166675 Si / 1000 Ang^3
#
#
#
# Elastic Constant Matrix: (Units=GPa)
#
#
# Indices 1 2 3 4 5 6 
#
# 1 70.7982 15.1753 13.5139 0.0000 12.8895 0.0000
# 2 15.1753 73.6068 0.2631 0.0000 10.2908 0.0000
# 3 13.5139 0.2631 82.0308 0.0000 28.7801 0.0000
# 4 0.0000 0.0000 0.0000 45.2536 0.0000 0.0483
# 5 12.8895 10.2908 28.7801 0.0000 68.0840 0.0000
# 6 0.0000 0.0000 0.0000 0.0483 0.0000 20.1994
#
#
#
# Elastic Compliance Matrix: (Units=1/GPa)
#
#
# Indices 1 2 3 4 5 6 
#
# 1 0.015429 -0.002943 -0.001953 0.000000 -0.001650 0.000000
# 2 -0.002943 0.014487 0.001187 0.000000 -0.002134 0.000000
# 3 -0.001953 0.001187 0.014608 0.000000 -0.005985 0.000000
# 4 0.000000 0.000000 0.000000 0.022098 0.000000 -0.000053
# 5 -0.001650 -0.002134 -0.005985 0.000000 0.017853 0.000000
# 6 0.000000 0.000000 0.000000 -0.000053 0.000000 0.049507
#
#
# Mechanical properties :
#
#
# Convention : Reuss Voigt Hill
#
# Bulk Modulus (GPa) = 26.95046 31.59338 29.27192
# Shear Modulus (GPa) = 32.51661 39.87297 36.19479
#
# Velocity S-wave (km/s) = 3.67211 4.06632 3.87423
# Velocity P-wave (km/s) = 5.39956 5.92859 5.67025
#
# Compressibility (1/GPa) = 0.03710512
#
# Stress axis : x y z
#
# Youngs Moduli (GPa) = 64.81373 69.02914 68.45447
#
# Poissons Ratio (x) = 0.20317 0.13371
# Poissons Ratio (y) = 0.19076 -0.08127
# Poissons Ratio (z) = 0.12660 -0.08195
#
# Static dielectric constant tensor:
#      x y z
#    x 1.910020 0.000000 -0.014460 
#    y 0.000000 1.916600 0.000000 
#    z -0.014460 0.000000 1.912630 
# 
# From -- ./inp_files/49746.got.cif
#   From: 2010.05.17/outbox.cif.g08.bks.cpg/sg5_25_cif.got.tgz:49746.got - 2010.06.03 18:56:24.
