data_PCOD9130861
_publ_section_title
;
Structure prediction by ZEFSAII (Michael W. Deem and Ramdas Pophale) SiO2 
 PCOD9130861
Probable space group: P M
;
_chemical_formula_sum "Si O2"
_cell_formula_units_Z 16
_cell_length_a 12.856887
_cell_length_b 7.677447
_cell_length_c 12.560248
_cell_angle_alpha 90.000000
_cell_angle_beta 143.289559
_cell_angle_gamma 90.000000
_cell_volume 741.115486
_symmetry_space_group_name_H-M "P M"
_symmetry_group_IT_number 6
_symmetry_cell_setting 'monoclinic'
loop_
_space_group_symop_operation_xyz
x,y,z
x,-y,z
loop_
_atom_site_type_symbol
_atom_site_label
_atom_site_fract_x
_atom_site_fract_y
_atom_site_fract_z
Si Si1 0.773650 0.704702 0.325320
Si Si2 0.910340 0.290561 0.212020
Si Si3 0.274152 0.704101 0.412491
Si Si4 0.405738 0.203319 0.292569
Si Si5 0.782857 0.199850 0.572258
Si Si6 0.535004 0.792045 0.810792
Si Si7 0.401354 0.789153 0.925741
Si Si8 0.153428 0.785546 0.901854
O O1 0.811224 0.500000 0.370139
O O2 0.874948 0.772941 0.303892
O O3 0.804026 0.797589 0.461821
O O4 0.571026 0.727673 0.129052
O O5 0.919530 0.500000 0.226950
O O6 0.093436 0.226752 0.314896
O O7 0.737820 0.250939 0.000201
O O8 0.247689 0.500000 0.371102
O O9 0.320517 0.786746 0.337810
O O10 0.436312 0.724688 0.626018
O O11 0.598528 0.282855 0.449522
O O12 0.428899 0.000000 0.282056
O O13 0.281849 0.275737 0.099531
O O14 0.959319 0.279763 0.761076
O O15 0.777916 0.000000 0.606906
O O16 0.523816 0.000000 0.797511
O O17 0.427838 0.728048 0.826822
O O18 0.405169 0.000000 0.927663
O O19 0.232361 0.733826 0.852409
O O20 0.148238 0.000000 0.898106
#
# Coordination Sequence:
#
# PCOD9130861 Si02
#       8
#     2   2   2   2   2   2   2   2
#     4  10  19  33  55  84 118 151 188 232 283 344
#     4   9  21  40  58  82 119 161 196 236 292 347
#     4  11  24  41  61  83 117 161 201 239 290 351
#     4  10  21  39  58  81 115 151 197 244 285 336
#     4  10  20  35  58  84 114 151 185 232 292 341
#     4  10  21  36  60  92 119 149 195 245 291 345
#     4   9  17  34  57  84 117 149 185 231 286 341
#     4   9  18  34  57  84 111 145 185 231 285 337
#
# _framework density 21.589077
#
# number of rings (size 3 to 8) (size 9 to 14) (size 15 to 20)
#    0.000    2.250    1.250    1.125    1.750    3.500 
#    0.000    2.500    0.000    0.000    0.000    0.000 
#    0.000    0.000    0.000    0.000    0.000    0.000 
#
# Total GULP energy -89325.163087 kJ/mol
# GULP energy per Si atom -5582.822693 kJ/mol
# Density = 2.153994 g / cm^3
# Si number density = 21.589077 Si / 1000 Ang^3
#
#
#
# Elastic Constant Matrix: (Units=GPa)
#
#
# Indices 1 2 3 4 5 6 
#
# 1 107.7196 -6.8403 45.0381 0.0000 27.5856 0.0000
# 2 -6.8403 43.1317 -6.9335 0.0000 5.6459 0.0000
# 3 45.0381 -6.9335 45.2963 0.0000 19.5866 0.0000
# 4 0.0000 0.0000 0.0000 -1.0204 0.0000 -4.6766
# 5 27.5856 5.6459 19.5866 0.0000 32.9680 0.0000
# 6 0.0000 0.0000 0.0000 -4.6766 0.0000 -25.1907
#
#
#
# Elastic Compliance Matrix: (Units=1/GPa)
#
#
# Indices 1 2 3 4 5 6 
#
# 1 0.016653 0.001198 -0.013807 0.000000 -0.005936 0.000000
# 2 0.001198 0.025714 0.006839 0.000000 -0.009470 0.000000
# 3 -0.013807 0.006839 0.043552 0.000000 -0.015492 0.000000
# 4 0.000000 0.000000 0.000000 -6.568486 0.000000 1.219417
# 5 -0.005936 -0.009470 -0.015492 0.000000 0.046125 0.000000
# 6 0.000000 0.000000 0.000000 1.219417 0.000000 -0.266078
#
#
# Mechanical properties :
#
#
# Convention : Reuss Voigt Hill
#
# Bulk Modulus (GPa) = 13.44479 28.74179 21.09329
# Shear Modulus (GPa) = -0.75005 12.34359 5.79677
#
# Velocity S-wave (km/s) = -0.59007 2.39373 1.64039
# Velocity P-wave (km/s) = 2.40351 4.58060 3.65779
#
# Compressibility (1/GPa) = 0.07437828
#
# Stress axis : x y z
#
# Youngs Moduli (GPa) = 60.05096 38.88959 22.96129
#
# Poissons Ratio (x) = -0.04660 0.31704
# Poissons Ratio (y) = -0.07196 -0.15704
# Poissons Ratio (z) = 0.82915 -0.26597
#
# Static dielectric constant tensor:
#      x y z
#    x 1.778700 0.000000 0.025180 
#    y 0.000000 1.837030 0.000000 
#    z 0.025180 0.000000 1.777900 
# 
# From -- ./inp_files/4170.got.cif
#   From: 2010.05.17/outbox.cif.g08.bks.cpg/sg6_3_cif.got.tgz:4170.got - 2010.06.03 19:42:10.
