data_PCOD9130105
_publ_section_title
;
Structure prediction by ZEFSAII (Michael W. Deem and Ramdas Pophale) SiO2 
 PCOD9130105
Probable space group: C 2
;
_chemical_formula_sum "Si O2"
_cell_formula_units_Z 22
_cell_length_a 21.265226
_cell_length_b 4.911150
_cell_length_c 7.960268
_cell_angle_alpha 90.000000
_cell_angle_beta 79.484637
_cell_angle_gamma 90.000000
_cell_volume 817.382650
_symmetry_space_group_name_H-M "C 2"
_symmetry_group_IT_number 5
_symmetry_cell_setting 'monoclinic'
loop_
_space_group_symop_operation_xyz
x,y,z
-x,y,-z
1/2+x,1/2+y,z
1/2-x,1/2+y,-z
loop_
_atom_site_type_symbol
_atom_site_label
_atom_site_fract_x
_atom_site_fract_y
_atom_site_fract_z
Si Si1 0.553956 0.027820 0.765068
Si Si2 0.116984 0.745705 0.422489
Si Si3 0.248305 0.186597 0.604312
Si Si4 0.916693 0.648034 0.894364
Si Si5 0.000000 0.141649 0.500000
Si Si6 0.206856 0.994861 0.966655
O O1 0.606307 0.165501 0.621025
O O2 0.491763 0.215503 0.831982
O O3 0.524749 0.807791 0.650618
O O4 0.581359 0.966303 0.936679
O O5 0.188573 0.842121 0.361428
O O6 0.105162 0.531477 0.276591
O O7 0.060777 0.959431 0.423557
O O8 0.223902 0.406822 0.485252
O O9 0.203547 0.103773 0.777086
O O10 0.863256 0.879612 0.952719
O O11 0.257418 0.742274 0.953997
#
# Coordination Sequence:
#
# PCOD9130105 Si02
#       6
#     4   4   4   4   2   4
#     4  11  25  49  77 116 157 207 270 341 412 482
#     4  12  25  52  77 114 164 209 279 335 411 490
#     4  12  29  52  82 120 166 220 275 340 412 493
#     4  11  24  51  76 115 164 205 274 333 416 485
#     4  12  24  48  86 116 158 214 274 348 412 482
#     4  12  27  52  82 119 166 219 273 336 414 494
#
# _framework density 26.915179999999999
#
# number of rings (size 3 to 8) (size 9 to 14) (size 15 to 20)
#    0.000    0.364    5.455    2.182    2.545    1.455 
#    9.818    0.000    0.000    0.000    0.000    0.000 
#    0.000    0.000    0.000    0.000    0.000    0.000 
#
# Total GULP energy -61415.772861 kJ/mol
# GULP energy per Si atom -5583.252078 kJ/mol
# Density = 2.685392 g / cm^3
# Si number density = 26.915180 Si / 1000 Ang^3
#
#
#
# Elastic Constant Matrix: (Units=GPa)
#
#
# Indices 1 2 3 4 5 6 
#
# 1 99.9953 27.2979 39.4326 0.0000 -20.6929 0.0000
# 2 27.2979 104.6198 32.5802 0.0000 -2.6722 0.0000
# 3 39.4326 32.5802 189.5706 0.0000 7.0563 0.0000
# 4 0.0000 0.0000 0.0000 30.2578 0.0000 -8.3736
# 5 -20.6929 -2.6722 7.0563 0.0000 57.6230 0.0000
# 6 0.0000 0.0000 0.0000 -8.3736 0.0000 2.7748
#
#
#
# Elastic Compliance Matrix: (Units=1/GPa)
#
#
# Indices 1 2 3 4 5 6 
#
# 1 0.012568 -0.002420 -0.002373 0.000000 0.004692 0.000000
# 2 -0.002420 0.010592 -0.001309 0.000000 -0.000218 0.000000
# 3 -0.002373 -0.001309 0.006055 0.000000 -0.001654 0.000000
# 4 0.000000 0.000000 0.000000 0.200478 0.000000 0.604997
# 5 0.004692 -0.000218 -0.001654 0.000000 0.019231 0.000000
# 6 0.000000 0.000000 0.000000 0.604997 0.000000 2.186136
#
#
# Mechanical properties :
#
#
# Convention : Reuss Voigt Hill
#
# Bulk Modulus (GPa) = 58.78643 65.86745 62.32694
# Shear Modulus (GPa) = 2.03837 37.78944 19.91391
#
# Velocity S-wave (km/s) = 0.87119 3.75109 2.72302
# Velocity P-wave (km/s) = 4.78547 6.57923 5.75270
#
# Compressibility (1/GPa) = 0.01701073
#
# Stress axis : x y z
#
# Youngs Moduli (GPa) = 79.56819 94.41090 165.14803
#
# Poissons Ratio (x) = 0.22852 0.39188
# Poissons Ratio (y) = 0.19259 0.21614
# Poissons Ratio (z) = 0.18881 0.12356
#
# Static dielectric constant tensor:
#      x y z
#    x 2.127920 0.000000 0.153740 
#    y 0.000000 2.166280 0.000000 
#    z 0.153740 0.000000 2.300380 
# 
# From -- ./inp_files/30184.got.cif
#   From: 2010.05.17/outbox.cif.g08.bks.cpg/sg5_16_cif.got.tgz:30184.got - 2010.06.03 18:56:24.
