data_PCOD9130835
_publ_section_title
;
Structure prediction by ZEFSAII (Michael W. Deem and Ramdas Pophale) SiO2 
 PCOD9130835
Probable space group: P M
;
_chemical_formula_sum "Si O2"
_cell_formula_units_Z 16
_cell_length_a 12.575708
_cell_length_b 7.524028
_cell_length_c 10.661827
_cell_angle_alpha 90.000000
_cell_angle_beta 52.981274
_cell_angle_gamma 90.000000
_cell_volume 805.482482
_symmetry_space_group_name_H-M "P M"
_symmetry_group_IT_number 6
_symmetry_cell_setting 'monoclinic'
loop_
_space_group_symop_operation_xyz
x,y,z
x,-y,z
loop_
_atom_site_type_symbol
_atom_site_label
_atom_site_fract_x
_atom_site_fract_y
_atom_site_fract_z
Si Si1 0.940180 0.795970 0.974200
Si Si2 0.194199 0.282151 0.426566
Si Si3 0.336497 0.282595 0.069238
Si Si4 0.646951 0.714084 0.224800
Si Si5 0.912103 0.297633 0.710476
Si Si6 0.376847 0.282573 0.532565
Si Si7 0.622673 0.717416 0.952667
Si Si8 0.221211 0.712554 0.888155
O O1 0.936908 0.695901 0.843298
O O2 0.067177 0.746826 0.966227
O O3 0.952573 0.000000 0.929239
O O4 0.798445 0.769424 0.142290
O O5 0.192443 0.500000 0.430079
O O6 0.257535 0.227255 0.250028
O O7 0.286123 0.228806 0.478594
O O8 0.043511 0.218121 0.555134
O O9 0.335257 0.500000 0.070414
O O10 0.490360 0.227833 0.974503
O O11 0.269590 0.220333 0.988330
O O12 0.645566 0.500000 0.226447
O O13 0.528419 0.774755 0.399213
O O14 0.614149 0.770358 0.105056
O O15 0.903572 0.500000 0.669600
O O16 0.764886 0.218127 0.800009
O O17 0.376232 0.500000 0.534510
O O18 0.309975 0.220676 0.708734
O O19 0.626546 0.500000 0.949696
O O20 0.238222 0.500000 0.878465
#
# Coordination Sequence:
#
# PCOD9130835 Si02
#       8
#     2   2   2   2   2   2   2   2
#     4  11  21  32  47  70 101 133 168 206 246 290
#     4   9  14  24  45  75 103 124 154 196 241 286
#     4   9  16  26  44  73 104 128 156 197 243 292
#     4   9  16  29  51  73  94 125 165 206 250 293
#     4   9  16  28  50  74  99 127 160 201 248 291
#     4   9  15  26  48  75 100 125 160 202 244 288
#     4   8  13  23  41  68  94 119 150 192 240 284
#     4  10  19  32  50  74 103 133 163 200 246 294
#
# _framework density 19.863872000000001
#
# number of rings (size 3 to 8) (size 9 to 14) (size 15 to 20)
#    0.000    2.750    2.500    1.875    0.000    0.000 
#    0.000    1.875    0.000    9.750    0.000    0.000 
#    0.000    0.000    0.000    0.000    0.000    0.000 
#
# Total GULP energy -89249.279845 kJ/mol
# GULP energy per Si atom -5578.079990 kJ/mol
# Density = 1.981866 g / cm^3
# Si number density = 19.863872 Si / 1000 Ang^3
#
#
#
# Elastic Constant Matrix: (Units=GPa)
#
#
# Indices 1 2 3 4 5 6 
#
# 1 154.7064 -2.8371 108.9819 0.0000 -21.5047 0.0000
# 2 -2.8371 51.2460 3.9535 0.0000 4.1914 0.0000
# 3 108.9819 3.9535 165.5656 0.0000 -25.0176 0.0000
# 4 0.0000 0.0000 0.0000 -17.0800 0.0000 9.5121
# 5 -21.5047 4.1914 -25.0176 0.0000 33.3351 0.0000
# 6 0.0000 0.0000 0.0000 9.5121 0.0000 -32.1864
#
#
#
# Elastic Compliance Matrix: (Units=1/GPa)
#
#
# Indices 1 2 3 4 5 6 
#
# 1 0.012242 0.001123 -0.007797 0.000000 0.001904 0.000000
# 2 0.001123 0.019954 -0.001676 0.000000 -0.003042 0.000000
# 3 -0.007797 -0.001676 0.011825 0.000000 0.004055 0.000000
# 4 0.000000 0.000000 0.000000 -0.070083 0.000000 -0.020712
# 5 0.001904 -0.003042 0.004055 0.000000 0.034653 0.000000
# 6 0.000000 0.000000 0.000000 -0.020712 0.000000 -0.037190
#
#
# Mechanical properties :
#
#
# Convention : Reuss Voigt Hill
#
# Bulk Modulus (GPa) = 36.60007 65.74606 51.17306
# Shear Modulus (GPa) = -1789.94357 14.24172 -887.85092
#
# Velocity S-wave (km/s) = -30.05098 2.68053 -21.16455
# Velocity P-wave (km/s) = 34.43278 6.53838 23.90466
#
# Compressibility (1/GPa) = 0.02732236
#
# Stress axis : x y z
#
# Youngs Moduli (GPa) = 81.68744 50.11535 84.56634
#
# Poissons Ratio (x) = -0.05630 0.65937
# Poissons Ratio (y) = -0.09178 0.14170
# Poissons Ratio (z) = 0.63692 0.08397
#
# Static dielectric constant tensor:
#      x y z
#    x 1.675380 0.000000 -0.027650 
#    y 0.000000 1.735910 0.000000 
#    z -0.027650 0.000000 1.695160 
# 
# From -- ./inp_files/3793.got.cif
#   From: 2010.05.17/outbox.cif.g08.bks.cpg/sg6_2_cif.got.tgz:3793.got - 2010.06.03 19:42:10.
