data_PCOD9130385
_publ_section_title
;
Structure prediction by ZEFSAII (Michael W. Deem and Ramdas Pophale) SiO2 
 PCOD9130385
Probable space group: C 2
;
_chemical_formula_sum "Si O2"
_cell_formula_units_Z 20
_cell_length_a 23.376305
_cell_length_b 5.151485
_cell_length_c 11.406201
_cell_angle_alpha 90.000000
_cell_angle_beta 146.178716
_cell_angle_gamma 90.000000
_cell_volume 764.532333
_symmetry_space_group_name_H-M "C 2"
_symmetry_group_IT_number 5
_symmetry_cell_setting 'monoclinic'
loop_
_space_group_symop_operation_xyz
x,y,z
-x,y,-z
1/2+x,1/2+y,z
1/2-x,1/2+y,-z
loop_
_atom_site_type_symbol
_atom_site_label
_atom_site_fract_x
_atom_site_fract_y
_atom_site_fract_z
Si Si1 0.816669 0.597950 0.767550
Si Si2 0.127508 0.351857 0.371555
Si Si3 0.500000 0.699491 0.500000
Si Si4 0.500000 0.472207 0.000000
Si Si5 0.049977 0.564290 0.805518
Si Si6 0.680233 0.415202 0.880302
O O1 0.809364 0.428857 0.637487
O O2 0.708984 0.737894 0.600357
O O3 0.861913 0.453906 0.957105
O O4 0.906951 0.799890 0.889509
O O5 0.058241 0.575509 0.310778
O O6 0.045384 0.150673 0.180092
O O7 0.528217 0.882719 0.657209
O O8 0.599794 0.520791 0.647396
O O9 0.101880 0.829150 0.849956
O O10 0.757445 0.651022 0.039512
#
# Coordination Sequence:
#
# PCOD9130385 Si02
#       6
#     4   4   2   2   4   4
#     4  12  26  46  79 119 164 212 269 345 419 503
#     4  12  26  47  77 120 160 216 270 341 423 499
#     4  12  30  54  80 122 170 226 288 360 416 502
#     4  12  22  46  76 116 164 204 278 334 410 508
#     4  12  28  51  84 121 165 228 285 345 419 517
#     4  12  29  55  83 120 168 221 289 355 423 497
#
# _framework density 26.159786
#
# number of rings (size 3 to 8) (size 9 to 14) (size 15 to 20)
#    0.000    0.000    8.000    0.600    5.600    0.000 
#    0.000    4.000    0.000    0.000    0.000    0.000 
#    0.000    0.000    0.000    0.000    0.000    0.000 
#
# Total GULP energy -56025.212117 kJ/mol
# GULP energy per Si atom -5602.521212 kJ/mol
# Density = 2.610024 g / cm^3
# Si number density = 26.159786 Si / 1000 Ang^3
#
#
#
# Elastic Constant Matrix: (Units=GPa)
#
#
# Indices 1 2 3 4 5 6 
#
# 1 100.3038 39.2520 62.3432 -0.0001 -10.2229 0.0000
# 2 39.2520 127.4599 61.8239 0.0005 6.4789 0.0003
# 3 62.3432 61.8239 197.4560 0.0002 22.6937 0.0001
# 4 -0.0001 0.0005 0.0002 50.4914 -0.0002 18.7931
# 5 -10.2229 6.4789 22.6937 -0.0002 28.2074 -0.0001
# 6 0.0000 0.0003 0.0001 18.7931 -0.0001 46.2976
#
#
#
# Elastic Compliance Matrix: (Units=1/GPa)
#
#
# Indices 1 2 3 4 5 6 
#
# 1 0.015300 -0.002733 -0.005162 0.000000 0.010325 0.000000
# 2 -0.002733 0.009740 -0.002001 0.000000 -0.001618 0.000000
# 3 -0.005162 -0.002001 0.008245 0.000000 -0.008045 0.000000
# 4 0.000000 0.000000 0.000000 0.023330 0.000000 -0.009470
# 5 0.010325 -0.001618 -0.008045 0.000000 0.046037 0.000000
# 6 0.000000 0.000000 0.000000 -0.009470 0.000000 0.025444
#
#
# Mechanical properties :
#
#
# Convention : Reuss Voigt Hill
#
# Bulk Modulus (GPa) = 74.10598 83.56201 78.83400
# Shear Modulus (GPa) = 32.81173 42.45265 37.63219
#
# Velocity S-wave (km/s) = 3.54543 4.03280 3.79694
# Velocity P-wave (km/s) = 6.71936 7.32781 7.03017
#
# Compressibility (1/GPa) = 0.01349419
#
# Stress axis : x y z
#
# Youngs Moduli (GPa) = 65.36075 102.67020 121.28367
#
# Poissons Ratio (x) = 0.28058 0.62602
# Poissons Ratio (y) = 0.17862 0.24266
# Poissons Ratio (z) = 0.33737 0.20542
#
# Static dielectric constant tensor:
#      x y z
#    x 2.123650 0.000000 -0.045750 
#    y 0.000000 2.089960 0.000000 
#    z -0.045750 0.000000 2.079030 
# 
# From -- ./inp_files/47768.got.cif
#   From: 2010.05.17/outbox.cif.g08.bks.cpg/sg5_24_cif.got.tgz:47768.got - 2010.06.03 18:56:24.
