data_PCOD9130944
_publ_section_title
;
Structure prediction by ZEFSAII (Michael W. Deem and Ramdas Pophale) SiO2 
 PCOD9130944
Probable space group: P M
;
_chemical_formula_sum "Si O2"
_cell_formula_units_Z 16
_cell_length_a 22.918838
_cell_length_b 8.419601
_cell_length_c 10.180470
_cell_angle_alpha 90.000000
_cell_angle_beta 152.802253
_cell_angle_gamma 90.000000
_cell_volume 897.899967
_symmetry_space_group_name_H-M "P M"
_symmetry_group_IT_number 6
_symmetry_cell_setting 'monoclinic'
loop_
_space_group_symop_operation_xyz
x,y,z
x,-y,z
loop_
_atom_site_type_symbol
_atom_site_label
_atom_site_fract_x
_atom_site_fract_y
_atom_site_fract_z
Si Si1 0.424930 0.192145 0.251070
Si Si2 0.141361 0.309558 0.683090
Si Si3 0.925881 0.308236 0.454924
Si Si4 0.923234 0.309940 0.751226
Si Si5 0.135364 0.809689 0.376399
Si Si6 0.642057 0.192035 0.185595
Si Si7 0.644734 0.808092 0.889137
Si Si8 0.424855 0.806565 0.950100
O O1 0.533952 0.246949 0.569338
O O2 0.422330 0.000000 0.247895
O O3 0.283506 0.251248 0.002352
O O4 0.452363 0.241561 0.155516
O O5 0.140906 0.500000 0.681041
O O6 0.111107 0.249484 0.475865
O O7 0.036170 0.253254 0.577188
O O8 0.925823 0.500000 0.454411
O O9 0.947216 0.255418 0.648601
O O10 0.785435 0.250629 0.132884
O O11 0.922440 0.500000 0.750291
O O12 0.782433 0.249455 0.507157
O O13 0.030798 0.250249 0.065301
O O14 0.279631 0.756987 0.628294
O O15 0.134277 0.000000 0.375894
O O16 0.642013 0.000000 0.187296
O O17 0.620768 0.243160 0.991871
O O18 0.530897 0.249162 0.059946
O O19 0.645597 0.000000 0.888966
O O20 0.426546 0.000000 0.950766
#
# Coordination Sequence:
#
# PCOD9130944 Si02
#       8
#     2   2   2   2   2   2   2   2
#     4   9  18  33  50  72 100 130 164 206 250 295
#     4  10  20  35  53  75 102 135 171 208 249 298
#     4   9  20  36  52  72 103 137 170 207 250 297
#     4  10  20  35  52  74 104 136 168 207 250 299
#     4  10  20  35  54  77 102 132 168 209 254 300
#     4   9  17  32  51  72  98 130 166 207 249 293
#     4   9  18  31  50  74  99 128 167 208 248 293
#     4   8  16  31  50  70  96 126 160 202 248 293
#
# _framework density 17.819355999999999
#
# number of rings (size 3 to 8) (size 9 to 14) (size 15 to 20)
#    0.000    2.750    0.000    1.875    0.000    4.000 
#    0.000    5.625    0.000    0.000    0.000    0.000 
#    0.000    0.000    0.000    0.000    0.000    0.000 
#
# Total GULP energy -89226.772973 kJ/mol
# GULP energy per Si atom -5576.673311 kJ/mol
# Density = 1.777880 g / cm^3
# Si number density = 17.819356 Si / 1000 Ang^3
#
#
#
# Elastic Constant Matrix: (Units=GPa)
#
#
# Indices 1 2 3 4 5 6 
#
# 1 184.8637 30.2676 128.2440 0.0000 34.7930 0.0000
# 2 30.2676 19.6732 31.7983 0.0000 2.9564 0.0000
# 3 128.2440 31.7983 218.6096 0.0000 3.6131 0.0000
# 4 0.0000 0.0000 0.0000 19.1328 0.0000 11.5061
# 5 34.7930 2.9564 3.6131 0.0000 17.5283 0.0000
# 6 0.0000 0.0000 0.0000 11.5061 0.0000 32.3206
#
#
#
# Elastic Compliance Matrix: (Units=1/GPa)
#
#
# Indices 1 2 3 4 5 6 
#
# 1 0.022161 -0.010647 -0.010791 0.000000 -0.039969 0.000000
# 2 -0.010647 0.073098 -0.004548 0.000000 0.009742 0.000000
# 3 -0.010791 -0.004548 0.011238 0.000000 0.019871 0.000000
# 4 0.000000 0.000000 0.000000 0.066504 0.000000 -0.023675
# 5 -0.039969 0.009742 0.019871 0.000000 0.130649 0.000000
# 6 0.000000 0.000000 0.000000 -0.023675 0.000000 0.039369
#
#
# Mechanical properties :
#
#
# Convention : Reuss Voigt Hill
#
# Bulk Modulus (GPa) = 18.34025 89.30736 53.82380
# Shear Modulus (GPa) = 12.10169 29.31878 20.71024
#
# Velocity S-wave (km/s) = 2.60884 4.06067 3.41285
# Velocity P-wave (km/s) = 4.40334 8.49779 6.76764
#
# Compressibility (1/GPa) = 0.05452489
#
# Stress axis : x y z
#
# Youngs Moduli (GPa) = 45.12349 13.68035 88.98363
#
# Poissons Ratio (x) = 0.14565 0.96025
# Poissons Ratio (y) = 0.48043 0.40467
# Poissons Ratio (z) = 0.48694 0.06221
#
# Static dielectric constant tensor:
#      x y z
#    x 1.605500 0.000000 -0.004780 
#    y 0.000000 1.606900 0.000000 
#    z -0.004780 0.000000 1.582880 
# 
# From -- ./inp_files/3590.got.cif
#   From: 2010.05.17/outbox.cif.g08.bks.cpg/sg6_2_cif.got.tgz:3590.got - 2010.06.03 19:42:10.
