data_PCOD9130666
_publ_section_title
;
Structure prediction by ZEFSAII (Michael W. Deem and Ramdas Pophale) SiO2 
 PCOD9130666
Probable space group: C 2
;
_chemical_formula_sum "Si O2"
_cell_formula_units_Z 15
_cell_length_a 12.000000
_cell_length_b 9.000000
_cell_length_c 15.000000
_cell_angle_alpha 90.000000
_cell_angle_beta 70.000000
_cell_angle_gamma 90.000000
_cell_volume 1522.302046
_symmetry_space_group_name_H-M "C 2"
_symmetry_group_IT_number 5
_symmetry_cell_setting 'monoclinic'
loop_
_space_group_symop_operation_xyz
x,y,z
-x,y,-z
1/2+x,1/2+y,z
1/2-x,1/2+y,-z
loop_
_atom_site_type_symbol
_atom_site_label
_atom_site_fract_x
_atom_site_fract_y
_atom_site_fract_z
Si Si1 0.833681 0.591730 0.876830
Si Si2 0.106804 0.352223 0.536968
Si Si3 0.000000 0.830469 0.500000
Si Si4 0.462428 0.883500 0.253508
Si Si5 0.684125 0.303624 0.290872
Si Si6 0.665471 0.522381 0.584809
Si Si7 0.619679 0.393812 0.024706
Si Si8 0.533950 0.546880 0.228803
O O1 0.814888 0.674968 0.785807
O O2 0.844020 0.731739 0.943607
O O3 0.956818 0.497109 0.827078
O O4 0.727044 0.481234 0.941952
O O5 0.054177 0.433418 0.639028
O O6 0.205745 0.450721 0.461087
O O7 0.000000 0.318084 0.500000
O O8 0.160574 0.194971 0.556532
O O9 0.098297 0.761573 0.400631
O O10 0.084190 0.931035 0.538261
O O11 0.323897 0.848341 0.265534
O O12 0.532869 0.725678 0.235300
O O13 0.621129 0.453229 0.269472
O O14 0.599147 0.507152 0.698582
O O15 0.574328 0.494489 0.120345
O O16 0.500000 0.372853 0.000000
#
# Coordination Sequence:
#
# PCOD9130666 Si02
#       8
#     4   4   2   4   4   4   4   4
#     4  11  26  43  68 102 128 169 228 273 334 401
#     4  11  24  39  60  94 131 173 219 263 323 387
#     4  10  18  42  66  90 136 184 214 262 326 390
#     4  11  23  42  64  95 133 174 217 272 330 388
#     4  10  22  43  66  96 136 176 219 271 325 392
#     4  10  21  41  63  90 132 173 216 268 319 382
#     4  11  24  45  69  96 130 171 217 280 339 390
#     4   9  22  42  65  93 128 171 219 274 328 387
#
# _framework density 9.8534980000000001
#
# number of rings (size 3 to 8) (size 9 to 14) (size 15 to 20)
#    0.000    1.600    2.000    1.600    0.000    9.600 
#    2.400    0.667    0.000    0.000    0.000    0.000 
#    0.000    0.000    0.000    0.000    0.000    0.000 
#
# Total GULP energy -83629.422584 kJ/mol
# GULP energy per Si atom -5575.294839 kJ/mol
# Density = 0.983107 g / cm^3
# Si number density = 9.853498 Si / 1000 Ang^3
#
#
#
# Elastic Constant Matrix: (Units=GPa)
#
#
# Indices 1 2 3 4 5 6 
#
# 1 126.2931 54.1985 52.4347 0.0000 -22.6032 0.0000
# 2 54.1985 108.3933 51.1444 0.0000 -23.5361 0.0000
# 3 52.4347 51.1444 150.2396 0.0000 -34.5055 0.0000
# 4 0.0000 0.0000 0.0000 44.3891 0.0000 -10.7957
# 5 -22.6032 -23.5361 -34.5055 0.0000 40.2931 0.0000
# 6 0.0000 0.0000 0.0000 -10.7957 0.0000 29.7749
#
#
#
# Elastic Compliance Matrix: (Units=1/GPa)
#
#
# Indices 1 2 3 4 5 6 
#
# 1 0.010827 -0.004059 -0.001925 0.000000 0.002054 0.000000
# 2 -0.004059 0.013058 -0.002240 0.000000 0.003432 0.000000
# 3 -0.001925 -0.002240 0.009388 0.000000 0.005652 0.000000
# 4 0.000000 0.000000 0.000000 0.024707 0.000000 0.008958
# 5 0.002054 0.003432 0.005652 0.000000 0.032815 0.000000
# 6 0.000000 0.000000 0.000000 0.008958 0.000000 0.036833
#
#
# Mechanical properties :
#
#
# Convention : Reuss Voigt Hill
#
# Bulk Modulus (GPa) = 59.43967 77.83125 68.63546
# Shear Modulus (GPa) = 33.40351 38.03463 35.71907
#
# Velocity S-wave (km/s) = 4.12151 4.39795 4.26197
# Velocity P-wave (km/s) = 7.27161 8.08513 7.68914
#
# Compressibility (1/GPa) = 0.01682378
#
# Stress axis : x y z
#
# Youngs Moduli (GPa) = 92.36146 76.58409 106.51355
#
# Poissons Ratio (x) = 0.31088 0.20505
# Poissons Ratio (y) = 0.37493 0.23860
# Poissons Ratio (z) = 0.17781 0.17156
#
# Static dielectric constant tensor:
#      x y z
#    x 1.712150 0.000000 0.024650 
#    y 0.000000 1.696590 0.000000 
#    z 0.024650 0.000000 1.721740 
# 
# From -- ./inp_files/52434.got.cif
#   From: 2010.05.17/outbox.ucp.g08.bks.cvg/sg5_27_cif.got.tgz:52434.got - 2010.06.11 12:53:14.
