data_PCOD9130319
_publ_section_title
;
Structure prediction by ZEFSAII (Michael W. Deem and Ramdas Pophale) SiO2 
 PCOD9130319
Probable space group: C 2
;
_chemical_formula_sum "Si O2"
_cell_formula_units_Z 26
_cell_length_a 12.468394
_cell_length_b 12.050089
_cell_length_c 8.881136
_cell_angle_alpha 90.000000
_cell_angle_beta 55.730003
_cell_angle_gamma 90.000000
_cell_volume 1102.696676
_symmetry_space_group_name_H-M "C 2"
_symmetry_group_IT_number 5
_symmetry_cell_setting 'monoclinic'
loop_
_space_group_symop_operation_xyz
x,y,z
-x,y,-z
1/2+x,1/2+y,z
1/2-x,1/2+y,-z
loop_
_atom_site_type_symbol
_atom_site_label
_atom_site_fract_x
_atom_site_fract_y
_atom_site_fract_z
Si Si1 0.500000 0.807150 0.000000
Si Si2 0.345375 0.293232 0.477992
Si Si3 0.564673 0.068697 0.643501
Si Si4 0.177389 0.031465 0.366123
Si Si5 0.901962 0.144426 0.289881
Si Si6 0.237865 0.939311 0.722957
Si Si7 0.689762 0.964633 0.008556
O O1 0.506522 0.724684 0.137164
O O2 0.623116 0.884793 0.937512
O O3 0.453329 0.198355 0.381739
O O4 0.363545 0.405878 0.556235
O O5 0.224958 0.221510 0.632620
O O6 0.302408 0.335984 0.347053
O O7 0.680925 0.058036 0.673279
O O8 0.630614 0.994517 0.456424
O O9 0.433585 0.027777 0.823041
O O10 0.090190 0.109396 0.542675
O O11 0.202306 0.034211 0.168555
O O12 0.870643 0.033475 0.221927
O O13 0.249996 0.912361 0.888373
#
# Coordination Sequence:
#
# PCOD9130319 Si02
#       7
#     2   4   4   4   4   4   4
#     4  12  20  36  62  82 104 150 200 224 268 338
#     4   8  15  35  53  76 109 157 175 213 287 333
#     4   9  17  31  55  84 113 145 182 225 271 328
#     4   9  17  33  55  74 112 148 181 218 280 333
#     4   9  19  36  58  78 111 154 183 221 283 333
#     4   9  20  34  56  84 120 143 182 232 278 322
#     4  12  19  33  60  91 107 137 195 242 260 319
#
# _framework density 23.578562000000002
#
# number of rings (size 3 to 8) (size 9 to 14) (size 15 to 20)
#    0.000    3.077    3.077    1.385    0.000    0.000 
#    5.538    0.000   27.077    0.000    0.000    0.000 
#    0.000    0.000    0.000    0.000    0.000    0.000 
#
# Total GULP energy -72443.448874 kJ/mol
# GULP energy per Si atom -5572.572990 kJ/mol
# Density = 2.352490 g / cm^3
# Si number density = 23.578562 Si / 1000 Ang^3
#
#
#
# Elastic Constant Matrix: (Units=GPa)
#
#
# Indices 1 2 3 4 5 6 
#
# 1 61.1374 8.8603 21.9439 0.0000 17.6933 0.0000
# 2 8.8603 105.1710 35.8333 0.0000 -1.8912 0.0000
# 3 21.9439 35.8333 150.6716 0.0000 16.4321 0.0000
# 4 0.0000 0.0000 0.0000 20.9762 0.0000 -10.2198
# 5 17.6933 -1.8912 16.4321 0.0000 32.7725 0.0000
# 6 0.0000 0.0000 0.0000 -10.2198 0.0000 -4.3764
#
#
#
# Elastic Compliance Matrix: (Units=1/GPa)
#
#
# Indices 1 2 3 4 5 6 
#
# 1 0.020023 -0.001363 -0.001486 0.000000 -0.010144 0.000000
# 2 -0.001363 0.010557 -0.002601 0.000000 0.002649 0.000000
# 3 -0.001486 -0.002601 0.007829 0.000000 -0.003273 0.000000
# 4 0.000000 0.000000 0.000000 0.022301 0.000000 -0.052077
# 5 -0.010144 0.002649 -0.003273 0.000000 0.037784 0.000000
# 6 0.000000 0.000000 0.000000 -0.052077 0.000000 -0.106888
#
#
# Mechanical properties :
#
#
# Convention : Reuss Voigt Hill
#
# Bulk Modulus (GPa) = 36.35152 50.02833 43.18992
# Shear Modulus (GPa) = 428.25331 26.56397 227.40864
#
# Velocity S-wave (km/s) = 13.49157 3.36015 9.83141
# Velocity P-wave (km/s) = 16.06697 6.02644 12.13395
#
# Compressibility (1/GPa) = 0.02750917
#
# Stress axis : x y z
#
# Youngs Moduli (GPa) = 49.94245 94.72353 127.73128
#
# Poissons Ratio (x) = 0.12912 0.18977
# Poissons Ratio (y) = 0.06808 0.33225
# Poissons Ratio (z) = 0.07420 0.24639
#
# Static dielectric constant tensor:
#      x y z
#    x 1.959700 0.000000 -0.014680 
#    y 0.000000 1.913900 0.000000 
#    z -0.014680 0.000000 1.980610 
# 
# From -- ./inp_files/23516.got.cif
#   From: 2010.05.17/outbox.cif.g08.bks.cpg/sg5_12_cif.got.tgz:23516.got - 2010.06.03 18:56:24.
