data_PCOD9130813
_publ_section_title
;
Structure prediction by ZEFSAII (Michael W. Deem and Ramdas Pophale) SiO2 
 PCOD9130813
Probable space group: P M
;
_chemical_formula_sum "Si O2"
_cell_formula_units_Z 16
_cell_length_a 14.757430
_cell_length_b 8.615461
_cell_length_c 20.319312
_cell_angle_alpha 90.000000
_cell_angle_beta 161.190548
_cell_angle_gamma 90.000000
_cell_volume 832.957280
_symmetry_space_group_name_H-M "P M"
_symmetry_group_IT_number 6
_symmetry_cell_setting 'monoclinic'
loop_
_space_group_symop_operation_xyz
x,y,z
x,-y,z
loop_
_atom_site_type_symbol
_atom_site_label
_atom_site_fract_x
_atom_site_fract_y
_atom_site_fract_z
Si Si1 0.564290 0.312701 0.266380
Si Si2 0.239636 0.685929 0.404385
Si Si3 0.601108 0.688313 0.529953
Si Si4 0.165822 0.814233 0.724131
Si Si5 0.639963 0.187736 0.946252
Si Si6 0.171914 0.312927 0.117804
Si Si7 0.213498 0.312056 0.902523
Si Si8 0.576122 0.185152 0.751731
O O1 0.588777 0.500000 0.285042
O O2 0.323213 0.271216 0.153631
O O3 0.858885 0.243104 0.491245
O O4 0.458566 0.265366 0.121462
O O5 0.236049 0.500000 0.401003
O O6 0.471915 0.740318 0.510378
O O7 0.332105 0.743935 0.539276
O O8 0.938919 0.747644 0.174803
O O9 0.611815 0.500000 0.539262
O O10 0.384682 0.729866 0.323087
O O11 0.913703 0.740705 0.726714
O O12 0.396839 0.763447 0.829501
O O13 0.237849 0.750201 0.845765
O O14 0.165435 0.000000 0.726290
O O15 0.575142 0.237977 0.826998
O O16 0.654381 0.000000 0.956403
O O17 0.134548 0.500000 0.092957
O O18 0.873240 0.236130 0.924944
O O19 0.208530 0.500000 0.896710
O O20 0.552898 0.000000 0.734680
#
# Coordination Sequence:
#
# PCOD9130813 Si02
#       8
#     2   2   2   2   2   2   2   2
#     4  10  21  38  63  89 118 153 191 239 291 345
#     4  11  22  38  63  92 118 149 192 241 289 345
#     4   9  17  33  60  89 118 149 184 233 291 343
#     4  11  24  41  60  82 115 157 198 242 290 344
#     4  10  24  44  60  79 114 159 200 240 290 342
#     4  10  18  35  62  89 118 153 191 235 287 344
#     4  10  20  38  62  89 118 151 191 237 291 345
#     4  11  23  39  60  87 121 157 191 235 289 350
#
# _framework density 19.208669
#
# number of rings (size 3 to 8) (size 9 to 14) (size 15 to 20)
#    0.000    1.750    2.500    1.875    0.000    5.500 
#    0.000    6.250    0.000    0.000    0.000    0.000 
#    0.000    0.000    0.000    0.000    0.000    0.000 
#
# Total GULP energy -89398.867655 kJ/mol
# GULP energy per Si atom -5587.429228 kJ/mol
# Density = 1.916495 g / cm^3
# Si number density = 19.208669 Si / 1000 Ang^3
#
#
#
# Elastic Constant Matrix: (Units=GPa)
#
#
# Indices 1 2 3 4 5 6 
#
# 1 176.0014 36.7842 93.8971 0.0000 -14.3660 0.0000
# 2 36.7842 17.8626 19.9587 0.0000 -5.1608 0.0000
# 3 93.8971 19.9587 57.6807 0.0000 -31.5655 0.0000
# 4 0.0000 0.0000 0.0000 28.4509 0.0000 -0.8581
# 5 -14.3660 -5.1608 -31.5655 0.0000 37.8505 0.0000
# 6 0.0000 0.0000 0.0000 -0.8581 0.0000 27.7356
#
#
#
# Elastic Compliance Matrix: (Units=1/GPa)
#
#
# Indices 1 2 3 4 5 6 
#
# 1 -0.021098 -0.013711 0.061962 0.000000 0.041797 0.000000
# 2 -0.013711 0.098120 -0.013169 0.000000 -0.002808 0.000000
# 3 0.061962 -0.013169 -0.123406 0.000000 -0.081193 0.000000
# 4 0.000000 0.000000 0.000000 0.035181 0.000000 0.001088
# 5 0.041797 -0.002808 -0.081193 0.000000 -0.025810 0.000000
# 6 0.000000 0.000000 0.000000 0.001088 0.000000 0.036088
#
#
# Mechanical properties :
#
#
# Convention : Reuss Voigt Hill
#
# Bulk Modulus (GPa) = 42.04918 61.42498 51.73708
# Shear Modulus (GPa) = -79.16081 25.53438 -26.81322
#
# Velocity S-wave (km/s) = -6.42654 3.64993 -3.74022
# Velocity P-wave (km/s) = 5.75578 7.05761 2.88798
#
# Compressibility (1/GPa) = 0.02378168
#
# Stress axis : x y z
#
# Youngs Moduli (GPa) = -47.39757 10.19158 -8.10335
#
# Poissons Ratio (x) = 0.13973 0.50210
# Poissons Ratio (y) = -0.64985 -0.10671
# Poissons Ratio (z) = 2.93686 0.13421
#
# Static dielectric constant tensor:
#      x y z
#    x 1.669510 0.000000 -0.006540 
#    y 0.000000 1.657340 0.000000 
#    z -0.006540 0.000000 1.639710 
# 
# From -- ./inp_files/5947.got.cif
#   From: 2010.05.17/outbox.cif.g08.bks.cpg/sg6_3_cif.got.tgz:5947.got - 2010.06.03 19:42:10.
