data_PCOD9130312
_publ_section_title
;
Structure prediction by ZEFSAII (Michael W. Deem and Ramdas Pophale) SiO2 
 PCOD9130312
Probable space group: C 2
;
_chemical_formula_sum "Si O2"
_cell_formula_units_Z 10
_cell_length_a 7.230480
_cell_length_b 7.371601
_cell_length_c 10.085706
_cell_angle_alpha 90.000000
_cell_angle_beta 44.200312
_cell_angle_gamma 90.000000
_cell_volume 374.777341
_symmetry_space_group_name_H-M "C 2"
_symmetry_group_IT_number 5
_symmetry_cell_setting 'monoclinic'
loop_
_space_group_symop_operation_xyz
x,y,z
-x,y,-z
1/2+x,1/2+y,z
1/2-x,1/2+y,-z
loop_
_atom_site_type_symbol
_atom_site_label
_atom_site_fract_x
_atom_site_fract_y
_atom_site_fract_z
Si Si1 0.689342 0.262600 0.276246
Si Si2 0.258162 0.181343 0.276247
Si Si3 0.500000 0.471973 0.000000
O O1 0.500000 0.235036 0.500000
O O2 0.511050 0.221969 0.238948
O O3 0.770242 0.471972 0.229753
O O4 0.926590 0.117382 0.152141
O O5 0.000000 0.208906 0.500000
O O6 0.269127 0.326565 0.152142
#
# Coordination Sequence:
#
# PCOD9130312 Si02
#       3
#     4   4   2
#     4  11  29  50  80 113 160 206 260 321 392 462
#     4  11  29  50  80 113 160 206 260 321 392 462
#     4  12  28  44  86 112 156 204 266 324 380 468
#
# _framework density 26.682509
#
# number of rings (size 3 to 8) (size 9 to 14) (size 15 to 20)
#    0.000    0.800    0.000    2.400   33.600    0.000 
#    0.000    0.000    0.000    0.000    0.000    0.000 
#    0.000    0.000    0.000    0.000    0.000    0.000 
#
# Total GULP energy -27976.061069 kJ/mol
# GULP energy per Si atom -5595.212214 kJ/mol
# Density = 2.662178 g / cm^3
# Si number density = 26.682509 Si / 1000 Ang^3
#
#
#
# Elastic Constant Matrix: (Units=GPa)
#
#
# Indices 1 2 3 4 5 6 
#
# 1 146.4901 70.6468 5.5621 -0.0013 -1.2818 0.0005
# 2 70.6468 327.5580 138.4229 -0.0004 0.7906 0.0001
# 3 5.5621 138.4229 235.7048 -0.0007 2.3216 0.0008
# 4 -0.0013 -0.0004 -0.0007 125.8993 0.0011 0.8537
# 5 -1.2818 0.7906 2.3216 0.0011 15.7499 -0.0006
# 6 0.0005 0.0001 0.0008 0.8537 -0.0006 53.3734
#
#
#
# Elastic Compliance Matrix: (Units=1/GPa)
#
#
# Indices 1 2 3 4 5 6 
#
# 1 0.007823 -0.002139 0.001066 0.000000 0.000587 0.000000
# 2 -0.002139 0.004646 -0.002678 0.000000 -0.000013 0.000000
# 3 0.001066 -0.002678 0.005796 0.000000 -0.000633 0.000000
# 4 0.000000 0.000000 0.000000 0.007944 -0.000001 -0.000127
# 5 0.000587 -0.000013 -0.000633 -0.000001 0.063634 0.000001
# 6 0.000000 0.000000 0.000000 -0.000127 0.000001 0.018738
#
#
# Mechanical properties :
#
#
# Convention : Reuss Voigt Hill
#
# Bulk Modulus (GPa) = 92.91263 126.55741 109.73502
# Shear Modulus (GPa) = 41.78151 72.01259 56.89705
#
# Velocity S-wave (km/s) = 3.96141 5.20070 4.62277
# Velocity P-wave (km/s) = 7.47133 9.14313 8.34918
#
# Compressibility (1/GPa) = 0.01076280
#
# Stress axis : x y z
#
# Youngs Moduli (GPa) = 127.83451 215.24547 172.52470
#
# Poissons Ratio (x) = 0.46040 -0.18387
# Poissons Ratio (y) = 0.27343 0.46198
# Poissons Ratio (z) = -0.13624 0.57638
#
# Static dielectric constant tensor:
#      x y z
#    x 2.001350 0.000000 0.000370 
#    y 0.000000 1.988200 0.000000 
#    z 0.000370 0.000000 2.036280 
# 
# From -- ./inp_files/11388.got.cif
#   From: 2010.05.17/outbox.cif.g08.bks.cpg/sg5_6_cif.got.tgz:11388.got - 2010.06.03 18:56:24.
