data_PCOD9130156
_publ_section_title
;
Structure prediction by ZEFSAII (Michael W. Deem and Ramdas Pophale) SiO2 
 PCOD9130156
Probable space group: C 2
;
_chemical_formula_sum "Si O2"
_cell_formula_units_Z 20
_cell_length_a 18.399173
_cell_length_b 5.219657
_cell_length_c 15.192983
_cell_angle_alpha 90.000000
_cell_angle_beta 31.903082
_cell_angle_gamma 90.000000
_cell_volume 771.107921
_symmetry_space_group_name_H-M "C 2"
_symmetry_group_IT_number 5
_symmetry_cell_setting 'monoclinic'
loop_
_space_group_symop_operation_xyz
x,y,z
-x,y,-z
1/2+x,1/2+y,z
1/2-x,1/2+y,-z
loop_
_atom_site_type_symbol
_atom_site_label
_atom_site_fract_x
_atom_site_fract_y
_atom_site_fract_z
Si Si1 0.131853 0.515240 0.896507
Si Si2 0.337004 0.991184 0.931684
Si Si3 0.070249 0.135480 0.639044
Si Si4 0.389482 0.257047 0.551393
Si Si5 0.671923 0.376741 0.693826
O O1 0.282037 0.403396 0.724366
O O2 0.124822 0.743330 0.831776
O O3 0.123633 0.555800 0.008455
O O4 0.000000 0.347638 0.000000
O O5 0.472616 0.883001 0.743043
O O6 0.235633 0.743063 0.032764
O O7 0.234176 0.179011 0.458055
O O8 0.037626 0.955108 0.589898
O O9 0.060379 0.998551 0.743924
O O10 0.500000 0.121050 0.500000
O O11 0.287194 0.079130 0.603171
#
# Coordination Sequence:
#
# PCOD9130156 Si02
#       5
#     4   4   4   4   4
#     4  11  28  49  75 117 158 212 264 339 399 482
#     4  12  31  51  81 118 164 210 264 335 410 475
#     4  11  25  47  78 113 155 216 267 325 399 489
#     4  11  25  46  76 112 157 204 270 332 400 473
#     4  11  25  45  81 111 155 210 273 329 396 480
#
# _framework density 25.936709
#
# number of rings (size 3 to 8) (size 9 to 14) (size 15 to 20)
#    0.000    0.800    2.000    2.400   14.000    4.000 
#    0.000    0.000    0.000    0.000    0.000    0.000 
#    0.000    0.000    0.000    0.000    0.000    0.000 
#
# Total GULP energy -55989.228827 kJ/mol
# GULP energy per Si atom -5598.922883 kJ/mol
# Density = 2.587768 g / cm^3
# Si number density = 25.936709 Si / 1000 Ang^3
#
#
#
# Elastic Constant Matrix: (Units=GPa)
#
#
# Indices 1 2 3 4 5 6 
#
# 1 157.9514 31.9100 31.1480 0.0040 3.4339 0.0039
# 2 31.9100 83.3707 35.5482 -0.0127 4.9408 0.0228
# 3 31.1480 35.5482 134.7323 -0.0074 5.1432 -0.0003
# 4 0.0040 -0.0127 -0.0074 23.2134 0.0042 -20.2973
# 5 3.4339 4.9408 5.1432 0.0042 42.0952 -0.0017
# 6 0.0039 0.0228 -0.0003 -20.2973 -0.0017 40.4625
#
#
#
# Elastic Compliance Matrix: (Units=1/GPa)
#
#
# Indices 1 2 3 4 5 6 
#
# 1 0.006986 -0.002228 -0.001020 -0.000004 -0.000184 -0.000001
# 2 -0.002228 0.014282 -0.003211 0.000001 -0.001102 -0.000008
# 3 -0.001020 -0.003211 0.008527 0.000005 -0.000582 0.000005
# 4 -0.000004 0.000001 0.000005 0.076737 -0.000007 0.038494
# 5 -0.000184 -0.001102 -0.000582 -0.000007 0.023971 -0.000002
# 6 -0.000001 -0.000008 0.000005 0.038494 -0.000002 0.044024
#
#
# Mechanical properties :
#
#
# Convention : Reuss Voigt Hill
#
# Bulk Modulus (GPa) = 59.25247 63.69630 61.47438
# Shear Modulus (GPa) = 25.89713 39.65077 32.77395
#
# Velocity S-wave (km/s) = 3.16329 3.91417 3.55859
# Velocity P-wave (km/s) = 6.01968 6.71113 6.37479
#
# Compressibility (1/GPa) = 0.01687693
#
# Stress axis : x y z
#
# Youngs Moduli (GPa) = 143.13557 70.01879 117.26910
#
# Poissons Ratio (x) = 0.15601 0.11964
# Poissons Ratio (y) = 0.31892 0.37655
# Poissons Ratio (z) = 0.14603 0.22483
#
# Static dielectric constant tensor:
#      x y z
#    x 1.925130 0.000000 -0.033230 
#    y 0.000000 2.170100 0.000000 
#    z -0.033230 0.000000 2.175790 
# 
# From -- ./inp_files/56456.got.cif
#   From: 2010.05.17/outbox.cif.g08.bks.cpg/sg5_29_cif.got.tgz:56456.got - 2010.06.03 18:56:24.
