data_PCOD9130069
_publ_section_title
;
Structure prediction by ZEFSAII (Michael W. Deem and Ramdas Pophale) SiO2 
 PCOD9130069
Probable space group: C 2
;
_chemical_formula_sum "Si O2"
_cell_formula_units_Z 22
_cell_length_a 7.703422
_cell_length_b 23.854019
_cell_length_c 8.494238
_cell_angle_alpha 90.000000
_cell_angle_beta 36.380042
_cell_angle_gamma 90.000000
_cell_volume 925.818331
_symmetry_space_group_name_H-M "C 2"
_symmetry_group_IT_number 5
_symmetry_cell_setting 'monoclinic'
loop_
_space_group_symop_operation_xyz
x,y,z
-x,y,-z
1/2+x,1/2+y,z
1/2-x,1/2+y,-z
loop_
_atom_site_type_symbol
_atom_site_label
_atom_site_fract_x
_atom_site_fract_y
_atom_site_fract_z
Si Si1 0.003938 0.450030 0.682771
Si Si2 0.000000 0.020261 0.500000
Si Si3 0.179574 0.047272 0.025878
Si Si4 0.037495 0.655539 0.155103
Si Si5 0.657272 0.840517 0.720920
Si Si6 0.330699 0.708964 0.332143
O O1 0.000000 0.464936 0.500000
O O2 0.257345 0.478893 0.601866
O O3 0.030484 0.384014 0.687677
O O4 0.731965 0.481128 0.963067
O O5 0.090762 0.053689 0.273967
O O6 0.451435 0.089800 0.808879
O O7 0.000000 0.063037 0.000000
O O8 0.759949 0.684971 0.434290
O O9 0.366452 0.680640 0.948158
O O10 0.000000 0.662482 0.000000
O O11 0.615131 0.775313 0.710915
O O12 0.000000 0.849276 0.500000
O O13 0.500000 0.852302 0.000000
O O14 0.000000 0.698777 0.500000
#
# Coordination Sequence:
#
# PCOD9130069 Si02
#       6
#     4   2   4   4   4   4
#     4  12  26  45  73 111 149 201 252 319 384 459
#     4  12  24  48  72 104 152 194 250 312 378 460
#     4  12  27  47  75 110 151 205 254 316 389 462
#     4  12  27  46  73 107 153 198 252 320 385 455
#     4  11  24  47  76 106 149 201 253 318 385 453
#     4  11  24  47  74 108 143 201 255 311 384 459
#
# _framework density 23.762761000000001
#
# number of rings (size 3 to 8) (size 9 to 14) (size 15 to 20)
#    0.000    0.364    2.727    7.091    5.091    2.182 
#    0.000    0.909    0.000    0.000    0.000    0.000 
#    0.000    0.000    0.000    0.000    0.000    0.000 
#
# Total GULP energy -61383.464884 kJ/mol
# GULP energy per Si atom -5580.314989 kJ/mol
# Density = 2.370868 g / cm^3
# Si number density = 23.762761 Si / 1000 Ang^3
#
#
#
# Elastic Constant Matrix: (Units=GPa)
#
#
# Indices 1 2 3 4 5 6 
#
# 1 152.8245 25.5222 41.0618 0.0000 16.9230 0.0000
# 2 25.5222 97.1114 26.4992 0.0000 -8.3857 0.0000
# 3 41.0618 26.4992 133.3196 0.0000 4.4893 0.0000
# 4 0.0000 0.0000 0.0000 43.8791 0.0000 -10.2419
# 5 16.9230 -8.3857 4.4893 0.0000 43.6203 0.0000
# 6 0.0000 0.0000 0.0000 -10.2419 0.0000 28.3885
#
#
#
# Elastic Compliance Matrix: (Units=1/GPa)
#
#
# Indices 1 2 3 4 5 6 
#
# 1 0.007700 -0.001772 -0.001914 0.000000 -0.003131 0.000000
# 2 -0.001772 0.011536 -0.001851 0.000000 0.003096 0.000000
# 3 -0.001914 -0.001851 0.008475 0.000000 -0.000486 0.000000
# 4 0.000000 0.000000 0.000000 0.024885 0.000000 0.008978
# 5 -0.003131 0.003096 -0.000486 0.000000 0.024785 0.000000
# 6 0.000000 0.000000 0.000000 0.008978 0.000000 0.038465
#
#
# Mechanical properties :
#
#
# Convention : Reuss Voigt Hill
#
# Bulk Modulus (GPa) = 60.11048 63.26911 61.68979
# Shear Modulus (GPa) = 37.74565 42.52239 40.13402
#
# Velocity S-wave (km/s) = 3.98984 4.23478 4.11414
# Velocity P-wave (km/s) = 6.82467 7.11297 6.97031
#
# Compressibility (1/GPa) = 0.01663603
#
# Stress axis : x y z
#
# Youngs Moduli (GPa) = 129.86405 86.68799 117.99923
#
# Poissons Ratio (x) = 0.15360 0.22586
# Poissons Ratio (y) = 0.23010 0.21846
# Poissons Ratio (z) = 0.24857 0.16049
#
# Static dielectric constant tensor:
#      x y z
#    x 1.928610 0.000000 -0.033730 
#    y 0.000000 1.872430 0.000000 
#    z -0.033730 0.000000 1.976300 
# 
# From -- ./inp_files/17406.got.cif
#   From: 2010.05.17/outbox.cif.g08.bks.cpg/sg5_9_cif.got.tgz:17406.got - 2010.06.03 18:56:24.
