data_PCOD9130431
_publ_section_title
;
Structure prediction by ZEFSAII (Michael W. Deem and Ramdas Pophale) SiO2 
 PCOD9130431
Probable space group: C 2
;
_chemical_formula_sum "Si O2"
_cell_formula_units_Z 24
_cell_length_a 9.011872
_cell_length_b 4.763155
_cell_length_c 24.006967
_cell_angle_alpha 90.000000
_cell_angle_beta 73.021597
_cell_angle_gamma 90.000000
_cell_volume 985.583343
_symmetry_space_group_name_H-M "C 2"
_symmetry_group_IT_number 5
_symmetry_cell_setting 'monoclinic'
loop_
_space_group_symop_operation_xyz
x,y,z
-x,y,-z
1/2+x,1/2+y,z
1/2-x,1/2+y,-z
loop_
_atom_site_type_symbol
_atom_site_label
_atom_site_fract_x
_atom_site_fract_y
_atom_site_fract_z
Si Si1 0.890826 0.989790 0.684566
Si Si2 0.250931 0.489696 0.357927
Si Si3 0.031111 0.175756 0.149849
Si Si4 0.642773 0.946612 0.022657
Si Si5 0.173204 0.672159 0.193506
Si Si6 0.679117 0.658861 0.478668
O O1 0.854301 0.761597 0.640502
O O2 0.856064 0.826188 0.745075
O O3 0.069977 0.075196 0.663214
O O4 0.785515 0.261907 0.686317
O O5 0.214922 0.323941 0.418263
O O6 0.079468 0.321566 0.087148
O O7 0.064469 0.405680 0.194198
O O8 0.852266 0.087906 0.169275
O O9 0.133911 0.906018 0.151734
O O10 0.500000 0.042901 0.000000
O O11 0.763138 0.197681 0.017622
O O12 0.500000 0.573678 0.500000
O O13 0.784451 0.387149 0.477194
#
# Coordination Sequence:
#
# PCOD9130431 Si02
#       6
#     4   4   4   4   4   4
#     4  12  24  43  65  94 126 165 211 260 313 372
#     4  12  24  42  66  94 127 168 211 260 313 372
#     4  12  24  43  65  94 126 165 207 256 313 372
#     4  12  25  43  66  94 127 165 208 256 309 372
#     4  12  25  43  66  94 127 165 208 260 313 372
#     4  12  24  42  64  94 129 168 211 260 313 372
#
# _framework density 24.35106
#
# number of rings (size 3 to 8) (size 9 to 14) (size 15 to 20)
#    0.000    0.000    0.000   12.000    0.000    0.000 
#    0.000    0.000    0.000    0.000    0.000    0.000 
#    0.000    0.000    0.000    0.000    0.000    0.000 
#
# Total GULP energy -67381.639677 kJ/mol
# GULP energy per Si atom -5615.136640 kJ/mol
# Density = 2.429564 g / cm^3
# Si number density = 24.351060 Si / 1000 Ang^3
#
#
#
# Elastic Constant Matrix: (Units=GPa)
#
#
# Indices 1 2 3 4 5 6 
#
# 1 121.4664 7.8190 7.0312 0.0000 3.2597 0.0000
# 2 7.8190 91.4956 -21.8884 0.0000 16.1528 0.0000
# 3 7.0312 -21.8884 74.5232 0.0000 1.6421 0.0000
# 4 0.0000 0.0000 0.0000 32.5961 0.0000 -4.3075
# 5 3.2597 16.1528 1.6421 0.0000 27.9597 0.0000
# 6 0.0000 0.0000 0.0000 -4.3075 0.0000 -31.5453
#
#
#
# Elastic Compliance Matrix: (Units=1/GPa)
#
#
# Indices 1 2 3 4 5 6 
#
# 1 0.008361 -0.000894 -0.001043 0.000000 -0.000397 0.000000
# 2 -0.000894 0.013401 0.004194 0.000000 -0.007884 0.000000
# 3 -0.001043 0.004194 0.014819 0.000000 -0.003172 0.000000
# 4 0.000000 0.000000 0.000000 0.030135 0.000000 -0.004115
# 5 -0.000397 -0.007884 -0.003172 0.000000 0.040553 0.000000
# 6 0.000000 0.000000 0.000000 -0.004115 0.000000 -0.031139
#
#
# Mechanical properties :
#
#
# Convention : Reuss Voigt Hill
#
# Bulk Modulus (GPa) = 24.33303 30.37876 27.35589
# Shear Modulus (GPa) = 58.60695 25.43700 42.02197
#
# Velocity S-wave (km/s) = 4.91119 3.23553 4.15863
# Velocity P-wave (km/s) = 6.49415 5.14399 5.85809
#
# Compressibility (1/GPa) = 0.04109641
#
# Stress axis : x y z
#
# Youngs Moduli (GPa) = 119.59890 74.62065 67.48199
#
# Poissons Ratio (x) = 0.06670 0.07036
# Poissons Ratio (y) = 0.10690 -0.28303
# Poissons Ratio (z) = 0.12470 -0.31297
#
# Static dielectric constant tensor:
#      x y z
#    x 1.861260 0.000000 0.070690 
#    y 0.000000 1.883050 0.000000 
#    z 0.070690 0.000000 1.956730 
# 
# From -- ./inp_files/67839.got.cif
#   From: 2010.05.17/outbox.cif.g08.bks.cpg/sg5_34_cif.got.tgz:67839.got - 2010.06.03 18:56:24.
