data_PCOD9130522
_publ_section_title
;
Structure prediction by ZEFSAII (Michael W. Deem and Ramdas Pophale) SiO2 
 PCOD9130522
Probable space group: C 2
;
_chemical_formula_sum "Si O2"
_cell_formula_units_Z 24
_cell_length_a 8.690593
_cell_length_b 18.163285
_cell_length_c 8.580658
_cell_angle_alpha 90.000000
_cell_angle_beta 56.213659
_cell_angle_gamma 90.000000
_cell_volume 1125.710198
_symmetry_space_group_name_H-M "C 2"
_symmetry_group_IT_number 5
_symmetry_cell_setting 'monoclinic'
loop_
_space_group_symop_operation_xyz
x,y,z
-x,y,-z
1/2+x,1/2+y,z
1/2-x,1/2+y,-z
loop_
_atom_site_type_symbol
_atom_site_label
_atom_site_fract_x
_atom_site_fract_y
_atom_site_fract_z
Si Si1 0.505863 0.176180 0.684497
Si Si2 0.658909 0.589536 0.034028
Si Si3 0.881699 0.097002 0.423219
Si Si4 0.987234 0.840718 0.192985
Si Si5 0.206817 0.447918 0.841553
Si Si6 0.804264 0.452416 0.525970
O O1 0.500000 0.180873 0.500000
O O2 0.707216 0.139386 0.592818
O O3 0.503850 0.256427 0.760609
O O4 0.333094 0.130236 0.854234
O O5 0.531108 0.637248 0.227416
O O6 0.739282 0.521537 0.090626
O O7 0.500000 0.567406 0.000000
O O8 0.000000 0.067709 0.500000
O O9 0.801636 0.027737 0.374449
O O10 0.801820 0.880870 0.355071
O O11 0.149470 0.886246 0.185650
O O12 0.000000 0.847310 0.000000
O O13 0.198529 0.454866 0.659663
O O14 0.000000 0.425955 0.000000
O O15 0.000000 0.455953 0.500000
#
# Coordination Sequence:
#
# PCOD9130522 Si02
#       6
#     4   4   4   4   4   4
#     4  12  28  49  73 108 151 194 241 302 367 433
#     4  12  26  46  78 112 145 190 247 301 360 434
#     4  12  25  45  77 110 145 190 246 302 360 432
#     4  12  28  49  72 105 148 190 241 301 364 434
#     4  12  25  45  76 108 142 191 245 300 359 433
#     4  12  25  46  76 106 144 192 243 299 363 429
#
# _framework density 21.319873999999999
#
# number of rings (size 3 to 8) (size 9 to 14) (size 15 to 20)
#    0.000    0.000    5.000    4.500    4.667    1.333 
#    3.000    0.000    0.000    0.000    0.000    0.000 
#    0.000    0.000    0.000    0.000    0.000    0.000 
#
# Total GULP energy -67069.971307 kJ/mol
# GULP energy per Si atom -5589.164276 kJ/mol
# Density = 2.127135 g / cm^3
# Si number density = 21.319874 Si / 1000 Ang^3
#
#
#
# Elastic Constant Matrix: (Units=GPa)
#
#
# Indices 1 2 3 4 5 6 
#
# 1 188.8699 51.1790 68.5880 0.0000 -0.4081 0.0000
# 2 51.1790 94.3128 43.6154 0.0000 9.5277 0.0000
# 3 68.5880 43.6154 174.6445 0.0000 4.8035 0.0000
# 4 0.0000 0.0000 0.0000 39.1221 0.0000 -0.1220
# 5 -0.4081 9.5277 4.8035 0.0000 39.5133 0.0000
# 6 0.0000 0.0000 0.0000 -0.1220 0.0000 27.7031
#
#
#
# Elastic Compliance Matrix: (Units=1/GPa)
#
#
# Indices 1 2 3 4 5 6 
#
# 1 0.006794 -0.002873 -0.001978 0.000000 0.001003 0.000000
# 2 -0.002873 0.013461 -0.002150 0.000000 -0.003014 0.000000
# 3 -0.001978 -0.002150 0.007050 0.000000 -0.000359 0.000000
# 4 0.000000 0.000000 0.000000 0.025561 0.000000 0.000113
# 5 0.001003 -0.003014 -0.000359 0.000000 0.026089 0.000000
# 6 0.000000 0.000000 0.000000 0.000113 0.000000 0.036098
#
#
# Mechanical properties :
#
#
# Convention : Reuss Voigt Hill
#
# Bulk Modulus (GPa) = 75.18253 87.17690 81.17971
# Shear Modulus (GPa) = 37.45609 40.89733 39.17671
#
# Velocity S-wave (km/s) = 4.19604 4.38456 4.29134
# Velocity P-wave (km/s) = 7.66918 8.16157 7.91920
#
# Compressibility (1/GPa) = 0.01330096
#
# Stress axis : x y z
#
# Youngs Moduli (GPa) = 147.19408 74.28782 141.84953
#
# Poissons Ratio (x) = 0.21344 0.28060
# Poissons Ratio (y) = 0.42292 0.30504
# Poissons Ratio (z) = 0.29117 0.15975
#
# Static dielectric constant tensor:
#      x y z
#    x 1.775160 0.000000 -0.012500 
#    y 0.000000 1.729030 0.000000 
#    z -0.012500 0.000000 1.842500 
# 
# From -- ./inp_files/16721.got.cif
#   From: 2010.05.17/outbox.cif.g08.bks.cpg/sg5_9_cif.got.tgz:16721.got - 2010.06.03 18:56:24.
