data_PCOD9130748
_publ_section_title
;
Structure prediction by ZEFSAII (Michael W. Deem and Ramdas Pophale) SiO2 
 PCOD9130748
Probable space group: C 2
;
_chemical_formula_sum "Si O2"
_cell_formula_units_Z 15
_cell_length_a 12.000000
_cell_length_b 9.000000
_cell_length_c 15.000000
_cell_angle_alpha 90.000000
_cell_angle_beta 90.000000
_cell_angle_gamma 90.000000
_cell_volume 1620.000000
_symmetry_space_group_name_H-M "C 2"
_symmetry_group_IT_number 5
_symmetry_cell_setting 'monoclinic'
loop_
_space_group_symop_operation_xyz
x,y,z
-x,y,-z
1/2+x,1/2+y,z
1/2-x,1/2+y,-z
loop_
_atom_site_type_symbol
_atom_site_label
_atom_site_fract_x
_atom_site_fract_y
_atom_site_fract_z
Si Si1 0.367864 0.048340 0.339736
Si Si2 0.000000 0.550483 0.000000
Si Si3 0.347217 0.429310 0.580603
Si Si4 0.616118 0.102031 0.341282
Si Si5 0.630133 0.255636 0.149021
Si Si6 0.513487 0.541176 0.247780
Si Si7 0.108871 0.343972 0.838034
Si Si8 0.171650 0.900192 0.629264
O O1 0.495757 0.042494 0.368240
O O2 0.333586 0.223719 0.347752
O O3 0.282630 0.964011 0.403742
O O4 0.369505 0.962954 0.243242
O O5 0.923977 0.664324 0.936357
O O6 0.058497 0.438334 0.924358
O O7 0.366531 0.258327 0.608142
O O8 0.406588 0.530818 0.660612
O O9 0.370575 0.436177 0.473098
O O10 0.615540 0.150369 0.236532
O O11 0.709102 0.979641 0.361406
O O12 0.568885 0.415541 0.179234
O O13 0.764607 0.284752 0.138911
O O14 0.471519 0.701743 0.200200
O O15 0.403033 0.475289 0.293615
#
# Coordination Sequence:
#
# PCOD9130748 Si02
#       8
#     4   2   4   4   4   4   4   4
#     4  12  24  43  71  97 139 190 227 293 352 409
#     4  12  28  46  74 104 132 176 234 298 348 440
#     4  11  24  42  66 105 140 183 246 285 326 419
#     4  11  23  45  66  96 140 185 229 287 354 410
#     4  11  24  49  71  99 140 178 231 290 358 425
#     4  11  23  44  74  96 144 187 221 289 355 403
#     4  12  26  48  71 106 139 176 239 288 361 433
#     4  12  23  40  72 100 141 192 234 282 344 402
#
# _framework density 9.2592590000000001
#
# number of rings (size 3 to 8) (size 9 to 14) (size 15 to 20)
#    0.000    0.533    8.000    1.200    1.867    4.267 
#    2.400    0.000    2.933    0.000    0.000    0.000 
#    0.000    0.000    0.000    0.000    0.000    0.000 
#
# Total GULP energy -83500.892886 kJ/mol
# GULP energy per Si atom -5566.726192 kJ/mol
# Density = 0.923818 g / cm^3
# Si number density = 9.259259 Si / 1000 Ang^3
#
#
#
# Elastic Constant Matrix: (Units=GPa)
#
#
# Indices 1 2 3 4 5 6 
#
# 1 140.8079 50.8244 25.7851 0.0000 9.0506 0.0000
# 2 50.8244 103.8674 58.4587 0.0000 12.7262 0.0000
# 3 25.7851 58.4587 123.8560 0.0000 1.7131 0.0000
# 4 0.0000 0.0000 0.0000 40.6954 0.0000 -0.6279
# 5 9.0506 12.7262 1.7131 0.0000 38.0058 0.0000
# 6 0.0000 0.0000 0.0000 -0.6279 0.0000 47.0460
#
#
#
# Elastic Compliance Matrix: (Units=1/GPa)
#
#
# Indices 1 2 3 4 5 6 
#
# 1 0.008646 -0.004282 0.000230 0.000000 -0.000635 0.000000
# 2 -0.004282 0.015907 -0.006561 0.000000 -0.004011 0.000000
# 3 0.000230 -0.006561 0.011100 0.000000 0.001642 0.000000
# 4 0.000000 0.000000 0.000000 0.024578 0.000000 0.000328
# 5 -0.000635 -0.004011 0.001642 0.000000 0.027732 0.000000
# 6 0.000000 0.000000 0.000000 0.000328 0.000000 0.021260
#
#
# Mechanical properties :
#
#
# Convention : Reuss Voigt Hill
#
# Bulk Modulus (GPa) = 69.31585 70.96307 70.13946
# Shear Modulus (GPa) = 36.96594 40.71365 38.83979
#
# Velocity S-wave (km/s) = 4.47269 4.69394 4.58465
# Velocity P-wave (km/s) = 8.01156 8.23290 8.12299
#
# Compressibility (1/GPa) = 0.01442671
#
# Stress axis : x y z
#
# Youngs Moduli (GPa) = 115.65599 62.86440 90.08972
#
# Poissons Ratio (x) = 0.26921 -0.02072
# Poissons Ratio (y) = 0.49529 0.59108
# Poissons Ratio (z) = -0.02660 0.41246
#
# Static dielectric constant tensor:
#      x y z
#    x 1.706350 0.000000 0.020630 
#    y 0.000000 1.664370 0.000000 
#    z 0.020630 0.000000 1.660480 
# 
# From -- ./inp_files/52284.got.cif
#   From: 2010.05.17/outbox.ucp.g08.bks.cvg/sg5_27_cif.got.tgz:52284.got - 2010.06.11 12:53:14.
