data_PCOD9130100
_publ_section_title
;
Structure prediction by ZEFSAII (Michael W. Deem and Ramdas Pophale) SiO2 
 PCOD9130100
Probable space group: C 2
;
_chemical_formula_sum "Si O2"
_cell_formula_units_Z 22
_cell_length_a 33.025639
_cell_length_b 5.291996
_cell_length_c 20.540841
_cell_angle_alpha 90.000000
_cell_angle_beta 163.791697
_cell_angle_gamma 90.000000
_cell_volume 1002.064977
_symmetry_space_group_name_H-M "C 2"
_symmetry_group_IT_number 5
_symmetry_cell_setting 'monoclinic'
loop_
_space_group_symop_operation_xyz
x,y,z
-x,y,-z
1/2+x,1/2+y,z
1/2-x,1/2+y,-z
loop_
_atom_site_type_symbol
_atom_site_label
_atom_site_fract_x
_atom_site_fract_y
_atom_site_fract_z
Si Si1 0.682546 0.075550 0.362177
Si Si2 0.446369 0.849349 0.309540
Si Si3 0.333808 0.095337 0.817053
Si Si4 0.269524 0.608608 0.933032
Si Si5 0.226969 0.593329 0.722210
Si Si6 0.000000 0.979364 0.500000
O O1 0.757650 0.323394 0.509849
O O2 0.706467 0.060648 0.321117
O O3 0.507662 0.097917 0.096658
O O4 0.530998 0.658914 0.486843
O O5 0.300439 0.904922 0.125626
O O6 0.552845 0.082949 0.463451
O O7 0.405287 0.728190 0.178242
O O8 0.270533 0.361623 0.743469
O O9 0.274267 0.858456 0.765910
O O10 0.296550 0.537924 0.900543
O O11 0.140685 0.813716 0.730306
#
# Coordination Sequence:
#
# PCOD9130100 Si02
#       6
#     4   4   4   4   4   2
#     4  11  24  49  80 104 138 181 222 271 348 434
#     4  12  25  40  66  92 132 193 240 288 341 400
#     4  11  27  46  72 108 140 178 223 283 350 420
#     4  12  25  40  66  92 132 193 240 288 341 400
#     4  12  25  45  68 102 148 176 230 297 345 398
#     4  12  20  44  62  88 128 180 248 292 340 394
#
# _framework density 21.954661000000002
#
# number of rings (size 3 to 8) (size 9 to 14) (size 15 to 20)
#    0.000    0.364    5.455    3.273    0.000    7.273 
#    0.000    3.636    0.000    0.000    0.000    0.000 
#    0.000    0.000    0.000    0.000    0.000    0.000 
#
# Total GULP energy -61558.957168 kJ/mol
# GULP energy per Si atom -5596.268833 kJ/mol
# Density = 2.190469 g / cm^3
# Si number density = 21.954661 Si / 1000 Ang^3
#
#
#
# Elastic Constant Matrix: (Units=GPa)
#
#
# Indices 1 2 3 4 5 6 
#
# 1 112.1061 28.4510 40.9834 0.0002 -18.2063 0.0001
# 2 28.4510 100.9157 21.9334 0.0009 -3.7445 -0.0004
# 3 40.9834 21.9334 92.6097 0.0002 -30.8868 -0.0001
# 4 0.0002 0.0009 0.0002 37.0602 -0.0003 6.0653
# 5 -18.2063 -3.7445 -30.8868 -0.0003 36.9653 0.0001
# 6 0.0001 -0.0004 -0.0001 6.0653 0.0001 42.7197
#
#
#
# Elastic Compliance Matrix: (Units=1/GPa)
#
#
# Indices 1 2 3 4 5 6 
#
# 1 0.011203 -0.002276 -0.003681 0.000000 0.002211 0.000000
# 2 -0.002276 0.010962 -0.002208 0.000000 -0.001855 0.000000
# 3 -0.003681 -0.002208 0.017011 0.000000 0.012177 0.000000
# 4 0.000000 0.000000 0.000000 0.027625 0.000000 -0.003922
# 5 0.002211 -0.001855 0.012177 0.000000 0.038128 0.000000
# 6 0.000000 0.000000 0.000000 -0.003922 0.000000 0.023965
#
#
# Mechanical properties :
#
#
# Convention : Reuss Voigt Hill
#
# Bulk Modulus (GPa) = 43.77139 54.26300 49.01720
# Shear Modulus (GPa) = 32.71403 37.63328 35.17366
#
# Velocity S-wave (km/s) = 3.86433 4.14470 4.00697
# Velocity P-wave (km/s) = 6.31595 6.90466 6.61686
#
# Compressibility (1/GPa) = 0.02284597
#
# Stress axis : x y z
#
# Youngs Moduli (GPa) = 89.26500 91.22444 58.78493
#
# Poissons Ratio (x) = 0.20765 0.21639
# Poissons Ratio (y) = 0.20319 0.12978
# Poissons Ratio (z) = 0.32858 0.20139
#
# Static dielectric constant tensor:
#      x y z
#    x 1.827870 0.000000 0.021620 
#    y 0.000000 1.804440 0.000000 
#    z 0.021620 0.000000 1.785480 
# 
# From -- ./inp_files/51944.got.cif
#   From: 2010.05.17/outbox.cif.g08.bks.cpg/sg5_26_cif.got.tgz:51944.got - 2010.06.03 18:56:24.
