data_PCOD9130918
_publ_section_title
;
Structure prediction by ZEFSAII (Michael W. Deem and Ramdas Pophale) SiO2 
 PCOD9130918
Probable space group: P M
;
_chemical_formula_sum "Si O2"
_cell_formula_units_Z 16
_cell_length_a 10.094254
_cell_length_b 8.265965
_cell_length_c 12.472264
_cell_angle_alpha 90.000000
_cell_angle_beta 50.663350
_cell_angle_gamma 90.000000
_cell_volume 804.890592
_symmetry_space_group_name_H-M "P M"
_symmetry_group_IT_number 6
_symmetry_cell_setting 'monoclinic'
loop_
_space_group_symop_operation_xyz
x,y,z
x,-y,z
loop_
_atom_site_type_symbol
_atom_site_label
_atom_site_fract_x
_atom_site_fract_y
_atom_site_fract_z
Si Si1 0.698780 0.807931 0.774940
Si Si2 0.897619 0.689532 0.271774
Si Si3 0.034378 0.189019 0.983863
Si Si4 0.412408 0.309734 0.763683
Si Si5 0.494189 0.310076 0.487727
Si Si6 0.991530 0.304827 0.462180
Si Si7 0.373086 0.696481 0.325065
Si Si8 0.701256 0.804131 0.019797
O O1 0.524289 0.765271 0.801535
O O2 0.857349 0.747802 0.621515
O O3 0.712031 0.000000 0.774525
O O4 0.701040 0.745854 0.896426
O O5 0.950501 0.500000 0.236077
O O6 0.984674 0.788918 0.133285
O O7 0.694529 0.696138 0.359791
O O8 0.935548 0.748115 0.372246
O O9 0.873526 0.248064 0.994681
O O10 0.062915 0.000000 0.944791
O O11 0.210491 0.283149 0.876686
O O12 0.455154 0.500000 0.743196
O O13 0.464109 0.239548 0.620777
O O14 0.443848 0.500000 0.521427
O O15 0.399029 0.241420 0.433278
O O16 0.988578 0.500000 0.463163
O O17 0.186075 0.251316 0.382132
O O18 0.376488 0.500000 0.325474
O O19 0.530840 0.749789 0.169873
O O20 0.702099 0.000000 0.019949
#
# Coordination Sequence:
#
# PCOD9130918 Si02
#       8
#     2   2   2   2   2   2   2   2
#     4  11  24  42  61  86 123 164 201 243 296 357
#     4  10  19  38  62  86 118 153 197 251 297 348
#     4  11  24  41  60  89 123 159 201 246 297 359
#     4  11  23  41  64  91 120 156 199 250 302 353
#     4   9  18  36  61  87 115 146 193 251 298 345
#     4  10  22  39  61  90 120 153 199 249 296 352
#     4  10  21  38  62  90 117 152 200 248 296 351
#     4  10  24  43  59  83 124 163 200 244 294 355
#
# _framework density 19.878478000000001
#
# number of rings (size 3 to 8) (size 9 to 14) (size 15 to 20)
#    0.000    1.750    2.500    1.125    3.500    2.500 
#    0.000    1.250    0.000    0.000    0.000    0.000 
#    0.000    0.000    0.000    0.000    0.000    0.000 
#
# Total GULP energy -89334.505209 kJ/mol
# GULP energy per Si atom -5583.406576 kJ/mol
# Density = 1.983323 g / cm^3
# Si number density = 19.878478 Si / 1000 Ang^3
#
#
#
# Elastic Constant Matrix: (Units=GPa)
#
#
# Indices 1 2 3 4 5 6 
#
# 1 114.2238 5.4982 28.5108 0.0000 -0.9899 0.0000
# 2 5.4982 11.4880 -2.5691 0.0000 0.6571 0.0000
# 3 28.5108 -2.5691 74.4387 0.0000 2.8861 0.0000
# 4 0.0000 0.0000 0.0000 -58.1699 0.0000 -6.9248
# 5 -0.9899 0.6571 2.8861 0.0000 32.0138 0.0000
# 6 0.0000 0.0000 0.0000 -6.9248 0.0000 4.8331
#
#
#
# Elastic Compliance Matrix: (Units=1/GPa)
#
#
# Indices 1 2 3 4 5 6 
#
# 1 0.010059 -0.005773 -0.004083 0.000000 0.000798 0.000000
# 2 -0.005773 0.091176 0.005456 0.000000 -0.002542 0.000000
# 3 -0.004083 0.005456 0.015248 0.000000 -0.001613 0.000000
# 4 0.000000 0.000000 0.000000 -0.014686 0.000000 -0.021042
# 5 0.000798 -0.002542 -0.001613 0.000000 0.031459 0.000000
# 6 0.000000 0.000000 0.000000 -0.021042 0.000000 0.176760
#
#
# Mechanical properties :
#
#
# Convention : Reuss Voigt Hill
#
# Bulk Modulus (GPa) = 9.28640 29.22560 19.25600
# Shear Modulus (GPa) = 14.09610 6.98277 10.53943
#
# Velocity S-wave (km/s) = 2.66581 1.87626 2.30509
# Velocity P-wave (km/s) = 3.76259 4.40770 4.09786
#
# Compressibility (1/GPa) = 0.10768438
#
# Stress axis : x y z
#
# Youngs Moduli (GPa) = 99.41762 10.96784 65.58051
#
# Poissons Ratio (x) = 0.06331 0.26775
# Poissons Ratio (y) = 0.57390 -0.35782
# Poissons Ratio (z) = 0.40589 -0.05984
#
# Static dielectric constant tensor:
#      x y z
#    x 1.701180 0.000000 0.023790 
#    y 0.000000 1.752140 0.000000 
#    z 0.023790 0.000000 1.686380 
# 
# From -- ./inp_files/3733.got.cif
#   From: 2010.05.17/outbox.cif.g08.bks.cpg/sg6_2_cif.got.tgz:3733.got - 2010.06.03 19:42:10.
