data_PCOD9130138
_publ_section_title
;
Structure prediction by ZEFSAII (Michael W. Deem and Ramdas Pophale) SiO2 
 PCOD9130138
Probable space group: C 2
;
_chemical_formula_sum "Si O2"
_cell_formula_units_Z 22
_cell_length_a 12.483525
_cell_length_b 5.350257
_cell_length_c 13.821860
_cell_angle_alpha 90.000000
_cell_angle_beta 98.712003
_cell_angle_gamma 90.000000
_cell_volume 912.511665
_symmetry_space_group_name_H-M "C 2"
_symmetry_group_IT_number 5
_symmetry_cell_setting 'monoclinic'
loop_
_space_group_symop_operation_xyz
x,y,z
-x,y,-z
1/2+x,1/2+y,z
1/2-x,1/2+y,-z
loop_
_atom_site_type_symbol
_atom_site_label
_atom_site_fract_x
_atom_site_fract_y
_atom_site_fract_z
Si Si1 0.500000 0.119810 0.000000
Si Si2 0.365893 0.191024 0.150306
Si Si3 0.301640 0.802201 0.277341
Si Si4 0.009618 0.016042 0.308361
Si Si5 0.360302 0.905808 0.809584
Si Si6 0.281918 0.540268 0.556569
O O1 0.406391 0.254450 0.048477
O O2 0.558930 0.970387 0.092707
O O3 0.249376 0.305704 0.156270
O O4 0.343072 0.904956 0.179618
O O5 0.458770 0.298185 0.234667
O O6 0.400295 0.643421 0.332501
O O7 0.190874 0.646360 0.252192
O O8 0.279663 0.024984 0.348607
O O9 0.076913 0.212766 0.250646
O O10 0.094236 0.961197 0.404504
O O11 0.269673 0.817561 0.513699
#
# Coordination Sequence:
#
# PCOD9130138 Si02
#       6
#     2   4   4   4   4   4
#     4  12  26  40  70 110 138 196 254 300 356 442
#     4  11  26  43  73 101 147 195 246 302 369 447
#     4  11  25  50  71 104 147 199 238 303 391 435
#     4  11  25  49  74 100 150 200 237 307 391 440
#     4  11  25  45  71 105 148 197 244 308 366 450
#     4  12  28  49  77 112 148 187 255 317 367 462
#
# _framework density 24.109282
#
# number of rings (size 3 to 8) (size 9 to 14) (size 15 to 20)
#    0.000    0.727    3.636    2.182    7.636    1.455 
#    0.000    0.000    0.000    0.000    0.000    0.000 
#    0.000    0.000    0.000    0.000    0.000    0.000 
#
# Total GULP energy -61482.911185 kJ/mol
# GULP energy per Si atom -5589.355562 kJ/mol
# Density = 2.405441 g / cm^3
# Si number density = 24.109282 Si / 1000 Ang^3
#
#
#
# Elastic Constant Matrix: (Units=GPa)
#
#
# Indices 1 2 3 4 5 6 
#
# 1 138.7196 17.7719 25.6242 0.0000 12.3761 0.0000
# 2 17.7719 65.0622 11.8559 0.0000 3.3304 0.0000
# 3 25.6242 11.8559 69.5950 0.0000 6.2887 0.0000
# 4 0.0000 0.0000 0.0000 31.1867 0.0000 -3.8647
# 5 12.3761 3.3304 6.2887 0.0000 47.7306 0.0000
# 6 0.0000 0.0000 0.0000 -3.8647 0.0000 49.3825
#
#
#
# Elastic Compliance Matrix: (Units=1/GPa)
#
#
# Indices 1 2 3 4 5 6 
#
# 1 0.008033 -0.001650 -0.002529 0.000000 -0.001635 0.000000
# 2 -0.001650 0.016228 -0.002119 0.000000 -0.000425 0.000000
# 3 -0.002529 -0.002119 0.015776 0.000000 -0.001275 0.000000
# 4 0.000000 0.000000 0.000000 0.032379 0.000000 0.002534
# 5 -0.001635 -0.000425 -0.001275 0.000000 0.021572 0.000000
# 6 0.000000 0.000000 0.000000 0.002534 0.000000 0.020448
#
#
# Mechanical properties :
#
#
# Convention : Reuss Voigt Hill
#
# Bulk Modulus (GPa) = 36.43950 42.65341 39.54646
# Shear Modulus (GPa) = 36.71612 40.20161 38.45887
#
# Velocity S-wave (km/s) = 3.90667 4.08790 3.99831
# Velocity P-wave (km/s) = 5.95790 6.32545 6.14443
#
# Compressibility (1/GPa) = 0.02744275
#
# Stress axis : x y z
#
# Youngs Moduli (GPa) = 124.48453 61.62033 63.38686
#
# Poissons Ratio (x) = 0.10166 0.16030
# Poissons Ratio (y) = 0.20537 0.13430
# Poissons Ratio (z) = 0.31482 0.13056
#
# Static dielectric constant tensor:
#      x y z
#    x 1.940550 0.000000 -0.028770 
#    y 0.000000 2.022790 0.000000 
#    z -0.028770 0.000000 1.921020 
# 
# From -- ./inp_files/51952.got.cif
#   From: 2010.05.17/outbox.cif.g08.bks.cpg/sg5_26_cif.got.tgz:51952.got - 2010.06.03 18:56:24.
