data_PCOD9130564
_publ_section_title
;
Structure prediction by ZEFSAII (Michael W. Deem and Ramdas Pophale) SiO2 
 PCOD9130564
Probable space group: C 2
;
_chemical_formula_sum "Si O2"
_cell_formula_units_Z 14
_cell_length_a 4.902255
_cell_length_b 20.919998
_cell_length_c 5.702747
_cell_angle_alpha 90.000000
_cell_angle_beta 106.489850
_cell_angle_gamma 90.000000
_cell_volume 560.791455
_symmetry_space_group_name_H-M "C 2"
_symmetry_group_IT_number 5
_symmetry_cell_setting 'monoclinic'
loop_
_space_group_symop_operation_xyz
x,y,z
-x,y,-z
1/2+x,1/2+y,z
1/2-x,1/2+y,-z
loop_
_atom_site_type_symbol
_atom_site_label
_atom_site_fract_x
_atom_site_fract_y
_atom_site_fract_z
Si Si1 0.500000 0.506980 0.000000
Si Si2 0.311027 0.613087 0.648745
Si Si3 0.000000 0.342714 0.500000
Si Si4 0.810051 0.238043 0.160450
Si Si5 0.500000 0.917881 0.000000
O O1 0.715842 0.558634 0.165964
O O2 0.287439 0.459573 0.078899
O O3 0.500000 0.577975 0.500000
O O4 0.506251 0.674614 0.746946
O O5 0.000000 0.634843 0.500000
O O6 0.231470 0.288630 0.638875
O O7 0.013048 0.383749 0.263763
O O8 0.500000 0.218785 0.000000
O O9 0.000000 0.269632 0.000000
#
# Coordination Sequence:
#
# PCOD9130564 Si02
#       5
#     2   4   2   4   2
#     4  12  30  51  78 113 164 212 276 322 406 476
#     4  12  26  47  81 120 160 200 264 340 411 476
#     4  12  30  56  80 118 166 214 278 322 404 476
#     4  12  27  48  81 122 162 205 266 338 411 473
#     4  12  32  53  82 113 166 226 266 328 386 492
#
# _framework density 24.96472
#
# number of rings (size 3 to 8) (size 9 to 14) (size 15 to 20)
#    0.000    0.000    4.286    3.429   10.000    2.286 
#    0.000    0.000    0.000    0.000    0.000    0.000 
#    0.000    0.000    0.000    0.000    0.000    0.000 
#
# Total GULP energy -39004.447465 kJ/mol
# GULP energy per Si atom -5572.063924 kJ/mol
# Density = 2.490790 g / cm^3
# Si number density = 24.964720 Si / 1000 Ang^3
#
#
#
# Elastic Constant Matrix: (Units=GPa)
#
#
# Indices 1 2 3 4 5 6 
#
# 1 168.8798 60.0765 56.1522 0.0000 37.7370 0.0000
# 2 60.0765 167.8717 94.6313 0.0000 4.0609 0.0000
# 3 56.1522 94.6313 146.9302 0.0000 8.2894 0.0000
# 4 0.0000 0.0000 0.0000 191.8718 0.0000 -144.3416
# 5 37.7370 4.0609 8.2894 0.0000 49.0656 0.0000
# 6 0.0000 0.0000 0.0000 -144.3416 0.0000 162.9090
#
#
#
# Elastic Compliance Matrix: (Units=1/GPa)
#
#
# Indices 1 2 3 4 5 6 
#
# 1 0.008542 -0.001984 -0.001641 0.000000 -0.006128 0.000000
# 2 -0.001984 0.009816 -0.005658 0.000000 0.001669 0.000000
# 3 -0.001641 -0.005658 0.011085 0.000000 -0.000142 0.000000
# 4 0.000000 0.000000 0.000000 0.015630 0.000000 0.013848
# 5 -0.006128 0.001669 -0.000142 0.000000 0.024980 0.000000
# 6 0.000000 0.000000 0.000000 0.013848 0.000000 0.018408
#
#
# Mechanical properties :
#
#
# Convention : Reuss Voigt Hill
#
# Bulk Modulus (GPa) = 91.93242 100.60019 96.26631
# Shear Modulus (GPa) = 45.18619 98.95740 72.07179
#
# Velocity S-wave (km/s) = 4.25903 6.30277 5.37886
# Velocity P-wave (km/s) = 7.81605 9.66183 8.78754
#
# Compressibility (1/GPa) = 0.01087756
#
# Stress axis : x y z
#
# Youngs Moduli (GPa) = 117.06674 101.87474 90.20873
#
# Poissons Ratio (x) = 0.20207 0.14806
# Poissons Ratio (y) = 0.23220 0.51042
# Poissons Ratio (z) = 0.19214 0.57642
#
# Static dielectric constant tensor:
#      x y z
#    x 1.690040 0.000000 -0.141010 
#    y 0.000000 1.959160 0.000000 
#    z -0.141010 0.000000 2.343090 
# 
# From -- ./inp_files/477.got.cif
#   From: 2010.05.17/outbox.cif.g08.bks.cpg/sg5_1_cif.got.tgz:477.got - 2010.06.03 18:56:24.
