data_PCOD9130307
_publ_section_title
;
Structure prediction by ZEFSAII (Michael W. Deem and Ramdas Pophale) SiO2 
 PCOD9130307
Probable space group: C 2
;
_chemical_formula_sum "Si O2"
_cell_formula_units_Z 14
_cell_length_a 6.983660
_cell_length_b 7.502613
_cell_length_c 11.299747
_cell_angle_alpha 90.000000
_cell_angle_beta 111.883727
_cell_angle_gamma 90.000000
_cell_volume 549.395699
_symmetry_space_group_name_H-M "C 2"
_symmetry_group_IT_number 5
_symmetry_cell_setting 'monoclinic'
loop_
_space_group_symop_operation_xyz
x,y,z
-x,y,-z
1/2+x,1/2+y,z
1/2-x,1/2+y,-z
loop_
_atom_site_type_symbol
_atom_site_label
_atom_site_fract_x
_atom_site_fract_y
_atom_site_fract_z
Si Si1 0.837238 0.992910 0.619549
Si Si2 0.500000 0.423333 0.000000
Si Si3 0.795034 0.128151 0.169848
Si Si4 0.926356 0.578358 0.663837
O O1 0.922674 0.794296 0.657434
O O2 0.642886 0.020608 0.660584
O O3 0.009899 0.136561 0.695929
O O4 0.249804 0.013607 0.532435
O O5 0.326230 0.299527 0.901583
O O6 0.612399 0.534163 0.923771
O O7 0.628441 0.025085 0.214622
#
# Coordination Sequence:
#
# PCOD9130307 Si02
#       4
#     4   2   4   4
#     4  11  28  49  82 116 154 196 251 318 390 451
#     4  12  32  48  84 104 158 206 268 292 388 434
#     4  12  29  56  74 116 151 210 250 326 358 466
#     4  11  28  49  82 116 154 196 251 318 390 451
#
# _framework density 25.482543
#
# number of rings (size 3 to 8) (size 9 to 14) (size 15 to 20)
#    0.000    0.571    2.857    0.857   20.000    5.714 
#    0.000    0.000    0.000    0.000    0.000    0.000 
#    0.000    0.000    0.000    0.000    0.000    0.000 
#
# Total GULP energy -39271.925225 kJ/mol
# GULP energy per Si atom -5610.275032 kJ/mol
# Density = 2.542454 g / cm^3
# Si number density = 25.482543 Si / 1000 Ang^3
#
#
#
# Elastic Constant Matrix: (Units=GPa)
#
#
# Indices 1 2 3 4 5 6 
#
# 1 138.3087 52.2933 63.6001 0.0000 -41.3760 0.0000
# 2 52.2933 110.8036 37.1627 0.0000 -9.4350 0.0000
# 3 63.6001 37.1627 125.8759 0.0000 -28.2005 0.0000
# 4 0.0000 0.0000 0.0000 42.9708 0.0000 -2.3269
# 5 -41.3760 -9.4350 -28.2005 0.0000 77.9291 0.0000
# 6 0.0000 0.0000 0.0000 -2.3269 0.0000 46.5076
#
#
#
# Elastic Compliance Matrix: (Units=1/GPa)
#
#
# Indices 1 2 3 4 5 6 
#
# 1 0.011775 -0.003904 -0.003811 0.000000 0.004400 0.000000
# 2 -0.003904 0.011313 -0.001659 0.000000 -0.001304 0.000000
# 3 -0.003811 -0.001659 0.010732 0.000000 0.001659 0.000000
# 4 0.000000 0.000000 0.000000 0.023335 0.000000 0.001167
# 5 0.004400 -0.001304 0.001659 0.000000 0.015611 0.000000
# 6 0.000000 0.000000 0.000000 0.001167 0.000000 0.021560
#
#
# Mechanical properties :
#
#
# Convention : Reuss Voigt Hill
#
# Bulk Modulus (GPa) = 66.35599 75.67782 71.01690
# Shear Modulus (GPa) = 42.33733 48.27697 45.30715
#
# Velocity S-wave (km/s) = 4.08048 4.35732 4.22117
# Velocity P-wave (km/s) = 6.94959 7.42141 7.18937
#
# Compressibility (1/GPa) = 0.01507023
#
# Stress axis : x y z
#
# Youngs Moduli (GPa) = 84.92385 88.39254 93.18352
#
# Poissons Ratio (x) = 0.34512 0.35513
# Poissons Ratio (y) = 0.33158 0.15463
# Poissons Ratio (z) = 0.32365 0.14668
#
# Static dielectric constant tensor:
#      x y z
#    x 1.988760 0.000000 -0.008280 
#    y 0.000000 2.005110 0.000000 
#    z -0.008280 0.000000 2.010170 
# 
# From -- ./inp_files/32735.got.cif
#   From: 2010.05.17/outbox.cif.g08.bks.cpg/sg5_17_cif.got.tgz:32735.got - 2010.06.03 18:56:24.
