data_PCOD9130278
_publ_section_title
;
Structure prediction by ZEFSAII (Michael W. Deem and Ramdas Pophale) SiO2 
 PCOD9130278
Probable space group: C 2
;
_chemical_formula_sum "Si O2"
_cell_formula_units_Z 24
_cell_length_a 8.536003
_cell_length_b 11.136663
_cell_length_c 12.198258
_cell_angle_alpha 90.000000
_cell_angle_beta 64.098741
_cell_angle_gamma 90.000000
_cell_volume 1043.114257
_symmetry_space_group_name_H-M "C 2"
_symmetry_group_IT_number 5
_symmetry_cell_setting 'monoclinic'
loop_
_space_group_symop_operation_xyz
x,y,z
-x,y,-z
1/2+x,1/2+y,z
1/2-x,1/2+y,-z
loop_
_atom_site_type_symbol
_atom_site_label
_atom_site_fract_x
_atom_site_fract_y
_atom_site_fract_z
Si Si1 0.912972 0.893290 0.204465
Si Si2 0.000000 0.478222 0.000000
Si Si3 0.824167 0.693587 0.934763
Si Si4 0.000000 0.069115 0.000000
Si Si5 0.876587 0.245330 0.430689
Si Si6 0.416395 0.832479 0.825620
Si Si7 0.160165 0.982713 0.533593
O O1 0.713710 0.900461 0.219757
O O2 0.908869 0.937619 0.328673
O O3 0.009407 0.763037 0.164579
O O4 0.025505 0.980505 0.093852
O O5 0.129798 0.573042 0.014695
O O6 0.961434 0.400781 0.122226
O O7 0.661028 0.651430 0.912569
O O8 0.729902 0.776691 0.051686
O O9 0.782159 0.374391 0.455717
O O10 0.000000 0.251534 0.500000
O O11 0.982996 0.241658 0.284320
O O12 0.770114 0.120166 0.475752
O O13 0.000000 0.991589 0.500000
#
# Coordination Sequence:
#
# PCOD9130278 Si02
#       7
#     4   2   4   2   4   4   4
#     4  12  23  46  71 104 147 186 240 302 367 435
#     4  12  24  42  70 110 142 190 238 290 370 444
#     4  12  24  43  69 107 148 187 232 300 371 434
#     4  12  24  42  68 106 146 186 230 298 370 442
#     4  11  26  50  74 103 146 196 246 308 367 427
#     4  12  24  43  73 106 142 190 239 299 365 436
#     4  11  28  49  73 106 144 193 252 309 360 436
#
# _framework density 23.008023000000001
#
# number of rings (size 3 to 8) (size 9 to 14) (size 15 to 20)
#    0.000    0.333    6.667    1.500    0.000   10.000 
#    0.000    0.000    0.000    0.000    0.000    0.000 
#    0.000    0.000    0.000    0.000    0.000    0.000 
#
# Total GULP energy -66866.305208 kJ/mol
# GULP energy per Si atom -5572.192101 kJ/mol
# Density = 2.295566 g / cm^3
# Si number density = 23.008023 Si / 1000 Ang^3
#
#
#
# Elastic Constant Matrix: (Units=GPa)
#
#
# Indices 1 2 3 4 5 6 
#
# 1 50.0098 45.3268 1.8833 0.0000 11.6444 0.0000
# 2 45.3268 115.5008 4.7987 0.0000 4.1151 0.0000
# 3 1.8833 4.7987 81.8704 0.0000 25.7127 0.0000
# 4 0.0000 0.0000 0.0000 32.0852 0.0000 -5.1223
# 5 11.6444 4.1151 25.7127 0.0000 32.4296 0.0000
# 6 0.0000 0.0000 0.0000 -5.1223 0.0000 84.0624
#
#
#
# Elastic Compliance Matrix: (Units=1/GPa)
#
#
# Indices 1 2 3 4 5 6 
#
# 1 0.035611 -0.013642 0.004597 0.000000 -0.014701 0.000000
# 2 -0.013642 0.013926 -0.001979 0.000000 0.004700 0.000000
# 3 0.004597 -0.001979 0.016864 0.000000 -0.014770 0.000000
# 4 0.000000 0.000000 0.000000 0.031473 0.000000 0.001918
# 5 -0.014701 0.004700 -0.014770 0.000000 0.047229 0.000000
# 6 0.000000 0.000000 0.000000 0.001918 0.000000 0.012013
#
#
# Mechanical properties :
#
#
# Convention : Reuss Voigt Hill
#
# Bulk Modulus (GPa) = 22.54594 39.04428 30.79511
# Shear Modulus (GPa) = 25.78024 42.74028 34.26026
#
# Velocity S-wave (km/s) = 3.35100 4.31469 3.86302
# Velocity P-wave (km/s) = 4.97923 6.46752 5.77155
#
# Compressibility (1/GPa) = 0.04435388
#
# Stress axis : x y z
#
# Youngs Moduli (GPa) = 28.08153 71.80607 59.29962
#
# Poissons Ratio (x) = 0.97959 -0.27263
# Poissons Ratio (y) = 0.38309 0.11733
# Poissons Ratio (z) = -0.12910 0.14208
#
# Static dielectric constant tensor:
#      x y z
#    x 1.913470 0.000000 0.003090 
#    y 0.000000 2.012000 0.000000 
#    z 0.003090 0.000000 1.793090 
# 
# From -- ./inp_files/35377.got.cif
#   From: 2010.05.17/outbox.cif.g08.bks.cpg/sg5_18_cif.got.tgz:35377.got - 2010.06.03 18:56:24.
