data_PCOD9130200
_publ_section_title
;
Structure prediction by ZEFSAII (Michael W. Deem and Ramdas Pophale) SiO2 
 PCOD9130200
Probable space group: C 2
;
_chemical_formula_sum "Si O2"
_cell_formula_units_Z 18
_cell_length_a 8.444780
_cell_length_b 11.483033
_cell_length_c 8.648953
_cell_angle_alpha 90.000000
_cell_angle_beta 123.360987
_cell_angle_gamma 90.000000
_cell_volume 700.504086
_symmetry_space_group_name_H-M "C 2"
_symmetry_group_IT_number 5
_symmetry_cell_setting 'monoclinic'
loop_
_space_group_symop_operation_xyz
x,y,z
-x,y,-z
1/2+x,1/2+y,z
1/2-x,1/2+y,-z
loop_
_atom_site_type_symbol
_atom_site_label
_atom_site_fract_x
_atom_site_fract_y
_atom_site_fract_z
Si Si1 0.160486 0.167920 0.191760
Si Si2 0.220334 0.893857 0.929486
Si Si3 0.723747 0.347097 0.287550
Si Si4 0.118670 0.105208 0.695605
Si Si5 0.000000 0.523878 0.500000
O O1 0.195347 0.290897 0.129355
O O2 0.363809 0.106824 0.325284
O O3 0.044436 0.165487 0.287944
O O4 0.000000 0.103978 0.000000
O O5 0.994915 0.872772 0.807701
O O6 0.247339 0.018906 0.864477
O O7 0.279530 0.882841 0.140342
O O8 0.763571 0.210400 0.314771
O O9 0.842474 0.428315 0.468282
O O10 0.000000 0.039634 0.500000
#
# Coordination Sequence:
#
# PCOD9130200 Si02
#       5
#     4   4   4   4   2
#     4  12  27  53  79 113 157 207 259 320 388 459
#     4  11  27  50  78 110 161 202 258 318 391 464
#     4  11  25  48  77 117 152 206 255 321 391 456
#     4  12  27  48  74 115 155 198 265 316 384 465
#     4  12  26  44  88 108 164 204 254 324 390 456
#
# _framework density 25.695779999999999
#
# number of rings (size 3 to 8) (size 9 to 14) (size 15 to 20)
#    0.000    0.444    5.556    1.333    4.667    1.778 
#    4.000    0.000    0.000    0.000    0.000    0.000 
#    0.000    0.000    0.000    0.000    0.000    0.000 
#
# Total GULP energy -50314.521693 kJ/mol
# GULP energy per Si atom -5590.502410 kJ/mol
# Density = 2.563730 g / cm^3
# Si number density = 25.695780 Si / 1000 Ang^3
#
#
#
# Elastic Constant Matrix: (Units=GPa)
#
#
# Indices 1 2 3 4 5 6 
#
# 1 92.9797 37.5496 33.5029 0.0000 19.4525 0.0000
# 2 37.5496 158.9084 39.4584 0.0000 18.2436 0.0000
# 3 33.5029 39.4584 127.6285 0.0000 37.7391 0.0000
# 4 0.0000 0.0000 0.0000 45.2640 0.0000 8.2281
# 5 19.4525 18.2436 37.7391 0.0000 43.3756 0.0000
# 6 0.0000 0.0000 0.0000 8.2281 0.0000 32.3781
#
#
#
# Elastic Compliance Matrix: (Units=1/GPa)
#
#
# Indices 1 2 3 4 5 6 
#
# 1 0.012992 -0.002256 -0.001711 0.000000 -0.003389 0.000000
# 2 -0.002256 0.007271 -0.001415 0.000000 -0.000816 0.000000
# 3 -0.001711 -0.001415 0.011200 0.000000 -0.008383 0.000000
# 4 0.000000 0.000000 0.000000 0.023163 0.000000 -0.005886
# 5 -0.003389 -0.000816 -0.008383 0.000000 0.032211 0.000000
# 6 0.000000 0.000000 0.000000 -0.005886 0.000000 0.032381
#
#
# Mechanical properties :
#
#
# Convention : Reuss Voigt Hill
#
# Bulk Modulus (GPa) = 48.30839 66.72646 57.51743
# Shear Modulus (GPa) = 36.52839 42.13725 39.33282
#
# Velocity S-wave (km/s) = 3.77446 4.05390 3.91668
# Velocity P-wave (km/s) = 6.15113 6.92361 6.54877
#
# Compressibility (1/GPa) = 0.02070034
#
# Stress axis : x y z
#
# Youngs Moduli (GPa) = 76.97312 137.53454 89.28260
#
# Poissons Ratio (x) = 0.31028 0.15274
# Poissons Ratio (y) = 0.17365 0.12629
# Poissons Ratio (z) = 0.13168 0.19455
#
# Static dielectric constant tensor:
#      x y z
#    x 1.989470 0.000000 -0.042630 
#    y 0.000000 2.046450 0.000000 
#    z -0.042630 0.000000 2.100550 
# 
# From -- ./inp_files/14206.got.cif
#   From: 2010.05.17/outbox.cif.g08.bks.cpg/sg5_8_cif.got.tgz:14206.got - 2010.06.03 18:56:24.
