data_PCOD9130195
_publ_section_title
;
Structure prediction by ZEFSAII (Michael W. Deem and Ramdas Pophale) SiO2 
 PCOD9130195
Probable space group: C 2
;
_chemical_formula_sum "Si O2"
_cell_formula_units_Z 28
_cell_length_a 9.418085
_cell_length_b 15.106421
_cell_length_c 7.988595
_cell_angle_alpha 90.000000
_cell_angle_beta 82.046491
_cell_angle_gamma 90.000000
_cell_volume 1125.632825
_symmetry_space_group_name_H-M "C 2"
_symmetry_group_IT_number 5
_symmetry_cell_setting 'monoclinic'
loop_
_space_group_symop_operation_xyz
x,y,z
-x,y,-z
1/2+x,1/2+y,z
1/2-x,1/2+y,-z
loop_
_atom_site_type_symbol
_atom_site_label
_atom_site_fract_x
_atom_site_fract_y
_atom_site_fract_z
Si Si1 0.319469 0.700160 0.639231
Si Si2 0.000000 0.926408 0.500000
Si Si3 0.000401 0.674937 0.809747
Si Si4 0.499203 0.552678 0.821201
Si Si5 0.688998 0.891152 0.484565
Si Si6 0.051880 0.470173 0.234902
Si Si7 0.691543 0.698640 0.749141
Si Si8 0.500000 0.832141 0.000000
O O1 0.151083 0.696664 0.702657
O O2 0.392813 0.633370 0.763484
O O3 0.358588 0.804786 0.615626
O O4 0.345222 0.678563 0.439365
O O5 0.150659 0.876102 0.482301
O O6 0.996526 0.986086 0.667525
O O7 0.986289 0.568309 0.811059
O O8 0.859561 0.712258 0.743289
O O9 0.000000 0.707010 0.000000
O O10 0.641443 0.608916 0.842414
O O11 0.500000 0.501861 0.000000
O O12 0.672978 0.971065 0.356974
O O13 0.586566 0.924852 0.650491
O O14 0.097409 0.403135 0.082685
O O15 0.597313 0.772256 0.861658
#
# Coordination Sequence:
#
# PCOD9130195 Si02
#       8
#     4   2   4   4   4   4   4   2
#     4  12  26  48  74 110 147 197 249 306 379 458
#     4  12  26  50  70 114 152 196 250 320 386 444
#     4  12  28  46  72 110 154 193 251 312 377 451
#     4  12  25  46  80 108 146 200 265 307 372 461
#     4  11  27  44  73 104 149 194 248 306 382 442
#     4  11  25  48  73 105 144 201 250 307 371 451
#     4  12  25  44  76 109 144 199 248 312 374 448
#     4  12  24  48  78 110 148 194 268 314 364 458
#
# _framework density 24.874897000000001
#
# number of rings (size 3 to 8) (size 9 to 14) (size 15 to 20)
#    0.000    0.286    4.286    3.857   10.000    0.000 
#    2.571    0.714    0.000    0.000    0.000    0.000 
#    0.000    0.000    0.000    0.000    0.000    0.000 
#
# Total GULP energy -78108.120204 kJ/mol
# GULP energy per Si atom -5579.151443 kJ/mol
# Density = 2.481828 g / cm^3
# Si number density = 24.874897 Si / 1000 Ang^3
#
#
#
# Elastic Constant Matrix: (Units=GPa)
#
#
# Indices 1 2 3 4 5 6 
#
# 1 156.2540 18.7988 26.3557 0.0000 4.2930 0.0000
# 2 18.7988 87.8822 37.1666 0.0000 -2.0862 0.0000
# 3 26.3557 37.1666 147.7937 0.0000 24.8108 0.0000
# 4 0.0000 0.0000 0.0000 29.8020 0.0000 -7.1574
# 5 4.2930 -2.0862 24.8108 0.0000 24.3212 0.0000
# 6 0.0000 0.0000 0.0000 -7.1574 0.0000 -7.1760
#
#
#
# Elastic Compliance Matrix: (Units=1/GPa)
#
#
# Indices 1 2 3 4 5 6 
#
# 1 0.006685 -0.001079 -0.000853 0.000000 -0.000402 0.000000
# 2 -0.001079 0.013490 -0.004134 0.000000 0.005565 0.000000
# 3 -0.000853 -0.004134 0.009644 0.000000 -0.010042 0.000000
# 4 0.000000 0.000000 0.000000 0.027070 0.000000 -0.027000
# 5 -0.000402 0.005565 -0.010042 0.000000 0.051909 0.000000
# 6 0.000000 0.000000 0.000000 -0.027000 0.000000 -0.112423
#
#
# Mechanical properties :
#
#
# Convention : Reuss Voigt Hill
#
# Bulk Modulus (GPa) = 56.54159 61.84134 59.19146
# Shear Modulus (GPa) = 347.16067 30.03002 188.59535
#
# Velocity S-wave (km/s) = 11.82648 3.47831 8.71677
# Velocity P-wave (km/s) = 14.46607 6.40675 11.18735
#
# Compressibility (1/GPa) = 0.01768610
#
# Stress axis : x y z
#
# Youngs Moduli (GPa) = 149.59825 74.12801 103.69282
#
# Poissons Ratio (x) = 0.07995 0.08849
# Poissons Ratio (y) = 0.16135 0.42871
# Poissons Ratio (z) = 0.12766 0.30647
#
# Static dielectric constant tensor:
#      x y z
#    x 2.015600 0.000000 -0.021960 
#    y 0.000000 1.975740 0.000000 
#    z -0.021960 0.000000 2.185290 
# 
# From -- ./inp_files/16157.got.cif
#   From: 2010.05.17/outbox.cif.g08.bks.cpg/sg5_9_cif.got.tgz:16157.got - 2010.06.03 18:56:24.
