data_PCOD9130968
_publ_section_title
;
Structure prediction by ZEFSAII (Michael W. Deem and Ramdas Pophale) SiO2 
 PCOD9130968
Probable space group: P M
;
_chemical_formula_sum "Si O2"
_cell_formula_units_Z 16
_cell_length_a 11.608423
_cell_length_b 8.476759
_cell_length_c 9.451765
_cell_angle_alpha 90.000000
_cell_angle_beta 114.142302
_cell_angle_gamma 90.000000
_cell_volume 848.719724
_symmetry_space_group_name_H-M "P M"
_symmetry_group_IT_number 6
_symmetry_cell_setting 'monoclinic'
loop_
_space_group_symop_operation_xyz
x,y,z
x,-y,z
loop_
_atom_site_type_symbol
_atom_site_label
_atom_site_fract_x
_atom_site_fract_y
_atom_site_fract_z
Si Si1 0.670360 0.809869 0.380150
Si Si2 0.156021 0.188731 0.617349
Si Si3 0.395100 0.690196 0.240845
Si Si4 0.391366 0.311292 0.911616
Si Si5 0.913621 0.809081 0.002506
Si Si6 0.667208 0.190641 0.050891
Si Si7 0.913927 0.807237 0.677313
Si Si8 0.153299 0.688982 0.297028
O O1 0.532693 0.749904 0.355372
O O2 0.690624 0.762042 0.226345
O O3 0.785375 0.755390 0.535729
O O4 0.668781 0.000000 0.382558
O O5 0.283663 0.239571 0.759717
O O6 0.149978 0.254887 0.456462
O O7 0.035889 0.243746 0.649444
O O8 0.150631 0.000000 0.607052
O O9 0.397318 0.500000 0.242867
O O10 0.281049 0.744846 0.282574
O O11 0.374031 0.740780 0.066934
O O12 0.382748 0.500000 0.902459
O O13 0.531904 0.258679 0.939255
O O14 0.783257 0.758651 0.011478
O O15 0.032405 0.750100 0.151124
O O16 0.915383 0.000000 0.004804
O O17 0.920465 0.755869 0.843265
O O18 0.659835 0.000000 0.043236
O O19 0.913407 0.000000 0.677020
O O20 0.153108 0.500000 0.293636
#
# Coordination Sequence:
#
# PCOD9130968 Si02
#       8
#     2   2   2   2   2   2   2   2
#     4   9  17  32  54  79 108 142 180 220 262 313
#     4  11  22  37  57  80 108 142 182 225 270 320
#     4   9  20  37  55  78 110 145 178 217 266 320
#     4  10  20  36  57  81 111 144 179 220 268 321
#     4  10  20  36  58  82 109 141 180 224 269 319
#     4   9  18  33  54  80 111 146 182 220 263 315
#     4   9  19  35  56  82 109 138 176 224 271 316
#     4  11  23  38  55  78 110 144 181 224 271 322
#
# _framework density 18.851924
#
# number of rings (size 3 to 8) (size 9 to 14) (size 15 to 20)
#    0.000    2.250    0.000    2.625    0.000    5.000 
#    0.000    6.250    0.000    0.000    0.000    0.000 
#    0.000    0.000    0.000    0.000    0.000    0.000 
#
# Total GULP energy -89351.659853 kJ/mol
# GULP energy per Si atom -5584.478741 kJ/mol
# Density = 1.880902 g / cm^3
# Si number density = 18.851924 Si / 1000 Ang^3
#
#
#
# Elastic Constant Matrix: (Units=GPa)
#
#
# Indices 1 2 3 4 5 6 
#
# 1 209.6379 29.0339 119.4889 0.0000 -2.6256 0.0000
# 2 29.0339 13.6541 21.6331 0.0000 -0.8259 0.0000
# 3 119.4889 21.6331 170.3303 0.0000 16.9034 0.0000
# 4 0.0000 0.0000 0.0000 -36.7635 0.0000 -49.8546
# 5 -2.6256 -0.8259 16.9034 0.0000 29.0003 0.0000
# 6 0.0000 0.0000 0.0000 -49.8546 0.0000 -20.3549
#
#
#
# Elastic Compliance Matrix: (Units=1/GPa)
#
#
# Indices 1 2 3 4 5 6 
#
# 1 0.009626 -0.011172 -0.005720 0.000000 0.003887 0.000000
# 2 -0.011172 0.107456 -0.006383 0.000000 0.005769 0.000000
# 3 -0.005720 -0.006383 0.011424 0.000000 -0.007359 0.000000
# 4 0.000000 0.000000 0.000000 0.011717 0.000000 -0.028699
# 5 0.003887 0.005769 -0.007359 0.000000 0.039288 0.000000
# 6 0.000000 0.000000 0.000000 -0.028699 0.000000 0.021163
#
#
# Mechanical properties :
#
#
# Convention : Reuss Voigt Hill
#
# Bulk Modulus (GPa) = 12.20146 81.54824 46.87485
# Shear Modulus (GPa) = 18.21209 9.27413 13.74311
#
# Velocity S-wave (km/s) = 3.11152 2.22039 2.70293
# Velocity P-wave (km/s) = 4.40398 7.06574 5.88726
#
# Compressibility (1/GPa) = 0.08195738
#
# Stress axis : x y z
#
# Youngs Moduli (GPa) = 103.88320 9.30614 87.53198
#
# Poissons Ratio (x) = 0.10397 0.50066
# Poissons Ratio (y) = 1.16055 0.55872
# Poissons Ratio (z) = 0.59419 0.05940
#
# Static dielectric constant tensor:
#      x y z
#    x 1.639550 0.000000 -0.014060 
#    y 0.000000 1.647690 0.000000 
#    z -0.014060 0.000000 1.622330 
# 
# From -- ./inp_files/3076.got.cif
#   From: 2010.05.17/outbox.cif.g08.bks.cpg/sg6_2_cif.got.tgz:3076.got - 2010.06.03 19:42:10.
