data_PCOD9130198
_publ_section_title
;
Structure prediction by ZEFSAII (Michael W. Deem and Ramdas Pophale) SiO2 
 PCOD9130198
Probable space group: C 2
;
_chemical_formula_sum "Si O2"
_cell_formula_units_Z 24
_cell_length_a 14.685103
_cell_length_b 7.305590
_cell_length_c 8.978978
_cell_angle_alpha 90.000000
_cell_angle_beta 104.151775
_cell_angle_gamma 90.000000
_cell_volume 934.060192
_symmetry_space_group_name_H-M "C 2"
_symmetry_group_IT_number 5
_symmetry_cell_setting 'monoclinic'
loop_
_space_group_symop_operation_xyz
x,y,z
-x,y,-z
1/2+x,1/2+y,z
1/2-x,1/2+y,-z
loop_
_atom_site_type_symbol
_atom_site_label
_atom_site_fract_x
_atom_site_fract_y
_atom_site_fract_z
Si Si1 0.318168 0.856790 0.378819
Si Si2 0.130360 0.070621 0.967020
Si Si3 0.834799 0.491378 0.088234
Si Si4 0.050299 0.946558 0.257404
Si Si5 0.852259 0.572954 0.689968
Si Si6 0.000000 0.177170 0.500000
Si Si7 0.000000 0.521571 0.000000
O O1 0.306821 0.011836 0.248516
O O2 0.242965 0.695580 0.316324
O O3 0.424323 0.797945 0.387104
O O4 0.320474 0.939608 0.544726
O O5 0.125525 0.289585 0.938149
O O6 0.057181 0.980896 0.826631
O O7 0.235678 0.013692 0.970073
O O8 0.101854 0.011709 0.124759
O O9 0.918007 0.618718 0.063020
O O10 0.080228 0.744995 0.317621
O O11 0.063838 0.066982 0.409591
O O12 0.922869 0.466194 0.834964
#
# Coordination Sequence:
#
# PCOD9130198 Si02
#       7
#     4   4   4   4   4   2   2
#     4  12  27  50  76 116 157 210 260 323 407 474
#     4  11  25  48  77 111 150 204 265 326 394 466
#     4  12  26  47  76 112 152 207 260 329 395 468
#     4  11  25  48  75 109 155 200 260 329 391 462
#     4  12  28  51  80 116 161 210 267 332 393 478
#     4  12  26  48  76 110 150 206 262 322 400 470
#     4  12  28  46  82 118 158 204 276 332 392 466
#
# _framework density 25.694277
#
# number of rings (size 3 to 8) (size 9 to 14) (size 15 to 20)
#    0.000    0.333    3.333    5.000    4.667    2.000 
#    0.000    0.000    0.000    0.000    0.000    0.000 
#    0.000    0.000    0.000    0.000    0.000    0.000 
#
# Total GULP energy -66836.540788 kJ/mol
# GULP energy per Si atom -5569.711732 kJ/mol
# Density = 2.563580 g / cm^3
# Si number density = 25.694277 Si / 1000 Ang^3
#
#
#
# Elastic Constant Matrix: (Units=GPa)
#
#
# Indices 1 2 3 4 5 6 
#
# 1 163.5450 -6.1643 39.3793 0.0000 42.9844 0.0000
# 2 -6.1643 69.6454 15.6876 0.0000 4.9800 0.0000
# 3 39.3793 15.6876 147.9556 0.0000 11.6915 0.0000
# 4 0.0000 0.0000 0.0000 21.0076 0.0000 19.9446
# 5 42.9844 4.9800 11.6915 0.0000 36.3517 0.0000
# 6 0.0000 0.0000 0.0000 19.9446 0.0000 -60.3437
#
#
#
# Elastic Compliance Matrix: (Units=1/GPa)
#
#
# Indices 1 2 3 4 5 6 
#
# 1 0.009519 0.002049 -0.001887 0.000000 -0.010929 0.000000
# 2 0.002049 0.015237 -0.001852 0.000000 -0.003915 0.000000
# 3 -0.001887 -0.001852 0.007450 0.000000 0.000089 0.000000
# 4 0.000000 0.000000 0.000000 0.036232 0.000000 0.011975
# 5 -0.010929 -0.003915 0.000089 0.000000 0.040940 0.000000
# 6 0.000000 0.000000 0.000000 0.011975 0.000000 -0.012614
#
#
# Mechanical properties :
#
#
# Convention : Reuss Voigt Hill
#
# Bulk Modulus (GPa) = 34.69015 53.21680 43.95348
# Shear Modulus (GPa) = 45.55700 21.55270 33.55485
#
# Velocity S-wave (km/s) = 4.21532 2.89937 3.61768
# Velocity P-wave (km/s) = 6.10101 5.65376 5.88163
#
# Compressibility (1/GPa) = 0.02882662
#
# Stress axis : x y z
#
# Youngs Moduli (GPa) = 105.05683 65.63054 134.22208
#
# Poissons Ratio (x) = -0.13448 0.25329
# Poissons Ratio (y) = -0.21527 0.24852
# Poissons Ratio (z) = 0.19825 0.12152
#
# Static dielectric constant tensor:
#      x y z
#    x 2.271440 0.000000 -0.147450 
#    y 0.000000 2.080680 0.000000 
#    z -0.147450 0.000000 2.127150 
# 
# From -- ./inp_files/22917.got.cif
#   From: 2010.05.17/outbox.cif.g08.bks.cpg/sg5_12_cif.got.tgz:22917.got - 2010.06.03 18:56:24.
