data_PCOD9130083
_publ_section_title
;
Structure prediction by ZEFSAII (Michael W. Deem and Ramdas Pophale) SiO2 
 PCOD9130083
Probable space group: C 2
;
_chemical_formula_sum "Si O2"
_cell_formula_units_Z 30
_cell_length_a 14.784508
_cell_length_b 5.101215
_cell_length_c 18.490616
_cell_angle_alpha 90.000000
_cell_angle_beta 117.845142
_cell_angle_gamma 90.000000
_cell_volume 1233.073319
_symmetry_space_group_name_H-M "C 2"
_symmetry_group_IT_number 5
_symmetry_cell_setting 'monoclinic'
loop_
_space_group_symop_operation_xyz
x,y,z
-x,y,-z
1/2+x,1/2+y,z
1/2-x,1/2+y,-z
loop_
_atom_site_type_symbol
_atom_site_label
_atom_site_fract_x
_atom_site_fract_y
_atom_site_fract_z
Si Si1 0.495343 0.275520 0.155341
Si Si2 0.289209 0.986544 0.473170
Si Si3 0.248253 0.697285 0.688616
Si Si4 0.000000 0.426076 0.500000
Si Si5 0.716181 0.308906 0.181900
Si Si6 0.702216 0.197132 0.010203
Si Si7 0.467272 0.798469 0.743129
Si Si8 0.089459 0.084229 0.659668
O O1 0.605030 0.205859 0.162718
O O2 0.503462 0.570832 0.188447
O O3 0.475606 0.066277 0.212793
O O4 0.410390 0.247802 0.062486
O O5 0.268757 0.711175 0.503655
O O6 0.409741 0.061814 0.512408
O O7 0.249414 0.985563 0.375417
O O8 0.275345 0.593539 0.778120
O O9 0.346463 0.864911 0.700263
O O10 0.132858 0.805292 0.649437
O O11 0.061496 0.239732 0.577709
O O12 0.722571 0.288330 0.099113
O O13 0.810167 0.169424 0.257054
O O14 0.772096 0.391216 0.988250
O O15 0.499078 0.658626 0.680626
#
# Coordination Sequence:
#
# PCOD9130083 Si02
#       8
#     4   4   4   2   4   4   4   4
#     4  11  24  48  71 111 146 195 252 304 379 462
#     4  12  28  50  77 111 158 203 260 332 391 464
#     4  11  26  48  73 110 149 201 258 311 392 461
#     4  12  28  48  76 114 152 204 268 322 396 470
#     4  11  25  46  76 100 157 198 246 318 380 449
#     4  12  27  45  72 115 149 193 254 310 379 464
#     4  11  26  44  77 105 149 199 250 310 382 454
#     4  12  25  48  72 108 148 202 251 320 380 453
#
# _framework density 24.329453999999998
#
# number of rings (size 3 to 8) (size 9 to 14) (size 15 to 20)
#    0.000    0.533    2.667    4.400    5.600    5.333 
#    0.000    2.667    0.000    0.000    0.000    0.000 
#    0.000    0.000    0.000    0.000    0.000    0.000 
#
# Total GULP energy -83833.333077 kJ/mol
# GULP energy per Si atom -5588.888872 kJ/mol
# Density = 2.427408 g / cm^3
# Si number density = 24.329454 Si / 1000 Ang^3
#
#
#
# Elastic Constant Matrix: (Units=GPa)
#
#
# Indices 1 2 3 4 5 6 
#
# 1 101.4001 -1.9974 17.3204 0.0000 4.3291 -0.0001
# 2 -1.9974 67.2346 8.1545 0.0001 -3.2619 -0.0001
# 3 17.3204 8.1545 126.3373 0.0000 -5.8395 0.0000
# 4 0.0000 0.0001 0.0000 29.9680 0.0000 -3.2527
# 5 4.3291 -3.2619 -5.8395 0.0000 42.7054 0.0000
# 6 -0.0001 -0.0001 0.0000 -3.2527 0.0000 30.2691
#
#
#
# Elastic Compliance Matrix: (Units=1/GPa)
#
#
# Indices 1 2 3 4 5 6 
#
# 1 0.010174 0.000423 -0.001478 0.000000 -0.001201 0.000000
# 2 0.000423 0.015052 -0.000985 0.000000 0.000972 0.000000
# 3 -0.001478 -0.000985 0.008237 0.000000 0.001201 0.000000
# 4 0.000000 0.000000 0.000000 0.033763 0.000000 0.003628
# 5 -0.001201 0.000972 0.001201 0.000000 0.023776 0.000000
# 6 0.000000 0.000000 0.000000 0.003628 0.000000 0.033427
#
#
# Mechanical properties :
#
#
# Convention : Reuss Voigt Hill
#
# Bulk Modulus (GPa) = 34.03077 37.99187 36.01132
# Shear Modulus (GPa) = 36.15258 38.68813 37.42035
#
# Velocity S-wave (km/s) = 3.85900 3.99203 3.92608
# Velocity P-wave (km/s) = 5.82011 6.07436 5.94859
#
# Compressibility (1/GPa) = 0.02938517
#
# Stress axis : x y z
#
# Youngs Moduli (GPa) = 98.29036 66.43432 121.40397
#
# Poissons Ratio (x) = -0.02811 0.17939
# Poissons Ratio (y) = -0.04160 0.11954
# Poissons Ratio (z) = 0.14524 0.06541
#
# Static dielectric constant tensor:
#      x y z
#    x 1.991760 0.000000 0.011140 
#    y 0.000000 2.047070 0.000000 
#    z 0.011140 0.000000 1.881460 
# 
# From -- ./inp_files/61264.got.cif
#   From: 2010.05.17/outbox.cif.g08.bks.cpg/sg5_31_cif.got.tgz:61264.got - 2010.06.03 18:56:24.
