data_PCOD9130203
_publ_section_title
;
Structure prediction by ZEFSAII (Michael W. Deem and Ramdas Pophale) SiO2 
 PCOD9130203
Probable space group: C 2
;
_chemical_formula_sum "Si O2"
_cell_formula_units_Z 20
_cell_length_a 17.860769
_cell_length_b 5.166987
_cell_length_c 7.915485
_cell_angle_alpha 90.000000
_cell_angle_beta 95.914112
_cell_angle_gamma 90.000000
_cell_volume 726.603245
_symmetry_space_group_name_H-M "C 2"
_symmetry_group_IT_number 5
_symmetry_cell_setting 'monoclinic'
loop_
_space_group_symop_operation_xyz
x,y,z
-x,y,-z
1/2+x,1/2+y,z
1/2-x,1/2+y,-z
loop_
_atom_site_type_symbol
_atom_site_label
_atom_site_fract_x
_atom_site_fract_y
_atom_site_fract_z
Si Si1 0.890327 0.462730 0.439395
Si Si2 0.928775 0.967224 0.229468
Si Si3 0.662234 0.827062 0.019756
Si Si4 0.083669 0.712337 0.219514
Si Si5 0.237999 0.001725 0.274022
O O1 0.901056 0.707940 0.316622
O O2 0.929580 0.520948 0.625012
O O3 0.799372 0.452328 0.430681
O O4 0.919264 0.201035 0.360576
O O5 0.013845 0.905191 0.198098
O O6 0.880268 0.072814 0.059933
O O7 0.711093 0.780256 0.199590
O O8 0.600634 0.039721 0.058359
O O9 0.719192 0.899147 0.884457
O O10 0.159822 0.860509 0.287082
#
# Coordination Sequence:
#
# PCOD9130203 Si02
#       5
#     4   4   4   4   4
#     4  11  29  53  84 117 169 220 277 342 418 497
#     4  11  29  56  79 117 171 220 275 344 413 494
#     4  11  25  51  81 122 166 217 275 347 411 497
#     4  12  29  50  85 123 165 221 282 339 418 500
#     4  11  25  48  81 116 166 209 274 344 417 487
#
# _framework density 27.525337
#
# number of rings (size 3 to 8) (size 9 to 14) (size 15 to 20)
#    0.000    0.800    2.000    1.800   14.000    2.400 
#    3.600    0.000    0.000    0.000    0.000    0.000 
#    0.000    0.000    0.000    0.000    0.000    0.000 
#
# Total GULP energy -56137.739328 kJ/mol
# GULP energy per Si atom -5613.773933 kJ/mol
# Density = 2.746269 g / cm^3
# Si number density = 27.525337 Si / 1000 Ang^3
#
#
#
# Elastic Constant Matrix: (Units=GPa)
#
#
# Indices 1 2 3 4 5 6 
#
# 1 197.0931 61.7658 27.6436 0.0000 9.2346 0.0000
# 2 61.7658 130.0899 14.6784 0.0000 -6.4341 0.0000
# 3 27.6436 14.6784 119.7035 0.0000 2.1569 0.0000
# 4 0.0000 0.0000 0.0000 51.6101 0.0000 -5.8557
# 5 9.2346 -6.4341 2.1569 0.0000 38.8749 0.0000
# 6 0.0000 0.0000 0.0000 -5.8557 0.0000 61.6893
#
#
#
# Elastic Compliance Matrix: (Units=1/GPa)
#
#
# Indices 1 2 3 4 5 6 
#
# 1 0.006229 -0.002934 -0.001044 0.000000 -0.001907 0.000000
# 2 -0.002934 0.009248 -0.000497 0.000000 0.002255 0.000000
# 3 -0.001044 -0.000497 0.008662 0.000000 -0.000315 0.000000
# 4 0.000000 0.000000 0.000000 0.019587 0.000000 0.001859
# 5 -0.001907 0.002255 -0.000315 0.000000 0.026567 0.000000
# 6 0.000000 0.000000 0.000000 0.001859 0.000000 0.016387
#
#
# Mechanical properties :
#
#
# Convention : Reuss Voigt Hill
#
# Bulk Modulus (GPa) = 65.84292 72.78467 69.31380
# Shear Modulus (GPa) = 49.65590 53.28811 51.47200
#
# Velocity S-wave (km/s) = 4.25197 4.40473 4.32903
# Velocity P-wave (km/s) = 6.93386 7.23665 7.08687
#
# Compressibility (1/GPa) = 0.01518766
#
# Stress axis : x y z
#
# Youngs Moduli (GPa) = 160.53774 108.13547 115.44980
#
# Poissons Ratio (x) = 0.31727 0.12057
# Poissons Ratio (y) = 0.47102 0.05738
# Poissons Ratio (z) = 0.16766 0.05375
#
# Static dielectric constant tensor:
#      x y z
#    x 2.124070 0.000000 0.012800 
#    y 0.000000 2.160490 0.000000 
#    z 0.012800 0.000000 2.184880 
# 
# From -- ./inp_files/26015.got.cif
#   From: 2010.05.17/outbox.cif.g08.bks.cpg/sg5_14_cif.got.tgz:26015.got - 2010.06.03 18:56:24.
