data_PCOD9130084
_publ_section_title
;
Structure prediction by ZEFSAII (Michael W. Deem and Ramdas Pophale) SiO2 
 PCOD9130084
Probable space group: C 2
;
_chemical_formula_sum "Si O2"
_cell_formula_units_Z 30
_cell_length_a 15.583611
_cell_length_b 8.707490
_cell_length_c 10.365635
_cell_angle_alpha 90.000000
_cell_angle_beta 120.819471
_cell_angle_gamma 90.000000
_cell_volume 1207.930284
_symmetry_space_group_name_H-M "C 2"
_symmetry_group_IT_number 5
_symmetry_cell_setting 'monoclinic'
loop_
_space_group_symop_operation_xyz
x,y,z
-x,y,-z
1/2+x,1/2+y,z
1/2-x,1/2+y,-z
loop_
_atom_site_type_symbol
_atom_site_label
_atom_site_fract_x
_atom_site_fract_y
_atom_site_fract_z
Si Si1 0.880603 0.113390 0.430922
Si Si2 0.183001 0.557862 0.351476
Si Si3 0.500000 0.557410 0.000000
Si Si4 0.674451 0.735449 0.987379
Si Si5 0.136899 0.772731 0.687368
Si Si6 0.884235 0.446482 0.445750
Si Si7 0.491909 0.281502 0.802239
Si Si8 0.834925 0.557396 0.964275
O O1 0.796240 0.099430 0.478927
O O2 0.846684 0.285640 0.356889
O O3 0.000000 0.129091 0.500000
O O4 0.865649 0.936355 0.380238
O O5 0.135001 0.440920 0.415606
O O6 0.115451 0.708506 0.296735
O O7 0.169485 0.512534 0.189842
O O8 0.408542 0.657042 0.986271
O O9 0.479771 0.443425 0.863869
O O10 0.773686 0.772624 0.142722
O O11 0.638705 0.908637 0.927302
O O12 0.724786 0.622332 0.920397
O O13 0.154171 0.613242 0.626851
O O14 0.036165 0.775282 0.693151
O O15 0.000000 0.454951 0.500000
O O16 0.576008 0.181160 0.945439
#
# Coordination Sequence:
#
# PCOD9130084 Si02
#       8
#     4   4   2   4   4   4   4   4
#     4  11  28  47  72 105 144 194 257 311 364 445
#     4  12  25  46  76 103 148 192 246 306 379 439
#     4  12  26  44  70 122 144 192 256 296 380 462
#     4  11  26  45  73 108 151 190 246 307 370 464
#     4  11  24  51  74 103 145 201 241 310 382 435
#     4  11  26  49  71 106 143 194 251 309 370 439
#     4  11  25  45  78 105 149 196 244 305 382 457
#     4  11  24  48  72 106 149 195 239 301 380 455
#
# _framework density 24.83587
#
# number of rings (size 3 to 8) (size 9 to 14) (size 15 to 20)
#    0.000    0.800    4.000    2.000    5.600    1.067 
#    4.800    0.000    0.000    0.000    0.000    0.000 
#    0.000    0.000    0.000    0.000    0.000    0.000 
#
# Total GULP energy -83530.828035 kJ/mol
# GULP energy per Si atom -5568.721869 kJ/mol
# Density = 2.477934 g / cm^3
# Si number density = 24.835870 Si / 1000 Ang^3
#
#
#
# Elastic Constant Matrix: (Units=GPa)
#
#
# Indices 1 2 3 4 5 6 
#
# 1 187.3118 34.2648 19.1787 0.0000 -7.9471 0.0000
# 2 34.2648 182.6566 40.2453 0.0000 -18.7561 0.0000
# 3 19.1787 40.2453 39.6954 0.0000 -12.7916 0.0000
# 4 0.0000 0.0000 0.0000 19.7359 0.0000 10.6093
# 5 -7.9471 -18.7561 -12.7916 0.0000 39.5187 0.0000
# 6 0.0000 0.0000 0.0000 10.6093 0.0000 10.4859
#
#
#
# Elastic Compliance Matrix: (Units=1/GPa)
#
#
# Indices 1 2 3 4 5 6 
#
# 1 0.005667 -0.000584 -0.002085 0.000000 0.000187 0.000000
# 2 -0.000584 0.007157 -0.006606 0.000000 0.001141 0.000000
# 3 -0.002085 -0.006606 0.035449 0.000000 0.007920 0.000000
# 4 0.000000 0.000000 0.000000 0.111091 0.000000 -0.112398
# 5 0.000187 0.001141 0.007920 0.000000 0.028447 0.000000
# 6 0.000000 0.000000 0.000000 -0.112398 0.000000 0.209088
#
#
# Mechanical properties :
#
#
# Convention : Reuss Voigt Hill
#
# Bulk Modulus (GPa) = 33.64556 66.33794 49.99175
# Shear Modulus (GPa) = 11.75481 35.01309 23.38395
#
# Velocity S-wave (km/s) = 2.17791 3.75878 3.07178
# Velocity P-wave (km/s) = 4.46105 6.75325 5.72308
#
# Compressibility (1/GPa) = 0.02972161
#
# Stress axis : x y z
#
# Youngs Moduli (GPa) = 176.45885 139.72107 28.20956
#
# Poissons Ratio (x) = 0.08166 0.05882
# Poissons Ratio (y) = 0.10313 0.18636
# Poissons Ratio (z) = 0.36794 0.92303
#
# Static dielectric constant tensor:
#      x y z
#    x 2.206460 0.000000 -0.183420 
#    y 0.000000 2.157960 0.000000 
#    z -0.183420 0.000000 2.218040 
# 
# From -- ./inp_files/41999.got.cif
#   From: 2010.05.17/outbox.cif.g08.bks.cpg/sg5_21_cif.got.tgz:41999.got - 2010.06.03 18:56:24.
