data_PCOD9130744
_publ_section_title
;
Structure prediction by ZEFSAII (Michael W. Deem and Ramdas Pophale) SiO2 
 PCOD9130744
Probable space group: C 2
;
_chemical_formula_sum "Si O2"
_cell_formula_units_Z 16
_cell_length_a 12.000000
_cell_length_b 15.000000
_cell_length_c 18.000000
_cell_angle_alpha 90.000000
_cell_angle_beta 30.000000
_cell_angle_gamma 90.000000
_cell_volume 1620.000000
_symmetry_space_group_name_H-M "C 2"
_symmetry_group_IT_number 5
_symmetry_cell_setting 'monoclinic'
loop_
_space_group_symop_operation_xyz
x,y,z
-x,y,-z
1/2+x,1/2+y,z
1/2-x,1/2+y,-z
loop_
_atom_site_type_symbol
_atom_site_label
_atom_site_fract_x
_atom_site_fract_y
_atom_site_fract_z
Si Si1 0.871359 0.920530 0.884635
Si Si2 0.891356 0.434088 0.360862
Si Si3 0.795284 0.325088 0.565267
Si Si4 0.855990 0.011413 0.149235
Si Si5 0.014858 0.291506 0.162925
Si Si6 0.772324 0.119021 0.865820
Si Si7 0.620061 0.171445 0.352830
Si Si8 0.184028 0.127910 0.507118
O O1 0.062515 0.863874 0.731434
O O2 0.804684 0.018296 0.885203
O O3 0.672526 0.851287 0.018547
O O4 0.984582 0.945375 0.898231
O O5 0.141919 0.465879 0.235891
O O6 0.914098 0.364356 0.279559
O O7 0.815369 0.373806 0.474231
O O8 0.743656 0.527108 0.440801
O O9 0.826448 0.217181 0.538620
O O10 0.000000 0.355740 0.500000
O O11 0.763722 0.081627 0.261862
O O12 0.000000 0.055295 0.000000
O O13 0.146372 0.206270 0.129145
O O14 0.804671 0.248841 0.240187
O O15 0.959116 0.122374 0.689692
O O16 0.500000 0.127250 0.000000
O O17 0.500000 0.182804 0.500000
O O18 0.410668 0.155350 0.420006
#
# Coordination Sequence:
#
# PCOD9130744 Si02
#       8
#     4   4   4   4   4   4   4   4
#     4  12  26  44  67 104 144 180 229 286 356 410
#     4  11  23  43  71 102 139 182 232 285 343 409
#     4  12  25  42  73 106 133 188 243 283 337 418
#     4  11  22  39  69 102 136 175 229 290 337 402
#     4  12  26  44  74 105 138 184 232 284 353 419
#     4  12  27  47  70 100 147 184 224 292 362 410
#     4  11  22  45  74  97 135 180 234 282 338 415
#     4  11  25  47  71 104 138 183 235 290 342 409
#
# _framework density 9.8765429999999999
#
# number of rings (size 3 to 8) (size 9 to 14) (size 15 to 20)
#    0.000    0.500    7.500    0.000    5.250    4.000 
#    2.250    0.000    0.000    0.000    0.000    0.000 
#    0.000    0.000    0.000    0.000    0.000    0.000 
#
# Total GULP energy -89159.889502 kJ/mol
# GULP energy per Si atom -5572.493094 kJ/mol
# Density = 0.985406 g / cm^3
# Si number density = 9.876543 Si / 1000 Ang^3
#
#
#
# Elastic Constant Matrix: (Units=GPa)
#
#
# Indices 1 2 3 4 5 6 
#
# 1 39.9358 19.3049 27.0533 -0.0291 -16.0864 0.0158
# 2 19.3049 149.3336 51.5060 -0.0102 -0.0886 0.0125
# 3 27.0533 51.5060 157.2287 -0.0444 -8.2394 0.0318
# 4 -0.0291 -0.0102 -0.0444 40.3641 0.0363 9.7947
# 5 -16.0864 -0.0886 -8.2394 0.0363 31.1735 -0.0184
# 6 0.0158 0.0125 0.0318 9.7947 -0.0184 29.3183
#
#
#
# Elastic Compliance Matrix: (Units=1/GPa)
#
#
# Indices 1 2 3 4 5 6 
#
# 1 0.036699 -0.003244 -0.004320 0.000006 0.017787 -0.000005
# 2 -0.003244 0.007849 -0.002129 -0.000001 -0.002214 0.000000
# 3 -0.004320 -0.002129 0.007792 0.000007 -0.000176 -0.000008
# 4 0.000006 -0.000001 0.000007 0.026960 -0.000032 -0.009007
# 5 0.017787 -0.002214 -0.000176 -0.000032 0.041204 0.000028
# 6 -0.000005 0.000000 -0.000008 -0.009007 0.000028 0.037117
#
#
# Mechanical properties :
#
#
# Convention : Reuss Voigt Hill
#
# Bulk Modulus (GPa) = 30.34500 60.24739 45.29619
# Shear Modulus (GPa) = 26.59689 36.74678 31.67184
#
# Velocity S-wave (km/s) = 3.67341 4.31781 4.00858
# Velocity P-wave (km/s) = 5.77818 7.44476 6.66377
#
# Compressibility (1/GPa) = 0.03295436
#
# Stress axis : x y z
#
# Youngs Moduli (GPa) = 27.24849 127.40877 128.34185
#
# Poissons Ratio (x) = 0.41328 0.55442
# Poissons Ratio (y) = 0.08839 0.27325
# Poissons Ratio (z) = 0.11771 0.27126
#
# Static dielectric constant tensor:
#      x y z
#    x 1.784140 0.000000 -0.021420 
#    y 0.000000 1.714830 0.000000 
#    z -0.021420 0.000000 1.735790 
# 
# From -- ./inp_files/60677.got.cif
#   From: 2010.05.17/outbox.ucp.g08.bks.cvg/sg5_31_cif.got.tgz:60677.got - 2010.06.11 12:53:14.
