data_PCOD9130295
_publ_section_title
;
Structure prediction by ZEFSAII (Michael W. Deem and Ramdas Pophale) SiO2 
 PCOD9130295
Probable space group: C 2
;
_chemical_formula_sum "Si O2"
_cell_formula_units_Z 18
_cell_length_a 13.405074
_cell_length_b 9.238872
_cell_length_c 6.192292
_cell_angle_alpha 90.000000
_cell_angle_beta 99.867655
_cell_angle_gamma 90.000000
_cell_volume 755.556145
_symmetry_space_group_name_H-M "C 2"
_symmetry_group_IT_number 5
_symmetry_cell_setting 'monoclinic'
loop_
_space_group_symop_operation_xyz
x,y,z
-x,y,-z
1/2+x,1/2+y,z
1/2-x,1/2+y,-z
loop_
_atom_site_type_symbol
_atom_site_label
_atom_site_fract_x
_atom_site_fract_y
_atom_site_fract_z
Si Si1 0.250081 0.929340 0.273522
Si Si2 0.868736 0.476403 0.719095
Si Si3 0.500000 0.731932 0.000000
Si Si4 0.802065 0.136626 0.084251
Si Si5 0.540994 0.291760 0.266277
O O1 0.270057 0.799479 0.116423
O O2 0.142308 0.886255 0.325135
O O3 0.341920 0.929267 0.469612
O O4 0.239963 0.083903 0.160194
O O5 0.925602 0.341918 0.847515
O O6 0.760447 0.533147 0.776429
O O7 0.936344 0.620082 0.747429
O O8 0.575896 0.636080 0.880916
O O9 0.500000 0.307279 0.500000
O O10 0.500000 0.326026 0.000000
#
# Coordination Sequence:
#
# PCOD9130295 Si02
#       5
#     4   4   2   4   4
#     4  11  28  48  78 108 168 203 273 348 399 483
#     4  11  27  49  74 116 157 213 270 338 403 501
#     4  12  26  48  82 110 160 212 264 330 426 482
#     4  11  27  50  75 115 157 208 271 336 407 483
#     4  11  28  48  80 116 158 215 268 330 415 489
#
# _framework density 23.823512999999998
#
# number of rings (size 3 to 8) (size 9 to 14) (size 15 to 20)
#    0.000    0.889    3.333    0.000   20.222    0.000 
#    0.000    0.000    0.000    0.000    0.000    0.000 
#    0.000    0.000    0.000    0.000    0.000    0.000 
#
# Total GULP energy -50180.048268 kJ/mol
# GULP energy per Si atom -5575.560919 kJ/mol
# Density = 2.376929 g / cm^3
# Si number density = 23.823513 Si / 1000 Ang^3
#
#
#
# Elastic Constant Matrix: (Units=GPa)
#
#
# Indices 1 2 3 4 5 6 
#
# 1 114.4616 27.2633 54.9918 0.0000 -22.4766 0.0000
# 2 27.2633 90.4071 68.1634 0.0000 9.4141 0.0000
# 3 54.9918 68.1634 127.2280 0.0000 6.0278 0.0000
# 4 0.0000 0.0000 0.0000 26.8639 0.0000 14.5388
# 5 -22.4766 9.4141 6.0278 0.0000 44.2427 0.0000
# 6 0.0000 0.0000 0.0000 14.5388 0.0000 45.8129
#
#
#
# Elastic Compliance Matrix: (Units=1/GPa)
#
#
# Indices 1 2 3 4 5 6 
#
# 1 0.013098 -0.000329 -0.005842 0.000000 0.007520 0.000000
# 2 -0.000329 0.018870 -0.009833 0.000000 -0.002842 0.000000
# 3 -0.005842 -0.009833 0.015796 0.000000 -0.003028 0.000000
# 4 0.000000 0.000000 0.000000 0.044944 0.000000 -0.014263
# 5 0.007520 -0.002842 -0.003028 0.000000 0.027440 0.000000
# 6 0.000000 0.000000 0.000000 -0.014263 0.000000 0.026354
#
#
# Mechanical properties :
#
#
# Convention : Reuss Voigt Hill
#
# Bulk Modulus (GPa) = 63.46023 70.32596 66.89310
# Shear Modulus (GPa) = 27.20920 35.49579 31.35249
#
# Velocity S-wave (km/s) = 3.38319 3.86417 3.63165
# Velocity P-wave (km/s) = 6.47740 7.03511 6.76201
#
# Compressibility (1/GPa) = 0.01575790
#
# Stress axis : x y z
#
# Youngs Moduli (GPa) = 76.34728 52.99475 63.30582
#
# Poissons Ratio (x) = 0.01741 0.36981
# Poissons Ratio (y) = 0.02509 0.62248
# Poissons Ratio (z) = 0.44599 0.52109
#
# Static dielectric constant tensor:
#      x y z
#    x 1.979600 0.000000 -0.083400 
#    y 0.000000 1.834090 0.000000 
#    z -0.083400 0.000000 1.921490 
# 
# From -- ./inp_files/4485.got.cif
#   From: 2010.05.17/outbox.cif.g08.bks.cpg/sg5_3_cif.got.tgz:4485.got - 2010.06.03 18:56:24.
