data_PCOD9130952
_publ_section_title
;
Structure prediction by ZEFSAII (Michael W. Deem and Ramdas Pophale) SiO2 
 PCOD9130952
Probable space group: P M
;
_chemical_formula_sum "Si O2"
_cell_formula_units_Z 16
_cell_length_a 16.216461
_cell_length_b 8.789117
_cell_length_c 20.489105
_cell_angle_alpha 90.000000
_cell_angle_beta 161.590709
_cell_angle_gamma 90.000000
_cell_volume 922.232518
_symmetry_space_group_name_H-M "P M"
_symmetry_group_IT_number 6
_symmetry_cell_setting 'monoclinic'
loop_
_space_group_symop_operation_xyz
x,y,z
x,-y,z
loop_
_atom_site_type_symbol
_atom_site_label
_atom_site_fract_x
_atom_site_fract_y
_atom_site_fract_z
Si Si1 0.366180 0.183088 0.681110
Si Si2 0.803449 0.183058 0.904286
Si Si3 0.804049 0.317414 0.762883
Si Si4 0.370915 0.317510 0.329707
Si Si5 0.391851 0.817429 0.850649
Si Si6 0.790536 0.816921 0.393246
Si Si7 0.798134 0.680631 0.256974
Si Si8 0.371655 0.183052 0.188445
O O1 0.587560 0.225673 0.795647
O O2 0.442482 0.222903 0.812841
O O3 0.086315 0.256526 0.456648
O O4 0.334072 0.000000 0.655161
O O5 0.734303 0.248855 0.781180
O O6 0.819260 0.000000 0.912584
O O7 0.088195 0.249218 0.135090
O O8 0.824999 0.500000 0.783825
O O9 0.587475 0.280012 0.546289
O O10 0.086550 0.248821 0.957370
O O11 0.350149 0.500000 0.308948
O O12 0.440787 0.249243 0.311452
O O13 0.088641 0.777092 0.635864
O O14 0.418236 0.000000 0.877041
O O15 0.588855 0.738668 0.047674
O O16 0.732155 0.743480 0.279513
O O17 0.584635 0.774302 0.294180
O O18 0.783026 0.000000 0.379589
O O19 0.803863 0.500000 0.262702
O O20 0.357458 0.000000 0.181756
#
# Coordination Sequence:
#
# PCOD9130952 Si02
#       8
#     2   2   2   2   2   2   2   2
#     4   9  20  38  57  77 103 138 177 216 260 307
#     4  10  20  35  57  81 103 133 177 223 260 301
#     4  10  21  36  53  77 110 144 173 207 260 317
#     4  10  21  36  53  75 108 144 173 209 260 315
#     4   9  18  36  57  75 103 139 173 213 260 310
#     4   9  20  38  57  77 103 138 177 216 260 307
#     4  11  22  34  53  81 109 137 171 213 260 312
#     4  10  20  35  57  81 103 133 177 223 260 301
#
# _framework density 17.349202999999999
#
# number of rings (size 3 to 8) (size 9 to 14) (size 15 to 20)
#    0.000    2.250    0.000    4.875    0.000    8.000 
#    0.000    7.500    0.000    0.000    0.000    0.000 
#    0.000    0.000    0.000    0.000    0.000    0.000 
#
# Total GULP energy -89312.176892 kJ/mol
# GULP energy per Si atom -5582.011056 kJ/mol
# Density = 1.730972 g / cm^3
# Si number density = 17.349203 Si / 1000 Ang^3
#
#
#
# Elastic Constant Matrix: (Units=GPa)
#
#
# Indices 1 2 3 4 5 6 
#
# 1 181.2393 65.8776 127.4293 0.0000 21.5060 0.0000
# 2 65.8776 58.5989 67.3927 0.0000 -0.7781 0.0000
# 3 127.4293 67.3927 171.8712 0.0000 -17.5169 0.0000
# 4 0.0000 0.0000 0.0000 24.5042 0.0000 -6.8782
# 5 21.5060 -0.7781 -17.5169 0.0000 21.7026 0.0000
# 6 0.0000 0.0000 0.0000 -6.8782 0.0000 9.7490
#
#
#
# Elastic Compliance Matrix: (Units=1/GPa)
#
#
# Indices 1 2 3 4 5 6 
#
# 1 0.038352 -0.006786 -0.032332 0.000000 -0.064344 0.000000
# 2 -0.006786 0.034192 -0.008243 0.000000 0.001297 0.000000
# 3 -0.032332 -0.008243 0.039508 0.000000 0.063631 0.000000
# 4 0.000000 0.000000 0.000000 0.050887 0.000000 0.035902
# 5 -0.064344 0.001297 0.063631 0.000000 0.161244 0.000000
# 6 0.000000 0.000000 0.000000 0.035902 0.000000 0.127905
#
#
# Mechanical properties :
#
#
# Convention : Reuss Voigt Hill
#
# Bulk Modulus (GPa) = 57.70895 103.67875 80.69385
# Shear Modulus (GPa) = 9.04835 21.25848 15.15341
#
# Velocity S-wave (km/s) = 2.28621 3.50427 2.95860
# Velocity P-wave (km/s) = 6.34857 8.73286 7.63437
#
# Compressibility (1/GPa) = 0.01732833
#
# Stress axis : x y z
#
# Youngs Moduli (GPa) = 26.07431 29.24659 25.31163
#
# Poissons Ratio (x) = 0.19847 0.81837
# Poissons Ratio (y) = 0.17695 0.20865
# Poissons Ratio (z) = 0.84303 0.24109
#
# Static dielectric constant tensor:
#      x y z
#    x 1.574550 0.000000 0.005250 
#    y 0.000000 1.580830 0.000000 
#    z 0.005250 0.000000 1.563150 
# 
# From -- ./inp_files/5857.got.cif
#   From: 2010.05.17/outbox.cif.g08.bks.cpg/sg6_3_cif.got.tgz:5857.got - 2010.06.03 19:42:10.
