data_PCOD9130118
_publ_section_title
;
Structure prediction by ZEFSAII (Michael W. Deem and Ramdas Pophale) SiO2 
 PCOD9130118
Probable space group: C 2
;
_chemical_formula_sum "Si O2"
_cell_formula_units_Z 24
_cell_length_a 9.438895
_cell_length_b 11.243367
_cell_length_c 12.783758
_cell_angle_alpha 90.000000
_cell_angle_beta 122.295333
_cell_angle_gamma 90.000000
_cell_volume 1146.805331
_symmetry_space_group_name_H-M "C 2"
_symmetry_group_IT_number 5
_symmetry_cell_setting 'monoclinic'
loop_
_space_group_symop_operation_xyz
x,y,z
-x,y,-z
1/2+x,1/2+y,z
1/2-x,1/2+y,-z
loop_
_atom_site_type_symbol
_atom_site_label
_atom_site_fract_x
_atom_site_fract_y
_atom_site_fract_z
Si Si1 0.887396 0.640600 0.355297
Si Si2 0.879490 0.925556 0.355250
Si Si3 0.511663 0.000963 0.206988
Si Si4 0.279689 0.349431 0.007996
Si Si5 0.500000 0.153153 0.000000
Si Si6 0.015130 0.041644 0.197829
Si Si7 0.500000 0.724679 0.000000
O O1 0.895298 0.783416 0.344824
O O2 0.960981 0.588568 0.278246
O O3 0.708212 0.574267 0.298049
O O4 0.000000 0.611297 0.500000
O O5 0.000000 0.956964 0.500000
O O6 0.683863 0.939230 0.305325
O O7 0.930481 0.010797 0.277205
O O8 0.351168 0.919858 0.116282
O O9 0.546862 0.072256 0.115178
O O10 0.349330 0.235926 0.976173
O O11 0.439537 0.428006 0.104604
O O12 0.165225 0.306937 0.060800
O O13 0.983406 0.145855 0.098176
#
# Coordination Sequence:
#
# PCOD9130118 Si02
#       7
#     4   4   4   4   2   4   2
#     4  11  25  44  65  90 125 169 214 259 305 363
#     4  11  25  44  65  90 125 169 214 259 305 363
#     4  12  24  41  65  94 127 163 208 255 312 376
#     4  12  24  39  63  97 130 161 200 256 319 375
#     4  12  24  38  62  96 128 160 200 256 318 374
#     4  12  22  41  67  92 127 165 206 255 314 374
#     4  12  24  40  64  98 132 162 200 256 320 376
#
# _framework density 20.927700999999999
#
# number of rings (size 3 to 8) (size 9 to 14) (size 15 to 20)
#    0.000    0.333    0.000   12.000    0.000    0.000 
#    0.000    0.000    0.000    8.000    0.000    0.000 
#    0.000    0.000    0.000    0.000    0.000    0.000 
#
# Total GULP energy -66994.162577 kJ/mol
# GULP energy per Si atom -5582.846881 kJ/mol
# Density = 2.088007 g / cm^3
# Si number density = 20.927701 Si / 1000 Ang^3
#
#
#
# Elastic Constant Matrix: (Units=GPa)
#
#
# Indices 1 2 3 4 5 6 
#
# 1 112.5766 45.0078 49.6555 0.0000 9.6558 0.0000
# 2 45.0078 86.1972 39.5954 0.0000 4.5933 0.0000
# 3 49.6555 39.5954 120.2458 0.0000 26.5403 0.0000
# 4 0.0000 0.0000 0.0000 22.8488 0.0000 -9.3174
# 5 9.6558 4.5933 26.5403 0.0000 37.6634 0.0000
# 6 0.0000 0.0000 0.0000 -9.3174 0.0000 -2.9359
#
#
#
# Elastic Compliance Matrix: (Units=1/GPa)
#
#
# Indices 1 2 3 4 5 6 
#
# 1 0.012370 -0.004852 -0.003483 0.000000 -0.000125 0.000000
# 2 -0.004852 0.015674 -0.003565 0.000000 0.001844 0.000000
# 3 -0.003483 -0.003565 0.012594 0.000000 -0.007547 0.000000
# 4 0.000000 0.000000 0.000000 0.019077 0.000000 -0.060544
# 5 -0.000125 0.001844 -0.007547 0.000000 0.031676 0.000000
# 6 0.000000 0.000000 0.000000 -0.060544 0.000000 -0.148470
#
#
# Mechanical properties :
#
#
# Convention : Reuss Voigt Hill
#
# Bulk Modulus (GPa) = 59.38695 65.28191 62.33443
# Shear Modulus (GPa) = -180.72442 23.83264 -78.44589
#
# Velocity S-wave (km/s) = -9.30290 3.37828 -6.12908
# Velocity P-wave (km/s) = 9.32487 6.81754 4.49858
#
# Compressibility (1/GPa) = 0.01683872
#
# Stress axis : x y z
#
# Youngs Moduli (GPa) = 80.84301 63.79955 79.40332
#
# Poissons Ratio (x) = 0.30958 0.27653
# Poissons Ratio (y) = 0.39228 0.28304
# Poissons Ratio (z) = 0.28154 0.22742
#
# Static dielectric constant tensor:
#      x y z
#    x 1.782890 0.000000 0.028960 
#    y 0.000000 1.763880 0.000000 
#    z 0.028960 0.000000 1.766020 
# 
# From -- ./inp_files/35505.got.cif
#   From: 2010.05.17/outbox.cif.g08.bks.cpg/sg5_18_cif.got.tgz:35505.got - 2010.06.03 18:56:24.
