data_PCOD9130791
_publ_section_title
;
Structure prediction by ZEFSAII (Michael W. Deem and Ramdas Pophale) SiO2 
 PCOD9130791
Probable space group: P M
;
_chemical_formula_sum "Si O2"
_cell_formula_units_Z 16
_cell_length_a 10.557717
_cell_length_b 8.698999
_cell_length_c 12.529675
_cell_angle_alpha 90.000000
_cell_angle_beta 52.283019
_cell_angle_gamma 90.000000
_cell_volume 910.287937
_symmetry_space_group_name_H-M "P M"
_symmetry_group_IT_number 6
_symmetry_cell_setting 'monoclinic'
loop_
_space_group_symop_operation_xyz
x,y,z
x,-y,z
loop_
_atom_site_type_symbol
_atom_site_label
_atom_site_fract_x
_atom_site_fract_y
_atom_site_fract_z
Si Si1 0.092540 0.685076 0.500000
Si Si2 0.339439 0.315765 0.196862
Si Si3 0.827873 0.184006 0.478129
Si Si4 0.519723 0.186905 0.760199
Si Si5 0.993939 0.316155 0.785609
Si Si6 0.047071 0.683550 0.188766
Si Si7 0.641769 0.816096 0.931764
Si Si8 0.155596 0.184332 0.913038
O O1 0.071082 0.500000 0.500873
O O2 0.255321 0.723444 0.352749
O O3 0.948318 0.764932 0.510433
O O4 0.082569 0.726297 0.629024
O O5 0.363133 0.500000 0.180481
O O6 0.206290 0.274749 0.175561
O O7 0.503949 0.232591 0.085350
O O8 0.650875 0.234209 0.605148
O O9 0.897697 0.257113 0.334760
O O10 0.831289 0.000000 0.467231
O O11 0.580373 0.235278 0.846071
O O12 0.339892 0.239015 0.829749
O O13 0.517834 0.000000 0.762297
O O14 0.995764 0.500000 0.793863
O O15 0.811579 0.259119 0.869701
O O16 0.078200 0.243938 0.844463
O O17 0.041584 0.500000 0.184795
O O18 0.061682 0.755581 0.064993
O O19 0.659502 0.000000 0.921259
O O20 0.154786 0.000000 0.914243
#
# Coordination Sequence:
#
# PCOD9130791 Si02
#       8
#     2   2   2   2   2   2   2   2
#     4   9  19  35  54  79 113 147 185 229 280 334
#     4   9  18  33  54  82 112 144 182 232 281 327
#     4  10  18  32  56  84 112 143 182 233 283 328
#     4   9  19  34  55  84 114 141 185 237 278 324
#     4  11  23  39  57  82 115 152 187 229 284 340
#     4  10  20  35  54  82 116 149 186 228 279 335
#     4  11  20  35  57  85 113 145 190 234 277 330
#     4  11  22  39  59  82 113 151 189 232 280 334
#
# _framework density 17.576855999999999
#
# number of rings (size 3 to 8) (size 9 to 14) (size 15 to 20)
#    0.000    2.000    2.500    2.625    0.000    2.500 
#    0.000    3.750    0.000    3.000    0.000    0.000 
#    0.000    0.000    0.000    0.000    0.000    0.000 
#
# Total GULP energy -89307.993865 kJ/mol
# GULP energy per Si atom -5581.749617 kJ/mol
# Density = 1.753685 g / cm^3
# Si number density = 17.576856 Si / 1000 Ang^3
#
#
#
# Elastic Constant Matrix: (Units=GPa)
#
#
# Indices 1 2 3 4 5 6 
#
# 1 106.6389 30.0744 79.3424 0.0000 8.0690 0.0000
# 2 30.0744 39.8035 45.7502 0.0000 7.5165 0.0000
# 3 79.3424 45.7502 173.4570 0.0000 7.4792 0.0000
# 4 0.0000 0.0000 0.0000 26.7007 0.0000 -0.1388
# 5 8.0690 7.5165 7.4792 0.0000 25.4312 0.0000
# 6 0.0000 0.0000 0.0000 -0.1388 0.0000 21.7022
#
#
#
# Elastic Compliance Matrix: (Units=1/GPa)
#
#
# Indices 1 2 3 4 5 6 
#
# 1 0.014926 -0.004572 -0.005546 0.000000 -0.001753 0.000000
# 2 -0.004572 0.039118 -0.007890 0.000000 -0.007791 0.000000
# 3 -0.005546 -0.007890 0.010338 0.000000 0.001051 0.000000
# 4 0.000000 0.000000 0.000000 0.037453 0.000000 0.000240
# 5 -0.001753 -0.007791 0.001051 0.000000 0.041872 0.000000
# 6 0.000000 0.000000 0.000000 0.000240 0.000000 0.046080
#
#
# Mechanical properties :
#
#
# Convention : Reuss Voigt Hill
#
# Bulk Modulus (GPa) = 35.25432 70.02595 52.64014
# Shear Modulus (GPa) = 21.25323 25.74897 23.50110
#
# Velocity S-wave (km/s) = 3.48107 3.83160 3.66053
# Velocity P-wave (km/s) = 6.02145 7.71370 6.91951
#
# Compressibility (1/GPa) = 0.02836532
#
# Stress axis : x y z
#
# Youngs Moduli (GPa) = 66.99816 25.56344 96.73341
#
# Poissons Ratio (x) = 0.11688 0.53647
# Poissons Ratio (y) = 0.30631 0.76327
# Poissons Ratio (z) = 0.37156 0.20171
#
# Static dielectric constant tensor:
#      x y z
#    x 1.566970 0.000000 -0.004210 
#    y 0.000000 1.587440 0.000000 
#    z -0.004210 0.000000 1.607010 
# 
# From -- ./inp_files/3504.got.cif
#   From: 2010.05.17/outbox.cif.g08.bks.cpg/sg6_2_cif.got.tgz:3504.got - 2010.06.03 19:42:10.
