data_PCOD9130595
_publ_section_title
;
Structure prediction by ZEFSAII (Michael W. Deem and Ramdas Pophale) SiO2 
 PCOD9130595
Probable space group: C 2
;
_chemical_formula_sum "Si O2"
_cell_formula_units_Z 14
_cell_length_a 11.778543
_cell_length_b 8.577293
_cell_length_c 4.843986
_cell_angle_alpha 90.000000
_cell_angle_beta 77.701447
_cell_angle_gamma 90.000000
_cell_volume 478.147523
_symmetry_space_group_name_H-M "C 2"
_symmetry_group_IT_number 5
_symmetry_cell_setting 'monoclinic'
loop_
_space_group_symop_operation_xyz
x,y,z
-x,y,-z
1/2+x,1/2+y,z
1/2-x,1/2+y,-z
loop_
_atom_site_type_symbol
_atom_site_label
_atom_site_fract_x
_atom_site_fract_y
_atom_site_fract_z
Si Si1 0.185128 0.323550 0.530902
Si Si2 0.000000 0.054925 0.500000
Si Si3 0.351320 0.330256 0.950716
Si Si4 0.482874 0.044639 0.745870
O O1 0.107471 0.170565 0.525000
O O2 0.243964 0.321719 0.795297
O O3 0.096578 0.463658 0.488807
O O4 0.290917 0.362550 0.272304
O O5 0.058652 0.954904 0.221144
O O6 0.397726 0.153556 0.982301
O O7 0.500000 0.184332 0.500000
O O8 0.500000 0.923906 0.000000
#
# Coordination Sequence:
#
# PCOD9130595 Si02
#       4
#     4   2   4   4
#     4  12  31  52  80 117 157 207 258 320 393 454
#     4  12  32  48  84 120 152 204 272 310 384 482
#     4  12  31  52  80 117 157 207 258 320 393 454
#     4  12  26  54  80 112 160 204 258 322 382 466
#
# _framework density 29.279664
#
# number of rings (size 3 to 8) (size 9 to 14) (size 15 to 20)
#    0.000    0.000    2.857    3.429   12.000    2.286 
#    0.000    0.000    0.000    0.000    0.000    0.000 
#    0.000    0.000    0.000    0.000    0.000    0.000 
#
# Total GULP energy -39042.843937 kJ/mol
# GULP energy per Si atom -5577.549134 kJ/mol
# Density = 2.921302 g / cm^3
# Si number density = 29.279664 Si / 1000 Ang^3
#
#
#
# Elastic Constant Matrix: (Units=GPa)
#
#
# Indices 1 2 3 4 5 6 
#
# 1 190.7974 75.8944 13.3170 0.0000 -0.8916 0.0000
# 2 75.8944 164.5552 -13.2475 0.0000 -15.2980 0.0000
# 3 13.3170 -13.2475 171.4902 0.0000 -4.8262 0.0000
# 4 0.0000 0.0000 0.0000 36.7945 0.0000 -2.6178
# 5 -0.8916 -15.2980 -4.8262 0.0000 52.3895 0.0000
# 6 0.0000 0.0000 0.0000 -2.6178 0.0000 -0.7203
#
#
#
# Elastic Compliance Matrix: (Units=1/GPa)
#
#
# Indices 1 2 3 4 5 6 
#
# 1 0.006551 -0.003166 -0.000778 0.000000 -0.000885 0.000000
# 2 -0.003166 0.007826 0.000916 0.000000 0.002316 0.000000
# 3 -0.000778 0.000916 0.005985 0.000000 0.000805 0.000000
# 4 0.000000 0.000000 0.000000 0.021594 0.000000 -0.078485
# 5 -0.000885 0.002316 0.000805 0.000000 0.019823 0.000000
# 6 0.000000 0.000000 0.000000 -0.078485 0.000000 -1.103149
#
#
# Mechanical properties :
#
#
# Convention : Reuss Voigt Hill
#
# Bulk Modulus (GPa) = 69.90757 75.41896 72.66326
# Shear Modulus (GPa) = -4.85180 47.75135 21.44977
#
# Velocity S-wave (km/s) = -1.28866 4.04279 2.70956
# Velocity P-wave (km/s) = 4.65977 6.89973 5.88726
#
# Compressibility (1/GPa) = 0.01430460
#
# Stress axis : x y z
#
# Youngs Moduli (GPa) = 152.65400 127.77509 167.08259
#
# Poissons Ratio (x) = 0.40456 0.13002
# Poissons Ratio (y) = 0.48333 -0.15298
# Poissons Ratio (z) = 0.11879 -0.11699
#
# Static dielectric constant tensor:
#      x y z
#    x 3.294970 0.000000 -0.048960 
#    y 0.000000 2.242500 0.000000 
#    z -0.048960 0.000000 1.739130 
# 
# From -- ./inp_files/4182.got.cif
#   From: 2010.05.17/outbox.cif.g08.bks.cpg/sg5_3_cif.got.tgz:4182.got - 2010.06.03 18:56:24.
