data_PCOD9130287
_publ_section_title
;
Structure prediction by ZEFSAII (Michael W. Deem and Ramdas Pophale) SiO2 
 PCOD9130287
Probable space group: C 2
;
_chemical_formula_sum "Si O2"
_cell_formula_units_Z 28
_cell_length_a 8.463345
_cell_length_b 11.604147
_cell_length_c 13.104879
_cell_angle_alpha 90.000000
_cell_angle_beta 65.320088
_cell_angle_gamma 90.000000
_cell_volume 1169.464719
_symmetry_space_group_name_H-M "C 2"
_symmetry_group_IT_number 5
_symmetry_cell_setting 'monoclinic'
loop_
_space_group_symop_operation_xyz
x,y,z
-x,y,-z
1/2+x,1/2+y,z
1/2-x,1/2+y,-z
loop_
_atom_site_type_symbol
_atom_site_label
_atom_site_fract_x
_atom_site_fract_y
_atom_site_fract_z
Si Si1 0.806207 0.982570 0.672874
Si Si2 0.273312 0.686313 0.528129
Si Si3 0.000000 0.395003 0.500000
Si Si4 0.703514 0.397988 0.967932
Si Si5 0.584130 0.594560 0.724278
Si Si6 0.000000 0.791225 0.500000
Si Si7 0.918160 0.489423 0.738719
Si Si8 0.155922 0.155147 0.037919
O O1 0.600879 0.997776 0.754485
O O2 0.854982 0.872365 0.590654
O O3 0.828340 0.092540 0.593606
O O4 0.960165 0.989629 0.715962
O O5 0.339403 0.809203 0.546647
O O6 0.343783 0.653340 0.397445
O O7 0.070998 0.707948 0.568301
O O8 0.005033 0.460427 0.393169
O O9 0.811415 0.397868 0.833882
O O10 0.740708 0.274094 0.010238
O O11 0.500000 0.400879 0.000000
O O12 0.744181 0.526458 0.005636
O O13 0.751502 0.569979 0.751179
O O14 0.441882 0.662649 0.827352
O O15 0.000000 0.152876 0.000000
#
# Coordination Sequence:
#
# PCOD9130287 Si02
#       8
#     4   4   2   4   4   2   4   4
#     4  12  25  44  69 112 156 200 253 309 392 467
#     4  12  23  42  68 108 155 201 252 308 383 467
#     4  12  21  39  68 106 156 194 247 321 378 464
#     4  11  26  54  79 112 155 203 267 331 398 459
#     4  12  23  47  75 108 153 200 258 329 383 463
#     4  12  23  45  68 104 160 204 251 305 380 474
#     4  12  25  46  77 110 151 208 256 322 395 471
#     4  11  26  52  78 112 154 198 268 337 389 468
#
# _framework density 23.94258
#
# number of rings (size 3 to 8) (size 9 to 14) (size 15 to 20)
#    0.000    0.286    7.143    3.429    0.000    2.857 
#    0.000    0.000    0.000    0.000    0.000    0.000 
#    0.000    0.000    0.000    0.000    0.000    0.000 
#
# Total GULP energy -77970.800993 kJ/mol
# GULP energy per Si atom -5569.342928 kJ/mol
# Density = 2.388809 g / cm^3
# Si number density = 23.942580 Si / 1000 Ang^3
#
#
#
# Elastic Constant Matrix: (Units=GPa)
#
#
# Indices 1 2 3 4 5 6 
#
# 1 124.3633 45.4591 -0.4299 0.0000 -31.0498 0.0000
# 2 45.4591 147.9083 17.1247 0.0000 -13.7368 0.0000
# 3 -0.4299 17.1247 67.4939 0.0000 -18.3153 0.0000
# 4 0.0000 0.0000 0.0000 86.3836 0.0000 -8.3113
# 5 -31.0498 -13.7368 -18.3153 0.0000 28.5798 0.0000
# 6 0.0000 0.0000 0.0000 -8.3113 0.0000 35.7901
#
#
#
# Elastic Compliance Matrix: (Units=1/GPa)
#
#
# Indices 1 2 3 4 5 6 
#
# 1 0.013303 -0.003188 0.005326 0.000000 0.016333 0.000000
# 2 -0.003188 0.007904 -0.002342 0.000000 -0.001166 0.000000
# 3 0.005326 -0.002342 0.020226 0.000000 0.017622 0.000000
# 4 0.000000 0.000000 0.000000 0.011841 0.000000 0.002750
# 5 0.016333 -0.001166 0.017622 0.000000 0.063467 0.000000
# 6 0.000000 0.000000 0.000000 0.002750 0.000000 0.028579
#
#
# Mechanical properties :
#
#
# Convention : Reuss Voigt Hill
#
# Bulk Modulus (GPa) = 24.37618 51.56371 37.96994
# Shear Modulus (GPa) = 31.36706 48.65816 40.01261
#
# Velocity S-wave (km/s) = 3.62345 4.51298 4.09245
# Velocity P-wave (km/s) = 5.26394 6.98134 6.18256
#
# Compressibility (1/GPa) = 0.04102366
#
# Stress axis : x y z
#
# Youngs Moduli (GPa) = 75.17346 126.52267 49.44058
#
# Poissons Ratio (x) = 0.40338 -0.26331
# Poissons Ratio (y) = 0.23967 0.11579
# Poissons Ratio (z) = -0.40035 0.29631
#
# Static dielectric constant tensor:
#      x y z
#    x 2.012060 0.000000 0.000890 
#    y 0.000000 1.959520 0.000000 
#    z 0.000890 0.000000 1.917620 
# 
# From -- ./inp_files/50449.got.cif
#   From: 2010.05.17/outbox.cif.g08.bks.cpg/sg5_26_cif.got.tgz:50449.got - 2010.06.03 18:56:24.
