data_PCOD9130548
_publ_section_title
;
Structure prediction by ZEFSAII (Michael W. Deem and Ramdas Pophale) SiO2 
 PCOD9130548
Probable space group: C 2
;
_chemical_formula_sum "Si O2"
_cell_formula_units_Z 20
_cell_length_a 17.742594
_cell_length_b 8.391150
_cell_length_c 5.199954
_cell_angle_alpha 90.000000
_cell_angle_beta 108.495846
_cell_angle_gamma 90.000000
_cell_volume 734.184513
_symmetry_space_group_name_H-M "C 2"
_symmetry_group_IT_number 5
_symmetry_cell_setting 'monoclinic'
loop_
_space_group_symop_operation_xyz
x,y,z
-x,y,-z
1/2+x,1/2+y,z
1/2-x,1/2+y,-z
loop_
_atom_site_type_symbol
_atom_site_label
_atom_site_fract_x
_atom_site_fract_y
_atom_site_fract_z
Si Si1 0.110647 0.512570 0.972005
Si Si2 0.854129 0.962329 0.767814
Si Si3 0.908812 0.672290 0.545593
Si Si4 0.445561 0.670587 0.195623
Si Si5 0.246691 0.676369 0.384045
O O1 0.274644 0.355707 0.717934
O O2 0.069177 0.632655 0.721093
O O3 0.074353 0.538570 0.218944
O O4 0.201123 0.564148 0.132182
O O5 0.916403 0.843950 0.691673
O O6 0.830463 0.112365 0.564471
O O7 0.887362 0.024720 0.070749
O O8 0.811633 0.666049 0.430327
O O9 0.500000 0.655177 0.500000
O O10 0.398302 0.837015 0.145792
O O11 0.500000 0.676480 0.000000
#
# Coordination Sequence:
#
# PCOD9130548 Si02
#       5
#     4   4   4   4   4
#     4   9  19  42  61  92 127 167 221 273 329 391
#     4   9  20  42  65 101 137 174 218 280 334 406
#     4   8  20  37  63  97 128 165 213 270 347 388
#     4  12  26  43  65  95 135 186 232 270 324 398
#     4   8  19  38  68  98 131 167 214 280 346 390
#
# _framework density 27.241108000000001
#
# number of rings (size 3 to 8) (size 9 to 14) (size 15 to 20)
#    2.400    0.000    0.000    2.400    0.000    3.200 
#   10.800   12.000    0.000    0.000    0.000    0.000 
#    0.000    0.000    0.000    0.000    0.000    0.000 
#
# Total GULP energy -55833.399430 kJ/mol
# GULP energy per Si atom -5583.339943 kJ/mol
# Density = 2.717911 g / cm^3
# Si number density = 27.241108 Si / 1000 Ang^3
#
#
#
# Elastic Constant Matrix: (Units=GPa)
#
#
# Indices 1 2 3 4 5 6 
#
# 1 44.3745 17.9686 35.7769 0.0000 0.7461 0.0000
# 2 17.9686 163.3549 64.6600 0.0000 21.6836 0.0000
# 3 35.7769 64.6600 207.1928 0.0000 10.2884 0.0000
# 4 0.0000 0.0000 0.0000 42.8113 0.0000 12.9116
# 5 0.7461 21.6836 10.2884 0.0000 46.7514 0.0000
# 6 0.0000 0.0000 0.0000 12.9116 0.0000 35.9866
#
#
#
# Elastic Compliance Matrix: (Units=1/GPa)
#
#
# Indices 1 2 3 4 5 6 
#
# 1 0.026462 -0.001406 -0.004188 0.000000 0.001151 0.000000
# 2 -0.001406 0.007439 -0.001930 0.000000 -0.003003 0.000000
# 3 -0.004188 -0.001930 0.006171 0.000000 -0.000396 0.000000
# 4 0.000000 0.000000 0.000000 0.026193 0.000000 -0.009398
# 5 0.001151 -0.003003 -0.000396 0.000000 0.022851 0.000000
# 6 0.000000 0.000000 0.000000 -0.009398 0.000000 0.031160
#
#
# Mechanical properties :
#
#
# Convention : Reuss Voigt Hill
#
# Bulk Modulus (GPa) = 39.95932 72.41478 56.18705
# Shear Modulus (GPa) = 34.80346 44.87764 39.84055
#
# Velocity S-wave (km/s) = 3.57824 4.06325 3.82843
# Velocity P-wave (km/s) = 5.63670 6.97524 6.34138
#
# Compressibility (1/GPa) = 0.02502545
#
# Stress axis : x y z
#
# Youngs Moduli (GPa) = 37.79039 134.43256 162.03850
#
# Poissons Ratio (x) = 0.18901 0.67856
# Poissons Ratio (y) = 0.05313 0.31266
# Poissons Ratio (z) = 0.15825 0.25939
#
# Static dielectric constant tensor:
#      x y z
#    x 2.416960 0.000000 -0.056490 
#    y 0.000000 2.145430 0.000000 
#    z -0.056490 0.000000 2.054180 
# 
# From -- ./inp_files/4705.got.cif
#   From: 2010.05.17/outbox.cif.g08.bks.cpg/sg5_3_cif.got.tgz:4705.got - 2010.06.03 18:56:24.
