data_PCOD9130404
_publ_section_title
;
Structure prediction by ZEFSAII (Michael W. Deem and Ramdas Pophale) SiO2 
 PCOD9130404
Probable space group: C 2
;
_chemical_formula_sum "Si O2"
_cell_formula_units_Z 22
_cell_length_a 14.093274
_cell_length_b 6.084186
_cell_length_c 10.591941
_cell_angle_alpha 90.000000
_cell_angle_beta 100.177606
_cell_angle_gamma 90.000000
_cell_volume 893.926601
_symmetry_space_group_name_H-M "C 2"
_symmetry_group_IT_number 5
_symmetry_cell_setting 'monoclinic'
loop_
_space_group_symop_operation_xyz
x,y,z
-x,y,-z
1/2+x,1/2+y,z
1/2-x,1/2+y,-z
loop_
_atom_site_type_symbol
_atom_site_label
_atom_site_fract_x
_atom_site_fract_y
_atom_site_fract_z
Si Si1 0.422514 0.886370 0.786511
Si Si2 0.000000 0.660547 0.000000
Si Si3 0.206185 0.058770 0.133175
Si Si4 0.800325 0.484588 0.518697
Si Si5 0.629940 0.413402 0.850549
Si Si6 0.627545 0.815908 0.716610
O O1 0.380782 0.643307 0.800980
O O2 0.360059 0.991174 0.661816
O O3 0.534917 0.887983 0.775889
O O4 0.417109 0.010295 0.919636
O O5 0.962263 0.803709 0.106660
O O6 0.289336 0.238867 0.161879
O O7 0.266297 0.852832 0.198118
O O8 0.170211 0.042556 0.982382
O O9 0.753841 0.734920 0.491918
O O10 0.869019 0.439111 0.414665
O O11 0.613625 0.554402 0.721503
#
# Coordination Sequence:
#
# PCOD9130404 Si02
#       6
#     4   2   4   4   4   4
#     4  12  26  49  75 115 158 207 271 341 411 495
#     4  12  26  44  80 122 158 208 272 348 420 492
#     4  12  23  44  70 107 152 201 254 328 414 475
#     4  12  29  53  83 114 160 222 275 339 417 495
#     4  12  24  43  74 110 155 205 263 337 413 492
#     4  12  26  48  72 112 153 209 275 331 412 494
#
# _framework density 24.610522
#
# number of rings (size 3 to 8) (size 9 to 14) (size 15 to 20)
#    0.000    0.000    5.455    4.909    2.545    1.455 
#    0.000    1.818    0.000    0.000    0.000    0.000 
#    0.000    0.000    0.000    0.000    0.000    0.000 
#
# Total GULP energy -61398.702916 kJ/mol
# GULP energy per Si atom -5581.700265 kJ/mol
# Density = 2.455451 g / cm^3
# Si number density = 24.610522 Si / 1000 Ang^3
#
#
#
# Elastic Constant Matrix: (Units=GPa)
#
#
# Indices 1 2 3 4 5 6 
#
# 1 106.5782 44.9736 14.7791 0.0000 -13.3465 0.0000
# 2 44.9736 95.0247 11.1416 0.0000 0.5828 0.0000
# 3 14.7791 11.1416 86.3881 0.0000 13.2460 0.0000
# 4 0.0000 0.0000 0.0000 41.8907 0.0000 -6.3357
# 5 -13.3465 0.5828 13.2460 0.0000 45.1659 0.0000
# 6 0.0000 0.0000 0.0000 -6.3357 0.0000 39.5158
#
#
#
# Elastic Compliance Matrix: (Units=1/GPa)
#
#
# Indices 1 2 3 4 5 6 
#
# 1 0.012667 -0.005776 -0.002102 0.000000 0.004434 0.000000
# 2 -0.005776 0.013322 -0.000463 0.000000 -0.001743 0.000000
# 3 -0.002102 -0.000463 0.012659 0.000000 -0.004328 0.000000
# 4 0.000000 0.000000 0.000000 0.024465 0.000000 0.003923
# 5 0.004434 -0.001743 -0.004328 0.000000 0.024742 0.000000
# 6 0.000000 0.000000 0.000000 0.003923 0.000000 0.025935
#
#
# Mechanical properties :
#
#
# Convention : Reuss Voigt Hill
#
# Bulk Modulus (GPa) = 45.52422 47.75328 46.63875
# Shear Modulus (GPa) = 36.28630 39.78760 38.03695
#
# Velocity S-wave (km/s) = 3.84399 4.02517 3.93562
# Velocity P-wave (km/s) = 6.18382 6.40690 6.29635
#
# Compressibility (1/GPa) = 0.02196633
#
# Stress axis : x y z
#
# Youngs Moduli (GPa) = 78.94704 75.06336 78.99826
#
# Poissons Ratio (x) = 0.43354 0.16605
# Poissons Ratio (y) = 0.45597 0.03656
# Poissons Ratio (z) = 0.16594 0.03474
#
# Static dielectric constant tensor:
#      x y z
#    x 2.000340 0.000000 0.003270 
#    y 0.000000 2.110930 0.000000 
#    z 0.003270 0.000000 1.894590 
# 
# From -- ./inp_files/41074.got.cif
#   From: 2010.05.17/outbox.cif.g08.bks.cpg/sg5_21_cif.got.tgz:41074.got - 2010.06.03 18:56:24.
