data_PCOD9130639
_publ_section_title
;
Structure prediction by ZEFSAII (Michael W. Deem and Ramdas Pophale) SiO2 
 PCOD9130639
Probable space group: C 2
;
_chemical_formula_sum "Si O2"
_cell_formula_units_Z 18
_cell_length_a 5.030821
_cell_length_b 28.622962
_cell_length_c 5.252056
_cell_angle_alpha 90.000000
_cell_angle_beta 87.399685
_cell_angle_gamma 90.000000
_cell_volume 755.501573
_symmetry_space_group_name_H-M "C 2"
_symmetry_group_IT_number 5
_symmetry_cell_setting 'monoclinic'
loop_
_space_group_symop_operation_xyz
x,y,z
-x,y,-z
1/2+x,1/2+y,z
1/2-x,1/2+y,-z
loop_
_atom_site_type_symbol
_atom_site_label
_atom_site_fract_x
_atom_site_fract_y
_atom_site_fract_z
Si Si1 0.500000 0.914551 0.500000
Si Si2 0.500000 0.101683 0.000000
Si Si3 0.730198 0.184686 0.666270
Si Si4 0.317314 0.338857 0.758211
Si Si5 0.500000 0.478799 0.500000
Si Si6 0.500000 0.757275 0.000000
Si Si7 0.000000 0.038786 0.000000
O O1 0.609620 0.880596 0.715836
O O2 0.248722 0.946928 0.573338
O O3 0.376813 0.136548 0.213399
O O4 0.744335 0.070137 0.081876
O O5 0.500000 0.204030 0.500000
O O6 0.796258 0.222733 0.874305
O O7 0.000000 0.176278 0.500000
O O8 0.500000 0.336713 0.500000
O O9 0.150196 0.291669 0.801631
O O10 0.500000 0.345482 0.000000
O O11 0.572732 0.508995 0.247760
#
# Coordination Sequence:
#
# PCOD9130639 Si02
#       7
#     2   2   4   4   2   2   2
#     4  12  28  58  82 123 166 219 270 344 414 494
#     4  12  28  54  79 121 160 217 269 338 414 496
#     4  12  29  50  80 115 167 219 279 336 402 486
#     4  12  30  51  83 118 167 223 284 337 402 489
#     4  12  30  52  88 123 164 207 272 344 424 498
#     4  12  31  46  75 124 166 226 279 340 389 480
#     4  12  29  52  88 125 162 209 270 344 419 506
#
# _framework density 23.825229
#
# number of rings (size 3 to 8) (size 9 to 14) (size 15 to 20)
#    0.000    0.000    1.111    6.000   15.556    1.778 
#    0.000    0.000    0.000    0.000    0.000    0.000 
#    0.000    0.000    0.000    0.000    0.000    0.000 
#
# Total GULP energy -50514.629242 kJ/mol
# GULP energy per Si atom -5612.736582 kJ/mol
# Density = 2.377100 g / cm^3
# Si number density = 23.825229 Si / 1000 Ang^3
#
#
#
# Elastic Constant Matrix: (Units=GPa)
#
#
# Indices 1 2 3 4 5 6 
#
# 1 185.4133 71.5312 56.9849 0.0000 1.3719 0.0000
# 2 71.5312 143.3535 54.7939 0.0000 -0.2080 0.0000
# 3 56.9849 54.7939 141.4429 0.0000 -1.1812 0.0000
# 4 0.0000 0.0000 0.0000 1.9311 0.0000 -14.0336
# 5 1.3719 -0.2080 -1.1812 0.0000 59.4494 0.0000
# 6 0.0000 0.0000 0.0000 -14.0336 0.0000 66.3339
#
#
#
# Elastic Compliance Matrix: (Units=1/GPa)
#
#
# Indices 1 2 3 4 5 6 
#
# 1 0.007024 -0.002844 -0.001730 0.000000 -0.000206 0.000000
# 2 -0.002844 0.009340 -0.002472 0.000000 0.000049 0.000000
# 3 -0.001730 -0.002472 0.008726 0.000000 0.000205 0.000000
# 4 0.000000 0.000000 0.000000 -0.963547 0.000000 -0.203847
# 5 -0.000206 0.000049 0.000205 0.000000 0.016830 0.000000
# 6 0.000000 0.000000 0.000000 -0.203847 0.000000 -0.028051
#
#
# Mechanical properties :
#
#
# Convention : Reuss Voigt Hill
#
# Bulk Modulus (GPa) = 90.92203 92.98109 91.95156
# Shear Modulus (GPa) = -5.36527 44.66952 19.65213
#
# Velocity S-wave (km/s) = -1.50227 4.33469 2.87513
# Velocity P-wave (km/s) = 5.93598 8.01023 7.04981
#
# Compressibility (1/GPa) = 0.01099843
#
# Stress axis : x y z
#
# Youngs Moduli (GPa) = 142.37642 107.06942 114.59713
#
# Poissons Ratio (x) = 0.30449 0.19822
# Poissons Ratio (y) = 0.40489 0.28328
# Poissons Ratio (z) = 0.24628 0.26468
#
# Static dielectric constant tensor:
#      x y z
#    x 1.923210 0.000000 -0.045830 
#    y 0.000000 1.879280 0.000000 
#    z -0.045830 0.000000 1.897540 
# 
# From -- ./inp_files/866.got.cif
#   From: 2010.05.17/outbox.cif.g08.bks.cpg/sg5_1_cif.got.tgz:866.got - 2010.06.03 18:56:24.
