data_PCOD9130931
_publ_section_title
;
Structure prediction by ZEFSAII (Michael W. Deem and Ramdas Pophale) SiO2 
 PCOD9130931
Probable space group: P M
;
_chemical_formula_sum "Si O2"
_cell_formula_units_Z 16
_cell_length_a 8.304466
_cell_length_b 9.162327
_cell_length_c 13.264638
_cell_angle_alpha 90.000000
_cell_angle_beta 53.184600
_cell_angle_gamma 90.000000
_cell_volume 808.001924
_symmetry_space_group_name_H-M "P M"
_symmetry_group_IT_number 6
_symmetry_cell_setting 'monoclinic'
loop_
_space_group_symop_operation_xyz
x,y,z
x,-y,z
loop_
_atom_site_type_symbol
_atom_site_label
_atom_site_fract_x
_atom_site_fract_y
_atom_site_fract_z
Si Si1 0.640400 0.342777 0.432150
Si Si2 0.179340 0.672915 0.370080
Si Si3 0.982719 0.164389 0.043285
Si Si4 0.564498 0.670484 0.685627
Si Si5 0.088040 0.660897 0.186057
Si Si6 0.149447 0.174970 0.771353
Si Si7 0.536537 0.161956 0.302646
Si Si8 0.930607 0.823727 0.642774
O O1 0.531200 0.500000 0.461000
O O2 0.681972 0.327314 0.534145
O O3 0.848961 0.353321 0.294471
O O4 0.540538 0.201782 0.420047
O O5 0.130677 0.500000 0.390008
O O6 0.410804 0.705683 0.305547
O O7 0.151220 0.733199 0.267274
O O8 0.059901 0.758277 0.501639
O O9 0.112881 0.259835 0.071318
O O10 0.755274 0.162190 0.169726
O O11 0.061245 0.000000 0.021288
O O12 0.998086 0.206361 0.921104
O O13 0.536596 0.500000 0.724213
O O14 0.353962 0.744496 0.730530
O O15 0.706675 0.755332 0.711239
O O16 0.179691 0.500000 0.147110
O O17 0.045764 0.217197 0.703987
O O18 0.185997 0.000000 0.752211
O O19 0.449266 0.000000 0.320808
O O20 0.919477 0.000000 0.641832
#
# Coordination Sequence:
#
# PCOD9130931 Si02
#       8
#     2   2   2   2   2   2   2   2
#     4   9  17  33  54  78 110 148 182 227 290 350
#     4  11  21  36  56  85 122 152 185 237 301 359
#     4   9  20  40  60  79 110 151 197 245 290 343
#     4  11  22  38  61  90 123 160 200 245 303 361
#     4   9  18  34  56  80 111 145 182 229 285 348
#     4  10  23  43  62  85 119 162 208 251 298 349
#     4  10  20  33  54  85 113 147 193 240 294 354
#     4  11  23  39  63  92 124 159 201 250 297 358
#
# _framework density 19.801933999999999
#
# number of rings (size 3 to 8) (size 9 to 14) (size 15 to 20)
#    0.000    2.000    1.250    2.250    0.000    6.000 
#    2.250    0.000    0.000    0.000    0.000    0.000 
#    0.000    0.000    0.000    0.000    0.000    0.000 
#
# Total GULP energy -89075.280223 kJ/mol
# GULP energy per Si atom -5567.205014 kJ/mol
# Density = 1.975686 g / cm^3
# Si number density = 19.801934 Si / 1000 Ang^3
#
#
#
# Elastic Constant Matrix: (Units=GPa)
#
#
# Indices 1 2 3 4 5 6 
#
# 1 104.6662 50.8091 37.0790 0.0000 24.1496 0.0000
# 2 50.8091 66.4912 36.3975 0.0000 12.2394 0.0000
# 3 37.0790 36.3975 68.4016 0.0000 29.8100 0.0000
# 4 0.0000 0.0000 0.0000 14.7631 0.0000 10.7172
# 5 24.1496 12.2394 29.8100 0.0000 28.7591 0.0000
# 6 0.0000 0.0000 0.0000 10.7172 0.0000 25.2681
#
#
#
# Elastic Compliance Matrix: (Units=1/GPa)
#
#
# Indices 1 2 3 4 5 6 
#
# 1 0.017509 -0.012450 0.002247 0.000000 -0.011733 0.000000
# 2 -0.012450 0.030455 -0.015256 0.000000 0.013306 0.000000
# 3 0.002247 -0.015256 0.035589 0.000000 -0.032283 0.000000
# 4 0.000000 0.000000 0.000000 0.097871 0.000000 -0.041511
# 5 -0.011733 0.013306 -0.032283 0.000000 0.072424 0.000000
# 6 0.000000 0.000000 0.000000 -0.041511 0.000000 0.057182
#
#
# Mechanical properties :
#
#
# Convention : Reuss Voigt Hill
#
# Bulk Modulus (GPa) = 30.64166 54.23669 42.43917
# Shear Modulus (GPa) = 13.41113 21.44295 17.42704
#
# Velocity S-wave (km/s) = 2.60525 3.29427 2.96981
# Velocity P-wave (km/s) = 4.95555 6.47446 5.76525
#
# Compressibility (1/GPa) = 0.03263531
#
# Stress axis : x y z
#
# Youngs Moduli (GPa) = 57.11367 32.83587 28.09881
#
# Poissons Ratio (x) = 0.40879 -0.06313
# Poissons Ratio (y) = 0.71104 0.42867
# Poissons Ratio (z) = -0.12832 0.50093
#
# Static dielectric constant tensor:
#      x y z
#    x 1.759160 0.000000 -0.007800 
#    y 0.000000 1.740780 0.000000 
#    z -0.007800 0.000000 1.722500 
# 
# From -- ./inp_files/3532.got.cif
#   From: 2010.05.17/outbox.cif.g08.bks.cpg/sg6_2_cif.got.tgz:3532.got - 2010.06.03 19:42:10.
