data_PCOD9130885
_publ_section_title
;
Structure prediction by ZEFSAII (Michael W. Deem and Ramdas Pophale) SiO2 
 PCOD9130885
Probable space group: P M
;
_chemical_formula_sum "Si O2"
_cell_formula_units_Z 16
_cell_length_a 12.562934
_cell_length_b 8.516694
_cell_length_c 10.439874
_cell_angle_alpha 90.000000
_cell_angle_beta 52.504585
_cell_angle_gamma 90.000000
_cell_volume 886.238676
_symmetry_space_group_name_H-M "P M"
_symmetry_group_IT_number 6
_symmetry_cell_setting 'monoclinic'
loop_
_space_group_symop_operation_xyz
x,y,z
x,-y,z
loop_
_atom_site_type_symbol
_atom_site_label
_atom_site_fract_x
_atom_site_fract_y
_atom_site_fract_z
Si Si1 0.390690 0.810414 0.001280
Si Si2 0.672576 0.812810 0.683588
Si Si3 0.104252 0.312365 0.232882
Si Si4 0.108896 0.187699 0.518190
Si Si5 0.693877 0.812443 0.163005
Si Si6 0.822201 0.313530 0.326127
Si Si7 0.406779 0.809656 0.287406
Si Si8 0.834181 0.315090 0.807434
O O1 0.247844 0.736788 0.070959
O O2 0.419762 0.764278 0.128135
O O3 0.378749 0.000000 0.007597
O O4 0.518386 0.765594 0.822853
O O5 0.738845 0.729120 0.514257
O O6 0.756049 0.772687 0.750249
O O7 0.676719 0.000000 0.660375
O O8 0.100192 0.500000 0.256016
O O9 0.092003 0.229409 0.380203
O O10 0.976488 0.267372 0.241168
O O11 0.259997 0.241360 0.442129
O O12 0.989997 0.269182 0.681770
O O13 0.099016 0.000000 0.540637
O O14 0.759727 0.769395 0.249065
O O15 0.538404 0.758734 0.266869
O O16 0.696159 0.000000 0.143211
O O17 0.773258 0.735638 0.987299
O O18 0.818554 0.500000 0.308320
O O19 0.403969 0.000000 0.291564
O O20 0.818008 0.500000 0.799700
#
# Coordination Sequence:
#
# PCOD9130885 Si02
#       8
#     2   2   2   2   2   2   2   2
#     4   9  18  34  57  85 114 143 188 241 283 334
#     4  11  21  37  61  87 113 151 198 240 281 339
#     4  10  20  34  54  83 118 151 187 234 290 342
#     4  10  19  34  58  85 113 148 192 239 283 337
#     4  11  22  40  62  84 113 154 197 235 284 350
#     4  11  24  40  56  84 122 154 189 238 292 345
#     4   8  16  33  56  84 112 141 185 240 283 328
#     4  12  23  36  56  88 121 150 188 241 292 339
#
# _framework density 18.053826000000001
#
# number of rings (size 3 to 8) (size 9 to 14) (size 15 to 20)
#    0.000    1.750    2.500    3.750    0.000    2.500 
#    0.000    3.125    0.000    1.500    0.000    0.000 
#    0.000    0.000    0.000    0.000    0.000    0.000 
#
# Total GULP energy -89334.217156 kJ/mol
# GULP energy per Si atom -5583.388572 kJ/mol
# Density = 1.801273 g / cm^3
# Si number density = 18.053826 Si / 1000 Ang^3
#
#
#
# Elastic Constant Matrix: (Units=GPa)
#
#
# Indices 1 2 3 4 5 6 
#
# 1 121.4204 3.6109 45.1656 0.0000 -26.3444 0.0000
# 2 3.6109 19.0892 -8.3057 0.0000 -10.1901 0.0000
# 3 45.1656 -8.3057 66.5180 0.0000 -21.3006 0.0000
# 4 0.0000 0.0000 0.0000 10.5998 0.0000 22.6387
# 5 -26.3444 -10.1901 -21.3006 0.0000 32.1929 0.0000
# 6 0.0000 0.0000 0.0000 22.6387 0.0000 -47.7139
#
#
#
# Elastic Compliance Matrix: (Units=1/GPa)
#
#
# Indices 1 2 3 4 5 6 
#
# 1 0.011865 -0.003323 -0.007231 0.000000 0.003873 0.000000
# 2 -0.003323 0.087553 0.026889 0.000000 0.042786 0.000000
# 3 -0.007231 0.026889 0.030619 0.000000 0.022853 0.000000
# 4 0.000000 0.000000 0.000000 0.046858 0.000000 0.022233
# 5 0.003873 0.042786 0.022853 0.000000 0.062896 0.000000
# 6 0.000000 0.000000 0.000000 0.022233 0.000000 -0.010410
#
#
# Mechanical properties :
#
#
# Convention : Reuss Voigt Hill
#
# Bulk Modulus (GPa) = 6.14596 31.99657 19.07127
# Shear Modulus (GPa) = 19.92462 10.11955 15.02208
#
# Velocity S-wave (km/s) = 3.32569 2.37010 2.88770
# Velocity P-wave (km/s) = 4.26129 5.02506 4.65885
#
# Compressibility (1/GPa) = 0.16270847
#
# Stress axis : x y z
#
# Youngs Moduli (GPa) = 84.28370 11.42164 32.65963
#
# Poissons Ratio (x) = 0.03795 0.23615
# Poissons Ratio (y) = 0.28006 -0.87820
# Poissons Ratio (z) = 0.60943 -0.30712
#
# Static dielectric constant tensor:
#      x y z
#    x 1.619140 0.000000 -0.034070 
#    y 0.000000 1.613960 0.000000 
#    z -0.034070 0.000000 1.597580 
# 
# From -- ./inp_files/3714.got.cif
#   From: 2010.05.17/outbox.cif.g08.bks.cpg/sg6_2_cif.got.tgz:3714.got - 2010.06.03 19:42:10.
