data_PCOD9130475
_publ_section_title
;
Structure prediction by ZEFSAII (Michael W. Deem and Ramdas Pophale) SiO2 
 PCOD9130475
Probable space group: C 2
;
_chemical_formula_sum "Si O2"
_cell_formula_units_Z 20
_cell_length_a 9.292770
_cell_length_b 19.707014
_cell_length_c 4.916377
_cell_angle_alpha 90.000000
_cell_angle_beta 63.495989
_cell_angle_gamma 90.000000
_cell_volume 805.725698
_symmetry_space_group_name_H-M "C 2"
_symmetry_group_IT_number 5
_symmetry_cell_setting 'monoclinic'
loop_
_space_group_symop_operation_xyz
x,y,z
-x,y,-z
1/2+x,1/2+y,z
1/2-x,1/2+y,-z
loop_
_atom_site_type_symbol
_atom_site_label
_atom_site_fract_x
_atom_site_fract_y
_atom_site_fract_z
Si Si1 0.839175 0.814990 0.837288
Si Si2 0.232350 0.098837 0.699545
Si Si3 0.500000 0.982339 0.500000
Si Si4 0.000000 0.020193 0.500000
Si Si5 0.000000 0.379061 0.000000
Si Si6 0.500000 0.420924 0.000000
Si Si7 0.322693 0.169231 0.133130
O O1 0.856847 0.867075 0.078854
O O2 0.000000 0.820342 0.500000
O O3 0.665115 0.834491 0.858165
O O4 0.837440 0.741792 0.981520
O O5 0.105135 0.067866 0.602732
O O6 0.279277 0.165887 0.485732
O O7 0.353143 0.035408 0.620740
O O8 0.213880 0.125244 0.019954
O O9 0.497683 0.931692 0.250519
O O10 0.957381 0.967284 0.777409
O O11 0.500000 0.135715 0.000000
#
# Coordination Sequence:
#
# PCOD9130475 Si02
#       7
#     4   4   2   2   2   2   4
#     4  12  28  50  78 109 150 200 249 313 368 444
#     4  12  25  44  73 104 146 190 244 306 367 440
#     4  12  24  48  72 110 150 196 246 310 364 456
#     4  12  26  44  70 110 150 190 244 308 378 442
#     4  12  30  46  76 114 150 194 254 302 380 442
#     4  12  24  46  74 104 148 206 240 302 382 440
#     4  12  24  46  73 102 140 197 247 299 369 437
#
# _framework density 24.822344000000001
#
# number of rings (size 3 to 8) (size 9 to 14) (size 15 to 20)
#    0.000    0.000    4.000    6.000    2.800    1.600 
#    0.000    0.000    0.000    0.000    0.000    0.000 
#    0.000    0.000    0.000    0.000    0.000    0.000 
#
# Total GULP energy -55720.740275 kJ/mol
# GULP energy per Si atom -5572.074027 kJ/mol
# Density = 2.476585 g / cm^3
# Si number density = 24.822344 Si / 1000 Ang^3
#
#
#
# Elastic Constant Matrix: (Units=GPa)
#
#
# Indices 1 2 3 4 5 6 
#
# 1 152.6852 40.5272 41.6662 0.0000 19.5375 0.0000
# 2 40.5272 100.6497 52.1093 0.0000 3.7261 0.0000
# 3 41.6662 52.1093 132.0873 0.0000 26.7506 0.0000
# 4 0.0000 0.0000 0.0000 104.2090 0.0000 75.3800
# 5 19.5375 3.7261 26.7506 0.0000 40.2399 0.0000
# 6 0.0000 0.0000 0.0000 75.3800 0.0000 112.9245
#
#
#
# Elastic Compliance Matrix: (Units=1/GPa)
#
#
# Indices 1 2 3 4 5 6 
#
# 1 0.007859 -0.002621 -0.000834 0.000000 -0.003019 0.000000
# 2 -0.002621 0.013572 -0.005236 0.000000 0.003496 0.000000
# 3 -0.000834 -0.005236 0.011231 0.000000 -0.006577 0.000000
# 4 0.000000 0.000000 0.000000 0.018556 0.000000 -0.012387
# 5 -0.003019 0.003496 -0.006577 0.000000 0.030365 0.000000
# 6 0.000000 0.000000 0.000000 -0.012387 0.000000 0.017124
#
#
# Mechanical properties :
#
#
# Convention : Reuss Voigt Hill
#
# Bulk Modulus (GPa) = 65.43858 72.66972 69.05415
# Shear Modulus (GPa) = 41.26059 68.21598 54.73829
#
# Velocity S-wave (km/s) = 4.08148 5.24798 4.70105
# Velocity P-wave (km/s) = 6.97361 8.12781 7.57273
#
# Compressibility (1/GPa) = 0.01528151
#
# Stress axis : x y z
#
# Youngs Moduli (GPa) = 127.24404 73.68117 89.03878
#
# Poissons Ratio (x) = 0.19312 0.07423
# Poissons Ratio (y) = 0.33352 0.46616
# Poissons Ratio (z) = 0.10608 0.38576
#
# Static dielectric constant tensor:
#      x y z
#    x 1.716290 0.000000 -0.786630 
#    y 0.000000 2.019460 0.000000 
#    z -0.786630 0.000000 0.664200 
# 
# From -- ./inp_files/2895.got.cif
#   From: 2010.05.17/outbox.cif.g08.bks.cpg/sg5_2_cif.got.tgz:2895.got - 2010.06.03 18:56:24.
