data_PCOD9130777
_publ_section_title
;
Structure prediction by ZEFSAII (Michael W. Deem and Ramdas Pophale) SiO2 
 PCOD9130777
Probable space group: P M
;
_chemical_formula_sum "Si O2"
_cell_formula_units_Z 16
_cell_length_a 10.780398
_cell_length_b 7.591146
_cell_length_c 12.659824
_cell_angle_alpha 90.000000
_cell_angle_beta 128.185963
_cell_angle_gamma 90.000000
_cell_volume 814.323523
_symmetry_space_group_name_H-M "P M"
_symmetry_group_IT_number 6
_symmetry_cell_setting 'monoclinic'
loop_
_space_group_symop_operation_xyz
x,y,z
x,-y,z
loop_
_atom_site_type_symbol
_atom_site_label
_atom_site_fract_x
_atom_site_fract_y
_atom_site_fract_z
Si Si1 0.286160 0.210477 0.633160
Si Si2 0.872318 0.206339 0.895753
Si Si3 0.086732 0.213433 0.193114
Si Si4 0.758919 0.783135 0.612338
Si Si5 0.597287 0.289419 0.911731
Si Si6 0.938975 0.794543 0.501064
Si Si7 0.810657 0.707075 0.211312
Si Si8 0.402482 0.784610 0.464816
O O1 0.418066 0.243168 0.791163
O O2 0.353966 0.276295 0.556835
O O3 0.112875 0.282105 0.569315
O O4 0.270108 0.000000 0.611504
O O5 0.845308 0.277973 0.764862
O O6 0.710148 0.220236 0.877358
O O7 0.907801 0.000000 0.901320
O O8 0.007382 0.281155 0.043541
O O9 0.262983 0.270720 0.312665
O O10 0.969753 0.264537 0.226795
O O11 0.085554 0.000000 0.189321
O O12 0.846524 0.721428 0.553098
O O13 0.576604 0.727484 0.524030
O O14 0.757227 0.000000 0.612192
O O15 0.613621 0.500000 0.919642
O O16 0.670978 0.224334 0.061364
O O17 0.837367 0.785192 0.340545
O O18 0.964946 0.000000 0.539464
O O19 0.786356 0.500000 0.213544
O O20 0.404105 0.000000 0.467356
#
# Coordination Sequence:
#
# PCOD9130777 Si02
#       8
#     2   2   2   2   2   2   2   2
#     4  10  18  31  51  75 101 129 165 208 247 288
#     4   9  16  29  50  74 100 131 162 198 248 295
#     4   9  16  28  50  76 100 127 163 203 244 292
#     4   9  17  30  49  73 101 130 160 199 246 293
#     4  10  20  32  49  75 102 129 166 210 248 289
#     4  10  20  34  52  74 102 133 166 203 245 297
#     4  10  20  33  49  72 103 133 165 206 250 292
#     4   9  15  27  48  75 101 124 157 201 244 284
#
# _framework density 19.648211
#
# number of rings (size 3 to 8) (size 9 to 14) (size 15 to 20)
#    0.000    2.500    2.500    0.750    0.000    2.000 
#    0.000    1.875    0.000    4.500    0.000    3.500 
#    0.000    0.000    0.000    0.000    0.000    0.000 
#
# Total GULP energy -89249.628592 kJ/mol
# GULP energy per Si atom -5578.101787 kJ/mol
# Density = 1.960349 g / cm^3
# Si number density = 19.648211 Si / 1000 Ang^3
#
#
#
# Elastic Constant Matrix: (Units=GPa)
#
#
# Indices 1 2 3 4 5 6 
#
# 1 133.6150 3.1652 101.0348 0.0000 -5.0999 0.0000
# 2 3.1652 37.9806 -6.9090 0.0000 2.2238 0.0000
# 3 101.0348 -6.9090 173.6221 0.0000 -2.8048 0.0000
# 4 0.0000 0.0000 0.0000 0.2831 0.0000 -6.2282
# 5 -5.0999 2.2238 -2.8048 0.0000 26.0084 0.0000
# 6 0.0000 0.0000 0.0000 -6.2282 0.0000 23.2884
#
#
#
# Elastic Compliance Matrix: (Units=1/GPa)
#
#
# Indices 1 2 3 4 5 6 
#
# 1 0.013723 -0.002730 -0.008061 0.000000 0.002055 0.000000
# 2 -0.002730 0.027186 0.002629 0.000000 -0.002576 0.000000
# 3 -0.008061 0.002629 0.010544 0.000000 -0.000668 0.000000
# 4 0.000000 0.000000 0.000000 -0.723270 0.000000 -0.193431
# 5 0.002055 -0.002576 -0.000668 0.000000 0.039000 0.000000
# 6 0.000000 0.000000 0.000000 -0.193431 0.000000 -0.008791
#
#
# Mechanical properties :
#
#
# Convention : Reuss Voigt Hill
#
# Bulk Modulus (GPa) = 28.46704 59.97775 44.22240
# Shear Modulus (GPa) = -8.14898 26.44441 9.14771
#
# Velocity S-wave (km/s) = -2.03874 3.67262 2.16006
# Velocity P-wave (km/s) = 2.99631 6.96967 5.36443
#
# Compressibility (1/GPa) = 0.03512834
#
# Stress axis : x y z
#
# Youngs Moduli (GPa) = 72.87146 36.78380 94.83720
#
# Poissons Ratio (x) = 0.10043 0.76449
# Poissons Ratio (y) = 0.19896 -0.24933
# Poissons Ratio (z) = 0.58742 -0.09671
#
# Static dielectric constant tensor:
#      x y z
#    x 1.651630 0.000000 0.007480 
#    y 0.000000 1.709940 0.000000 
#    z 0.007480 0.000000 1.714750 
# 
# From -- ./inp_files/3457.got.cif
#   From: 2010.05.17/outbox.cif.g08.bks.cpg/sg6_2_cif.got.tgz:3457.got - 2010.06.03 19:42:10.
