data_PCOD9130438
_publ_section_title
;
Structure prediction by ZEFSAII (Michael W. Deem and Ramdas Pophale) SiO2 
 PCOD9130438
Probable space group: C 2
;
_chemical_formula_sum "Si O2"
_cell_formula_units_Z 20
_cell_length_a 13.272411
_cell_length_b 6.740169
_cell_length_c 24.475426
_cell_angle_alpha 90.000000
_cell_angle_beta 20.146529
_cell_angle_gamma 90.000000
_cell_volume 754.122693
_symmetry_space_group_name_H-M "C 2"
_symmetry_group_IT_number 5
_symmetry_cell_setting 'monoclinic'
loop_
_space_group_symop_operation_xyz
x,y,z
-x,y,-z
1/2+x,1/2+y,z
1/2-x,1/2+y,-z
loop_
_atom_site_type_symbol
_atom_site_label
_atom_site_fract_x
_atom_site_fract_y
_atom_site_fract_z
Si Si1 0.615131 0.654020 0.286976
Si Si2 0.777128 0.340614 0.653493
Si Si3 0.365491 0.780649 0.127231
Si Si4 0.005735 0.461416 0.732961
Si Si5 0.179606 0.179048 0.077794
O O1 0.586070 0.743114 0.361776
O O2 0.596702 0.419020 0.284728
O O3 0.413278 0.781486 0.348987
O O4 0.971199 0.656588 0.095366
O O5 0.000000 0.451451 0.500000
O O6 0.678436 0.150966 0.667526
O O7 0.522318 0.493040 0.801064
O O8 0.244828 0.564062 0.175017
O O9 0.586085 0.743720 0.064799
O O10 0.500000 0.847734 0.000000
O O11 0.902119 0.354498 0.840045
#
# Coordination Sequence:
#
# PCOD9130438 Si02
#       5
#     4   4   4   4   4
#     4  12  24  46  78 114 147 201 258 311 383 447
#     4  12  29  53  75 112 161 203 251 317 386 457
#     4  12  24  42  72 113 150 190 249 318 377 438
#     4  12  25  47  77 108 153 203 253 312 383 452
#     4  12  25  46  81 111 150 199 257 319 374 451
#
# _framework density 26.520880999999999
#
# number of rings (size 3 to 8) (size 9 to 14) (size 15 to 20)
#    0.000    0.000    4.000    7.800    0.000    0.800 
#    7.200    0.000    0.000    0.000    0.000    0.000 
#    0.000    0.000    0.000    0.000    0.000    0.000 
#
# Total GULP energy -55954.716146 kJ/mol
# GULP energy per Si atom -5595.471615 kJ/mol
# Density = 2.646052 g / cm^3
# Si number density = 26.520881 Si / 1000 Ang^3
#
#
#
# Elastic Constant Matrix: (Units=GPa)
#
#
# Indices 1 2 3 4 5 6 
#
# 1 156.2781 55.7690 39.9152 -0.0067 12.2890 0.0013
# 2 55.7690 140.0873 47.8193 -0.0052 4.6228 0.0027
# 3 39.9152 47.8193 102.4552 -0.0640 30.8621 -0.0066
# 4 -0.0067 -0.0052 -0.0640 16.0238 -0.0065 0.3092
# 5 12.2890 4.6228 30.8621 -0.0065 30.8900 0.0001
# 6 0.0013 0.0027 -0.0066 0.3092 0.0001 69.3294
#
#
#
# Elastic Compliance Matrix: (Units=1/GPa)
#
#
# Indices 1 2 3 4 5 6 
#
# 1 0.007784 -0.002559 -0.001460 -0.000004 -0.001255 0.000000
# 2 -0.002559 0.009664 -0.004842 -0.000015 0.004409 -0.000001
# 3 -0.001460 -0.004842 0.017447 0.000061 -0.016125 0.000002
# 4 -0.000004 -0.000015 0.000061 0.062413 -0.000044 -0.000278
# 5 -0.001255 0.004409 -0.016125 -0.000044 0.048323 -0.000002
# 6 0.000000 -0.000001 0.000002 -0.000278 -0.000002 0.014425
#
#
# Mechanical properties :
#
#
# Convention : Reuss Voigt Hill
#
# Bulk Modulus (GPa) = 58.23242 76.20307 67.21774
# Shear Modulus (GPa) = 27.24776 40.26978 33.75877
#
# Velocity S-wave (km/s) = 3.20880 3.90092 3.57166
# Velocity P-wave (km/s) = 5.97774 7.00608 6.51224
#
# Compressibility (1/GPa) = 0.01717256
#
# Stress axis : x y z
#
# Youngs Moduli (GPa) = 128.47547 103.47230 57.31807
#
# Poissons Ratio (x) = 0.26477 0.08369
# Poissons Ratio (y) = 0.32875 0.27754
# Poissons Ratio (z) = 0.18759 0.50102
#
# Static dielectric constant tensor:
#      x y z
#    x 2.089830 0.000000 -0.014160 
#    y 0.000000 2.247940 0.000000 
#    z -0.014160 0.000000 2.143860 
# 
# From -- ./inp_files/70529.got.cif
#   From: 2010.05.17/outbox.cif.g08.bks.cpg/sg5_36_cif.got.tgz:70529.got - 2010.06.03 18:56:24.
