data_PCOD9130706
_publ_section_title
;
Structure prediction by ZEFSAII (Michael W. Deem and Ramdas Pophale) SiO2 
 PCOD9130706
Probable space group: C 2
;
_chemical_formula_sum "Si O2"
_cell_formula_units_Z 16
_cell_length_a 9.000000
_cell_length_b 24.000000
_cell_length_c 15.000000
_cell_angle_alpha 90.000000
_cell_angle_beta 30.000000
_cell_angle_gamma 90.000000
_cell_volume 1620.000000
_symmetry_space_group_name_H-M "C 2"
_symmetry_group_IT_number 5
_symmetry_cell_setting 'monoclinic'
loop_
_space_group_symop_operation_xyz
x,y,z
-x,y,-z
1/2+x,1/2+y,z
1/2-x,1/2+y,-z
loop_
_atom_site_type_symbol
_atom_site_label
_atom_site_fract_x
_atom_site_fract_y
_atom_site_fract_z
Si Si1 0.663016 0.668960 0.642524
Si Si2 0.144273 0.040958 0.666513
Si Si3 0.310696 0.231797 0.380663
Si Si4 0.101117 0.969189 0.859528
Si Si5 0.246652 0.856695 0.002687
Si Si6 0.808294 0.952761 0.509182
Si Si7 0.658838 0.228496 0.010577
Si Si8 0.401656 0.345377 0.712801
O O1 0.544751 0.604896 0.705733
O O2 0.695791 0.691343 0.522035
O O3 0.000000 0.667904 0.500000
O O4 0.482639 0.704456 0.812604
O O5 0.500000 0.042899 0.500000
O O6 0.028832 0.006668 0.811657
O O7 0.082921 0.001641 0.613838
O O8 0.512665 0.213317 0.186069
O O9 0.481787 0.282108 0.342033
O O10 0.000000 0.253192 0.500000
O O11 0.451459 0.958850 0.692432
O O12 0.920099 0.910792 0.948141
O O13 0.000000 0.001037 0.000000
O O14 0.149058 0.795932 0.018915
O O15 0.176094 0.858212 0.144408
O O16 0.604255 0.855416 0.809505
O O17 0.000000 0.957949 0.500000
O O18 0.867195 0.891069 0.440170
O O19 0.500000 0.210729 0.000000
#
# Coordination Sequence:
#
# PCOD9130706 Si02
#       8
#     4   4   4   4   4   4   4   4
#     4  11  24  46  70  95 132 177 227 286 332 395
#     4   9  22  45  66  91 128 172 224 274 328 394
#     4  11  24  41  71  98 135 180 220 275 349 402
#     4  11  22  40  66  95 131 174 213 271 334 391
#     4  10  21  38  63  95 138 167 213 269 328 396
#     4  11  23  40  65  98 129 171 223 268 328 400
#     4  11  23  42  63 100 135 171 224 269 334 412
#     4  10  22  37  62  98 131 170 214 269 325 399
#
# _framework density 9.8765429999999999
#
# number of rings (size 3 to 8) (size 9 to 14) (size 15 to 20)
#    0.000    1.500    2.500    1.875    3.500    4.500 
#    6.750    1.250    0.000    0.000    0.000    0.000 
#    0.000    0.000    0.000    0.000    0.000    0.000 
#
# Total GULP energy -89090.164330 kJ/mol
# GULP energy per Si atom -5568.135271 kJ/mol
# Density = 0.985406 g / cm^3
# Si number density = 9.876543 Si / 1000 Ang^3
#
#
#
# Elastic Constant Matrix: (Units=GPa)
#
#
# Indices 1 2 3 4 5 6 
#
# 1 104.6075 50.4426 38.9811 0.0000 10.4043 0.0000
# 2 50.4426 117.8152 47.7436 0.0000 22.4025 0.0000
# 3 38.9811 47.7436 114.7965 -0.0001 19.4978 0.0000
# 4 0.0000 0.0000 -0.0001 24.3126 0.0000 0.9397
# 5 10.4043 22.4025 19.4978 0.0000 38.8672 0.0000
# 6 0.0000 0.0000 0.0000 0.9397 0.0000 25.8585
#
#
#
# Elastic Compliance Matrix: (Units=1/GPa)
#
#
# Indices 1 2 3 4 5 6 
#
# 1 0.012600 -0.004469 -0.002497 0.000000 0.000456 0.000000
# 2 -0.004469 0.012430 -0.002884 0.000000 -0.004521 0.000000
# 3 -0.002497 -0.002884 0.011328 0.000000 -0.003352 0.000000
# 4 0.000000 0.000000 0.000000 0.041189 0.000000 -0.001497
# 5 0.000456 -0.004521 -0.003352 0.000000 0.029894 0.000000
# 6 0.000000 0.000000 0.000000 -0.001497 0.000000 0.038726
#
#
# Mechanical properties :
#
#
# Convention : Reuss Voigt Hill
#
# Bulk Modulus (GPa) = 60.03667 67.95041 63.99354
# Shear Modulus (GPa) = 29.16817 31.14448 30.15633
#
# Velocity S-wave (km/s) = 3.84687 3.97506 3.91149
# Velocity P-wave (km/s) = 7.08455 7.45270 7.27095
#
# Compressibility (1/GPa) = 0.01665649
#
# Stress axis : x y z
#
# Youngs Moduli (GPa) = 79.36562 80.45151 88.27882
#
# Poissons Ratio (x) = 0.35957 0.22044
# Poissons Ratio (y) = 0.35472 0.25459
# Poissons Ratio (z) = 0.19819 0.23202
#
# Static dielectric constant tensor:
#      x y z
#    x 1.737630 0.000000 -0.019570 
#    y 0.000000 1.683510 0.000000 
#    z -0.019570 0.000000 1.781600 
# 
# From -- ./inp_files/51665.got.cif
#   From: 2010.05.17/outbox.ucp.g08.bks.cvg/sg5_26_cif.got.tgz:51665.got - 2010.06.11 12:53:14.
