data_PCOD9130506
_publ_section_title
;
Structure prediction by ZEFSAII (Michael W. Deem and Ramdas Pophale) SiO2 
 PCOD9130506
Probable space group: C 2
;
_chemical_formula_sum "Si O2"
_cell_formula_units_Z 18
_cell_length_a 10.454600
_cell_length_b 13.378024
_cell_length_c 10.806395
_cell_angle_alpha 90.000000
_cell_angle_beta 27.601955
_cell_angle_gamma 90.000000
_cell_volume 700.272638
_symmetry_space_group_name_H-M "C 2"
_symmetry_group_IT_number 5
_symmetry_cell_setting 'monoclinic'
loop_
_space_group_symop_operation_xyz
x,y,z
-x,y,-z
1/2+x,1/2+y,z
1/2-x,1/2+y,-z
loop_
_atom_site_type_symbol
_atom_site_label
_atom_site_fract_x
_atom_site_fract_y
_atom_site_fract_z
Si Si1 0.101640 0.083940 0.550554
Si Si2 0.000000 0.269351 0.000000
Si Si3 0.508217 0.803724 0.723462
Si Si4 0.510301 0.423278 0.800970
Si Si5 0.355642 0.082329 0.755477
O O1 0.025227 0.186228 0.686559
O O2 0.417759 0.073220 0.329086
O O3 0.000000 0.101876 0.500000
O O4 0.966872 0.979083 0.707446
O O5 0.917997 0.325020 0.195813
O O6 0.750753 0.194777 0.174729
O O7 0.699169 0.867136 0.466726
O O8 0.196253 0.838320 0.979081
O O9 0.401531 0.515872 0.977420
O O10 0.500000 0.052757 0.500000
#
# Coordination Sequence:
#
# PCOD9130506 Si02
#       5
#     4   2   4   4   4
#     4  12  29  55  76 119 170 213 260 344 414 478
#     4  12  26  48  90 116 158 222 286 338 402 490
#     4  12  28  50  81 123 163 215 278 337 410 489
#     4  12  28  52  80 124 159 220 274 337 408 496
#     4  12  24  54  88 114 161 217 279 336 408 481
#
# _framework density 25.704274000000002
#
# number of rings (size 3 to 8) (size 9 to 14) (size 15 to 20)
#    0.000    0.000    6.667    1.333    3.111    1.778 
#    4.000    0.000    0.000    0.000    0.000    0.000 
#    0.000    0.000    0.000    0.000    0.000    0.000 
#
# Total GULP energy -50257.652000 kJ/mol
# GULP energy per Si atom -5584.183556 kJ/mol
# Density = 2.564577 g / cm^3
# Si number density = 25.704274 Si / 1000 Ang^3
#
#
#
# Elastic Constant Matrix: (Units=GPa)
#
#
# Indices 1 2 3 4 5 6 
#
# 1 141.7637 -12.5631 53.4202 -0.0105 7.4612 0.0096
# 2 -12.5631 83.7111 36.5502 0.0074 -8.2711 0.0138
# 3 53.4202 36.5502 174.6435 0.0078 1.0557 0.0206
# 4 -0.0105 0.0074 0.0078 39.1631 0.0270 12.3866
# 5 7.4612 -8.2711 1.0557 0.0270 28.5851 -0.0146
# 6 0.0096 0.0138 0.0206 12.3866 -0.0146 12.7823
#
#
#
# Elastic Compliance Matrix: (Units=1/GPa)
#
#
# Indices 1 2 3 4 5 6 
#
# 1 0.008526 0.002507 -0.003124 0.000007 -0.001385 -0.000013
# 2 0.002507 0.014335 -0.003789 -0.000002 0.003634 -0.000005
# 3 -0.003124 -0.003789 0.007478 0.000001 -0.000557 -0.000007
# 4 0.000007 -0.000002 0.000001 0.036819 -0.000056 -0.035679
# 5 -0.001385 0.003634 -0.000557 -0.000056 0.036417 0.000094
# 6 -0.000013 -0.000005 -0.000007 -0.035679 0.000094 0.112808
#
#
# Mechanical properties :
#
#
# Convention : Reuss Voigt Hill
#
# Bulk Modulus (GPa) = 46.45321 61.65922 54.05621
# Shear Modulus (GPa) = 21.51724 37.62018 29.56871
#
# Velocity S-wave (km/s) = 2.89642 3.82982 3.39535
# Velocity P-wave (km/s) = 5.41268 6.60278 6.03713
#
# Compressibility (1/GPa) = 0.02152704
#
# Stress axis : x y z
#
# Youngs Moduli (GPa) = 117.28311 69.75714 133.72602
#
# Poissons Ratio (x) = -0.17488 0.41781
# Poissons Ratio (y) = -0.29402 0.50669
# Poissons Ratio (z) = 0.36643 0.26431
#
# Static dielectric constant tensor:
#      x y z
#    x 2.085220 -0.000010 -0.027820 
#    y -0.000010 2.003330 0.000020 
#    z -0.027820 0.000020 2.106910 
# 
# From -- ./inp_files/39015.got.cif
#   From: 2010.05.17/outbox.cif.g08.bks.cpg/sg5_20_cif.got.tgz:39015.got - 2010.06.03 18:56:24.
