data_PCOD9130700
_publ_section_title
;
Structure prediction by ZEFSAII (Michael W. Deem and Ramdas Pophale) SiO2 
 PCOD9130700
Probable space group: C 2
;
_chemical_formula_sum "Si O2"
_cell_formula_units_Z 16
_cell_length_a 15.000000
_cell_length_b 18.000000
_cell_length_c 12.000000
_cell_angle_alpha 90.000000
_cell_angle_beta 150.000000
_cell_angle_gamma 90.000000
_cell_volume 1620.000000
_symmetry_space_group_name_H-M "C 2"
_symmetry_group_IT_number 5
_symmetry_cell_setting 'monoclinic'
loop_
_space_group_symop_operation_xyz
x,y,z
-x,y,-z
1/2+x,1/2+y,z
1/2-x,1/2+y,-z
loop_
_atom_site_type_symbol
_atom_site_label
_atom_site_fract_x
_atom_site_fract_y
_atom_site_fract_z
Si Si1 0.696849 0.559250 0.980952
Si Si2 0.787505 0.702562 0.242199
Si Si3 0.500954 0.942655 0.363727
Si Si4 0.920146 0.740428 0.020959
Si Si5 0.787935 0.094306 0.265897
Si Si6 0.611093 0.785579 0.855985
Si Si7 0.245910 0.203650 0.459820
Si Si8 0.221637 0.034650 0.493463
O O1 0.738702 0.569429 0.893050
O O2 0.491817 0.530857 0.760497
O O3 0.728168 0.631066 0.098924
O O4 0.836871 0.499000 0.173092
O O5 0.717628 0.712119 0.294633
O O6 0.000000 0.698219 0.500000
O O7 0.720541 0.770206 0.090086
O O8 0.500000 0.930057 0.500000
O O9 0.457753 0.867212 0.249836
O O10 0.665585 0.979736 0.467451
O O11 0.078431 0.735320 0.285801
O O12 0.836006 0.667163 0.868057
O O13 0.748924 0.766905 0.905948
O O14 0.000000 0.784330 0.000000
O O15 0.751503 0.042365 0.338879
O O16 0.000000 0.111584 0.500000
O O17 0.433595 0.734014 0.674699
O O18 0.271236 0.116578 0.506193
#
# Coordination Sequence:
#
# PCOD9130700 Si02
#       8
#     4   4   4   4   4   4   4   4
#     4  11  23  45  75 106 144 187 239 309 360 430
#     4  12  22  45  77 110 143 186 253 304 365 440
#     4  12  30  48  69 102 147 195 243 300 378 447
#     4  12  24  39  72 106 140 187 241 299 360 433
#     4  10  20  40  71 110 145 180 238 300 359 428
#     4  12  28  49  67 105 152 193 239 305 374 444
#     4  12  24  42  76 108 140 188 243 310 362 429
#     4  11  23  44  73 108 140 189 247 295 366 434
#
# _framework density 9.8765429999999999
#
# number of rings (size 3 to 8) (size 9 to 14) (size 15 to 20)
#    0.000    0.500    5.000    3.750    1.750    2.500 
#    4.500    0.625    0.000    0.000    0.000    0.000 
#    0.000    0.000    0.000    0.000    0.000    0.000 
#
# Total GULP energy -89102.707354 kJ/mol
# GULP energy per Si atom -5568.919210 kJ/mol
# Density = 0.985406 g / cm^3
# Si number density = 9.876543 Si / 1000 Ang^3
#
#
#
# Elastic Constant Matrix: (Units=GPa)
#
#
# Indices 1 2 3 4 5 6 
#
# 1 184.2171 50.0460 53.2065 0.0000 -10.5270 0.0000
# 2 50.0460 87.3538 47.4118 0.0000 -3.4227 0.0000
# 3 53.2065 47.4118 135.5980 0.0000 -11.6252 0.0000
# 4 0.0000 0.0000 0.0000 28.4732 0.0000 -4.6608
# 5 -10.5270 -3.4227 -11.6252 0.0000 57.3513 0.0000
# 6 0.0000 0.0000 0.0000 -4.6608 0.0000 26.8671
#
#
#
# Elastic Compliance Matrix: (Units=1/GPa)
#
#
# Indices 1 2 3 4 5 6 
#
# 1 0.006726 -0.002995 -0.001528 0.000000 0.000746 0.000000
# 2 -0.002995 0.015464 -0.004274 0.000000 -0.000493 0.000000
# 3 -0.001528 -0.004274 0.009590 0.000000 0.001408 0.000000
# 4 0.000000 0.000000 0.000000 0.036147 0.000000 0.006271
# 5 0.000746 -0.000493 0.001408 0.000000 0.017829 0.000000
# 6 0.000000 0.000000 0.000000 0.006271 0.000000 0.038308
#
#
# Mechanical properties :
#
#
# Convention : Reuss Voigt Hill
#
# Bulk Modulus (GPa) = 70.49485 78.72194 74.60840
# Shear Modulus (GPa) = 34.15615 39.63861 36.89738
#
# Velocity S-wave (km/s) = 4.16282 4.48449 4.32664
# Velocity P-wave (km/s) = 7.67274 8.17029 7.92542
#
# Compressibility (1/GPa) = 0.01418543
#
# Stress axis : x y z
#
# Youngs Moduli (GPa) = 148.67805 64.66660 104.28060
#
# Poissons Ratio (x) = 0.19366 0.15935
# Poissons Ratio (y) = 0.44526 0.44571
# Poissons Ratio (z) = 0.22719 0.27639
#
# Static dielectric constant tensor:
#      x y z
#    x 1.786460 0.000000 0.014400 
#    y 0.000000 1.723040 0.000000 
#    z 0.014400 0.000000 1.721590 
# 
# From -- ./inp_files/43377.got.cif
#   From: 2010.05.17/outbox.ucp.g08.bks.cvg/sg5_22_cif.got.tgz:43377.got - 2010.06.11 12:53:14.
