data_PCOD9130836
_publ_section_title
;
Structure prediction by ZEFSAII (Michael W. Deem and Ramdas Pophale) SiO2 
 PCOD9130836
Probable space group: P M
;
_chemical_formula_sum "Si O2"
_cell_formula_units_Z 16
_cell_length_a 11.764498
_cell_length_b 8.069631
_cell_length_c 7.452483
_cell_angle_alpha 90.000000
_cell_angle_beta 107.272313
_cell_angle_gamma 90.000000
_cell_volume 675.597385
_symmetry_space_group_name_H-M "P M"
_symmetry_group_IT_number 6
_symmetry_cell_setting 'monoclinic'
loop_
_space_group_symop_operation_xyz
x,y,z
x,-y,z
loop_
_atom_site_type_symbol
_atom_site_label
_atom_site_fract_x
_atom_site_fract_y
_atom_site_fract_z
Si Si1 0.602260 0.310973 0.704210
Si Si2 0.110975 0.700645 0.943883
Si Si3 0.856655 0.702462 0.797125
Si Si4 0.121987 0.306699 0.522461
Si Si5 0.867902 0.806225 0.383829
Si Si6 0.616782 0.804805 0.318001
Si Si7 0.355640 0.184263 0.708274
Si Si8 0.363921 0.312739 0.088716
O O1 0.584461 0.500000 0.757743
O O2 0.731802 0.247325 0.827216
O O3 0.614260 0.304578 0.495267
O O4 0.486160 0.204927 0.689466
O O5 0.115827 0.500000 0.961902
O O6 0.109957 0.738581 0.729453
O O7 0.980500 0.754890 0.946994
O O8 0.235300 0.760057 0.086319
O O9 0.855755 0.500000 0.785056
O O10 0.860081 0.771547 0.595556
O O11 0.144789 0.500000 0.514785
O O12 0.243911 0.215978 0.525334
O O13 0.991798 0.274009 0.380052
O O14 0.734619 0.753389 0.261046
O O15 0.881010 0.000000 0.356706
O O16 0.486336 0.782768 0.175369
O O17 0.632835 0.000000 0.369720
O O18 0.342617 0.000000 0.777553
O O19 0.349987 0.314325 0.867043
O O20 0.376931 0.500000 0.165569
#
# Coordination Sequence:
#
# PCOD9130836 Si02
#       8
#     2   2   2   2   2   2   2   2
#     4  10  19  32  51  74  99 130 167 204 245 296
#     4   7  12  24  43  67  91 116 151 197 240 278
#     4   8  14  26  45  67  92 122 157 199 243 286
#     4   9  16  28  46  68  94 123 160 202 241 288
#     4   9  16  26  43  68  96 124 157 200 247 289
#     4  10  20  33  49  73 104 134 165 204 250 295
#     4  11  21  33  50  73 102 132 162 203 254 299
#     4  10  19  32  51  74 100 131 167 205 246 295
#
# _framework density 23.682742000000001
#
# number of rings (size 3 to 8) (size 9 to 14) (size 15 to 20)
#    0.000    2.750    0.000    4.500    0.000    2.000 
#    0.000    0.625    0.000    1.500    0.000    1.750 
#    0.000    0.000    0.000    0.000    0.000    0.000 
#
# Total GULP energy -89140.739432 kJ/mol
# GULP energy per Si atom -5571.296214 kJ/mol
# Density = 2.362884 g / cm^3
# Si number density = 23.682742 Si / 1000 Ang^3
#
#
#
# Elastic Constant Matrix: (Units=GPa)
#
#
# Indices 1 2 3 4 5 6 
#
# 1 174.0629 26.6073 48.2954 0.0000 80.8684 0.0000
# 2 26.6073 54.7369 -2.8227 0.0000 16.9227 0.0000
# 3 48.2954 -2.8227 57.6946 0.0000 20.9198 0.0000
# 4 0.0000 0.0000 0.0000 12.1792 0.0000 7.0494
# 5 80.8684 16.9227 20.9198 0.0000 53.0470 0.0000
# 6 0.0000 0.0000 0.0000 7.0494 0.0000 18.0441
#
#
#
# Elastic Compliance Matrix: (Units=1/GPa)
#
#
# Indices 1 2 3 4 5 6 
#
# 1 0.022218 -0.001852 -0.007727 0.000000 -0.030232 0.000000
# 2 -0.001852 0.021201 0.004686 0.000000 -0.005789 0.000000
# 3 -0.007727 0.004686 0.023688 0.000000 0.000942 0.000000
# 4 0.000000 0.000000 0.000000 0.106098 0.000000 -0.041450
# 5 -0.030232 -0.005789 0.000942 0.000000 0.066414 0.000000
# 6 0.000000 0.000000 0.000000 -0.041450 0.000000 0.071613
#
#
# Mechanical properties :
#
#
# Convention : Reuss Voigt Hill
#
# Bulk Modulus (GPa) = 17.44529 47.85049 32.64789
# Shear Modulus (GPa) = 14.70055 30.94836 22.82446
#
# Velocity S-wave (km/s) = 2.49415 3.61888 3.10781
# Velocity P-wave (km/s) = 3.95937 6.14087 5.16657
#
# Compressibility (1/GPa) = 0.05732206
#
# Stress axis : x y z
#
# Youngs Moduli (GPa) = 45.00956 47.16858 42.21531
#
# Poissons Ratio (x) = 0.08734 0.32618
# Poissons Ratio (y) = 0.08334 -0.19783
# Poissons Ratio (z) = 0.34777 -0.22104
#
# Static dielectric constant tensor:
#      x y z
#    x 2.039980 0.000000 0.047670 
#    y 0.000000 1.804790 0.000000 
#    z 0.047670 0.000000 1.979380 
# 
# From -- ./inp_files/3492.got.cif
#   From: 2010.05.17/outbox.cif.g08.bks.cpg/sg6_2_cif.got.tgz:3492.got - 2010.06.03 19:42:10.
