data_PCOD9130578
_publ_section_title
;
Structure prediction by ZEFSAII (Michael W. Deem and Ramdas Pophale) SiO2 
 PCOD9130578
Probable space group: C 2
;
_chemical_formula_sum "Si O2"
_cell_formula_units_Z 22
_cell_length_a 14.159475
_cell_length_b 5.370214
_cell_length_c 11.772905
_cell_angle_alpha 90.000000
_cell_angle_beta 86.934081
_cell_angle_gamma 90.000000
_cell_volume 893.923419
_symmetry_space_group_name_H-M "C 2"
_symmetry_group_IT_number 5
_symmetry_cell_setting 'monoclinic'
loop_
_space_group_symop_operation_xyz
x,y,z
-x,y,-z
1/2+x,1/2+y,z
1/2-x,1/2+y,-z
loop_
_atom_site_type_symbol
_atom_site_label
_atom_site_fract_x
_atom_site_fract_y
_atom_site_fract_z
Si Si1 0.000000 0.915431 0.500000
Si Si2 0.564410 0.775826 0.860573
Si Si3 0.144786 0.625743 0.389425
Si Si4 0.153798 0.775782 0.960007
Si Si5 0.643128 0.789426 0.603432
Si Si6 0.646283 0.924117 0.148391
O O1 0.047500 0.777732 0.388929
O O2 0.088676 0.071251 0.540547
O O3 0.603825 0.521169 0.913258
O O4 0.594283 0.796576 0.727725
O O5 0.607552 0.026790 0.911484
O O6 0.451716 0.793603 0.875547
O O7 0.245466 0.759303 0.383328
O O8 0.132951 0.513468 0.516016
O O9 0.151644 0.437695 0.284013
O O10 0.262232 0.794773 0.911982
O O11 0.148001 0.705498 0.094331
#
# Coordination Sequence:
#
# PCOD9130578 Si02
#       6
#     2   4   4   4   4   4
#     4  12  26  50  80 114 162 210 268 326 428 478
#     4  12  30  54  86 117 166 212 277 345 408 493
#     4  12  27  50  82 118 163 213 269 345 404 502
#     4  12  30  54  80 122 160 221 276 337 405 488
#     4  12  27  50  81 120 158 212 272 339 416 487
#     4  12  29  53  83 117 167 219 278 337 418 478
#
# _framework density 24.610609
#
# number of rings (size 3 to 8) (size 9 to 14) (size 15 to 20)
#    0.000    0.000    3.636    4.364    7.636    8.727 
#    3.273    0.000    0.000    0.000    0.000    0.000 
#    0.000    0.000    0.000    0.000    0.000    0.000 
#
# Total GULP energy -61609.371558 kJ/mol
# GULP energy per Si atom -5600.851960 kJ/mol
# Density = 2.455459 g / cm^3
# Si number density = 24.610609 Si / 1000 Ang^3
#
#
#
# Elastic Constant Matrix: (Units=GPa)
#
#
# Indices 1 2 3 4 5 6 
#
# 1 194.2896 33.7359 14.3752 0.0000 -27.2576 0.0000
# 2 33.7359 90.7371 21.2514 0.0000 -4.4437 0.0000
# 3 14.3752 21.2514 124.4412 0.0000 -26.8682 0.0000
# 4 0.0000 0.0000 0.0000 31.6507 0.0000 -1.2915
# 5 -27.2576 -4.4437 -26.8682 0.0000 47.8771 0.0000
# 6 0.0000 0.0000 0.0000 -1.2915 0.0000 44.5874
#
#
#
# Elastic Compliance Matrix: (Units=1/GPa)
#
#
# Indices 1 2 3 4 5 6 
#
# 1 0.005971 -0.002150 0.000419 0.000000 0.003435 0.000000
# 2 -0.002150 0.012254 -0.002120 0.000000 -0.001276 0.000000
# 3 0.000419 -0.002120 0.009511 0.000000 0.005379 0.000000
# 4 0.000000 0.000000 0.000000 0.031632 0.000000 0.000916
# 5 0.003435 -0.001276 0.005379 0.000000 0.025743 0.000000
# 6 0.000000 0.000000 0.000000 0.000916 0.000000 0.022454
#
#
# Mechanical properties :
#
#
# Convention : Reuss Voigt Hill
#
# Bulk Modulus (GPa) = 49.91334 60.91031 55.41182
# Shear Modulus (GPa) = 41.00178 47.49673 44.24926
#
# Velocity S-wave (km/s) = 4.08612 4.39786 4.24485
# Velocity P-wave (km/s) = 6.52588 7.11278 6.82564
#
# Compressibility (1/GPa) = 0.02003472
#
# Stress axis : x y z
#
# Youngs Moduli (GPa) = 167.47041 81.60456 105.14153
#
# Poissons Ratio (x) = 0.17545 -0.04406
# Poissons Ratio (y) = 0.36006 0.22289
# Poissons Ratio (z) = -0.07018 0.17300
#
# Static dielectric constant tensor:
#      x y z
#    x 1.887150 0.000000 0.049290 
#    y 0.000000 2.058040 0.000000 
#    z 0.049290 0.000000 1.995400 
# 
# From -- ./inp_files/41126.got.cif
#   From: 2010.05.17/outbox.cif.g08.bks.cpg/sg5_21_cif.got.tgz:41126.got - 2010.06.03 18:56:24.
