data_PCOD9130604
_publ_section_title
;
Structure prediction by ZEFSAII (Michael W. Deem and Ramdas Pophale) SiO2 
 PCOD9130604
Probable space group: C 2
;
_chemical_formula_sum "Si O2"
_cell_formula_units_Z 14
_cell_length_a 8.853537
_cell_length_b 4.862075
_cell_length_c 18.087182
_cell_angle_alpha 90.000000
_cell_angle_beta 135.331120
_cell_angle_gamma 90.000000
_cell_volume 547.356102
_symmetry_space_group_name_H-M "C 2"
_symmetry_group_IT_number 5
_symmetry_cell_setting 'monoclinic'
loop_
_space_group_symop_operation_xyz
x,y,z
-x,y,-z
1/2+x,1/2+y,z
1/2-x,1/2+y,-z
loop_
_atom_site_type_symbol
_atom_site_label
_atom_site_fract_x
_atom_site_fract_y
_atom_site_fract_z
Si Si1 0.028135 0.285790 0.355922
Si Si2 0.786684 0.803901 0.212208
Si Si3 0.821332 0.525715 0.069724
Si Si4 0.500000 0.488073 0.500000
O O1 0.906640 0.571961 0.301187
O O2 0.972146 0.169284 0.416928
O O3 0.282581 0.319249 0.436877
O O4 0.941609 0.066613 0.266394
O O5 0.746412 0.670005 0.118558
O O6 0.561949 0.914784 0.164157
O O7 0.814511 0.766442 0.005946
#
# Coordination Sequence:
#
# PCOD9130604 Si02
#       4
#     4   4   4   2
#     4  12  29  52  79 115 156 203 257 316 383 454
#     4  12  28  50  78 113 154 201 254 316 380 454
#     4  12  27  50  78 113 154 201 254 314 381 454
#     4  12  30  52  80 114 156 204 256 318 382 456
#
# _framework density 25.577497000000001
#
# number of rings (size 3 to 8) (size 9 to 14) (size 15 to 20)
#    0.000    0.000    0.000    7.714    0.000   21.714 
#    0.000    0.000    0.000    0.000    0.000    0.000 
#    0.000    0.000    0.000    0.000    0.000    0.000 
#
# Total GULP energy -39368.297356 kJ/mol
# GULP energy per Si atom -5624.042479 kJ/mol
# Density = 2.551928 g / cm^3
# Si number density = 25.577497 Si / 1000 Ang^3
#
#
#
# Elastic Constant Matrix: (Units=GPa)
#
#
# Indices 1 2 3 4 5 6 
#
# 1 87.6736 24.4206 21.4948 -0.0006 -2.5200 0.0007
# 2 24.4206 155.0732 40.5422 -0.0015 14.4071 0.0026
# 3 21.4948 40.5422 98.4266 -0.0003 12.8551 0.0005
# 4 -0.0006 -0.0015 -0.0003 56.4907 -0.0001 19.3534
# 5 -2.5200 14.4071 12.8551 -0.0001 28.7100 0.0000
# 6 0.0007 0.0026 0.0005 19.3534 0.0000 25.8972
#
#
#
# Elastic Compliance Matrix: (Units=1/GPa)
#
#
# Indices 1 2 3 4 5 6 
#
# 1 0.012547 -0.001610 -0.002471 0.000000 0.003016 0.000000
# 2 -0.001610 0.007597 -0.002402 0.000001 -0.002878 -0.000001
# 3 -0.002471 -0.002402 0.012278 0.000000 -0.004509 0.000000
# 4 0.000000 0.000001 0.000000 0.023794 0.000000 -0.017782
# 5 0.003016 -0.002878 -0.004509 0.000000 0.038559 0.000000
# 6 0.000000 -0.000001 0.000000 -0.017782 0.000000 0.051903
#
#
# Mechanical properties :
#
#
# Convention : Reuss Voigt Hill
#
# Bulk Modulus (GPa) = 51.39616 57.12096 54.25856
# Shear Modulus (GPa) = 30.09719 39.20062 34.64890
#
# Velocity S-wave (km/s) = 3.43404 3.91912 3.68457
# Velocity P-wave (km/s) = 5.98844 6.54678 6.27382
#
# Compressibility (1/GPa) = 0.01945670
#
# Stress axis : x y z
#
# Youngs Moduli (GPa) = 79.70143 131.62256 81.44877
#
# Poissons Ratio (x) = 0.21192 0.20123
# Poissons Ratio (y) = 0.12832 0.19563
# Poissons Ratio (z) = 0.19692 0.31614
#
# Static dielectric constant tensor:
#      x y z
#    x 1.958070 0.000000 -0.031730 
#    y 0.000000 1.951320 0.000000 
#    z -0.031730 0.000000 1.997670 
# 
# From -- ./inp_files/59108.got.cif
#   From: 2010.05.17/outbox.cif.g08.bks.cpg/sg5_30_cif.got.tgz:59108.got - 2010.06.03 18:56:24.
