data_PCOD9130804
_publ_section_title
;
Structure prediction by ZEFSAII (Michael W. Deem and Ramdas Pophale) SiO2 
 PCOD9130804
Probable space group: P M
;
_chemical_formula_sum "Si O2"
_cell_formula_units_Z 16
_cell_length_a 12.604226
_cell_length_b 7.676619
_cell_length_c 10.513878
_cell_angle_alpha 90.000000
_cell_angle_beta 53.267171
_cell_angle_gamma 90.000000
_cell_volume 815.297988
_symmetry_space_group_name_H-M "P M"
_symmetry_group_IT_number 6
_symmetry_cell_setting 'monoclinic'
loop_
_space_group_symop_operation_xyz
x,y,z
x,-y,z
loop_
_atom_site_type_symbol
_atom_site_label
_atom_site_fract_x
_atom_site_fract_y
_atom_site_fract_z
Si Si1 0.361280 0.210088 0.832970
Si Si2 0.340326 0.786671 0.552240
Si Si3 0.626736 0.798409 0.315950
Si Si4 0.058881 0.794912 0.676509
Si Si5 0.908029 0.785777 0.033600
Si Si6 0.925134 0.295941 0.510232
Si Si7 0.653492 0.705779 0.588412
Si Si8 0.089477 0.210856 0.142826
O O1 0.331462 0.261864 0.707828
O O2 0.510404 0.268995 0.755563
O O3 0.362126 0.000000 0.834799
O O4 0.239914 0.269755 0.007844
O O5 0.480993 0.721617 0.398573
O O6 0.208970 0.725999 0.574913
O O7 0.346756 0.000000 0.544774
O O8 0.758132 0.721926 0.159468
O O9 0.647079 0.792394 0.454049
O O10 0.621334 0.000000 0.279527
O O11 0.988043 0.777034 0.593070
O O12 0.072159 0.000000 0.693605
O O13 0.973407 0.725242 0.855670
O O14 0.997759 0.734415 0.089703
O O15 0.905049 0.000000 0.037289
O O16 0.908533 0.500000 0.545155
O O17 0.780136 0.225994 0.574787
O O18 0.022811 0.269805 0.321001
O O19 0.672800 0.500000 0.552184
O O20 0.090301 0.000000 0.143572
#
# Coordination Sequence:
#
# PCOD9130804 Si02
#       8
#     2   2   2   2   2   2   2   2
#     4   9  17  31  55  83 107 129 166 221 272 315
#     4   8  14  27  49  77 104 130 162 208 263 311
#     4   9  16  29  53  80 105 131 166 217 269 312
#     4  10  19  34  54  75 104 141 177 217 265 314
#     4   9  16  29  54  84 105 126 168 222 267 307
#     4  11  24  38  50  73 111 150 183 215 256 312
#     4  10  20  33  49  73 108 144 178 214 256 308
#     4  10  18  33  58  85 106 131 174 224 270 315
#
# _framework density 19.624728000000001
#
# number of rings (size 3 to 8) (size 9 to 14) (size 15 to 20)
#    0.000    2.500    2.500    1.500    0.000    2.000 
#    0.000    5.000    0.000    3.000    0.000    0.000 
#    0.000    0.000    0.000    0.000    0.000    0.000 
#
# Total GULP energy -89233.966606 kJ/mol
# GULP energy per Si atom -5577.122913 kJ/mol
# Density = 1.958006 g / cm^3
# Si number density = 19.624728 Si / 1000 Ang^3
#
#
#
# Elastic Constant Matrix: (Units=GPa)
#
#
# Indices 1 2 3 4 5 6 
#
# 1 155.3101 -6.8609 84.2250 0.0000 -32.3331 0.0000
# 2 -6.8609 30.8108 -8.5894 0.0000 -4.2725 0.0000
# 3 84.2250 -8.5894 112.5689 0.0000 -22.1880 0.0000
# 4 0.0000 0.0000 0.0000 -233.1467 0.0000 -296.9700
# 5 -32.3331 -4.2725 -22.1880 0.0000 36.8906 0.0000
# 6 0.0000 0.0000 0.0000 -296.9700 0.0000 -380.1080
#
#
#
# Elastic Compliance Matrix: (Units=1/GPa)
#
#
# Indices 1 2 3 4 5 6 
#
# 1 0.011862 0.001355 -0.007592 0.000000 0.005988 0.000000
# 2 0.001355 0.034565 0.003003 0.000000 0.006997 0.000000
# 3 -0.007592 0.003003 0.015372 0.000000 0.002940 0.000000
# 4 0.000000 0.000000 0.000000 -0.884585 0.000000 0.691107
# 5 0.005988 0.006997 0.002940 0.000000 0.034933 0.000000
# 6 0.000000 0.000000 0.000000 0.691107 0.000000 -0.542578
#
#
# Mechanical properties :
#
#
# Convention : Reuss Voigt Hill
#
# Bulk Modulus (GPa) = 18.07278 48.47101 33.27190
# Shear Modulus (GPa) = -3.82990 -99.94513 -51.88751
#
# Velocity S-wave (km/s) = -1.39850 -7.14414 -5.14755
# Velocity P-wave (km/s) = 2.57322 6.58020 4.28238
#
# Compressibility (1/GPa) = 0.05533183
#
# Stress axis : x y z
#
# Youngs Moduli (GPa) = 84.30187 28.93076 65.05266
#
# Poissons Ratio (x) = -0.03921 0.49386
# Poissons Ratio (y) = -0.11426 -0.19532
# Poissons Ratio (z) = 0.64000 -0.08687
#
# Static dielectric constant tensor:
#      x y z
#    x 1.704380 0.000000 -0.049140 
#    y 0.000000 1.757160 0.000000 
#    z -0.049140 0.000000 1.668040 
# 
# From -- ./inp_files/3509.got.cif
#   From: 2010.05.17/outbox.cif.g08.bks.cpg/sg6_2_cif.got.tgz:3509.got - 2010.06.03 19:42:10.
