data_PCOD9130116
_publ_section_title
;
Structure prediction by ZEFSAII (Michael W. Deem and Ramdas Pophale) SiO2 
 PCOD9130116
Probable space group: C 2
;
_chemical_formula_sum "Si O2"
_cell_formula_units_Z 18
_cell_length_a 14.913153
_cell_length_b 10.359987
_cell_length_c 5.725996
_cell_angle_alpha 90.000000
_cell_angle_beta 59.905390
_cell_angle_gamma 90.000000
_cell_volume 765.412464
_symmetry_space_group_name_H-M "C 2"
_symmetry_group_IT_number 5
_symmetry_cell_setting 'monoclinic'
loop_
_space_group_symop_operation_xyz
x,y,z
-x,y,-z
1/2+x,1/2+y,z
1/2-x,1/2+y,-z
loop_
_atom_site_type_symbol
_atom_site_label
_atom_site_fract_x
_atom_site_fract_y
_atom_site_fract_z
Si Si1 0.238995 0.761840 0.745232
Si Si2 0.565008 0.685739 0.216546
Si Si3 0.598340 0.102107 0.199988
Si Si4 0.215571 0.044553 0.693828
Si Si5 0.500000 0.902592 0.000000
O O1 0.334791 0.757041 0.802276
O O2 0.261117 0.642690 0.544349
O O3 0.222021 0.893635 0.626548
O O4 0.134969 0.732927 0.028018
O O5 0.500000 0.613967 0.500000
O O6 0.487739 0.798236 0.223337
O O7 0.611530 0.592830 0.958937
O O8 0.500000 0.109772 0.500000
O O9 0.693805 0.059362 0.233759
O O10 0.579686 0.000417 0.014884
#
# Coordination Sequence:
#
# PCOD9130116 Si02
#       5
#     4   4   4   4   2
#     4  11  26  46  71 110 148 189 237 303 364 428
#     4  11  25  43  73 106 142 193 246 293 356 432
#     4  11  25  43  73 106 142 193 246 293 356 432
#     4  11  26  46  71 110 148 189 237 303 364 428
#     4  12  22  44  74 106 138 192 244 292 350 442
#
# _framework density 23.516732000000001
#
# number of rings (size 3 to 8) (size 9 to 14) (size 15 to 20)
#    0.000    0.889    2.222    3.333    9.333    2.667 
#    0.000    7.778    0.000    0.000    0.000    0.000 
#    0.000    0.000    0.000    0.000    0.000    0.000 
#
# Total GULP energy -50256.733890 kJ/mol
# GULP energy per Si atom -5584.081543 kJ/mol
# Density = 2.346321 g / cm^3
# Si number density = 23.516732 Si / 1000 Ang^3
#
#
#
# Elastic Constant Matrix: (Units=GPa)
#
#
# Indices 1 2 3 4 5 6 
#
# 1 97.5405 18.7827 25.5653 0.0000 6.7632 0.0000
# 2 18.7827 135.4310 50.3288 0.0000 -2.6339 0.0000
# 3 25.5653 50.3288 129.6154 0.0000 -30.0469 0.0000
# 4 0.0000 0.0000 0.0000 32.3368 0.0000 12.9050
# 5 6.7632 -2.6339 -30.0469 0.0000 46.7164 0.0000
# 6 0.0000 0.0000 0.0000 12.9050 0.0000 26.4371
#
#
#
# Elastic Compliance Matrix: (Units=1/GPa)
#
#
# Indices 1 2 3 4 5 6 
#
# 1 0.011346 -0.000595 -0.002815 0.000000 -0.003487 0.000000
# 2 -0.000595 0.008816 -0.003726 0.000000 -0.001813 0.000000
# 3 -0.002815 -0.003726 0.011474 0.000000 0.007577 0.000000
# 4 0.000000 0.000000 0.000000 0.038406 0.000000 -0.018748
# 5 -0.003487 -0.001813 0.007577 0.000000 0.026682 0.000000
# 6 0.000000 0.000000 0.000000 -0.018748 0.000000 0.046977
#
#
# Mechanical properties :
#
#
# Convention : Reuss Voigt Hill
#
# Bulk Modulus (GPa) = 57.59383 61.32673 59.46028
# Shear Modulus (GPa) = 30.53215 38.95872 34.74544
#
# Velocity S-wave (km/s) = 3.60712 4.07460 3.84797
# Velocity P-wave (km/s) = 6.47242 6.94773 6.71428
#
# Compressibility (1/GPa) = 0.01736297
#
# Stress axis : x y z
#
# Youngs Moduli (GPa) = 88.13380 113.43260 87.15594
#
# Poissons Ratio (x) = 0.06752 0.24535
# Poissons Ratio (y) = 0.05246 0.32475
# Poissons Ratio (z) = 0.24811 0.42266
#
# Static dielectric constant tensor:
#      x y z
#    x 1.908680 0.000000 0.009190 
#    y 0.000000 1.880810 0.000000 
#    z 0.009190 0.000000 1.901590 
# 
# From -- ./inp_files/7988.got.cif
#   From: 2010.05.17/outbox.cif.g08.bks.cpg/sg5_4_cif.got.tgz:7988.got - 2010.06.03 18:56:24.
