data_PCOD9130759
_publ_section_title
;
Structure prediction by ZEFSAII (Michael W. Deem and Ramdas Pophale) SiO2 
 PCOD9130759
Probable space group: P M
;
_chemical_formula_sum "Si O2"
_cell_formula_units_Z 16
_cell_length_a 10.683005
_cell_length_b 7.545471
_cell_length_c 16.900068
_cell_angle_alpha 90.000000
_cell_angle_beta 143.506588
_cell_angle_gamma 90.000000
_cell_volume 810.192731
_symmetry_space_group_name_H-M "P M"
_symmetry_group_IT_number 6
_symmetry_cell_setting 'monoclinic'
loop_
_space_group_symop_operation_xyz
x,y,z
x,-y,z
loop_
_atom_site_type_symbol
_atom_site_label
_atom_site_fract_x
_atom_site_fract_y
_atom_site_fract_z
Si Si1 0.583790 0.796557 0.026080
Si Si2 0.289520 0.295430 0.019604
Si Si3 0.516973 0.211396 0.291451
Si Si4 0.452327 0.782836 0.438093
Si Si5 0.971831 0.783352 0.460819
Si Si6 0.208251 0.783136 0.734110
Si Si7 0.028251 0.217632 0.309589
Si Si8 0.903054 0.213236 0.721239
O O1 0.811925 0.719086 0.159258
O O2 0.620699 0.000000 0.021237
O O3 0.446198 0.799342 0.037173
O O4 0.429446 0.717953 0.881458
O O5 0.339724 0.500000 0.035139
O O6 0.050788 0.265806 0.869547
O O7 0.341965 0.245014 0.135858
O O8 0.468466 0.276804 0.354960
O O9 0.740424 0.277033 0.371069
O O10 0.539731 0.000000 0.310494
O O11 0.237691 0.726250 0.370722
O O12 0.663086 0.726178 0.591803
O O13 0.451767 0.000000 0.437653
O O14 0.139414 0.728048 0.612190
O O15 0.023676 0.726497 0.398712
O O16 0.968198 0.000000 0.458592
O O17 0.029307 0.730150 0.706431
O O18 0.212423 0.000000 0.737554
O O19 0.024096 0.000000 0.307505
O O20 0.899821 0.000000 0.719084
#
# Coordination Sequence:
#
# PCOD9130759 Si02
#       8
#     2   2   2   2   2   2   2   2
#     4   9  16  29  49  71 100 132 161 196 247 294
#     4  11  21  31  47  73 101 128 167 213 246 283
#     4  10  17  30  51  74  99 130 163 201 249 294
#     4   9  17  29  49  76 104 129 161 203 244 293
#     4   9  14  23  43  71  98 124 156 195 240 284
#     4   8  13  22  41  67  90 120 158 192 229 285
#     4   9  16  26  44  75 106 127 154 198 245 289
#     4   9  16  30  50  71  96 128 164 202 250 296
#
# _framework density 19.748387999999998
#
# number of rings (size 3 to 8) (size 9 to 14) (size 15 to 20)
#    0.000    2.750    2.500    1.875    0.000    0.000 
#    0.000    1.875    0.000    7.500    0.000    0.000 
#    0.000    0.000    0.000    0.000    0.000    0.000 
#
# Total GULP energy -89240.695428 kJ/mol
# GULP energy per Si atom -5577.543464 kJ/mol
# Density = 1.970344 g / cm^3
# Si number density = 19.748388 Si / 1000 Ang^3
#
#
#
# Elastic Constant Matrix: (Units=GPa)
#
#
# Indices 1 2 3 4 5 6 
#
# 1 131.3774 6.6127 110.4050 0.0000 2.7197 0.0000
# 2 6.6127 47.2944 -1.5421 0.0000 1.8356 0.0000
# 3 110.4050 -1.5421 208.9496 0.0000 5.7212 0.0000
# 4 0.0000 0.0000 0.0000 -35.6021 0.0000 8.9576
# 5 2.7197 1.8356 5.7212 0.0000 27.0146 0.0000
# 6 0.0000 0.0000 0.0000 8.9576 0.0000 -17.2831
#
#
#
# Elastic Compliance Matrix: (Units=1/GPa)
#
#
# Indices 1 2 3 4 5 6 
#
# 1 0.013916 -0.002198 -0.007378 0.000000 0.000311 0.000000
# 2 -0.002198 0.021555 0.001363 0.000000 -0.001532 0.000000
# 3 -0.007378 0.001363 0.008727 0.000000 -0.001198 0.000000
# 4 0.000000 0.000000 0.000000 -0.032300 0.000000 -0.016741
# 5 0.000311 -0.001532 -0.001198 0.000000 0.037344 0.000000
# 6 0.000000 0.000000 0.000000 -0.016741 0.000000 -0.066536
#
#
# Mechanical properties :
#
#
# Convention : Reuss Voigt Hill
#
# Bulk Modulus (GPa) = 36.00826 68.73031 52.36928
# Shear Modulus (GPa) = 596.06207 12.96893 304.51550
#
# Velocity S-wave (km/s) = 17.39205 2.56541 12.43111
# Velocity P-wave (km/s) = 20.53252 6.60709 15.25185
#
# Compressibility (1/GPa) = 0.02777140
#
# Stress axis : x y z
#
# Youngs Moduli (GPa) = 71.86134 46.39211 114.58896
#
# Poissons Ratio (x) = 0.10198 0.84538
# Poissons Ratio (y) = 0.15797 -0.15614
# Poissons Ratio (z) = 0.53016 -0.06321
#
# Static dielectric constant tensor:
#      x y z
#    x 1.648750 0.000000 -0.005110 
#    y 0.000000 1.721230 0.000000 
#    z -0.005110 0.000000 1.712600 
# 
# From -- ./inp_files/4976.got.cif
#   From: 2010.05.17/outbox.cif.g08.bks.cpg/sg6_3_cif.got.tgz:4976.got - 2010.06.03 19:42:10.
