data_PCOD9130715
_publ_section_title
;
Structure prediction by ZEFSAII (Michael W. Deem and Ramdas Pophale) SiO2 
 PCOD9130715
Probable space group: C 2
;
_chemical_formula_sum "Si O2"
_cell_formula_units_Z 15
_cell_length_a 6.000000
_cell_length_b 15.000000
_cell_length_c 18.000000
_cell_angle_alpha 90.000000
_cell_angle_beta 60.000000
_cell_angle_gamma 90.000000
_cell_volume 1402.961154
_symmetry_space_group_name_H-M "C 2"
_symmetry_group_IT_number 5
_symmetry_cell_setting 'monoclinic'
loop_
_space_group_symop_operation_xyz
x,y,z
-x,y,-z
1/2+x,1/2+y,z
1/2-x,1/2+y,-z
loop_
_atom_site_type_symbol
_atom_site_label
_atom_site_fract_x
_atom_site_fract_y
_atom_site_fract_z
Si Si1 0.500000 0.716900 0.500000
Si Si2 0.478996 0.559117 0.616327
Si Si3 0.932889 0.608281 0.724236
Si Si4 0.583497 0.541100 0.192961
Si Si5 0.074985 0.865181 0.572080
Si Si6 0.141528 0.714844 0.829903
Si Si7 0.291009 0.852009 0.100510
Si Si8 0.337895 0.784728 0.260390
O O1 0.567987 0.649691 0.558028
O O2 0.278320 0.788116 0.559580
O O3 0.456574 0.549726 0.710279
O O4 0.635336 0.471195 0.565657
O O5 0.173867 0.561803 0.645373
O O6 0.710276 0.541477 0.785285
O O7 0.799417 0.689289 0.702392
O O8 0.022388 0.659755 0.782466
O O9 0.728723 0.633523 0.144620
O O10 0.712153 0.451990 0.139887
O O11 0.000000 0.845829 0.500000
O O12 0.834144 0.854833 0.667812
O O13 0.374424 0.773890 0.759041
O O14 0.934812 0.786243 0.892656
O O15 0.363699 0.807069 0.168280
O O16 0.500000 0.856456 0.000000
#
# Coordination Sequence:
#
# PCOD9130715 Si02
#       8
#     2   4   4   4   4   4   4   4
#     4  12  28  46  62 100 146 170 242 296 338 418
#     4  11  23  44  63  95 133 180 228 292 352 409
#     4   9  20  40  67  94 128 178 223 282 344 411
#     4  10  22  41  70  95 131 176 231 282 349 418
#     4  12  27  41  69  98 131 187 235 286 348 418
#     4   9  22  41  68  95 136 182 220 286 345 413
#     4  11  24  43  67 104 138 179 232 284 349 421
#     4  10  21  44  66  96 134 178 227 280 353 404
#
# _framework density 10.691672000000001
#
# number of rings (size 3 to 8) (size 9 to 14) (size 15 to 20)
#    0.000    1.600    3.333    0.000    7.467    1.600 
#    8.400    0.000    0.000    0.000    0.000    0.000 
#    0.000    0.000    0.000    0.000    0.000    0.000 
#
# Total GULP energy -83534.819069 kJ/mol
# GULP energy per Si atom -5568.987938 kJ/mol
# Density = 1.066734 g / cm^3
# Si number density = 10.691672 Si / 1000 Ang^3
#
#
#
# Elastic Constant Matrix: (Units=GPa)
#
#
# Indices 1 2 3 4 5 6 
#
# 1 60.0561 29.3271 33.9327 0.0000 -18.5663 0.0000
# 2 29.3271 158.6849 43.0622 0.0000 -19.1131 0.0000
# 3 33.9327 43.0622 113.4185 0.0000 -9.4556 0.0000
# 4 0.0000 0.0000 0.0000 26.0710 0.0000 -13.1357
# 5 -18.5663 -19.1131 -9.4556 0.0000 25.4358 0.0000
# 6 0.0000 0.0000 0.0000 -13.1357 0.0000 20.4496
#
#
#
# Elastic Compliance Matrix: (Units=1/GPa)
#
#
# Indices 1 2 3 4 5 6 
#
# 1 0.025295 -0.001246 -0.005813 0.000000 0.015366 0.000000
# 2 -0.001246 0.007605 -0.002182 0.000000 0.003994 0.000000
# 3 -0.005813 -0.002182 0.011242 0.000000 -0.001703 0.000000
# 4 0.000000 0.000000 0.000000 0.056710 0.000000 0.036427
# 5 0.015366 0.003994 -0.001703 0.000000 0.052898 0.000000
# 6 0.000000 0.000000 0.000000 0.036427 0.000000 0.072300
#
#
# Mechanical properties :
#
#
# Convention : Reuss Voigt Hill
#
# Bulk Modulus (GPa) = 38.97216 60.53372 49.75294
# Shear Modulus (GPa) = 19.75606 29.44713 24.60160
#
# Velocity S-wave (km/s) = 3.04287 3.71496 3.39559
# Velocity P-wave (km/s) = 5.53267 6.83897 6.22021
#
# Compressibility (1/GPa) = 0.02565935
#
# Stress axis : x y z
#
# Youngs Moduli (GPa) = 39.53392 131.48821 88.94834
#
# Poissons Ratio (x) = 0.16390 0.51710
# Poissons Ratio (y) = 0.04928 0.19405
# Poissons Ratio (z) = 0.22983 0.28686
#
# Static dielectric constant tensor:
#      x y z
#    x 1.921460 0.000000 -0.012870 
#    y 0.000000 1.821170 0.000000 
#    z -0.012870 0.000000 1.753050 
# 
# From -- ./inp_files/58859.got.cif
#   From: 2010.05.17/outbox.ucp.g08.bks.cvg/sg5_30_cif.got.tgz:58859.got - 2010.06.11 12:53:14.
