data_PCOD9130988
_publ_section_title
;
Structure prediction by ZEFSAII (Michael W. Deem and Ramdas Pophale) SiO2 
 PCOD9130988
Probable space group: P M
;
_chemical_formula_sum "Si O2"
_cell_formula_units_Z 16
_cell_length_a 10.985122
_cell_length_b 10.689170
_cell_length_c 10.831557
_cell_angle_alpha 90.000000
_cell_angle_beta 145.623310
_cell_angle_gamma 90.000000
_cell_volume 718.132671
_symmetry_space_group_name_H-M "P M"
_symmetry_group_IT_number 6
_symmetry_cell_setting 'monoclinic'
loop_
_space_group_symop_operation_xyz
x,y,z
x,-y,z
loop_
_atom_site_type_symbol
_atom_site_label
_atom_site_fract_x
_atom_site_fract_y
_atom_site_fract_z
Si Si1 0.466190 0.201668 0.517680
Si Si2 0.819136 0.366757 0.720952
Si Si3 0.614668 0.764676 0.896735
Si Si4 0.212965 0.647023 0.932811
Si Si5 0.826919 0.140852 0.316736
Si Si6 0.498465 0.865963 0.267707
Si Si7 0.048689 0.641098 0.170970
Si Si8 0.188159 0.643618 0.626862
O O1 0.601098 0.325436 0.599538
O O2 0.566010 0.155597 0.730866
O O3 0.521792 0.130656 0.436522
O O4 0.221252 0.247022 0.327699
O O5 0.774035 0.500000 0.625347
O O6 0.967639 0.301537 0.744211
O O7 0.984625 0.367131 0.973788
O O8 0.401316 0.679786 0.729735
O O9 0.663327 0.838167 0.064073
O O10 0.827709 0.681374 0.052293
O O11 0.227561 0.500000 0.982118
O O12 0.263300 0.650221 0.831410
O O13 0.364858 0.740779 0.131943
O O14 0.697185 0.143765 0.338049
O O15 0.004423 0.250954 0.457368
O O16 0.921091 0.000000 0.383745
O O17 0.391184 0.000000 0.145069
O O18 0.118088 0.500000 0.265842
O O19 0.115205 0.500000 0.543603
#
# Coordination Sequence:
#
# PCOD9130988 Si02
#       8
#     2   2   2   2   2   2   2   2
#     4  11  22  38  65  95 135 177 223 278 333 399
#     4   9  18  33  58  93 132 169 214 268 332 398
#     4  11  24  42  66  98 142 180 227 280 342 404
#     4  10  20  39  68 101 133 171 223 283 345 405
#     4  11  26  47  71  98 136 185 231 279 343 417
#     4  11  24  44  69  99 133 176 229 280 338 406
#     4  10  20  36  61  96 136 179 222 273 337 404
#     4  11  24  43  72 106 138 177 230 289 345 403
#
# _framework density 22.280006
#
# number of rings (size 3 to 8) (size 9 to 14) (size 15 to 20)
#    0.000    1.500    2.500    2.250    0.000    6.000 
#    0.000    2.500    0.000    0.000    0.000    0.000 
#    0.000    0.000    0.000    0.000    0.000    0.000 
#
# Total GULP energy -89088.636750 kJ/mol
# GULP energy per Si atom -5568.039797 kJ/mol
# Density = 2.222930 g / cm^3
# Si number density = 22.280006 Si / 1000 Ang^3
#
#
#
# Elastic Constant Matrix: (Units=GPa)
#
#
# Indices 1 2 3 4 5 6 
#
# 1 133.9393 38.2420 36.8613 0.0000 -2.4797 0.0000
# 2 38.2420 126.7640 51.7771 0.0000 0.8782 0.0000
# 3 36.8613 51.7771 68.7804 0.0000 -7.4569 0.0000
# 4 0.0000 0.0000 0.0000 46.9364 0.0000 24.4378
# 5 -2.4797 0.8782 -7.4569 0.0000 50.5723 0.0000
# 6 0.0000 0.0000 0.0000 24.4378 0.0000 -2.2516
#
#
#
# Elastic Compliance Matrix: (Units=1/GPa)
#
#
# Indices 1 2 3 4 5 6 
#
# 1 0.008856 -0.001049 -0.003971 0.000000 -0.000133 0.000000
# 2 -0.001049 0.011626 -0.008351 0.000000 -0.001485 0.000000
# 3 -0.003971 -0.008351 0.023321 0.000000 0.003389 0.000000
# 4 0.000000 0.000000 0.000000 0.003203 0.000000 0.034768
# 5 -0.000133 -0.001485 0.003389 0.000000 0.020293 0.000000
# 6 0.000000 0.000000 0.000000 0.034768 0.000000 -0.066776
#
#
# Mechanical properties :
#
#
# Convention : Reuss Voigt Hill
#
# Bulk Modulus (GPa) = 58.61073 64.80493 61.70783
# Shear Modulus (GPa) = 151.73355 32.55831 92.14593
#
# Velocity S-wave (km/s) = 8.26141 3.82687 6.43801
# Velocity P-wave (km/s) = 10.83350 6.97684 9.11156
#
# Compressibility (1/GPa) = 0.01706172
#
# Stress axis : x y z
#
# Youngs Moduli (GPa) = 112.91897 86.01134 42.87924
#
# Poissons Ratio (x) = 0.09020 0.17028
# Poissons Ratio (y) = 0.11842 0.35809
# Poissons Ratio (z) = 0.44841 0.71829
#
# Static dielectric constant tensor:
#      x y z
#    x 1.844160 0.000000 -0.034320 
#    y 0.000000 1.827010 0.000000 
#    z -0.034320 0.000000 1.851300 
# 
# From -- ./inp_files/5175.got.cif
#   From: 2010.05.17/outbox.cif.g08.bks.cpg/sg6_3_cif.got.tgz:5175.got - 2010.06.03 19:42:10.
