data_PCOD9130126
_publ_section_title
;
Structure prediction by ZEFSAII (Michael W. Deem and Ramdas Pophale) SiO2 
 PCOD9130126
Probable space group: C 2
;
_chemical_formula_sum "Si O2"
_cell_formula_units_Z 22
_cell_length_a 13.990358
_cell_length_b 11.272241
_cell_length_c 17.846932
_cell_angle_alpha 90.000000
_cell_angle_beta 20.373921
_cell_angle_gamma 90.000000
_cell_volume 979.858390
_symmetry_space_group_name_H-M "C 2"
_symmetry_group_IT_number 5
_symmetry_cell_setting 'monoclinic'
loop_
_space_group_symop_operation_xyz
x,y,z
-x,y,-z
1/2+x,1/2+y,z
1/2-x,1/2+y,-z
loop_
_atom_site_type_symbol
_atom_site_label
_atom_site_fract_x
_atom_site_fract_y
_atom_site_fract_z
Si Si1 0.441857 0.772620 0.706745
Si Si2 0.939814 0.644505 0.266637
Si Si3 0.500000 0.195051 0.500000
Si Si4 0.585494 0.042306 0.015509
Si Si5 0.556479 0.816889 0.123765
Si Si6 0.678723 0.029196 0.236078
O O1 0.702816 0.728479 0.469904
O O2 0.508845 0.819845 0.740379
O O3 0.320015 0.886686 0.753402
O O4 0.260095 0.654862 0.857248
O O5 0.870814 0.592461 0.234974
O O6 0.020683 0.557460 0.274917
O O7 0.221596 0.714671 0.048244
O O8 0.518732 0.106380 0.415484
O O9 0.768981 0.277741 0.298858
O O10 0.695080 0.934102 0.986063
O O11 0.500000 0.984295 0.000000
O O12 0.000000 0.066206 0.000000
#
# Coordination Sequence:
#
# PCOD9130126 Si02
#       6
#     4   4   2   4   4   4
#     4  11  26  46  73 102 146 196 236 300 370 427
#     4  11  25  45  71 104 142 188 239 298 363 426
#     4  12  26  42  74 110 134 194 250 302 362 428
#     4  11  27  46  70 103 150 186 238 296 363 436
#     4  11  25  44  70 105 140 184 245 300 361 431
#     4  12  25  46  74 106 143 186 245 300 359 436
#
# _framework density 22.452226
#
# number of rings (size 3 to 8) (size 9 to 14) (size 15 to 20)
#    0.000    0.727    5.455    0.545    5.091    6.545 
#    0.000    0.000    0.000    0.000    0.000    0.000 
#    0.000    0.000    0.000    0.000    0.000    0.000 
#
# Total GULP energy -61325.433932 kJ/mol
# GULP energy per Si atom -5575.039448 kJ/mol
# Density = 2.240112 g / cm^3
# Si number density = 22.452226 Si / 1000 Ang^3
#
#
#
# Elastic Constant Matrix: (Units=GPa)
#
#
# Indices 1 2 3 4 5 6 
#
# 1 66.6854 -0.5126 23.2485 -0.0273 26.7661 0.0083
# 2 -0.5126 83.8034 17.0375 -0.0371 4.5856 0.0217
# 3 23.2485 17.0375 90.1149 -0.0610 10.5982 0.0438
# 4 -0.0273 -0.0371 -0.0610 24.7831 0.0398 7.1706
# 5 26.7661 4.5856 10.5982 0.0398 31.6309 -0.0048
# 6 0.0083 0.0217 0.0438 7.1706 -0.0048 39.6104
#
#
#
# Elastic Compliance Matrix: (Units=1/GPa)
#
#
# Indices 1 2 3 4 5 6 
#
# 1 0.024343 0.002105 -0.004393 0.000054 -0.019433 -0.000014
# 2 0.002105 0.012626 -0.002608 0.000022 -0.002738 -0.000009
# 3 -0.004393 -0.002608 0.012744 0.000028 -0.000175 -0.000017
# 4 0.000054 0.000022 0.000028 0.042581 -0.000113 -0.007708
# 5 -0.019433 -0.002738 -0.000175 -0.000113 0.048514 0.000032
# 6 -0.000014 -0.000009 -0.000017 -0.007708 0.000032 0.026641
#
#
# Mechanical properties :
#
#
# Convention : Reuss Voigt Hill
#
# Bulk Modulus (GPa) = 25.04907 35.57227 30.31067
# Shear Modulus (GPa) = 26.24011 32.59357 29.41684
#
# Velocity S-wave (km/s) = 3.42235 3.81423 3.62359
# Velocity P-wave (km/s) = 5.17662 5.93934 5.57105
#
# Compressibility (1/GPa) = 0.03992164
#
# Stress axis : x y z
#
# Youngs Moduli (GPa) = 41.07889 79.20380 78.46872
#
# Poissons Ratio (x) = -0.16675 0.34470
# Poissons Ratio (y) = -0.08649 0.20466
# Poissons Ratio (z) = 0.18045 0.20658
#
# Static dielectric constant tensor:
#      x y z
#    x 1.872640 0.000000 -0.018040 
#    y 0.000000 1.880470 0.000020 
#    z -0.018040 0.000020 1.782480 
# 
# From -- ./inp_files/6597.got.cif
#   From: 2010.05.17/outbox.cif.g08.bks.cpg/sg5_4_cif.got.tgz:6597.got - 2010.06.03 18:56:24.
