data_PCOD9130373
_publ_section_title
;
Structure prediction by ZEFSAII (Michael W. Deem and Ramdas Pophale) SiO2 
 PCOD9130373
Probable space group: C 2
;
_chemical_formula_sum "Si O2"
_cell_formula_units_Z 24
_cell_length_a 7.953386
_cell_length_b 27.487772
_cell_length_c 5.938871
_cell_angle_alpha 90.000000
_cell_angle_beta 62.682583
_cell_angle_gamma 90.000000
_cell_volume 1153.564966
_symmetry_space_group_name_H-M "C 2"
_symmetry_group_IT_number 5
_symmetry_cell_setting 'monoclinic'
loop_
_space_group_symop_operation_xyz
x,y,z
-x,y,-z
1/2+x,1/2+y,z
1/2-x,1/2+y,-z
loop_
_atom_site_type_symbol
_atom_site_label
_atom_site_fract_x
_atom_site_fract_y
_atom_site_fract_z
Si Si1 0.500000 0.111990 0.500000
Si Si2 0.692454 0.752729 0.016451
Si Si3 0.806185 0.551098 0.238659
Si Si4 0.208627 0.647941 0.982697
Si Si5 0.000000 0.969769 0.500000
Si Si6 0.215821 0.342082 0.329230
Si Si7 0.000000 0.917610 0.000000
Si Si8 0.000000 0.796642 0.500000
O O1 0.379548 0.077737 0.414181
O O2 0.655146 0.143437 0.275984
O O3 0.684094 0.697848 0.115940
O O4 0.875230 0.763559 0.746367
O O5 0.500000 0.762436 0.000000
O O6 0.708437 0.790863 0.206361
O O7 0.677415 0.505875 0.368782
O O8 0.714057 0.595818 0.150188
O O9 0.000000 0.535232 0.000000
O O10 0.000000 0.652294 0.000000
O O11 0.991994 0.943856 0.254215
O O12 0.319073 0.382135 0.114275
O O13 0.348942 0.330870 0.462396
O O14 0.000000 0.357239 0.500000
#
# Coordination Sequence:
#
# PCOD9130373 Si02
#       8
#     2   4   4   4   2   4   2   2
#     4   8  17  38  67  92 140 195 224 300 363 416
#     4  12  24  39  69 105 146 197 245 294 376 444
#     4   9  22  43  70  99 146 185 241 305 362 441
#     4   9  19  37  60 103 142 193 241 291 362 440
#     4  12  29  48  77 112 138 193 248 311 382 442
#     4  12  26  48  72 101 144 193 245 314 373 447
#     4  12  30  50  78 108 144 192 254 316 384 432
#     4  12  22  44  72  98 152 190 240 315 357 442
#
# _framework density 20.805069
#
# number of rings (size 3 to 8) (size 9 to 14) (size 15 to 20)
#    0.000    1.667    3.333    2.000    4.667    4.000 
#    1.500    0.000    0.000    0.000    0.000    0.000 
#    0.000    0.000    0.000    0.000    0.000    0.000 
#
# Total GULP energy -66911.378242 kJ/mol
# GULP energy per Si atom -5575.948187 kJ/mol
# Density = 2.075772 g / cm^3
# Si number density = 20.805069 Si / 1000 Ang^3
#
#
#
# Elastic Constant Matrix: (Units=GPa)
#
#
# Indices 1 2 3 4 5 6 
#
# 1 100.5252 39.0686 39.0245 0.0000 -8.4620 0.0000
# 2 39.0686 124.3035 63.1767 0.0000 -7.7400 0.0000
# 3 39.0245 63.1767 101.3974 0.0000 -8.9166 0.0000
# 4 0.0000 0.0000 0.0000 127.0679 0.0000 -1.9512
# 5 -8.4620 -7.7400 -8.9166 0.0000 36.1710 0.0000
# 6 0.0000 0.0000 0.0000 -1.9512 0.0000 73.5834
#
#
#
# Elastic Compliance Matrix: (Units=1/GPa)
#
#
# Indices 1 2 3 4 5 6 
#
# 1 0.012146 -0.002069 -0.003245 0.000000 0.001599 0.000000
# 2 -0.002069 0.012144 -0.006730 0.000000 0.000456 0.000000
# 3 -0.003245 -0.006730 0.015446 0.000000 0.001608 0.000000
# 4 0.000000 0.000000 0.000000 0.007873 0.000000 0.000209
# 5 0.001599 0.000456 0.001608 0.000000 0.028514 0.000000
# 6 0.000000 0.000000 0.000000 0.000209 0.000000 0.013596
#
#
# Mechanical properties :
#
#
# Convention : Reuss Voigt Hill
#
# Bulk Modulus (GPa) = 63.90602 67.64061 65.77332
# Shear Modulus (GPa) = 42.00870 59.69487 50.85178
#
# Velocity S-wave (km/s) = 4.49838 5.36235 4.94925
# Velocity P-wave (km/s) = 7.60025 8.42151 8.02140
#
# Compressibility (1/GPa) = 0.01564798
#
# Stress axis : x y z
#
# Youngs Moduli (GPa) = 82.33096 82.34546 64.74214
#
# Poissons Ratio (x) = 0.17034 0.21010
# Poissons Ratio (y) = 0.17031 0.43573
# Poissons Ratio (z) = 0.26718 0.55420
#
# Static dielectric constant tensor:
#      x y z
#    x 1.621280 0.000000 0.281600 
#    y 0.000000 1.755560 0.000000 
#    z 0.281600 0.000000 1.316890 
# 
# From -- ./inp_files/3374.got.cif
#   From: 2010.05.17/outbox.cif.g08.bks.cpg/sg5_2_cif.got.tgz:3374.got - 2010.06.03 18:56:24.
