data_PCOD9130923
_publ_section_title
;
Structure prediction by ZEFSAII (Michael W. Deem and Ramdas Pophale) SiO2 
 PCOD9130923
Probable space group: P M
;
_chemical_formula_sum "Si O2"
_cell_formula_units_Z 16
_cell_length_a 11.802355
_cell_length_b 9.196527
_cell_length_c 11.609600
_cell_angle_alpha 90.000000
_cell_angle_beta 37.275623
_cell_angle_gamma 90.000000
_cell_volume 763.187825
_symmetry_space_group_name_H-M "P M"
_symmetry_group_IT_number 6
_symmetry_cell_setting 'monoclinic'
loop_
_space_group_symop_operation_xyz
x,y,z
x,-y,z
loop_
_atom_site_type_symbol
_atom_site_label
_atom_site_fract_x
_atom_site_fract_y
_atom_site_fract_z
Si Si1 0.128660 0.835412 0.006050
Si Si2 0.831036 0.173103 0.566610
Si Si3 0.702550 0.164704 0.437145
Si Si4 0.517508 0.337112 0.379902
Si Si5 0.982893 0.175683 0.673940
Si Si6 0.086645 0.336313 0.806158
Si Si7 0.265122 0.171898 0.136216
Si Si8 0.365580 0.675774 0.272688
O O1 0.262669 0.789032 0.003016
O O2 0.920686 0.843017 0.226806
O O3 0.180478 0.000000 0.928928
O O4 0.112342 0.732634 0.910348
O O5 0.704665 0.232842 0.564315
O O6 0.831240 0.221456 0.699413
O O7 0.048164 0.190008 0.351900
O O8 0.793582 0.000000 0.597841
O O9 0.605880 0.244326 0.409765
O O10 0.628951 0.000000 0.502821
O O11 0.594931 0.500000 0.323837
O O12 0.296949 0.343236 0.586448
O O13 0.521108 0.287069 0.243693
O O14 0.966749 0.239254 0.814969
O O15 0.177981 0.242711 0.468883
O O16 0.993234 0.000000 0.667550
O O17 0.012552 0.500000 0.870924
O O18 0.387709 0.264934 0.125390
O O19 0.309519 0.000000 0.109990
O O20 0.342450 0.500000 0.292417
#
# Coordination Sequence:
#
# PCOD9130923 Si02
#       8
#     2   2   2   2   2   2   2   2
#     4   9  18  32  49  71  96 120 151 192 234 275
#     4   7  12  24  42  65  89 111 140 184 230 266
#     4   9  17  30  49  71  93 118 151 189 228 273
#     4   9  19  32  44  65  97 126 152 186 226 270
#     4   9  15  26  45  65  88 118 151 190 233 270
#     4  10  20  32  46  68  97 125 155 190 228 274
#     4   8  14  26  44  65  89 115 147 187 229 273
#     4   9  16  26  41  64  93 119 149 190 230 269
#
# _framework density 20.964694999999999
#
# number of rings (size 3 to 8) (size 9 to 14) (size 15 to 20)
#    0.000    3.250    0.000    4.125    0.000    4.000 
#    0.000    5.625    0.000    1.500    0.000    1.750 
#    0.000    0.000    0.000    0.000    0.000    0.000 
#
# Total GULP energy -89084.234863 kJ/mol
# GULP energy per Si atom -5567.764679 kJ/mol
# Density = 2.091698 g / cm^3
# Si number density = 20.964695 Si / 1000 Ang^3
#
#
#
# Elastic Constant Matrix: (Units=GPa)
#
#
# Indices 1 2 3 4 5 6 
#
# 1 216.8390 92.4435 35.9792 0.0000 68.0381 0.0000
# 2 92.4435 83.3835 19.9299 0.0000 34.5349 0.0000
# 3 35.9792 19.9299 45.1620 0.0000 7.4755 0.0000
# 4 0.0000 0.0000 0.0000 12.7462 0.0000 9.4533
# 5 68.0381 34.5349 7.4755 0.0000 48.6883 0.0000
# 6 0.0000 0.0000 0.0000 9.4533 0.0000 34.5020
#
#
#
# Elastic Compliance Matrix: (Units=1/GPa)
#
#
# Indices 1 2 3 4 5 6 
#
# 1 0.011996 -0.007926 -0.004325 0.000000 -0.010477 0.000000
# 2 -0.007926 0.023747 -0.003294 0.000000 -0.005262 0.000000
# 3 -0.004325 -0.003294 0.026323 0.000000 0.004338 0.000000
# 4 0.000000 0.000000 0.000000 0.098464 0.000000 -0.026978
# 5 -0.010477 -0.005262 0.004338 0.000000 0.038246 0.000000
# 6 0.000000 0.000000 0.000000 -0.026978 0.000000 0.036376
#
#
# Mechanical properties :
#
#
# Convention : Reuss Voigt Hill
#
# Bulk Modulus (GPa) = 32.28263 71.34330 51.81296
# Shear Modulus (GPa) = 18.07884 32.32276 25.20080
#
# Velocity S-wave (km/s) = 2.93976 3.93080 3.47083
# Velocity P-wave (km/s) = 5.19181 7.39633 6.38986
#
# Compressibility (1/GPa) = 0.03097641
#
# Stress axis : x y z
#
# Youngs Moduli (GPa) = 83.36176 42.11091 37.98910
#
# Poissons Ratio (x) = 0.33379 0.16429
# Poissons Ratio (y) = 0.66075 0.12513
# Poissons Ratio (z) = 0.36051 0.13871
#
# Static dielectric constant tensor:
#      x y z
#    x 1.813920 0.000000 0.026900 
#    y 0.000000 1.720740 0.000000 
#    z 0.026900 0.000000 1.866020 
# 
# From -- ./inp_files/3526.got.cif
#   From: 2010.05.17/outbox.cif.g08.bks.cpg/sg6_2_cif.got.tgz:3526.got - 2010.06.03 19:42:10.
