data_PCOD9130591
_publ_section_title
;
Structure prediction by ZEFSAII (Michael W. Deem and Ramdas Pophale) SiO2 
 PCOD9130591
Probable space group: C 2
;
_chemical_formula_sum "Si O2"
_cell_formula_units_Z 14
_cell_length_a 10.710451
_cell_length_b 9.784692
_cell_length_c 7.511316
_cell_angle_alpha 90.000000
_cell_angle_beta 139.056710
_cell_angle_gamma 90.000000
_cell_volume 515.844593
_symmetry_space_group_name_H-M "C 2"
_symmetry_group_IT_number 5
_symmetry_cell_setting 'monoclinic'
loop_
_space_group_symop_operation_xyz
x,y,z
-x,y,-z
1/2+x,1/2+y,z
1/2-x,1/2+y,-z
loop_
_atom_site_type_symbol
_atom_site_label
_atom_site_fract_x
_atom_site_fract_y
_atom_site_fract_z
Si Si1 0.391527 0.475100 0.197926
Si Si2 0.000000 0.767955 0.000000
Si Si3 0.191327 0.185388 0.425076
Si Si4 0.461489 0.955052 0.650846
O O1 0.500000 0.445156 0.500000
O O2 0.442311 0.359265 0.106958
O O3 0.490039 0.612429 0.229705
O O4 0.164278 0.486934 0.953597
O O5 0.182729 0.684537 0.259644
O O6 0.149433 0.344416 0.348236
O O7 0.327026 0.084808 0.458771
O O8 0.500000 0.887483 0.500000
#
# Coordination Sequence:
#
# PCOD9130591 Si02
#       4
#     4   2   4   4
#     4  12  27  51  83 121 164 225 275 341 428 489
#     4  12  26  56  76 126 176 206 284 354 396 520
#     4  12  26  52  83 122 167 216 286 342 408 516
#     4  12  27  53  86 122 172 224 275 352 425 493
#
# _framework density 27.139958
#
# number of rings (size 3 to 8) (size 9 to 14) (size 15 to 20)
#    0.000    0.000    5.714    2.571    4.000    1.143 
#   10.286    0.000    0.000    0.000    0.000    0.000 
#    0.000    0.000    0.000    0.000    0.000    0.000 
#
# Total GULP energy -39226.529445 kJ/mol
# GULP energy per Si atom -5603.789921 kJ/mol
# Density = 2.707819 g / cm^3
# Si number density = 27.139958 Si / 1000 Ang^3
#
#
#
# Elastic Constant Matrix: (Units=GPa)
#
#
# Indices 1 2 3 4 5 6 
#
# 1 90.0205 35.6953 40.2967 0.0000 26.5829 0.0000
# 2 35.6953 82.6021 26.0451 0.0000 23.5204 0.0000
# 3 40.2967 26.0451 192.1353 0.0000 51.7386 0.0000
# 4 0.0000 0.0000 0.0000 56.9667 0.0000 1.8206
# 5 26.5829 23.5204 51.7386 0.0000 71.6160 0.0000
# 6 0.0000 0.0000 0.0000 1.8206 0.0000 31.8363
#
#
#
# Elastic Compliance Matrix: (Units=1/GPa)
#
#
# Indices 1 2 3 4 5 6 
#
# 1 0.014626 -0.005062 -0.001697 0.000000 -0.002540 0.000000
# 2 -0.005062 0.015202 -0.000199 0.000000 -0.002970 0.000000
# 3 -0.001697 -0.000199 0.006705 0.000000 -0.004148 0.000000
# 4 0.000000 0.000000 0.000000 0.017586 0.000000 -0.001006
# 5 -0.002540 -0.002970 -0.004148 0.000000 0.018879 0.000000
# 6 0.000000 0.000000 0.000000 -0.001006 0.000000 0.031468
#
#
# Mechanical properties :
#
#
# Convention : Reuss Voigt Hill
#
# Bulk Modulus (GPa) = 44.21729 63.20355 53.71042
# Shear Modulus (GPa) = 39.70754 49.59854 44.65304
#
# Velocity S-wave (km/s) = 3.82915 4.27958 4.06062
# Velocity P-wave (km/s) = 5.98979 6.91073 6.46668
#
# Compressibility (1/GPa) = 0.02261559
#
# Stress axis : x y z
#
# Youngs Moduli (GPa) = 68.37344 65.78039 149.14847
#
# Poissons Ratio (x) = 0.33296 0.25314
# Poissons Ratio (y) = 0.34609 0.02974
# Poissons Ratio (z) = 0.11605 0.01312
#
# Static dielectric constant tensor:
#      x y z
#    x 2.146740 0.000000 -0.022060 
#    y 0.000000 2.196170 0.000000 
#    z -0.022060 0.000000 2.042450 
# 
# From -- ./inp_files/18150.got.cif
#   From: 2010.05.17/outbox.cif.g08.bks.cpg/sg5_10_cif.got.tgz:18150.got - 2010.06.03 18:56:24.
