data_PCOD9130262
_publ_section_title
;
Structure prediction by ZEFSAII (Michael W. Deem and Ramdas Pophale) SiO2 
 PCOD9130262
Probable space group: C 2
;
_chemical_formula_sum "Si O2"
_cell_formula_units_Z 18
_cell_length_a 5.097096
_cell_length_b 25.668465
_cell_length_c 5.483398
_cell_angle_alpha 90.000000
_cell_angle_beta 86.320910
_cell_angle_gamma 90.000000
_cell_volume 715.939825
_symmetry_space_group_name_H-M "C 2"
_symmetry_group_IT_number 5
_symmetry_cell_setting 'monoclinic'
loop_
_space_group_symop_operation_xyz
x,y,z
-x,y,-z
1/2+x,1/2+y,z
1/2-x,1/2+y,-z
loop_
_atom_site_type_symbol
_atom_site_label
_atom_site_fract_x
_atom_site_fract_y
_atom_site_fract_z
Si Si1 0.670126 0.876890 0.739060
Si Si2 0.728798 0.152789 0.162399
Si Si3 0.731574 0.490472 0.164860
Si Si4 0.500000 0.573855 0.500000
Si Si5 0.672572 0.764295 0.739398
O O1 0.500000 0.878537 0.500000
O O2 0.820590 0.931519 0.741263
O O3 0.813358 0.820804 0.729694
O O4 0.500000 0.877041 0.000000
O O5 0.661115 0.211339 0.254973
O O6 0.812976 0.112503 0.360994
O O7 0.500000 0.133611 0.000000
O O8 0.000000 0.158244 0.000000
O O9 0.706828 0.533967 0.368332
O O10 0.500000 0.505644 0.000000
O O11 0.000000 0.491088 0.000000
O O12 0.500000 0.761044 0.500000
O O13 0.500000 0.765637 0.000000
#
# Coordination Sequence:
#
# PCOD9130262 Si02
#       5
#     4   4   4   2   4
#     4   9  20  41  73 109 150 193 248 314 387 458
#     4  11  26  48  74 110 148 197 259 317 385 460
#     4  11  28  48  73 109 151 200 258 316 382 463
#     4  12  28  50  78 108 156 210 260 324 384 466
#     4   9  18  41  74 108 148 193 246 319 386 460
#
# _framework density 25.141777999999999
#
# number of rings (size 3 to 8) (size 9 to 14) (size 15 to 20)
#    0.000    1.778    1.111    0.667    6.222    7.111 
#    0.000    0.000    0.000    0.000    0.000    0.000 
#    0.000    0.000    0.000    0.000    0.000    0.000 
#
# Total GULP energy -50343.548411 kJ/mol
# GULP energy per Si atom -5593.727601 kJ/mol
# Density = 2.508455 g / cm^3
# Si number density = 25.141778 Si / 1000 Ang^3
#
#
#
# Elastic Constant Matrix: (Units=GPa)
#
#
# Indices 1 2 3 4 5 6 
#
# 1 91.6438 9.8344 33.0832 0.0000 -6.4580 0.0000
# 2 9.8344 238.8020 49.0818 0.0000 -3.8300 0.0000
# 3 33.0832 49.0818 143.0553 0.0000 -2.2881 0.0000
# 4 0.0000 0.0000 0.0000 68.1119 0.0000 -5.5317
# 5 -6.4580 -3.8300 -2.2881 0.0000 48.6622 0.0000
# 6 0.0000 0.0000 0.0000 -5.5317 0.0000 88.9084
#
#
#
# Elastic Compliance Matrix: (Units=1/GPa)
#
#
# Indices 1 2 3 4 5 6 
#
# 1 0.012011 0.000102 -0.002789 0.000000 0.001471 0.000000
# 2 0.000102 0.004510 -0.001566 0.000000 0.000295 0.000000
# 3 -0.002789 -0.001566 0.008171 0.000000 -0.000109 0.000000
# 4 0.000000 0.000000 0.000000 0.014756 0.000000 0.000918
# 5 0.001471 0.000295 -0.000109 0.000000 0.020763 0.000000
# 6 0.000000 0.000000 0.000000 0.000918 0.000000 0.011305
#
#
# Mechanical properties :
#
#
# Convention : Reuss Voigt Hill
#
# Bulk Modulus (GPa) = 61.78303 73.05553 67.41928
# Shear Modulus (GPa) = 58.53532 66.56996 62.55264
#
# Velocity S-wave (km/s) = 4.83039 5.15124 4.99339
# Velocity P-wave (km/s) = 7.46575 8.03125 7.75365
#
# Compressibility (1/GPa) = 0.01618568
#
# Stress axis : x y z
#
# Youngs Moduli (GPa) = 83.25399 221.72870 122.38384
#
# Poissons Ratio (x) = -0.02267 0.34137
# Poissons Ratio (y) = -0.00851 0.19169
# Poissons Ratio (z) = 0.23222 0.34729
#
# Static dielectric constant tensor:
#      x y z
#    x 1.933550 0.000000 -0.055420 
#    y 0.000000 1.999590 0.000000 
#    z -0.055420 0.000000 2.009420 
# 
# From -- ./inp_files/1182.got.cif
#   From: 2010.05.17/outbox.cif.g08.bks.cpg/sg5_1_cif.got.tgz:1182.got - 2010.06.03 18:56:24.
