data_PCOD9130139
_publ_section_title
;
Structure prediction by ZEFSAII (Michael W. Deem and Ramdas Pophale) SiO2 
 PCOD9130139
Probable space group: C 2
;
_chemical_formula_sum "Si O2"
_cell_formula_units_Z 26
_cell_length_a 13.997552
_cell_length_b 5.085607
_cell_length_c 14.007077
_cell_angle_alpha 90.000000
_cell_angle_beta 91.272443
_cell_angle_gamma 90.000000
_cell_volume 996.862580
_symmetry_space_group_name_H-M "C 2"
_symmetry_group_IT_number 5
_symmetry_cell_setting 'monoclinic'
loop_
_space_group_symop_operation_xyz
x,y,z
-x,y,-z
1/2+x,1/2+y,z
1/2-x,1/2+y,-z
loop_
_atom_site_type_symbol
_atom_site_label
_atom_site_fract_x
_atom_site_fract_y
_atom_site_fract_z
Si Si1 0.195332 0.151470 0.964570
Si Si2 0.000000 0.903251 0.000000
Si Si3 0.457465 0.191572 0.802095
Si Si4 0.626348 0.965059 0.601148
Si Si5 0.754127 0.228193 0.240072
Si Si6 0.958302 0.171944 0.682890
Si Si7 0.729930 0.822395 0.409378
O O1 0.192351 0.111571 0.850164
O O2 0.228573 0.444327 0.991188
O O3 0.093268 0.082922 0.004869
O O4 0.994985 0.729028 0.095167
O O5 0.348271 0.298156 0.806689
O O6 0.497492 0.395615 0.723409
O O7 0.455465 0.891293 0.767011
O O8 0.656188 0.264642 0.581277
O O9 0.675287 0.930029 0.706566
O O10 0.525529 0.825286 0.608330
O O11 0.689959 0.856084 0.514850
O O12 0.726914 0.044085 0.328533
O O13 0.852876 0.130851 0.636381
#
# Coordination Sequence:
#
# PCOD9130139 Si02
#       7
#     4   2   4   4   4   4   4
#     4  12  30  50  79 113 150 200 256 313 383 452
#     4  12  28  50  76 110 150 194 260 310 384 452
#     4  11  26  49  71 107 145 197 244 317 366 450
#     4  12  24  45  76 107 148 203 241 309 378 441
#     4  11  25  49  74 103 154 194 244 312 376 438
#     4  11  27  46  75 106 150 191 249 303 376 442
#     4  11  25  45  72 110 148 194 250 303 365 456
#
# _framework density 26.08183
#
# number of rings (size 3 to 8) (size 9 to 14) (size 15 to 20)
#    0.000    0.615    4.615    1.385   10.769    2.462 
#    0.000    1.538    0.000    0.000    0.000    0.000 
#    0.000    0.000    0.000    0.000    0.000    0.000 
#
# Total GULP energy -72604.097036 kJ/mol
# GULP energy per Si atom -5584.930541 kJ/mol
# Density = 2.602247 g / cm^3
# Si number density = 26.081830 Si / 1000 Ang^3
#
#
#
# Elastic Constant Matrix: (Units=GPa)
#
#
# Indices 1 2 3 4 5 6 
#
# 1 84.9117 -0.2046 4.3776 0.0000 -17.3254 0.0000
# 2 -0.2046 62.9487 15.7604 0.0000 5.3651 0.0000
# 3 4.3776 15.7604 135.6374 0.0000 -9.4546 0.0000
# 4 0.0000 0.0000 0.0000 35.1829 0.0000 -2.2400
# 5 -17.3254 5.3651 -9.4546 0.0000 34.2501 0.0000
# 6 0.0000 0.0000 0.0000 -2.2400 0.0000 28.5331
#
#
#
# Elastic Compliance Matrix: (Units=1/GPa)
#
#
# Indices 1 2 3 4 5 6 
#
# 1 0.013152 -0.000563 0.000113 0.000000 0.006772 0.000000
# 2 -0.000563 0.016726 -0.002170 0.000000 -0.003504 0.000000
# 3 0.000113 -0.002170 0.007799 0.000000 0.002550 0.000000
# 4 0.000000 0.000000 0.000000 0.028566 0.000000 0.002243
# 5 0.006772 -0.003504 0.002550 0.000000 0.033875 0.000000
# 6 0.000000 0.000000 0.000000 0.002243 0.000000 0.035223
#
#
# Mechanical properties :
#
#
# Convention : Reuss Voigt Hill
#
# Bulk Modulus (GPa) = 30.82834 35.92939 33.37886
# Shear Modulus (GPa) = 33.02699 37.16418 35.09558
#
# Velocity S-wave (km/s) = 3.56235 3.77889 3.67221
# Velocity P-wave (km/s) = 5.36339 5.73110 5.55029
#
# Compressibility (1/GPa) = 0.03243769
#
# Stress axis : x y z
#
# Youngs Moduli (GPa) = 76.03678 59.78753 128.22527
#
# Poissons Ratio (x) = 0.03364 -0.01449
# Poissons Ratio (y) = 0.04279 0.27819
# Poissons Ratio (z) = -0.00859 0.12971
#
# Static dielectric constant tensor:
#      x y z
#    x 2.129010 0.000000 -0.022610 
#    y 0.000000 2.229420 0.000000 
#    z -0.022610 0.000000 2.053660 
# 
# From -- ./inp_files/53844.got.cif
#   From: 2010.05.17/outbox.cif.g08.bks.cpg/sg5_27_cif.got.tgz:53844.got - 2010.06.03 18:56:24.
