data_PCOD9130825
_publ_section_title
;
Structure prediction by ZEFSAII (Michael W. Deem and Ramdas Pophale) SiO2 
 PCOD9130825
Probable space group: P M
;
_chemical_formula_sum "Si O2"
_cell_formula_units_Z 16
_cell_length_a 16.075537
_cell_length_b 9.274812
_cell_length_c 11.773081
_cell_angle_alpha 90.000000
_cell_angle_beta 25.917072
_cell_angle_gamma 90.000000
_cell_volume 767.205203
_symmetry_space_group_name_H-M "P M"
_symmetry_group_IT_number 6
_symmetry_cell_setting 'monoclinic'
loop_
_space_group_symop_operation_xyz
x,y,z
x,-y,z
loop_
_atom_site_type_symbol
_atom_site_label
_atom_site_fract_x
_atom_site_fract_y
_atom_site_fract_z
Si Si1 0.621270 0.174408 0.662010
Si Si2 0.843359 0.338824 0.199556
Si Si3 0.520898 0.169818 0.021350
Si Si4 0.388165 0.167060 0.415940
Si Si5 0.089055 0.168840 0.451618
Si Si6 0.228836 0.673427 0.074374
Si Si7 0.266797 0.339851 0.768979
Si Si8 0.948800 0.833088 0.863238
O O1 0.766333 0.233901 0.391588
O O2 0.426600 0.252124 0.865599
O O3 0.605846 0.000000 0.677015
O O4 0.652779 0.219487 0.755222
O O5 0.759325 0.500000 0.310672
O O6 0.066537 0.351997 0.950810
O O7 0.828719 0.267381 0.093958
O O8 0.510895 0.231981 0.160628
O O9 0.305514 0.180052 0.235312
O O10 0.560560 0.000000 0.987464
O O11 0.393485 0.244018 0.530372
O O12 0.168664 0.168919 0.639176
O O13 0.439013 0.000000 0.368910
O O14 0.958313 0.210317 0.719327
O O15 0.056402 0.000000 0.466245
O O16 0.081409 0.261384 0.346719
O O17 0.231817 0.500000 0.080684
O O18 0.212977 0.712592 0.961063
O O19 0.349997 0.500000 0.678914
O O20 0.887346 0.000000 0.945794
#
# Coordination Sequence:
#
# PCOD9130825 Si02
#       8
#     2   2   2   2   2   2   2   2
#     4  10  19  32  49  69  94 122 153 191 234 276
#     4  10  19  31  47  69  96 124 155 189 227 274
#     4   7  12  24  42  64  88 112 142 186 231 265
#     4   8  13  24  44  66  86 112 149 189 227 267
#     4   8  14  26  44  66  91 117 150 191 229 267
#     4  10  19  31  47  68  95 125 156 189 228 274
#     4   9  19  32  45  66  97 126 151 185 227 271
#     4   8  14  26  44  66  91 118 150 190 231 268
#
# _framework density 20.854917
#
# number of rings (size 3 to 8) (size 9 to 14) (size 15 to 20)
#    0.000    3.250    0.000    3.375    0.000    2.000 
#    0.000    6.875    0.000    1.500    0.000    7.000 
#    0.000    0.000    0.000    0.000    0.000    0.000 
#
# Total GULP energy -89095.660155 kJ/mol
# GULP energy per Si atom -5568.478760 kJ/mol
# Density = 2.080745 g / cm^3
# Si number density = 20.854917 Si / 1000 Ang^3
#
#
#
# Elastic Constant Matrix: (Units=GPa)
#
#
# Indices 1 2 3 4 5 6 
#
# 1 84.8177 48.4567 56.2260 0.0000 40.6964 0.0000
# 2 48.4567 69.7402 55.3370 0.0000 44.9740 0.0000
# 3 56.2260 55.3370 94.9344 0.0000 60.1413 0.0000
# 4 0.0000 0.0000 0.0000 -2.0592 0.0000 13.8059
# 5 40.6964 44.9740 60.1413 0.0000 65.7682 0.0000
# 6 0.0000 0.0000 0.0000 13.8059 0.0000 18.0964
#
#
#
# Elastic Compliance Matrix: (Units=1/GPa)
#
#
# Indices 1 2 3 4 5 6 
#
# 1 0.022261 -0.009095 -0.007360 0.000000 -0.000825 0.000000
# 2 -0.009095 0.033189 -0.007480 0.000000 -0.010228 0.000000
# 3 -0.007360 -0.007480 0.031204 0.000000 -0.018865 0.000000
# 4 0.000000 0.000000 0.000000 -0.079417 0.000000 0.060588
# 5 -0.000825 -0.010228 -0.018865 0.000000 0.039960 0.000000
# 6 0.000000 0.000000 0.000000 0.060588 0.000000 0.009037
#
#
# Mechanical properties :
#
#
# Convention : Reuss Voigt Hill
#
# Bulk Modulus (GPa) = 25.78464 63.28130 44.53297
# Shear Modulus (GPa) = 42.72343 22.32594 32.52468
#
# Velocity S-wave (km/s) = 4.53106 3.27545 3.95342
# Velocity P-wave (km/s) = 6.30592 6.68687 6.49919
#
# Compressibility (1/GPa) = 0.03878278
#
# Stress axis : x y z
#
# Youngs Moduli (GPa) = 44.92158 30.13031 32.04767
#
# Poissons Ratio (x) = 0.27405 0.23588
# Poissons Ratio (y) = 0.40858 0.23971
# Poissons Ratio (z) = 0.33064 0.22537
#
# Static dielectric constant tensor:
#      x y z
#    x 1.799780 0.000000 -0.007590 
#    y 0.000000 1.722170 0.000000 
#    z -0.007590 0.000000 1.829130 
# 
# From -- ./inp_files/4894.got.cif
#   From: 2010.05.17/outbox.cif.g08.bks.cpg/sg6_3_cif.got.tgz:4894.got - 2010.06.03 19:42:10.
