data_PCOD9130233
_publ_section_title
;
Structure prediction by ZEFSAII (Michael W. Deem and Ramdas Pophale) SiO2 
 PCOD9130233
Probable space group: C 2
;
_chemical_formula_sum "Si O2"
_cell_formula_units_Z 30
_cell_length_a 7.354481
_cell_length_b 11.544463
_cell_length_c 16.489176
_cell_angle_alpha 90.000000
_cell_angle_beta 129.501456
_cell_angle_gamma 90.000000
_cell_volume 1080.243540
_symmetry_space_group_name_H-M "C 2"
_symmetry_group_IT_number 5
_symmetry_cell_setting 'monoclinic'
loop_
_space_group_symop_operation_xyz
x,y,z
-x,y,-z
1/2+x,1/2+y,z
1/2-x,1/2+y,-z
loop_
_atom_site_type_symbol
_atom_site_label
_atom_site_fract_x
_atom_site_fract_y
_atom_site_fract_z
Si Si1 0.607701 0.652310 0.614274
Si Si2 0.582718 0.013594 0.616701
Si Si3 0.553299 0.532568 0.841505
Si Si4 0.438279 0.781101 0.889186
Si Si5 0.000000 0.010537 0.000000
Si Si6 0.974021 0.526036 0.841347
Si Si7 0.982745 0.763947 0.316962
Si Si8 0.734713 0.816673 0.394443
O O1 0.500000 0.597623 0.500000
O O2 0.590779 0.701720 0.381038
O O3 0.917661 0.421054 0.614794
O O4 0.740565 0.767456 0.616637
O O5 0.500000 0.015176 0.500000
O O6 0.306630 0.083893 0.723551
O O7 0.856667 0.996353 0.719207
O O8 0.807322 0.536746 0.872635
O O9 0.241241 0.574587 0.920514
O O10 0.520018 0.458746 0.914709
O O11 0.541065 0.889345 0.867771
O O12 0.153223 0.781913 0.804262
O O13 0.500000 0.790596 0.000000
O O14 0.506945 0.663506 0.861338
O O15 0.815898 0.840167 0.326013
O O16 0.962252 0.638926 0.355046
O O17 0.000000 0.805493 0.500000
#
# Coordination Sequence:
#
# PCOD9130233 Si02
#       8
#     4   4   4   4   2   4   4   4
#     4  12  27  51  84 122 175 226 284 357 436 521
#     4  11  27  50  80 126 177 221 283 355 427 520
#     4  11  26  53  84 121 171 224 287 359 433 511
#     4  11  25  52  85 122 164 220 288 357 431 522
#     4  12  26  58  80 122 164 226 296 360 436 514
#     4  12  29  53  87 126 174 224 289 368 440 511
#     4  11  27  50  79 122 168 217 284 351 427 509
#     4  12  27  53  82 123 170 230 287 347 429 519
#
# _framework density 27.771515000000001
#
# number of rings (size 3 to 8) (size 9 to 14) (size 15 to 20)
#    0.000    0.533    2.000    5.200    7.467    0.533 
#    2.400    2.667    0.000    0.000    0.000    0.000 
#    0.000    0.000    0.000    0.000    0.000    0.000 
#
# Total GULP energy -83761.090507 kJ/mol
# GULP energy per Si atom -5584.072700 kJ/mol
# Density = 2.770831 g / cm^3
# Si number density = 27.771515 Si / 1000 Ang^3
#
#
#
# Elastic Constant Matrix: (Units=GPa)
#
#
# Indices 1 2 3 4 5 6 
#
# 1 231.4241 22.9272 82.4691 0.0000 8.8977 0.0000
# 2 22.9272 100.6027 34.1121 0.0000 12.8663 0.0000
# 3 82.4691 34.1121 256.2067 0.0000 13.6243 0.0000
# 4 0.0000 0.0000 0.0000 33.5835 0.0000 3.0091
# 5 8.8977 12.8663 13.6243 0.0000 59.3536 0.0000
# 6 0.0000 0.0000 0.0000 3.0091 0.0000 41.5629
#
#
#
# Elastic Compliance Matrix: (Units=1/GPa)
#
#
# Indices 1 2 3 4 5 6 
#
# 1 0.004921 -0.000581 -0.001492 0.000000 -0.000269 0.000000
# 2 -0.000581 0.010709 -0.001134 0.000000 -0.001974 0.000000
# 3 -0.001492 -0.001134 0.004565 0.000000 -0.000578 0.000000
# 4 0.000000 0.000000 0.000000 0.029971 0.000000 -0.002170
# 5 -0.000269 -0.001974 -0.000578 0.000000 0.017449 0.000000
# 6 0.000000 0.000000 0.000000 -0.002170 0.000000 0.024217
#
#
# Mechanical properties :
#
#
# Convention : Reuss Voigt Hill
#
# Bulk Modulus (GPa) = 72.56333 96.36116 84.46224
# Shear Modulus (GPa) = 48.61895 56.81500 52.71698
#
# Velocity S-wave (km/s) = 4.18865 4.52796 4.36161
# Velocity P-wave (km/s) = 7.04120 7.88097 7.47289
#
# Compressibility (1/GPa) = 0.01378107
#
# Stress axis : x y z
#
# Youngs Moduli (GPa) = 203.22104 93.37539 219.05053
#
# Poissons Ratio (x) = 0.05425 0.32688
# Poissons Ratio (y) = 0.11808 0.24838
# Poissons Ratio (z) = 0.30326 0.10588
#
# Static dielectric constant tensor:
#      x y z
#    x 2.434040 0.000000 -0.655720 
#    y 0.000000 2.365650 0.000000 
#    z -0.655720 0.000000 4.107050 
# 
# From -- ./inp_files/49366.got.cif
#   From: 2010.05.17/outbox.cif.g08.bks.cpg/sg5_25_cif.got.tgz:49366.got - 2010.06.03 18:56:24.
