data_PCOD9130707
_publ_section_title
;
Structure prediction by ZEFSAII (Michael W. Deem and Ramdas Pophale) SiO2 
 PCOD9130707
Probable space group: C 2
;
_chemical_formula_sum "Si O2"
_cell_formula_units_Z 15
_cell_length_a 15.000000
_cell_length_b 12.000000
_cell_length_c 18.000000
_cell_angle_alpha 90.000000
_cell_angle_beta 150.000000
_cell_angle_gamma 90.000000
_cell_volume 1620.000000
_symmetry_space_group_name_H-M "C 2"
_symmetry_group_IT_number 5
_symmetry_cell_setting 'monoclinic'
loop_
_space_group_symop_operation_xyz
x,y,z
-x,y,-z
1/2+x,1/2+y,z
1/2-x,1/2+y,-z
loop_
_atom_site_type_symbol
_atom_site_label
_atom_site_fract_x
_atom_site_fract_y
_atom_site_fract_z
Si Si1 0.275967 0.016720 0.658536
Si Si2 0.472951 0.560559 0.816022
Si Si3 0.338261 0.784854 0.635851
Si Si4 0.414444 0.555216 0.324002
Si Si5 0.000000 0.964120 0.000000
Si Si6 0.726963 0.779693 0.853481
Si Si7 0.629596 0.163023 0.904416
Si Si8 0.020852 0.860835 0.295727
O O1 0.192460 0.033587 0.678582
O O2 0.463568 0.078724 0.784687
O O3 0.126245 0.066561 0.494351
O O4 0.290699 0.884581 0.657324
O O5 0.363279 0.663981 0.696274
O O6 0.455690 0.534015 0.892233
O O7 0.434048 0.446802 0.740395
O O8 0.681434 0.598430 0.961124
O O9 0.535998 0.814981 0.748969
O O10 0.189728 0.806239 0.462990
O O11 0.330710 0.668756 0.232718
O O12 0.411296 0.446256 0.269431
O O13 0.830308 0.881918 0.890605
O O14 0.860119 0.734346 0.012653
O O15 0.595781 0.256842 0.817303
#
# Coordination Sequence:
#
# PCOD9130707 Si02
#       8
#     4   4   4   4   2   4   4   4
#     4  10  22  38  63  96 122 166 204 268 315 372
#     4  11  25  43  63 100 129 169 215 266 321 389
#     4  10  23  42  68  88 130 172 216 256 319 384
#     4  10  21  39  62  93 128 157 218 258 306 376
#     4  12  24  42  64  96 142 164 208 274 324 382
#     4  11  21  40  62  91 124 169 210 261 315 378
#     4  11  22  38  67  92 126 164 218 256 325 377
#     4  11  22  42  67  92 127 171 215 266 311 380
#
# _framework density 9.2592590000000001
#
# number of rings (size 3 to 8) (size 9 to 14) (size 15 to 20)
#    0.000    1.333    4.000    2.400    3.733    1.067 
#    0.000    0.000    0.000    0.000    0.000    0.000 
#    0.000    0.000    0.000    0.000    0.000    0.000 
#
# Total GULP energy -83588.323380 kJ/mol
# GULP energy per Si atom -5572.554892 kJ/mol
# Density = 0.923818 g / cm^3
# Si number density = 9.259259 Si / 1000 Ang^3
#
#
#
# Elastic Constant Matrix: (Units=GPa)
#
#
# Indices 1 2 3 4 5 6 
#
# 1 66.4589 38.4100 30.5593 -0.0001 -15.9900 -0.0001
# 2 38.4100 98.4955 59.8096 -0.0001 -7.0021 -0.0001
# 3 30.5593 59.8096 113.8845 -0.0005 -14.0572 -0.0004
# 4 -0.0001 -0.0001 -0.0005 48.9809 -0.0003 -6.1079
# 5 -15.9900 -7.0021 -14.0572 -0.0003 27.2352 -0.0002
# 6 -0.0001 -0.0001 -0.0004 -6.1079 -0.0002 43.7826
#
#
#
# Elastic Compliance Matrix: (Units=1/GPa)
#
#
# Indices 1 2 3 4 5 6 
#
# 1 0.022307 -0.007497 -0.000716 0.000000 0.010800 0.000000
# 2 -0.007497 0.017427 -0.007616 0.000000 -0.003852 0.000000
# 3 -0.000716 -0.007616 0.013542 0.000000 0.004611 0.000000
# 4 0.000000 0.000000 0.000000 0.020778 0.000000 0.002899
# 5 0.010800 -0.003852 0.004611 0.000000 0.044448 0.000000
# 6 0.000000 0.000000 0.000000 0.002899 0.000000 0.023245
#
#
# Mechanical properties :
#
#
# Convention : Reuss Voigt Hill
#
# Bulk Modulus (GPa) = 46.25523 59.59963 52.92743
# Shear Modulus (GPa) = 27.68404 34.00374 30.84389
#
# Velocity S-wave (km/s) = 3.87064 4.28974 4.08557
# Velocity P-wave (km/s) = 6.70879 7.53588 7.13433
#
# Compressibility (1/GPa) = 0.02161918
#
# Stress axis : x y z
#
# Youngs Moduli (GPa) = 44.82859 57.38165 73.84498
#
# Poissons Ratio (x) = 0.43018 0.05284
# Poissons Ratio (y) = 0.33607 0.56242
# Poissons Ratio (z) = 0.03208 0.43703
#
# Static dielectric constant tensor:
#      x y z
#    x 1.677390 0.000000 -0.035150 
#    y 0.000000 1.640120 0.000000 
#    z -0.035150 0.000000 1.654150 
# 
# From -- ./inp_files/30945.got.cif
#   From: 2010.05.17/outbox.ucp.g08.bks.cvg/sg5_16_cif.got.tgz:30945.got - 2010.06.11 12:53:14.
