data_PCOD9130949
_publ_section_title
;
Structure prediction by ZEFSAII (Michael W. Deem and Ramdas Pophale) SiO2 
 PCOD9130949
Probable space group: P M
;
_chemical_formula_sum "Si O2"
_cell_formula_units_Z 16
_cell_length_a 20.725804
_cell_length_b 8.965890
_cell_length_c 16.352303
_cell_angle_alpha 90.000000
_cell_angle_beta 162.366834
_cell_angle_gamma 90.000000
_cell_volume 920.479162
_symmetry_space_group_name_H-M "P M"
_symmetry_group_IT_number 6
_symmetry_cell_setting 'monoclinic'
loop_
_space_group_symop_operation_xyz
x,y,z
x,-y,z
loop_
_atom_site_type_symbol
_atom_site_label
_atom_site_fract_x
_atom_site_fract_y
_atom_site_fract_z
Si Si1 0.422310 0.678169 0.175290
Si Si2 0.567406 0.177273 0.186584
Si Si3 0.906094 0.321565 0.164655
Si Si4 0.468328 0.177431 0.577713
Si Si5 0.945260 0.322293 0.540618
Si Si6 0.088569 0.177863 0.548292
Si Si7 0.070067 0.676812 0.183749
Si Si8 0.585545 0.678587 0.551626
O O1 0.455298 0.500000 0.205800
O O2 0.547896 0.761455 0.255159
O O3 0.497134 0.720604 0.356175
O O4 0.171821 0.707872 0.858505
O O5 0.753558 0.257065 0.361827
O O6 0.600631 0.000000 0.227136
O O7 0.337939 0.208029 0.867596
O O8 0.885965 0.500000 0.147837
O O9 0.013734 0.252521 0.374250
O O10 0.040935 0.291033 0.245000
O O11 0.673844 0.251299 0.869118
O O12 0.255992 0.230810 0.366627
O O13 0.473372 0.237180 0.490734
O O14 0.487802 0.000000 0.602671
O O15 0.923550 0.500000 0.505133
O O16 0.961127 0.245895 0.471113
O O17 0.058329 0.000000 0.508634
O O18 0.113864 0.500000 0.227212
O O19 0.838514 0.707293 0.864546
O O20 0.555832 0.500000 0.527223
#
# Coordination Sequence:
#
# PCOD9130949 Si02
#       8
#     2   2   2   2   2   2   2   2
#     4   9  19  36  57  80 105 139 183 225 265 311
#     4  10  21  36  54  78 111 145 176 218 269 318
#     4  10  21  38  59  80 104 138 179 221 263 312
#     4  11  22  35  54  80 111 142 173 216 267 320
#     4  10  20  35  56  80 108 142 181 222 261 312
#     4  10  21  37  56  79 108 140 175 219 269 317
#     4   9  19  36  56  77 104 139 178 219 263 313
#     4   9  19  37  58  78 105 141 181 224 265 311
#
# _framework density 17.382251
#
# number of rings (size 3 to 8) (size 9 to 14) (size 15 to 20)
#    0.000    2.250    0.000    3.375    0.000    7.000 
#    0.000    7.500    0.000    0.000    0.000    0.000 
#    0.000    0.000    0.000    0.000    0.000    0.000 
#
# Total GULP energy -89332.181339 kJ/mol
# GULP energy per Si atom -5583.261334 kJ/mol
# Density = 1.734269 g / cm^3
# Si number density = 17.382251 Si / 1000 Ang^3
#
#
#
# Elastic Constant Matrix: (Units=GPa)
#
#
# Indices 1 2 3 4 5 6 
#
# 1 168.5968 94.7906 104.9593 0.0000 -7.1092 0.0000
# 2 94.7906 89.6715 69.2377 0.0000 6.4058 0.0000
# 3 104.9593 69.2377 79.6628 0.0000 1.7147 0.0000
# 4 0.0000 0.0000 0.0000 24.2016 0.0000 0.1173
# 5 -7.1092 6.4058 1.7147 0.0000 40.9857 0.0000
# 6 0.0000 0.0000 0.0000 0.1173 0.0000 13.6603
#
#
#
# Elastic Compliance Matrix: (Units=1/GPa)
#
#
# Indices 1 2 3 4 5 6 
#
# 1 0.036492 -0.005923 -0.043127 0.000000 0.009060 0.000000
# 2 -0.005923 0.035558 -0.022980 0.000000 -0.005623 0.000000
# 3 -0.043127 -0.022980 0.089512 0.000000 -0.007634 0.000000
# 4 0.000000 0.000000 0.000000 0.041321 0.000000 -0.000355
# 5 0.009060 -0.005623 -0.007634 0.000000 0.027169 0.000000
# 6 0.000000 0.000000 0.000000 -0.000355 0.000000 0.073208
#
#
# Mechanical properties :
#
#
# Convention : Reuss Voigt Hill
#
# Bulk Modulus (GPa) = 57.13673 97.32294 77.22983
# Shear Modulus (GPa) = 11.03381 20.36574 15.69977
#
# Velocity S-wave (km/s) = 2.52221 3.42664 3.00860
# Velocity P-wave (km/s) = 6.43616 8.47155 7.52301
#
# Compressibility (1/GPa) = 0.01750188
#
# Stress axis : x y z
#
# Youngs Moduli (GPa) = 27.40337 28.12305 11.17174
#
# Poissons Ratio (x) = 0.16657 0.48180
# Poissons Ratio (y) = 0.16231 0.25673
# Poissons Ratio (z) = 1.18182 0.64627
#
# Static dielectric constant tensor:
#      x y z
#    x 1.561020 0.000000 -0.007530 
#    y 0.000000 1.577000 0.000000 
#    z -0.007530 0.000000 1.571140 
# 
# From -- ./inp_files/1855.got.cif
#   From: 2010.05.17/outbox.cif.g08.bks.cpg/sg6_1_cif.got.tgz:1855.got - 2010.06.03 19:42:10.
