data_PCOD9130775
_publ_section_title
;
Structure prediction by ZEFSAII (Michael W. Deem and Ramdas Pophale) SiO2 
 PCOD9130775
Probable space group: P M
;
_chemical_formula_sum "Si O2"
_cell_formula_units_Z 16
_cell_length_a 8.023337
_cell_length_b 8.153931
_cell_length_c 10.772477
_cell_angle_alpha 90.000000
_cell_angle_beta 117.233774
_cell_angle_gamma 90.000000
_cell_volume 626.629879
_symmetry_space_group_name_H-M "P M"
_symmetry_group_IT_number 6
_symmetry_cell_setting 'monoclinic'
loop_
_space_group_symop_operation_xyz
x,y,z
x,-y,z
loop_
_atom_site_type_symbol
_atom_site_label
_atom_site_fract_x
_atom_site_fract_y
_atom_site_fract_z
Si Si1 0.000000 0.313274 0.957430
Si Si2 0.198190 0.810448 0.781647
Si Si3 0.359242 0.808927 0.183794
Si Si4 0.905878 0.807016 0.262552
Si Si5 0.246553 0.201128 0.524563
Si Si6 0.558013 0.314463 0.007255
Si Si7 0.668558 0.195266 0.694140
Si Si8 0.691080 0.304080 0.435281
O O1 0.003902 0.500000 0.997730
O O2 0.791076 0.259467 0.850106
O O3 0.104364 0.291746 0.859140
O O4 0.136192 0.214454 0.096378
O O5 0.424579 0.798527 0.877935
O O6 0.157599 0.757695 0.628177
O O7 0.142620 0.000000 0.781105
O O8 0.474626 0.754604 0.343146
O O9 0.398359 0.000000 0.173673
O O10 0.454449 0.703890 0.106259
O O11 0.111626 0.741238 0.368244
O O12 0.797603 0.780388 0.357034
O O13 0.915800 0.000000 0.240100
O O14 0.772419 0.728154 0.113399
O O15 0.458148 0.262064 0.609580
O O16 0.251977 0.000000 0.518510
O O17 0.543027 0.500000 0.957865
O O18 0.757418 0.244148 0.592022
O O19 0.662944 0.000000 0.701411
O O20 0.704759 0.500000 0.429777
#
# Coordination Sequence:
#
# PCOD9130775 Si02
#       8
#     2   2   2   2   2   2   2   2
#     4  11  21  35  55  84 113 141 175 221 271 320
#     4  10  18  34  58  83 106 138 178 221 266 317
#     4  10  18  32  55  82 107 140 178 220 266 316
#     4  10  18  34  58  83 106 138 178 221 266 317
#     4   9  21  37  56  78 104 137 182 227 264 308
#     4  10  18  30  49  80 113 140 170 216 266 316
#     4  11  22  39  56  76 106 145 186 225 264 316
#     4  11  21  35  55  84 113 141 175 221 271 320
#
# _framework density 25.533412999999999
#
# number of rings (size 3 to 8) (size 9 to 14) (size 15 to 20)
#    0.000    1.750    0.000    9.375    0.000    1.000 
#    0.000    8.125    0.000    3.000    0.000    0.000 
#    0.000    0.000    0.000    0.000    0.000    0.000 
#
# Total GULP energy -89563.541043 kJ/mol
# GULP energy per Si atom -5597.721315 kJ/mol
# Density = 2.547530 g / cm^3
# Si number density = 25.533413 Si / 1000 Ang^3
#
#
#
# Elastic Constant Matrix: (Units=GPa)
#
#
# Indices 1 2 3 4 5 6 
#
# 1 134.1431 -3.1254 25.6336 0.0000 30.2552 0.0000
# 2 -3.1254 95.0618 -1.2743 0.0000 5.2172 0.0000
# 3 25.6336 -1.2743 147.7158 0.0000 32.1014 0.0000
# 4 0.0000 0.0000 0.0000 35.0932 0.0000 18.4704
# 5 30.2552 5.2172 32.1014 0.0000 50.2056 0.0000
# 6 0.0000 0.0000 0.0000 18.4704 0.0000 16.4047
#
#
#
# Elastic Compliance Matrix: (Units=1/GPa)
#
#
# Indices 1 2 3 4 5 6 
#
# 1 0.008680 0.000556 -0.000409 0.000000 -0.005027 0.000000
# 2 0.000556 0.010634 0.000358 0.000000 -0.001669 0.000000
# 3 -0.000409 0.000358 0.007895 0.000000 -0.004839 0.000000
# 4 0.000000 0.000000 0.000000 0.069945 0.000000 -0.078753
# 5 -0.005027 -0.001669 -0.004839 0.000000 0.026215 0.000000
# 6 0.000000 0.000000 0.000000 -0.078753 0.000000 0.149628
#
#
# Mechanical properties :
#
#
# Convention : Reuss Voigt Hill
#
# Bulk Modulus (GPa) = 35.43753 46.59870 41.01811
# Shear Modulus (GPa) = 17.76873 44.05316 30.91095
#
# Velocity S-wave (km/s) = 2.64086 4.15820 3.48315
# Velocity P-wave (km/s) = 4.81745 6.42992 5.68118
#
# Compressibility (1/GPa) = 0.02821867
#
# Stress axis : x y z
#
# Youngs Moduli (GPa) = 115.21273 94.03680 126.65550
#
# Poissons Ratio (x) = -0.05226 0.05180
# Poissons Ratio (y) = -0.06403 -0.04534
# Poissons Ratio (z) = 0.04712 -0.03366
#
# Static dielectric constant tensor:
#      x y z
#    x 2.187350 0.000000 -0.025630 
#    y 0.000000 1.849240 0.000000 
#    z -0.025630 0.000000 2.003390 
# 
# From -- ./inp_files/4563.got.cif
#   From: 2010.05.17/outbox.cif.g08.bks.cpg/sg6_3_cif.got.tgz:4563.got - 2010.06.03 19:42:10.
