data_PCOD9130734
_publ_section_title
;
Structure prediction by ZEFSAII (Michael W. Deem and Ramdas Pophale) SiO2 
 PCOD9130734
Probable space group: C 2
;
_chemical_formula_sum "Si O2"
_cell_formula_units_Z 16
_cell_length_a 15.000000
_cell_length_b 24.000000
_cell_length_c 9.000000
_cell_angle_alpha 90.000000
_cell_angle_beta 150.000000
_cell_angle_gamma 90.000000
_cell_volume 1620.000000
_symmetry_space_group_name_H-M "C 2"
_symmetry_group_IT_number 5
_symmetry_cell_setting 'monoclinic'
loop_
_space_group_symop_operation_xyz
x,y,z
-x,y,-z
1/2+x,1/2+y,z
1/2-x,1/2+y,-z
loop_
_atom_site_type_symbol
_atom_site_label
_atom_site_fract_x
_atom_site_fract_y
_atom_site_fract_z
Si Si1 0.822203 0.958020 0.350911
Si Si2 0.738305 0.822732 0.717206
Si Si3 0.810036 0.205148 0.175135
Si Si4 0.702045 0.524730 0.370497
Si Si5 0.972687 0.436288 0.630284
Si Si6 0.051599 0.630778 0.400370
Si Si7 0.312363 0.734759 0.825694
Si Si8 0.110069 0.838852 0.395662
O O1 0.835333 0.898711 0.457805
O O2 0.000000 0.964876 0.500000
O O3 0.813030 0.006002 0.472168
O O4 0.643948 0.950752 0.985813
O O5 0.703106 0.760449 0.734998
O O6 0.583051 0.870227 0.470961
O O7 0.813525 0.822195 0.657111
O O8 0.896848 0.842677 0.057500
O O9 0.000000 0.178172 0.500000
O O10 0.635843 0.162289 0.929791
O O11 0.830626 0.226255 0.032013
O O12 0.803001 0.470792 0.447417
O O13 0.840201 0.577922 0.526309
O O14 0.500000 0.531756 0.000000
O O15 0.000000 0.456052 0.500000
O O16 0.197055 0.680759 0.609871
O O17 0.000000 0.616124 0.500000
O O18 0.190854 0.789643 0.616351
O O19 0.500000 0.738087 0.000000
#
# Coordination Sequence:
#
# PCOD9130734 Si02
#       8
#     4   4   4   4   4   4   4   4
#     4  12  28  46  72 112 156 202 257 315 385 461
#     4  11  23  42  67 103 154 204 244 310 372 454
#     4  11  24  44  72 112 155 197 257 309 378 456
#     4  12  25  50  80 107 148 201 262 324 387 460
#     4  12  26  45  71 110 152 201 254 306 383 455
#     4  10  24  49  77 109 148 201 256 320 386 449
#     4  11  24  42  70 108 149 201 250 310 381 454
#     4  11  24  40  67 103 154 200 249 303 381 452
#
# _framework density 9.8765429999999999
#
# number of rings (size 3 to 8) (size 9 to 14) (size 15 to 20)
#    0.000    0.750    2.500    4.500    7.000    0.000 
#    0.000   10.625    0.000    0.000    0.000    0.000 
#    0.000    0.000    0.000    0.000    0.000    0.000 
#
# Total GULP energy -89161.205486 kJ/mol
# GULP energy per Si atom -5572.575343 kJ/mol
# Density = 0.985406 g / cm^3
# Si number density = 9.876543 Si / 1000 Ang^3
#
#
#
# Elastic Constant Matrix: (Units=GPa)
#
#
# Indices 1 2 3 4 5 6 
#
# 1 133.1360 37.9490 41.7463 0.0000 -2.8964 0.0000
# 2 37.9490 125.1149 41.1588 0.0000 0.3531 0.0000
# 3 41.7463 41.1588 186.1686 0.0000 -0.2430 0.0000
# 4 0.0000 0.0000 0.0000 40.7248 0.0000 5.1193
# 5 -2.8964 0.3531 -0.2430 0.0000 41.8463 0.0000
# 6 0.0000 0.0000 0.0000 5.1193 0.0000 46.5359
#
#
#
# Elastic Compliance Matrix: (Units=1/GPa)
#
#
# Indices 1 2 3 4 5 6 
#
# 1 0.008587 -0.002128 -0.001454 0.000000 0.000604 0.000000
# 2 -0.002128 0.009147 -0.001545 0.000000 -0.000233 0.000000
# 3 -0.001454 -0.001545 0.006039 0.000000 -0.000053 0.000000
# 4 0.000000 0.000000 0.000000 0.024899 0.000000 -0.002739
# 5 0.000604 -0.000233 -0.000053 0.000000 0.023940 0.000000
# 6 0.000000 0.000000 0.000000 -0.002739 0.000000 0.021790
#
#
# Mechanical properties :
#
#
# Convention : Reuss Voigt Hill
#
# Bulk Modulus (GPa) = 73.97520 76.23639 75.10580
# Shear Modulus (GPa) = 45.80264 47.39242 46.59753
#
# Velocity S-wave (km/s) = 4.82057 4.90352 4.86222
# Velocity P-wave (km/s) = 8.27739 8.41058 8.34425
#
# Compressibility (1/GPa) = 0.01351804
#
# Stress axis : x y z
#
# Youngs Moduli (GPa) = 116.45844 109.32432 165.58525
#
# Poissons Ratio (x) = 0.23262 0.24081
# Poissons Ratio (y) = 0.24780 0.25590
# Poissons Ratio (z) = 0.16936 0.16895
#
# Static dielectric constant tensor:
#      x y z
#    x 1.757330 0.000000 0.023170 
#    y 0.000000 1.718070 0.000000 
#    z 0.023170 0.000000 1.746730 
# 
# From -- ./inp_files/25660.got.cif
#   From: 2010.05.17/outbox.ucp.g08.bks.cvg/sg5_13_cif.got.tgz:25660.got - 2010.06.11 12:53:14.
