data_PCOD9130141
_publ_section_title
;
Structure prediction by ZEFSAII (Michael W. Deem and Ramdas Pophale) SiO2 
 PCOD9130141
Probable space group: C 2
;
_chemical_formula_sum "Si O2"
_cell_formula_units_Z 24
_cell_length_a 14.767959
_cell_length_b 5.754544
_cell_length_c 12.486487
_cell_angle_alpha 90.000000
_cell_angle_beta 114.471439
_cell_angle_gamma 90.000000
_cell_volume 965.813264
_symmetry_space_group_name_H-M "C 2"
_symmetry_group_IT_number 5
_symmetry_cell_setting 'monoclinic'
loop_
_space_group_symop_operation_xyz
x,y,z
-x,y,-z
1/2+x,1/2+y,z
1/2-x,1/2+y,-z
loop_
_atom_site_type_symbol
_atom_site_label
_atom_site_fract_x
_atom_site_fract_y
_atom_site_fract_z
Si Si1 0.368683 0.517330 0.873852
Si Si2 0.695190 0.057482 0.630168
Si Si3 0.500000 0.914878 0.000000
Si Si4 0.002600 0.727505 0.210240
Si Si5 0.871407 0.905480 0.556737
Si Si6 0.500000 0.762481 0.500000
Si Si7 0.303751 0.269876 0.032639
O O1 0.263046 0.548511 0.767519
O O2 0.447373 0.453661 0.820609
O O3 0.366007 0.299618 0.952276
O O4 0.405267 0.741111 0.954395
O O5 0.773013 0.969487 0.575886
O O6 0.594690 0.909079 0.587672
O O7 0.663738 0.310843 0.574916
O O8 0.509196 0.030190 0.122657
O O9 0.068642 0.704513 0.348751
O O10 0.885987 0.769555 0.166442
O O11 0.950792 0.105810 0.569898
O O12 0.248249 0.519537 0.002167
#
# Coordination Sequence:
#
# PCOD9130141 Si02
#       7
#     4   4   2   4   4   2   4
#     4  11  25  45  73 103 145 197 252 311 386 466
#     4  11  26  48  75 111 148 199 254 320 387 461
#     4  12  20  44  80 104 140 198 262 308 390 470
#     4  11  25  45  73 103 145 197 252 311 386 466
#     4  11  26  48  75 111 148 199 254 320 387 461
#     4  12  26  48  80 108 152 196 254 312 398 456
#     4  12  26  44  69 113 154 194 250 324 394 462
#
# _framework density 24.849522
#
# number of rings (size 3 to 8) (size 9 to 14) (size 15 to 20)
#    0.000    0.667    5.000    1.500    4.667    2.667 
#    0.000    0.000    0.000    0.000    0.000    0.000 
#    0.000    0.000    0.000    0.000    0.000    0.000 
#
# Total GULP energy -67062.728243 kJ/mol
# GULP energy per Si atom -5588.560687 kJ/mol
# Density = 2.479296 g / cm^3
# Si number density = 24.849522 Si / 1000 Ang^3
#
#
#
# Elastic Constant Matrix: (Units=GPa)
#
#
# Indices 1 2 3 4 5 6 
#
# 1 140.3154 44.6554 24.3592 0.0000 29.5318 0.0000
# 2 44.6554 76.9027 7.4866 0.0000 19.8378 0.0000
# 3 24.3592 7.4866 86.3465 0.0000 34.1949 0.0000
# 4 0.0000 0.0000 0.0000 28.7076 0.0000 0.4975
# 5 29.5318 19.8378 34.1949 0.0000 47.3055 0.0000
# 6 0.0000 0.0000 0.0000 0.4975 0.0000 60.1403
#
#
#
# Elastic Compliance Matrix: (Units=1/GPa)
#
#
# Indices 1 2 3 4 5 6 
#
# 1 0.009429 -0.004533 -0.000965 0.000000 -0.003288 0.000000
# 2 -0.004533 0.016924 0.002104 0.000000 -0.005788 0.000000
# 3 -0.000965 0.002104 0.016507 0.000000 -0.012212 0.000000
# 4 0.000000 0.000000 0.000000 0.034839 0.000000 -0.000288
# 5 -0.003288 -0.005788 -0.012212 0.000000 0.034446 0.000000
# 6 0.000000 0.000000 0.000000 -0.000288 0.000000 0.016630
#
#
# Mechanical properties :
#
#
# Convention : Reuss Voigt Hill
#
# Bulk Modulus (GPa) = 27.72294 50.72966 39.22630
# Shear Modulus (GPa) = 33.87800 42.36825 38.12312
#
# Velocity S-wave (km/s) = 3.69633 4.13363 3.92108
# Velocity P-wave (km/s) = 5.42196 6.57584 6.02658
#
# Compressibility (1/GPa) = 0.03607121
#
# Stress axis : x y z
#
# Youngs Moduli (GPa) = 106.05636 59.08793 60.57925
#
# Poissons Ratio (x) = 0.26785 0.05845
# Poissons Ratio (y) = 0.48076 -0.12743
# Poissons Ratio (z) = 0.10234 -0.12429
#
# Static dielectric constant tensor:
#      x y z
#    x 2.149070 0.000000 -0.026680 
#    y 0.000000 1.993310 0.000000 
#    z -0.026680 0.000000 1.910810 
# 
# From -- ./inp_files/53764.got.cif
#   From: 2010.05.17/outbox.cif.g08.bks.cpg/sg5_27_cif.got.tgz:53764.got - 2010.06.03 18:56:24.
