data_PCOD9130033
_publ_section_title
;
Structure prediction by ZEFSAII (Michael W. Deem and Ramdas Pophale) SiO2 
 PCOD9130033
Probable space group: C 2
;
_chemical_formula_sum "Si O2"
_cell_formula_units_Z 26
_cell_length_a 13.211280
_cell_length_b 5.068236
_cell_length_c 23.704481
_cell_angle_alpha 90.000000
_cell_angle_beta 131.195672
_cell_angle_gamma 90.000000
_cell_volume 1194.313350
_symmetry_space_group_name_H-M "C 2"
_symmetry_group_IT_number 5
_symmetry_cell_setting 'monoclinic'
loop_
_space_group_symop_operation_xyz
x,y,z
-x,y,-z
1/2+x,1/2+y,z
1/2-x,1/2+y,-z
loop_
_atom_site_type_symbol
_atom_site_label
_atom_site_fract_x
_atom_site_fract_y
_atom_site_fract_z
Si Si1 0.173016 0.288330 0.497066
Si Si2 0.297012 0.780507 0.723935
Si Si3 0.757947 0.271923 0.839151
Si Si4 0.144559 0.286395 0.621236
Si Si5 0.100984 0.296597 0.817144
Si Si6 0.500000 0.848461 0.000000
Si Si7 0.332749 0.052067 0.037847
O O1 0.240918 0.536981 0.491238
O O2 0.171904 0.322736 0.564466
O O3 0.014448 0.255966 0.425236
O O4 0.311417 0.819627 0.796239
O O5 0.203186 0.535001 0.675513
O O6 0.444710 0.734874 0.752736
O O7 0.226208 0.033488 0.671631
O O8 0.689045 0.536896 0.837766
O O9 0.877941 0.191185 0.926232
O O10 0.652975 0.033352 0.797240
O O11 0.120754 0.423902 0.886557
O O12 0.557494 0.022985 0.970458
O O13 0.212262 0.854496 0.974646
#
# Coordination Sequence:
#
# PCOD9130033 Si02
#       7
#     4   4   4   4   4   2   4
#     4  11  24  45  76 106 136 175 217 265 319 384
#     4  12  26  45  66  98 142 177 216 274 328 392
#     4  12  27  42  67  95 128 178 230 275 340 393
#     4  11  26  45  70 105 138 174 220 263 322 397
#     4  12  25  44  62  95 128 173 224 275 335 398
#     4  12  24  44  68  92 126 174 230 290 332 388
#     4  12  24  42  65  92 123 166 224 288 336 389
#
# _framework density 21.769832000000001
#
# number of rings (size 3 to 8) (size 9 to 14) (size 15 to 20)
#    0.000    0.308    4.615    3.692    0.000   12.308 
#    0.000    0.000    0.000    0.000    0.000    0.000 
#    0.000    0.000    0.000    0.000    0.000    0.000 
#
# Total GULP energy -72775.835459 kJ/mol
# GULP energy per Si atom -5598.141189 kJ/mol
# Density = 2.172028 g / cm^3
# Si number density = 21.769832 Si / 1000 Ang^3
#
#
#
# Elastic Constant Matrix: (Units=GPa)
#
#
# Indices 1 2 3 4 5 6 
#
# 1 132.4352 18.4445 27.1550 0.0000 10.5428 0.0001
# 2 18.4445 84.4041 12.7469 -0.0001 0.1210 0.0001
# 3 27.1550 12.7469 94.6228 0.0000 7.8370 0.0001
# 4 0.0000 -0.0001 0.0000 28.9874 0.0000 -2.7091
# 5 10.5428 0.1210 7.8370 0.0000 26.7756 0.0000
# 6 0.0001 0.0001 0.0001 -2.7091 0.0000 33.8281
#
#
#
# Elastic Compliance Matrix: (Units=1/GPa)
#
#
# Indices 1 2 3 4 5 6 
#
# 1 0.008385 -0.001530 -0.001975 0.000000 -0.002717 0.000000
# 2 -0.001530 0.012378 -0.001305 0.000000 0.000929 0.000000
# 3 -0.001975 -0.001305 0.011525 0.000000 -0.002590 0.000000
# 4 0.000000 0.000000 0.000000 0.034758 0.000000 0.002784
# 5 -0.002717 0.000929 -0.002590 0.000000 0.039171 0.000000
# 6 0.000000 0.000000 0.000000 0.002784 0.000000 0.029784
#
#
# Mechanical properties :
#
#
# Convention : Reuss Voigt Hill
#
# Bulk Modulus (GPa) = 44.11650 47.57275 45.84463
# Shear Modulus (GPa) = 32.64158 34.79258 33.71708
#
# Velocity S-wave (km/s) = 3.87640 4.00209 3.93975
# Velocity P-wave (km/s) = 6.35172 6.57690 6.46529
#
# Compressibility (1/GPa) = 0.02266726
#
# Stress axis : x y z
#
# Youngs Moduli (GPa) = 119.25698 80.78888 86.76433
#
# Poissons Ratio (x) = 0.12362 0.17138
# Poissons Ratio (y) = 0.18249 0.11325
# Poissons Ratio (z) = 0.23557 0.10545
#
# Static dielectric constant tensor:
#      x y z
#    x 1.789690 0.000000 0.001330 
#    y 0.000000 1.724560 0.000000 
#    z 0.001330 0.000000 1.796160 
# 
# From -- ./inp_files/68155.got.cif
#   From: 2010.05.17/outbox.cif.g08.bks.cpg/sg5_35_cif.got.tgz:68155.got - 2010.06.03 18:56:24.
