data_PCOD9130154
_publ_section_title
;
Structure prediction by ZEFSAII (Michael W. Deem and Ramdas Pophale) SiO2 
 PCOD9130154
Probable space group: C 2
;
_chemical_formula_sum "Si O2"
_cell_formula_units_Z 16
_cell_length_a 5.706267
_cell_length_b 23.283086
_cell_length_c 5.126013
_cell_angle_alpha 90.000000
_cell_angle_beta 81.776379
_cell_angle_gamma 90.000000
_cell_volume 674.036657
_symmetry_space_group_name_H-M "C 2"
_symmetry_group_IT_number 5
_symmetry_cell_setting 'monoclinic'
loop_
_space_group_symop_operation_xyz
x,y,z
-x,y,-z
1/2+x,1/2+y,z
1/2-x,1/2+y,-z
loop_
_atom_site_type_symbol
_atom_site_label
_atom_site_fract_x
_atom_site_fract_y
_atom_site_fract_z
Si Si1 0.373770 0.462650 0.267681
Si Si2 0.272886 0.700117 0.349120
Si Si3 0.000000 0.289729 0.000000
Si Si4 0.844810 0.580229 0.781125
Si Si5 0.500000 0.871196 0.500000
O O1 0.500000 0.490167 0.500000
O O2 0.254603 0.517273 0.146307
O O3 0.217923 0.414737 0.435294
O O4 0.500000 0.433327 0.000000
O O5 0.500000 0.714342 0.500000
O O6 0.318678 0.634318 0.257001
O O7 0.000000 0.702420 0.500000
O O8 0.291069 0.745285 0.108977
O O9 0.987752 0.331494 0.754951
O O10 0.000000 0.571210 0.500000
O O11 0.000000 0.599182 0.000000
#
# Coordination Sequence:
#
# PCOD9130154 Si02
#       5
#     4   4   2   4   2
#     4  12  26  46  78 113 151 205 257 321 394 464
#     4  11  28  52  81 119 159 210 264 326 398 467
#     4  12  28  50  78 108 158 212 264 324 386 476
#     4  11  25  45  78 114 159 197 256 327 396 470
#     4  12  28  52  72 112 156 202 264 316 386 470
#
# _framework density 23.737582
#
# number of rings (size 3 to 8) (size 9 to 14) (size 15 to 20)
#    0.000    0.500    2.500    3.750   10.500    3.000 
#    4.500    0.000    0.000    0.000    0.000    0.000 
#    0.000    0.000    0.000    0.000    0.000    0.000 
#
# Total GULP energy -44651.595692 kJ/mol
# GULP energy per Si atom -5581.449462 kJ/mol
# Density = 2.368355 g / cm^3
# Si number density = 23.737582 Si / 1000 Ang^3
#
#
#
# Elastic Constant Matrix: (Units=GPa)
#
#
# Indices 1 2 3 4 5 6 
#
# 1 80.4015 17.0383 41.0872 0.0000 -11.5889 0.0000
# 2 17.0383 142.9194 15.7837 0.0000 -4.9500 0.0000
# 3 41.0872 15.7837 144.6120 0.0000 -9.0005 0.0000
# 4 0.0000 0.0000 0.0000 66.0934 0.0000 -6.8736
# 5 -11.5889 -4.9500 -9.0005 0.0000 43.5526 0.0000
# 6 0.0000 0.0000 0.0000 -6.8736 0.0000 15.5338
#
#
#
# Elastic Compliance Matrix: (Units=1/GPa)
#
#
# Indices 1 2 3 4 5 6 
#
# 1 0.015185 -0.001264 -0.003985 0.000000 0.003073 0.000000
# 2 -0.001264 0.007206 -0.000403 0.000000 0.000400 0.000000
# 3 -0.003985 -0.000403 0.008127 0.000000 0.000573 0.000000
# 4 0.000000 0.000000 0.000000 0.015860 0.000000 0.007018
# 5 0.003073 0.000400 0.000573 0.000000 0.023942 0.000000
# 6 0.000000 0.000000 0.000000 0.007018 0.000000 0.067481
#
#
# Mechanical properties :
#
#
# Convention : Reuss Voigt Hill
#
# Bulk Modulus (GPa) = 52.04305 57.30571 54.67438
# Shear Modulus (GPa) = 32.15249 44.63755 38.39502
#
# Velocity S-wave (km/s) = 3.68434 4.34113 4.02615
# Velocity P-wave (km/s) = 6.33017 7.02289 6.68551
#
# Compressibility (1/GPa) = 0.01921486
#
# Stress axis : x y z
#
# Youngs Moduli (GPa) = 65.85506 138.77505 123.04765
#
# Poissons Ratio (x) = 0.17537 0.49036
# Poissons Ratio (y) = 0.08322 0.04954
# Poissons Ratio (z) = 0.26244 0.05587
#
# Static dielectric constant tensor:
#      x y z
#    x 1.960280 0.000000 -0.028520 
#    y 0.000000 1.869170 0.000000 
#    z -0.028520 0.000000 1.950640 
# 
# From -- ./inp_files/646.got.cif
#   From: 2010.05.17/outbox.cif.g08.bks.cpg/sg5_1_cif.got.tgz:646.got - 2010.06.03 18:56:24.
