data_PCOD9130807
_publ_section_title
;
Structure prediction by ZEFSAII (Michael W. Deem and Ramdas Pophale) SiO2 
 PCOD9130807
Probable space group: P M
;
_chemical_formula_sum "Si O2"
_cell_formula_units_Z 16
_cell_length_a 8.458648
_cell_length_b 8.662472
_cell_length_c 13.263316
_cell_angle_alpha 90.000000
_cell_angle_beta 52.722970
_cell_angle_gamma 90.000000
_cell_volume 773.309241
_symmetry_space_group_name_H-M "P M"
_symmetry_group_IT_number 6
_symmetry_cell_setting 'monoclinic'
loop_
_space_group_symop_operation_xyz
x,y,z
x,-y,z
loop_
_atom_site_type_symbol
_atom_site_label
_atom_site_fract_x
_atom_site_fract_y
_atom_site_fract_z
Si Si1 0.013990 0.817361 0.309580
Si Si2 0.448529 0.315284 0.199672
Si Si3 0.404643 0.330535 0.826665
Si Si4 0.525457 0.828474 0.963912
Si Si5 0.965670 0.826447 0.710504
Si Si6 0.793651 0.187598 0.186164
Si Si7 0.045539 0.178230 0.894727
Si Si8 0.844152 0.674367 0.563255
O O1 0.220995 0.737775 0.265418
O O2 0.910198 0.767265 0.244045
O O3 0.864824 0.781490 0.458688
O O4 0.050841 0.000000 0.287808
O O5 0.459896 0.500000 0.191956
O O6 0.572760 0.254699 0.248948
O O7 0.558402 0.233735 0.062483
O O8 0.317084 0.500000 0.840944
O O9 0.409410 0.297465 0.944136
O O10 0.274288 0.193390 0.834339
O O11 0.621434 0.328038 0.693350
O O12 0.731695 0.841980 0.825191
O O13 0.433374 0.000000 0.001631
O O14 0.982779 0.733237 0.601060
O O15 0.034035 0.748289 0.788130
O O16 0.049428 0.000000 0.665727
O O17 0.781523 0.000000 0.191219
O O18 0.926275 0.237805 0.037923
O O19 0.982199 0.000000 0.905491
O O20 0.898493 0.500000 0.513875
#
# Coordination Sequence:
#
# PCOD9130807 Si02
#       8
#     2   2   2   2   2   2   2   2
#     4  11  24  43  68  91 120 167 219 262 303 367
#     4  12  24  38  62  95 129 165 203 254 318 379
#     4  10  21  35  55  87 121 158 198 248 313 371
#     4  10  18  34  58  83 116 155 196 245 296 359
#     4   9  18  34  59  85 113 152 197 245 293 353
#     4  10  22  42  65  93 126 163 208 260 310 365
#     4  10  19  35  59  90 122 154 197 250 307 367
#     4  10  22  41  60  82 119 160 202 254 308 363
#
# _framework density 20.690297999999999
#
# number of rings (size 3 to 8) (size 9 to 14) (size 15 to 20)
#    0.000    1.750    1.250    3.375    0.000    5.000 
#    2.250    0.000    0.000    0.000    0.000    0.000 
#    0.000    0.000    0.000    0.000    0.000    0.000 
#
# Total GULP energy -89129.938169 kJ/mol
# GULP energy per Si atom -5570.621136 kJ/mol
# Density = 2.064321 g / cm^3
# Si number density = 20.690298 Si / 1000 Ang^3
#
#
#
# Elastic Constant Matrix: (Units=GPa)
#
#
# Indices 1 2 3 4 5 6 
#
# 1 106.6304 28.1247 38.0735 0.0000 23.9189 0.0000
# 2 28.1247 66.2963 19.4752 0.0000 0.5902 0.0000
# 3 38.0735 19.4752 66.1621 0.0000 24.8184 0.0000
# 4 0.0000 0.0000 0.0000 17.4598 0.0000 0.9426
# 5 23.9189 0.5902 24.8184 0.0000 26.1460 0.0000
# 6 0.0000 0.0000 0.0000 0.9426 0.0000 15.8812
#
#
#
# Elastic Compliance Matrix: (Units=1/GPa)
#
#
# Indices 1 2 3 4 5 6 
#
# 1 0.013936 -0.004998 -0.002808 0.000000 -0.009970 0.000000
# 2 -0.004998 0.019068 -0.006663 0.000000 0.010466 0.000000
# 3 -0.002808 -0.006663 0.027443 0.000000 -0.023330 0.000000
# 4 0.000000 0.000000 0.000000 0.057459 0.000000 -0.003410
# 5 -0.009970 0.010466 -0.023330 0.000000 0.069277 0.000000
# 6 0.000000 0.000000 0.000000 -0.003410 0.000000 0.063170
#
#
# Mechanical properties :
#
#
# Convention : Reuss Voigt Hill
#
# Bulk Modulus (GPa) = 31.73704 45.60395 38.67050
# Shear Modulus (GPa) = 17.25363 22.12509 19.68936
#
# Velocity S-wave (km/s) = 2.89086 3.27363 3.08818
# Velocity P-wave (km/s) = 5.14929 6.03142 5.60773
#
# Compressibility (1/GPa) = 0.03150893
#
# Stress axis : x y z
#
# Youngs Moduli (GPa) = 71.75820 52.44320 36.43901
#
# Poissons Ratio (x) = 0.26212 0.10232
# Poissons Ratio (y) = 0.35866 0.24278
# Poissons Ratio (z) = 0.20150 0.34941
#
# Static dielectric constant tensor:
#      x y z
#    x 1.803800 0.000000 -0.003730 
#    y 0.000000 1.728780 0.000000 
#    z -0.003730 0.000000 1.765760 
# 
# From -- ./inp_files/4579.got.cif
#   From: 2010.05.17/outbox.cif.g08.bks.cpg/sg6_3_cif.got.tgz:4579.got - 2010.06.03 19:42:10.
