data_PCOD9130340
_publ_section_title
;
Structure prediction by ZEFSAII (Michael W. Deem and Ramdas Pophale) SiO2 
 PCOD9130340
Probable space group: C 2
;
_chemical_formula_sum "Si O2"
_cell_formula_units_Z 20
_cell_length_a 15.140310
_cell_length_b 5.353195
_cell_length_c 19.682945
_cell_angle_alpha 90.000000
_cell_angle_beta 30.870246
_cell_angle_gamma 90.000000
_cell_volume 818.532990
_symmetry_space_group_name_H-M "C 2"
_symmetry_group_IT_number 5
_symmetry_cell_setting 'monoclinic'
loop_
_space_group_symop_operation_xyz
x,y,z
-x,y,-z
1/2+x,1/2+y,z
1/2-x,1/2+y,-z
loop_
_atom_site_type_symbol
_atom_site_label
_atom_site_fract_x
_atom_site_fract_y
_atom_site_fract_z
Si Si1 0.677398 0.342420 0.518892
Si Si2 0.190473 0.794649 0.263606
Si Si3 0.500000 0.469781 0.000000
Si Si4 0.353622 0.294537 0.951068
Si Si5 0.795231 0.590515 0.318062
Si Si6 0.500000 0.957053 0.500000
O O1 0.782529 0.572082 0.479730
O O2 0.475744 0.399200 0.665212
O O3 0.749195 0.352510 0.394169
O O4 0.340668 0.645130 0.128035
O O5 0.093058 0.610114 0.380015
O O6 0.272262 0.010458 0.255265
O O7 0.578741 0.328795 0.015060
O O8 0.520827 0.215277 0.797143
O O9 0.275121 0.558636 0.976353
O O10 0.643587 0.777855 0.436556
#
# Coordination Sequence:
#
# PCOD9130340 Si02
#       6
#     4   4   2   4   4   2
#     4  12  28  48  79 124 162 204 272 347 406 487
#     4  12  26  52  83 115 161 220 275 331 419 499
#     4  12  30  58  86 120 172 226 278 340 422 504
#     4  12  31  57  85 122 168 223 279 345 417 500
#     4  12  26  52  83 111 163 214 278 341 413 488
#     4  12  20  50  88 110 156 212 280 332 418 490
#
# _framework density 24.433958000000001
#
# number of rings (size 3 to 8) (size 9 to 14) (size 15 to 20)
#    0.000    0.000    6.000    2.400    2.800    3.200 
#    7.200    0.000    0.000    0.000    0.000    0.000 
#    0.000    0.000    0.000    0.000    0.000    0.000 
#
# Total GULP energy -55955.189472 kJ/mol
# GULP energy per Si atom -5595.518947 kJ/mol
# Density = 2.437835 g / cm^3
# Si number density = 24.433958 Si / 1000 Ang^3
#
#
#
# Elastic Constant Matrix: (Units=GPa)
#
#
# Indices 1 2 3 4 5 6 
#
# 1 121.1434 44.6893 42.9197 -0.0001 -11.7969 -0.0004
# 2 44.6893 107.2444 41.0082 -0.0028 -7.7709 0.0037
# 3 42.9197 41.0082 183.3825 -0.0005 -14.5834 0.0009
# 4 -0.0001 -0.0028 -0.0005 59.5395 0.0007 1.0088
# 5 -11.7969 -7.7709 -14.5834 0.0007 31.4180 -0.0008
# 6 -0.0004 0.0037 0.0009 1.0088 -0.0008 57.9442
#
#
#
# Elastic Compliance Matrix: (Units=1/GPa)
#
#
# Indices 1 2 3 4 5 6 
#
# 1 0.010307 -0.003581 -0.001427 0.000000 0.002322 0.000000
# 2 -0.003581 0.011511 -0.001678 0.000001 0.000723 -0.000001
# 3 -0.001427 -0.001678 0.006320 0.000000 0.001983 0.000000
# 4 0.000000 0.000001 0.000000 0.016801 0.000000 -0.000292
# 5 0.002322 0.000723 0.001983 0.000000 0.033800 0.000000
# 6 0.000000 -0.000001 0.000000 -0.000292 0.000000 0.017263
#
#
# Mechanical properties :
#
#
# Convention : Reuss Voigt Hill
#
# Bulk Modulus (GPa) = 67.72603 74.33385 71.02994
# Shear Modulus (GPa) = 43.74563 48.65722 46.20142
#
# Velocity S-wave (km/s) = 4.23586 4.46733 4.35313
# Velocity P-wave (km/s) = 7.19037 7.55630 7.37561
#
# Compressibility (1/GPa) = 0.01476537
#
# Stress axis : x y z
#
# Youngs Moduli (GPa) = 97.01704 86.87304 158.22698
#
# Poissons Ratio (x) = 0.31112 0.22577
# Poissons Ratio (y) = 0.34745 0.26557
# Poissons Ratio (z) = 0.13843 0.14581
#
# Static dielectric constant tensor:
#      x y z
#    x 2.328130 0.000000 -0.009700 
#    y 0.000000 1.903300 0.000000 
#    z -0.009700 0.000000 1.867090 
# 
# From -- ./inp_files/25860.got.cif
#   From: 2010.05.17/outbox.cif.g08.bks.cpg/sg5_13_cif.got.tgz:25860.got - 2010.06.03 18:56:24.
