data_PCOD9130214
_publ_section_title
;
Structure prediction by ZEFSAII (Michael W. Deem and Ramdas Pophale) SiO2 
 PCOD9130214
Probable space group: C 2
;
_chemical_formula_sum "Si O2"
_cell_formula_units_Z 16
_cell_length_a 13.023631
_cell_length_b 4.856939
_cell_length_c 9.356279
_cell_angle_alpha 90.000000
_cell_angle_beta 68.966680
_cell_angle_gamma 90.000000
_cell_volume 552.398639
_symmetry_space_group_name_H-M "C 2"
_symmetry_group_IT_number 5
_symmetry_cell_setting 'monoclinic'
loop_
_space_group_symop_operation_xyz
x,y,z
-x,y,-z
1/2+x,1/2+y,z
1/2-x,1/2+y,-z
loop_
_atom_site_type_symbol
_atom_site_label
_atom_site_fract_x
_atom_site_fract_y
_atom_site_fract_z
Si Si1 0.119306 0.684180 0.896801
Si Si2 0.918728 0.620637 0.674049
Si Si3 0.266170 0.920963 0.409629
Si Si4 0.139928 0.097299 0.106685
O O1 0.142970 0.585586 0.724630
O O2 0.228314 0.566658 0.925468
O O3 0.124335 0.003351 0.948581
O O4 0.000000 0.573865 0.000000
O O5 0.895983 0.357776 0.782429
O O6 0.935480 0.865919 0.778500
O O7 0.000000 0.586257 0.500000
O O8 0.305967 0.679560 0.496011
O O9 0.191039 0.730401 0.348750
#
# Coordination Sequence:
#
# PCOD9130214 Si02
#       4
#     4   4   4   4
#     4  11  27  54  85 122 163 226 267 346 418 479
#     4  11  25  49  78 117 161 217 261 343 418 467
#     4  11  26  52  81 124 168 206 280 339 407 511
#     4  11  25  51  79 120 165 205 289 334 392 514
#
# _framework density 28.964592
#
# number of rings (size 3 to 8) (size 9 to 14) (size 15 to 20)
#    0.000    1.000    0.000    5.250    3.500    6.000 
#   13.500   18.750    0.000    0.000    0.000    0.000 
#    0.000    0.000    0.000    0.000    0.000    0.000 
#
# Total GULP energy -44743.591100 kJ/mol
# GULP energy per Si atom -5592.948888 kJ/mol
# Density = 2.889867 g / cm^3
# Si number density = 28.964592 Si / 1000 Ang^3
#
#
#
# Elastic Constant Matrix: (Units=GPa)
#
#
# Indices 1 2 3 4 5 6 
#
# 1 85.1150 51.9410 46.5857 0.0000 -29.9032 0.0000
# 2 51.9410 274.3656 133.9208 0.0001 2.9912 0.0002
# 3 46.5857 133.9208 251.5073 0.0000 -33.7917 0.0000
# 4 0.0000 0.0001 0.0000 78.5295 0.0000 12.6764
# 5 -29.9032 2.9912 -33.7917 0.0000 54.2251 0.0000
# 6 0.0000 0.0002 0.0000 12.6764 0.0000 44.2849
#
#
#
# Elastic Compliance Matrix: (Units=1/GPa)
#
#
# Indices 1 2 3 4 5 6 
#
# 1 0.017200 -0.003288 -0.000149 0.000000 0.009574 0.000000
# 2 -0.003288 0.005778 -0.003006 0.000000 -0.004005 0.000000
# 3 -0.000149 -0.003006 0.006128 0.000000 0.003903 0.000000
# 4 0.000000 0.000000 0.000000 0.013351 0.000000 -0.003822
# 5 0.009574 -0.004005 0.003903 0.000000 0.026374 0.000000
# 6 0.000000 0.000000 0.000000 -0.003822 0.000000 0.023675
#
#
# Mechanical properties :
#
#
# Convention : Reuss Voigt Hill
#
# Bulk Modulus (GPa) = 61.64584 119.54256 90.59420
# Shear Modulus (GPa) = 45.12653 60.64392 52.88522
#
# Velocity S-wave (km/s) = 3.95142 4.58069 4.27764
# Velocity P-wave (km/s) = 6.49212 8.32697 7.46613
#
# Compressibility (1/GPa) = 0.01622170
#
# Stress axis : x y z
#
# Youngs Moduli (GPa) = 58.13830 173.06976 163.17380
#
# Poissons Ratio (x) = 0.56905 0.02429
# Poissons Ratio (y) = 0.19116 0.49046
# Poissons Ratio (z) = 0.00866 0.52020
#
# Static dielectric constant tensor:
#      x y z
#    x 2.402610 0.000000 0.187870 
#    y 0.000000 2.361110 0.000000 
#    z 0.187870 0.000000 2.432200 
# 
# From -- ./inp_files/43532.got.cif
#   From: 2010.05.17/outbox.cif.g08.bks.cpg/sg5_22_cif.got.tgz:43532.got - 2010.06.03 18:56:24.
