data_PCOD9130654
_publ_section_title
;
Structure prediction by ZEFSAII (Michael W. Deem and Ramdas Pophale) SiO2 
 PCOD9130654
Probable space group: C 2
;
_chemical_formula_sum "Si O2"
_cell_formula_units_Z 28
_cell_length_a 17.064641
_cell_length_b 6.931334
_cell_length_c 13.824597
_cell_angle_alpha 90.000000
_cell_angle_beta 143.720229
_cell_angle_gamma 90.000000
_cell_volume 967.584767
_symmetry_space_group_name_H-M "C 2"
_symmetry_group_IT_number 5
_symmetry_cell_setting 'monoclinic'
loop_
_space_group_symop_operation_xyz
x,y,z
-x,y,-z
1/2+x,1/2+y,z
1/2-x,1/2+y,-z
loop_
_atom_site_type_symbol
_atom_site_label
_atom_site_fract_x
_atom_site_fract_y
_atom_site_fract_z
Si Si1 0.963837 0.633790 0.281275
Si Si2 0.174975 0.537481 0.622727
Si Si3 0.609837 0.008610 0.996082
Si Si4 0.615166 0.579203 0.331202
Si Si5 0.343971 0.033555 0.672913
Si Si6 0.132781 0.946170 0.669771
Si Si7 0.894227 0.052267 0.978698
O O1 0.876099 0.547021 0.106491
O O2 0.903347 0.819403 0.271445
O O3 0.029599 0.498819 0.431362
O O4 0.098625 0.671711 0.354786
O O5 0.283760 0.490558 0.648526
O O6 0.165974 0.771072 0.628764
O O7 0.250838 0.483088 0.798717
O O8 0.616008 0.783214 0.026594
O O9 0.458098 0.075103 0.865168
O O10 0.741255 0.076141 0.182112
O O11 0.687725 0.560170 0.507150
O O12 0.469087 0.507511 0.153686
O O13 0.619540 0.811137 0.316102
O O14 0.000000 0.045587 0.500000
O O15 0.000000 0.006982 0.000000
#
# Coordination Sequence:
#
# PCOD9130654 Si02
#       7
#     4   4   4   4   4   4   4
#     4   8  15  26  42  66  92 122 146 201 248 276
#     4   8  14  24  43  67  92 114 164 200 235 264
#     4   8  15  26  41  66  94 119 149 200 243 279
#     4   9  14  26  43  72  96 125 149 203 239 293
#     4   8  16  26  45  65 105 118 156 193 252 281
#     4   9  15  26  47  67  92 119 164 208 234 266
#     4   8  13  22  42  68  92 115 155 198 231 278
#
# _framework density 28.938033000000001
#
# number of rings (size 3 to 8) (size 9 to 14) (size 15 to 20)
#    0.857    2.857    0.000    0.000    0.000    0.000 
#    0.000    0.000   28.286    0.000    0.000   87.000 
#    0.000    0.000    0.000    0.000    0.000    0.000 
#
# Total GULP energy -77937.700545 kJ/mol
# GULP energy per Si atom -5566.978610 kJ/mol
# Density = 2.887217 g / cm^3
# Si number density = 28.938033 Si / 1000 Ang^3
#
#
#
# Elastic Constant Matrix: (Units=GPa)
#
#
# Indices 1 2 3 4 5 6 
#
# 1 104.3948 19.0372 40.6361 0.0000 -1.7320 0.0000
# 2 19.0372 108.5934 27.5758 0.0000 -5.4842 0.0000
# 3 40.6361 27.5758 367.1057 0.0000 35.2806 0.0000
# 4 0.0000 0.0000 0.0000 25.2679 0.0000 -12.1058
# 5 -1.7320 -5.4842 35.2806 0.0000 34.1334 0.0000
# 6 0.0000 0.0000 0.0000 -12.1058 0.0000 22.4406
#
#
#
# Elastic Compliance Matrix: (Units=1/GPa)
#
#
# Indices 1 2 3 4 5 6 
#
# 1 0.010325 -0.001434 -0.001181 0.000000 0.001514 0.000000
# 2 -0.001434 0.009780 -0.000799 0.000000 0.002325 0.000000
# 3 -0.001181 -0.000799 0.003256 0.000000 -0.003554 0.000000
# 4 0.000000 0.000000 0.000000 0.053370 0.000000 0.028791
# 5 0.001514 0.002325 -0.003554 0.000000 0.033421 0.000000
# 6 0.000000 0.000000 0.000000 0.028791 0.000000 0.060093
#
#
# Mechanical properties :
#
#
# Convention : Reuss Voigt Hill
#
# Bulk Modulus (GPa) = 60.48100 83.84357 72.16228
# Shear Modulus (GPa) = 27.38454 49.22471 38.30462
#
# Velocity S-wave (km/s) = 3.07956 4.12884 3.64218
# Velocity P-wave (km/s) = 5.79573 7.19487 6.53286
#
# Compressibility (1/GPa) = 0.01653412
#
# Stress axis : x y z
#
# Youngs Moduli (GPa) = 96.85041 102.24500 307.09457
#
# Poissons Ratio (x) = 0.14660 0.36259
# Poissons Ratio (y) = 0.13886 0.24549
# Poissons Ratio (z) = 0.11435 0.08173
#
# Static dielectric constant tensor:
#      x y z
#    x 2.358280 0.000000 -0.039120 
#    y 0.000000 2.246270 0.000000 
#    z -0.039120 0.000000 2.398730 
# 
# From -- ./inp_files/63207.got.cif
#   From: 2010.05.17/outbox.cif.g08.bks.cpg/sg5_32_cif.got.tgz:63207.got - 2010.06.03 18:56:24.
