data_PCOD9130466
_publ_section_title
;
Structure prediction by ZEFSAII (Michael W. Deem and Ramdas Pophale) SiO2 
 PCOD9130466
Probable space group: C 2
;
_chemical_formula_sum "Si O2"
_cell_formula_units_Z 18
_cell_length_a 4.850998
_cell_length_b 17.409188
_cell_length_c 8.259910
_cell_angle_alpha 90.000000
_cell_angle_beta 92.497088
_cell_angle_gamma 90.000000
_cell_volume 696.903010
_symmetry_space_group_name_H-M "C 2"
_symmetry_group_IT_number 5
_symmetry_cell_setting 'monoclinic'
loop_
_space_group_symop_operation_xyz
x,y,z
-x,y,-z
1/2+x,1/2+y,z
1/2-x,1/2+y,-z
loop_
_atom_site_type_symbol
_atom_site_label
_atom_site_fract_x
_atom_site_fract_y
_atom_site_fract_z
Si Si1 0.373732 0.170670 0.264665
Si Si2 0.704312 0.936869 0.658548
Si Si3 0.500000 0.280204 0.000000
Si Si4 0.596970 0.578535 0.680845
Si Si5 0.000000 0.796744 0.500000
Si Si6 0.000000 0.391958 0.000000
O O1 0.582858 0.099998 0.305292
O O2 0.314822 0.235849 0.397514
O O3 0.089903 0.131006 0.206182
O O4 0.545083 0.221685 0.145387
O O5 0.500000 0.956133 0.500000
O O6 0.827308 0.853721 0.611128
O O7 0.561672 0.934924 0.832010
O O8 0.968085 0.993317 0.686590
O O9 0.746197 0.335934 0.962202
O O10 0.500000 0.603104 0.500000
#
# Coordination Sequence:
#
# PCOD9130466 Si02
#       6
#     4   4   2   4   2   2
#     4  12  26  45  77 109 148 200 254 314 380 454
#     4  12  28  49  80 116 154 210 253 318 386 469
#     4  12  26  49  72 119 152 200 250 334 376 455
#     4  12  25  47  72 109 150 200 253 309 380 458
#     4  12  24  44  82 110 144 198 264 298 392 450
#     4  12  28  49  80 115 164 190 264 322 386 447
#
# _framework density 25.828558000000001
#
# number of rings (size 3 to 8) (size 9 to 14) (size 15 to 20)
#    0.000    0.000    5.556    4.000    3.111    0.889 
#    0.000    2.222    0.000    0.000    0.000    0.000 
#    0.000    0.000    0.000    0.000    0.000    0.000 
#
# Total GULP energy -50300.446881 kJ/mol
# GULP energy per Si atom -5588.938542 kJ/mol
# Density = 2.576977 g / cm^3
# Si number density = 25.828558 Si / 1000 Ang^3
#
#
#
# Elastic Constant Matrix: (Units=GPa)
#
#
# Indices 1 2 3 4 5 6 
#
# 1 146.4263 59.8634 27.6116 0.0000 -9.0504 0.0000
# 2 59.8634 185.4140 54.9615 0.0000 -11.3966 0.0000
# 3 27.6116 54.9615 119.5623 0.0000 -26.5174 0.0000
# 4 0.0000 0.0000 0.0000 25.4493 0.0000 -16.4971
# 5 -9.0504 -11.3966 -26.5174 0.0000 37.7472 0.0000
# 6 0.0000 0.0000 0.0000 -16.4971 0.0000 58.0756
#
#
#
# Elastic Compliance Matrix: (Units=1/GPa)
#
#
# Indices 1 2 3 4 5 6 
#
# 1 0.007946 -0.002344 -0.000583 0.000000 0.000788 0.000000
# 2 -0.002344 0.006937 -0.002733 0.000000 -0.000388 0.000000
# 3 -0.000583 -0.002733 0.011302 0.000000 0.006975 0.000000
# 4 0.000000 0.000000 0.000000 0.048162 0.000000 0.013681
# 5 0.000788 -0.000388 0.006975 0.000000 0.031463 0.000000
# 6 0.000000 0.000000 0.000000 0.013681 0.000000 0.021105
#
#
# Mechanical properties :
#
#
# Convention : Reuss Voigt Hill
#
# Bulk Modulus (GPa) = 67.27659 81.80840 74.54250
# Shear Modulus (GPa) = 34.91827 44.85215 39.88521
#
# Velocity S-wave (km/s) = 3.68084 4.17169 3.93393
# Velocity P-wave (km/s) = 6.64595 7.41259 7.03971
#
# Compressibility (1/GPa) = 0.01486401
#
# Stress axis : x y z
#
# Youngs Moduli (GPa) = 125.84245 144.16158 88.48203
#
# Poissons Ratio (x) = 0.33798 0.05155
# Poissons Ratio (y) = 0.29503 0.24185
# Poissons Ratio (z) = 0.07332 0.39404
#
# Static dielectric constant tensor:
#      x y z
#    x 2.056780 0.000000 -0.107380 
#    y 0.000000 1.999890 0.000000 
#    z -0.107380 0.000000 2.289380 
# 
# From -- ./inp_files/11967.got.cif
#   From: 2010.05.17/outbox.cif.g08.bks.cpg/sg5_6_cif.got.tgz:11967.got - 2010.06.03 18:56:24.
