data_PCOD9130281
_publ_section_title
;
Structure prediction by ZEFSAII (Michael W. Deem and Ramdas Pophale) SiO2 
 PCOD9130281
Probable space group: C 2
;
_chemical_formula_sum "Si O2"
_cell_formula_units_Z 22
_cell_length_a 26.628858
_cell_length_b 5.580763
_cell_length_c 6.212637
_cell_angle_alpha 90.000000
_cell_angle_beta 72.763174
_cell_angle_gamma 90.000000
_cell_volume 881.790743
_symmetry_space_group_name_H-M "C 2"
_symmetry_group_IT_number 5
_symmetry_cell_setting 'monoclinic'
loop_
_space_group_symop_operation_xyz
x,y,z
-x,y,-z
1/2+x,1/2+y,z
1/2-x,1/2+y,-z
loop_
_atom_site_type_symbol
_atom_site_label
_atom_site_fract_x
_atom_site_fract_y
_atom_site_fract_z
Si Si1 0.858308 0.143350 0.122621
Si Si2 0.350898 0.026191 0.799916
Si Si3 0.934432 0.881959 0.762910
Si Si4 0.250903 0.468900 0.365692
Si Si5 0.425874 0.723005 0.412870
Si Si6 0.500000 0.030423 0.000000
O O1 0.806061 0.986456 0.169846
O O2 0.874622 0.138649 0.349184
O O3 0.844091 0.399281 0.038656
O O4 0.915650 0.086566 0.949297
O O5 0.400523 0.902413 0.616307
O O6 0.375485 0.284868 0.790674
O O7 0.298656 0.996008 0.729443
O O8 0.949956 0.999966 0.514330
O O9 0.967247 0.698700 0.871271
O O10 0.249103 0.211674 0.487601
O O11 0.464841 0.868723 0.207179
#
# Coordination Sequence:
#
# PCOD9130281 Si02
#       6
#     4   4   4   4   4   2
#     4  11  26  50  78 113 164 208 274 336 418 497
#     4  11  26  50  78 114 160 212 271 337 413 503
#     4  11  28  52  80 112 161 215 269 355 413 502
#     4  12  28  46  82 120 164 223 270 337 420 512
#     4  11  26  56  75 116 160 207 279 343 411 499
#     4  12  28  56  86 118 158 222 280 344 434 486
#
# _framework density 24.949228000000002
#
# number of rings (size 3 to 8) (size 9 to 14) (size 15 to 20)
#    0.000    0.727    3.636    1.091   12.727    1.455 
#    6.545    0.000    0.000    0.000    0.000    0.000 
#    0.000    0.000    0.000    0.000    0.000    0.000 
#
# Total GULP energy -61376.397478 kJ/mol
# GULP energy per Si atom -5579.672498 kJ/mol
# Density = 2.489244 g / cm^3
# Si number density = 24.949228 Si / 1000 Ang^3
#
#
#
# Elastic Constant Matrix: (Units=GPa)
#
#
# Indices 1 2 3 4 5 6 
#
# 1 175.4800 74.5686 73.9950 0.0000 16.8880 0.0000
# 2 74.5686 90.9165 57.1881 0.0000 17.9530 0.0000
# 3 73.9950 57.1881 115.6063 0.0000 13.7028 0.0000
# 4 0.0000 0.0000 0.0000 51.2092 0.0000 -9.8280
# 5 16.8880 17.9530 13.7028 0.0000 40.2835 0.0000
# 6 0.0000 0.0000 0.0000 -9.8280 0.0000 27.6321
#
#
#
# Elastic Compliance Matrix: (Units=1/GPa)
#
#
# Indices 1 2 3 4 5 6 
#
# 1 0.009519 -0.005708 -0.003228 0.000000 -0.000349 0.000000
# 2 -0.005708 0.020259 -0.005816 0.000000 -0.004657 0.000000
# 3 -0.003228 -0.005816 0.013677 0.000000 -0.000707 0.000000
# 4 0.000000 0.000000 0.000000 0.020958 0.000000 0.007454
# 5 -0.000349 -0.004657 -0.000707 0.000000 0.027286 0.000000
# 6 0.000000 0.000000 0.000000 0.007454 0.000000 0.038841
#
#
# Mechanical properties :
#
#
# Convention : Reuss Voigt Hill
#
# Bulk Modulus (GPa) = 71.67980 88.16733 79.92357
# Shear Modulus (GPa) = 30.35925 35.57502 32.96714
#
# Velocity S-wave (km/s) = 3.49211 3.78020 3.63901
# Velocity P-wave (km/s) = 6.71211 7.38029 7.05411
#
# Compressibility (1/GPa) = 0.01395093
#
# Stress axis : x y z
#
# Youngs Moduli (GPa) = 105.05496 49.36091 73.11645
#
# Poissons Ratio (x) = 0.28176 0.23599
# Poissons Ratio (y) = 0.59967 0.42525
# Poissons Ratio (z) = 0.33907 0.28709
#
# Static dielectric constant tensor:
#      x y z
#    x 1.934790 0.000000 -0.075340 
#    y 0.000000 2.076960 0.000000 
#    z -0.075340 0.000000 2.135670 
# 
# From -- ./inp_files/11004.got.cif
#   From: 2010.05.17/outbox.cif.g08.bks.cpg/sg5_6_cif.got.tgz:11004.got - 2010.06.03 18:56:24.
