data_PCOD9130663
_publ_section_title
;
Structure prediction by ZEFSAII (Michael W. Deem and Ramdas Pophale) SiO2 
 PCOD9130663
Probable space group: C 2
;
_chemical_formula_sum "Si O2"
_cell_formula_units_Z 13
_cell_length_a 21.000000
_cell_length_b 9.000000
_cell_length_c 15.000000
_cell_angle_alpha 90.000000
_cell_angle_beta 150.000000
_cell_angle_gamma 90.000000
_cell_volume 1417.500000
_symmetry_space_group_name_H-M "C 2"
_symmetry_group_IT_number 5
_symmetry_cell_setting 'monoclinic'
loop_
_space_group_symop_operation_xyz
x,y,z
-x,y,-z
1/2+x,1/2+y,z
1/2-x,1/2+y,-z
loop_
_atom_site_type_symbol
_atom_site_label
_atom_site_fract_x
_atom_site_fract_y
_atom_site_fract_z
Si Si1 0.500000 0.750000 0.500000
Si Si2 0.770310 0.594764 0.817405
Si Si3 0.470379 0.950143 0.635529
Si Si4 0.620347 0.236575 0.865059
Si Si5 0.056573 0.975116 0.926565
Si Si6 0.150211 0.301566 0.997227
Si Si7 0.815808 0.855996 0.749828
O O1 0.622546 0.644395 0.636659
O O2 0.518715 0.860354 0.606810
O O3 0.822778 0.681957 0.791861
O O4 0.824290 0.660485 0.977019
O O5 0.801559 0.419281 0.868489
O O6 0.542902 0.880329 0.807292
O O7 0.319849 0.910723 0.452804
O O8 0.515081 0.123455 0.695240
O O9 0.570038 0.391339 0.847524
O O10 0.730415 0.264328 0.924638
O O11 0.082108 0.150046 0.946733
O O12 0.927883 0.913035 0.819539
O O13 0.164739 0.930573 0.129606
#
# Coordination Sequence:
#
# PCOD9130663 Si02
#       7
#     2   4   4   4   4   4   4
#     4  10  18  36  58  86 128 156 194 264 294 360
#     4   9  19  36  59  86 119 155 203 241 310 355
#     4  10  21  35  60  86 118 162 206 242 308 358
#     4  10  20  35  59  89 118 157 196 246 307 367
#     4  10  21  40  61  82 127 156 201 248 312 359
#     4  11  21  36  60  92 118 160 197 258 305 373
#     4   9  21  41  60  84 114 171 199 250 302 358
#
# _framework density 9.1710759999999993
#
# number of rings (size 3 to 8) (size 9 to 14) (size 15 to 20)
#    0.000    2.154    1.538    1.846    4.308    1.231 
#    2.769    9.231    0.000    0.000    0.000    0.000 
#    0.000    0.000    0.000    0.000    0.000    0.000 
#
# Total GULP energy -72376.763641 kJ/mol
# GULP energy per Si atom -5567.443357 kJ/mol
# Density = 0.915020 g / cm^3
# Si number density = 9.171076 Si / 1000 Ang^3
#
#
#
# Elastic Constant Matrix: (Units=GPa)
#
#
# Indices 1 2 3 4 5 6 
#
# 1 88.0180 49.8789 25.5441 0.0000 14.7658 0.0000
# 2 49.8789 155.3748 47.0018 0.0000 5.9788 0.0000
# 3 25.5441 47.0018 105.8926 0.0000 6.5502 0.0000
# 4 0.0000 0.0000 0.0000 35.9891 0.0000 -5.5618
# 5 14.7658 5.9788 6.5502 0.0000 24.5480 0.0000
# 6 0.0000 0.0000 0.0000 -5.5618 0.0000 24.9895
#
#
#
# Elastic Compliance Matrix: (Units=1/GPa)
#
#
# Indices 1 2 3 4 5 6 
#
# 1 0.015498 -0.004260 -0.001358 0.000000 -0.007923 0.000000
# 2 -0.004260 0.008627 -0.002878 0.000000 0.001229 0.000000
# 3 -0.001358 -0.002878 0.011138 0.000000 -0.001454 0.000000
# 4 0.000000 0.000000 0.000000 0.028776 0.000000 0.006405
# 5 -0.007923 0.001229 -0.001454 0.000000 0.045591 0.000000
# 6 0.000000 0.000000 0.000000 0.006405 0.000000 0.041442
#
#
# Mechanical properties :
#
#
# Convention : Reuss Voigt Hill
#
# Bulk Modulus (GPa) = 54.72496 66.01501 60.36998
# Shear Modulus (GPa) = 28.71029 32.22936 30.46983
#
# Velocity S-wave (km/s) = 3.96063 4.19635 4.08019
# Velocity P-wave (km/s) = 7.12853 7.71674 7.42846
#
# Compressibility (1/GPa) = 0.01827320
#
# Stress axis : x y z
#
# Youngs Moduli (GPa) = 64.52274 115.91909 89.78055
#
# Poissons Ratio (x) = 0.49379 0.12191
# Poissons Ratio (y) = 0.27485 0.25835
# Poissons Ratio (z) = 0.08761 0.33356
#
# Static dielectric constant tensor:
#      x y z
#    x 1.641910 0.000000 0.020060 
#    y 0.000000 1.706260 0.000000 
#    z 0.020060 0.000000 1.634540 
# 
# From -- ./inp_files/41822.got.cif
#   From: 2010.05.17/outbox.ucp.g08.bks.cvg/sg5_21_cif.got.tgz:41822.got - 2010.06.11 12:53:14.
