data_PCOD9130243
_publ_section_title
;
Structure prediction by ZEFSAII (Michael W. Deem and Ramdas Pophale) SiO2 
 PCOD9130243
Probable space group: C 2
;
_chemical_formula_sum "Si O2"
_cell_formula_units_Z 16
_cell_length_a 5.079956
_cell_length_b 18.428520
_cell_length_c 9.375735
_cell_angle_alpha 90.000000
_cell_angle_beta 46.399757
_cell_angle_gamma 90.000000
_cell_volume 635.617176
_symmetry_space_group_name_H-M "C 2"
_symmetry_group_IT_number 5
_symmetry_cell_setting 'monoclinic'
loop_
_space_group_symop_operation_xyz
x,y,z
-x,y,-z
1/2+x,1/2+y,z
1/2-x,1/2+y,-z
loop_
_atom_site_type_symbol
_atom_site_label
_atom_site_fract_x
_atom_site_fract_y
_atom_site_fract_z
Si Si1 0.060255 0.083770 0.598037
Si Si2 0.794879 0.665281 0.773029
Si Si3 0.592145 0.468846 0.130832
Si Si4 0.428454 0.324232 0.359710
O O1 0.131050 0.153943 0.676377
O O2 0.324386 0.118755 0.352854
O O3 0.000000 0.018778 0.500000
O O4 0.141610 0.029278 0.700912
O O5 0.889505 0.748933 0.757302
O O6 0.500000 0.641971 0.000000
O O7 0.564486 0.391382 0.215459
O O8 0.500000 0.463623 0.000000
O O9 0.000000 0.498661 0.000000
O O10 0.500000 0.334375 0.500000
O O11 0.000000 0.317540 0.500000
#
# Coordination Sequence:
#
# PCOD9130243 Si02
#       4
#     4   4   4   4
#     4  11  26  47  76 118 160 205 264 328 395 465
#     4  11  26  46  77 113 162 207 264 316 403 467
#     4  12  29  51  84 121 160 213 269 330 400 475
#     4  12  26  51  79 116 165 210 264 332 398 469
#
# _framework density 25.172384999999998
#
# number of rings (size 3 to 8) (size 9 to 14) (size 15 to 20)
#    0.000    0.500    2.500    4.500   14.000    0.000 
#    0.000    0.000    0.000    0.000    0.000    0.000 
#    0.000    0.000    0.000    0.000    0.000    0.000 
#
# Total GULP energy -44612.485689 kJ/mol
# GULP energy per Si atom -5576.560711 kJ/mol
# Density = 2.511509 g / cm^3
# Si number density = 25.172385 Si / 1000 Ang^3
#
#
#
# Elastic Constant Matrix: (Units=GPa)
#
#
# Indices 1 2 3 4 5 6 
#
# 1 218.5179 26.5415 92.9736 0.0000 35.2807 0.0000
# 2 26.5415 162.1120 48.6030 0.0000 12.0805 0.0000
# 3 92.9736 48.6030 181.7820 0.0000 15.9328 0.0000
# 4 0.0000 0.0000 0.0000 45.0356 0.0000 -79.0621
# 5 35.2807 12.0805 15.9328 0.0000 59.4229 0.0000
# 6 0.0000 0.0000 0.0000 -79.0621 0.0000 144.1283
#
#
#
# Elastic Compliance Matrix: (Units=1/GPa)
#
#
# Indices 1 2 3 4 5 6 
#
# 1 0.006319 0.000084 -0.002994 0.000000 -0.002966 0.000000
# 2 0.000084 0.006755 -0.001766 0.000000 -0.000950 0.000000
# 3 -0.002994 -0.001766 0.007494 0.000000 0.000128 0.000000
# 4 0.000000 0.000000 0.000000 0.600328 0.000000 0.329312
# 5 -0.002966 -0.000950 0.000128 0.000000 0.018748 0.000000
# 6 0.000000 0.000000 0.000000 0.329312 0.000000 0.187584
#
#
# Mechanical properties :
#
#
# Convention : Reuss Voigt Hill
#
# Bulk Modulus (GPa) = 89.16391 99.84981 94.50686
# Shear Modulus (GPa) = 5.95012 76.00360 40.97686
#
# Velocity S-wave (km/s) = 1.53912 5.50080 4.03904
# Velocity P-wave (km/s) = 6.21745 8.94973 7.70566
#
# Compressibility (1/GPa) = 0.01121530
#
# Stress axis : x y z
#
# Youngs Moduli (GPa) = 158.25346 148.03840 133.44743
#
# Poissons Ratio (x) = -0.01247 0.39960
# Poissons Ratio (y) = -0.01333 0.23566
# Poissons Ratio (z) = 0.47388 0.26142
#
# Static dielectric constant tensor:
#      x y z
#    x 1.909720 0.000000 -0.242640 
#    y 0.000000 1.900480 0.000000 
#    z -0.242640 0.000000 2.143660 
# 
# From -- ./inp_files/11992.got.cif
#   From: 2010.05.17/outbox.cif.g08.bks.cpg/sg5_6_cif.got.tgz:11992.got - 2010.06.03 18:56:24.
