data_PCOD9130140
_publ_section_title
;
Structure prediction by ZEFSAII (Michael W. Deem and Ramdas Pophale) SiO2 
 PCOD9130140
Probable space group: C 2
;
_chemical_formula_sum "Si O2"
_cell_formula_units_Z 28
_cell_length_a 26.475721
_cell_length_b 8.363456
_cell_length_c 9.713871
_cell_angle_alpha 90.000000
_cell_angle_beta 141.439882
_cell_angle_gamma 90.000000
_cell_volume 1340.749770
_symmetry_space_group_name_H-M "C 2"
_symmetry_group_IT_number 5
_symmetry_cell_setting 'monoclinic'
loop_
_space_group_symop_operation_xyz
x,y,z
-x,y,-z
1/2+x,1/2+y,z
1/2-x,1/2+y,-z
loop_
_atom_site_type_symbol
_atom_site_label
_atom_site_fract_x
_atom_site_fract_y
_atom_site_fract_z
Si Si1 0.762346 0.827440 0.862389
Si Si2 0.500000 0.064157 0.000000
Si Si3 0.309475 0.597777 0.755949
Si Si4 0.149940 0.566361 0.775845
Si Si5 0.500000 0.859996 0.500000
Si Si6 0.979669 0.271186 0.155444
Si Si7 0.639201 0.597177 0.441827
Si Si8 0.364618 0.234509 0.538808
O O1 0.692054 0.719523 0.644273
O O2 0.802537 0.935601 0.829599
O O3 0.723072 0.948246 0.889777
O O4 0.821554 0.707948 0.066107
O O5 0.573740 0.172529 0.212748
O O6 0.475678 0.944499 0.073334
O O7 0.315434 0.569797 0.606130
O O8 0.227839 0.695040 0.616219
O O9 0.391544 0.691600 0.966820
O O10 0.078977 0.466371 0.692107
O O11 0.118902 0.634864 0.564327
O O12 0.510162 0.769411 0.378538
O O13 0.051672 0.176348 0.232238
O O14 0.627267 0.421055 0.476486
#
# Coordination Sequence:
#
# PCOD9130140 Si02
#       8
#     4   2   4   4   2   4   4   4
#     4  11  25  45  73 102 148 185 241 304 357 431
#     4  12  24  50  70 100 152 190 236 314 348 432
#     4  11  26  44  72 109 134 194 245 293 367 427
#     4  11  25  47  67 105 142 192 236 295 361 432
#     4  12  26  44  70 102 138 194 232 286 370 422
#     4  12  26  45  75 100 147 190 239 300 366 424
#     4  12  24  47  70 107 143 187 242 306 352 437
#     4  11  27  43  73 105 143 188 246 295 363 431
#
# _framework density 20.883838000000001
#
# number of rings (size 3 to 8) (size 9 to 14) (size 15 to 20)
#    0.000    0.571    4.286    2.571   10.000    3.429 
#    0.000    0.000    0.000    0.000    0.000    0.000 
#    0.000    0.000    0.000    0.000    0.000    0.000 
#
# Total GULP energy -78302.278851 kJ/mol
# GULP energy per Si atom -5593.019918 kJ/mol
# Density = 2.083631 g / cm^3
# Si number density = 20.883838 Si / 1000 Ang^3
#
#
#
# Elastic Constant Matrix: (Units=GPa)
#
#
# Indices 1 2 3 4 5 6 
#
# 1 75.7025 10.3411 12.7355 0.0000 3.8508 0.0000
# 2 10.3411 83.8234 23.1817 0.0000 10.6496 0.0000
# 3 12.7355 23.1817 102.9532 0.0000 10.5426 0.0000
# 4 0.0000 0.0000 0.0000 44.9447 0.0000 -2.4830
# 5 3.8508 10.6496 10.5426 0.0000 28.1444 0.0000
# 6 0.0000 0.0000 0.0000 -2.4830 0.0000 26.3256
#
#
#
# Elastic Compliance Matrix: (Units=1/GPa)
#
#
# Indices 1 2 3 4 5 6 
#
# 1 0.013643 -0.001201 -0.001323 0.000000 -0.000917 0.000000
# 2 -0.001201 0.013251 -0.002432 0.000000 -0.003939 0.000000
# 3 -0.001323 -0.002432 0.010723 0.000000 -0.002915 0.000000
# 4 0.000000 0.000000 0.000000 0.022366 0.000000 0.002110
# 5 -0.000917 -0.003939 -0.002915 0.000000 0.038239 0.000000
# 6 0.000000 0.000000 0.000000 0.002110 0.000000 0.038185
#
#
# Mechanical properties :
#
#
# Convention : Reuss Voigt Hill
#
# Bulk Modulus (GPa) = 36.09457 39.44396 37.76926
# Shear Modulus (GPa) = 32.14329 34.29766 33.22048
#
# Velocity S-wave (km/s) = 3.92745 4.05693 3.99272
# Velocity P-wave (km/s) = 6.15528 6.39322 6.27538
#
# Compressibility (1/GPa) = 0.02770500
#
# Stress axis : x y z
#
# Youngs Moduli (GPa) = 73.29831 75.46651 93.25769
#
# Poissons Ratio (x) = 0.09061 0.12342
# Poissons Ratio (y) = 0.08800 0.22678
# Poissons Ratio (z) = 0.09701 0.18352
#
# Static dielectric constant tensor:
#      x y z
#    x 1.759500 0.000000 -0.031840 
#    y 0.000000 1.732080 0.000000 
#    z -0.031840 0.000000 1.745340 
# 
# From -- ./inp_files/31790.got.cif
#   From: 2010.05.17/outbox.cif.g08.bks.cpg/sg5_16_cif.got.tgz:31790.got - 2010.06.03 18:56:24.
