data_PCOD9130127
_publ_section_title
;
Structure prediction by ZEFSAII (Michael W. Deem and Ramdas Pophale) SiO2 
 PCOD9130127
Probable space group: C 2
;
_chemical_formula_sum "Si O2"
_cell_formula_units_Z 20
_cell_length_a 5.142415
_cell_length_b 13.399583
_cell_length_c 13.824759
_cell_angle_alpha 90.000000
_cell_angle_beta 65.052442
_cell_angle_gamma 90.000000
_cell_volume 863.727651
_symmetry_space_group_name_H-M "C 2"
_symmetry_group_IT_number 5
_symmetry_cell_setting 'monoclinic'
loop_
_space_group_symop_operation_xyz
x,y,z
-x,y,-z
1/2+x,1/2+y,z
1/2-x,1/2+y,-z
loop_
_atom_site_type_symbol
_atom_site_label
_atom_site_fract_x
_atom_site_fract_y
_atom_site_fract_z
Si Si1 0.552890 0.813240 0.883096
Si Si2 0.748771 0.843040 0.383650
Si Si3 0.000000 0.072322 0.500000
Si Si4 0.500000 0.210656 0.500000
Si Si5 0.337592 0.209725 0.196319
Si Si6 0.301356 0.488720 0.721070
O O1 0.290203 0.750282 0.882908
O O2 0.609190 0.905000 0.801720
O O3 0.833197 0.742327 0.842501
O O4 0.500000 0.850006 0.000000
O O5 0.500000 0.860559 0.500000
O O6 0.991114 0.783690 0.408447
O O7 0.677278 0.768820 0.308172
O O8 0.878685 0.942893 0.317258
O O9 0.774817 0.140167 0.475835
O O10 0.809710 0.008413 0.604411
O O11 0.773535 0.593826 0.219894
#
# Coordination Sequence:
#
# PCOD9130127 Si02
#       6
#     4   4   2   2   4   4
#     4  11  28  52  78 106 143 193 254 312 365 425
#     4  11  25  44  71 105 158 198 239 290 358 442
#     4  12  27  40  73 108 154 196 237 282 373 444
#     4  12  23  44  67 100 158 204 225 286 349 438
#     4  11  26  48  74 109 146 193 243 305 368 431
#     4  11  27  45  75 111 147 196 241 300 367 441
#
# _framework density 23.155445
#
# number of rings (size 3 to 8) (size 9 to 14) (size 15 to 20)
#    0.000    0.800    3.000    1.200   15.400    6.400 
#    0.000    0.000    0.000    0.000    0.000    0.000 
#    0.000    0.000    0.000    0.000    0.000    0.000 
#
# Total GULP energy -55930.827292 kJ/mol
# GULP energy per Si atom -5593.082729 kJ/mol
# Density = 2.310274 g / cm^3
# Si number density = 23.155445 Si / 1000 Ang^3
#
#
#
# Elastic Constant Matrix: (Units=GPa)
#
#
# Indices 1 2 3 4 5 6 
#
# 1 124.3885 49.0669 24.9364 0.0000 9.0887 0.0000
# 2 49.0669 172.9722 46.7399 0.0000 -1.1325 0.0000
# 3 24.9364 46.7399 112.2956 0.0000 9.5853 0.0000
# 4 0.0000 0.0000 0.0000 24.2753 0.0000 -2.6859
# 5 9.0887 -1.1325 9.5853 0.0000 38.9583 0.0000
# 6 0.0000 0.0000 0.0000 -2.6859 0.0000 11.7100
#
#
#
# Elastic Compliance Matrix: (Units=1/GPa)
#
#
# Indices 1 2 3 4 5 6 
#
# 1 0.009319 -0.002416 -0.000891 0.000000 -0.002025 0.000000
# 2 -0.002416 0.007170 -0.002567 0.000000 0.001404 0.000000
# 3 -0.000891 -0.002567 0.010378 0.000000 -0.002420 0.000000
# 4 0.000000 0.000000 0.000000 0.042267 0.000000 0.009695
# 5 -0.002025 0.001404 -0.002420 0.000000 0.026777 0.000000
# 6 0.000000 0.000000 0.000000 0.009695 0.000000 0.087621
#
#
# Mechanical properties :
#
#
# Convention : Reuss Voigt Hill
#
# Bulk Modulus (GPa) = 66.14691 72.34920 69.24806
# Shear Modulus (GPa) = 24.96011 34.24959 29.60485
#
# Velocity S-wave (km/s) = 3.28676 3.85010 3.57953
# Velocity P-wave (km/s) = 6.55989 7.14683 6.85964
#
# Compressibility (1/GPa) = 0.01511786
#
# Stress axis : x y z
#
# Youngs Moduli (GPa) = 107.30849 139.47817 96.35658
#
# Poissons Ratio (x) = 0.33698 0.08585
# Poissons Ratio (y) = 0.25926 0.24739
# Poissons Ratio (z) = 0.09560 0.35810
#
# Static dielectric constant tensor:
#      x y z
#    x 1.912210 0.000000 -0.006040 
#    y 0.000000 1.893190 0.000000 
#    z -0.006040 0.000000 1.864540 
# 
# From -- ./inp_files/49397.got.cif
#   From: 2010.05.17/outbox.cif.g08.bks.cpg/sg5_25_cif.got.tgz:49397.got - 2010.06.03 18:56:24.
