data_PCOD9130675
_publ_section_title
;
Structure prediction by ZEFSAII (Michael W. Deem and Ramdas Pophale) SiO2 
 PCOD9130675
Probable space group: C 2
;
_chemical_formula_sum "Si O2"
_cell_formula_units_Z 16
_cell_length_a 9.000000
_cell_length_b 24.000000
_cell_length_c 15.000000
_cell_angle_alpha 90.000000
_cell_angle_beta 30.000000
_cell_angle_gamma 90.000000
_cell_volume 1620.000000
_symmetry_space_group_name_H-M "C 2"
_symmetry_group_IT_number 5
_symmetry_cell_setting 'monoclinic'
loop_
_space_group_symop_operation_xyz
x,y,z
-x,y,-z
1/2+x,1/2+y,z
1/2-x,1/2+y,-z
loop_
_atom_site_type_symbol
_atom_site_label
_atom_site_fract_x
_atom_site_fract_y
_atom_site_fract_z
Si Si1 0.810782 0.323980 0.182818
Si Si2 0.891681 0.342914 0.458320
Si Si3 0.245216 0.712742 0.305719
Si Si4 0.639646 0.032834 0.696025
Si Si5 0.278008 0.739375 0.801119
Si Si6 0.089604 0.597127 0.548931
Si Si7 0.297093 0.122732 0.192929
Si Si8 0.139815 0.408979 0.691900
O O1 0.463165 0.336740 0.354467
O O2 0.828374 0.257986 0.189982
O O3 0.931738 0.359042 0.203603
O O4 0.000000 0.340524 0.000000
O O5 0.970404 0.391069 0.347653
O O6 0.000000 0.354958 0.500000
O O7 0.039729 0.285968 0.344983
O O8 0.525573 0.708326 0.225124
O O9 0.000000 0.739591 0.500000
O O10 0.094707 0.655686 0.350753
O O11 0.518737 0.055838 0.665659
O O12 0.575773 0.079324 0.802363
O O13 0.000000 0.030691 0.500000
O O14 0.537705 0.970516 0.771473
O O15 0.184197 0.687638 0.787501
O O16 0.000000 0.763464 0.000000
O O17 0.444855 0.608655 0.366348
O O18 0.000000 0.573058 0.500000
O O19 0.500000 0.117532 0.000000
O O20 0.500000 0.410371 0.500000
#
# Coordination Sequence:
#
# PCOD9130675 Si02
#       8
#     4   4   4   4   4   4   4   4
#     4  11  22  37  62  89 117 161 198 240 295 357
#     4  11  23  37  59  91 121 152 200 246 294 351
#     4  11  18  39  59  84 123 159 187 237 298 353
#     4   9  20  37  62  86 112 159 202 236 289 353
#     4  11  22  37  61  88 125 159 187 242 305 350
#     4  10  19  36  59  83 117 157 193 239 291 348
#     4  10  20  36  57  86 120 152 193 242 289 349
#     4   9  19  41  61  81 119 158 198 244 292 346
#
# _framework density 9.8765429999999999
#
# number of rings (size 3 to 8) (size 9 to 14) (size 15 to 20)
#    0.000    1.750    5.000    0.375    1.750    3.500 
#    2.250    0.625    0.000    3.000    0.000    0.000 
#    0.000    0.000    0.000    0.000    0.000    0.000 
#
# Total GULP energy -89192.874970 kJ/mol
# GULP energy per Si atom -5574.554686 kJ/mol
# Density = 0.985406 g / cm^3
# Si number density = 9.876543 Si / 1000 Ang^3
#
#
#
# Elastic Constant Matrix: (Units=GPa)
#
#
# Indices 1 2 3 4 5 6 
#
# 1 107.1650 46.0801 13.3261 0.0001 10.2497 -0.0001
# 2 46.0801 81.3290 19.9631 0.0000 4.7362 0.0000
# 3 13.3261 19.9631 67.9538 0.0001 8.3797 -0.0001
# 4 0.0001 0.0000 0.0001 -2.6764 -0.0001 8.8992
# 5 10.2497 4.7362 8.3797 -0.0001 12.5003 0.0001
# 6 -0.0001 0.0000 -0.0001 8.8992 0.0001 16.8345
#
#
#
# Elastic Compliance Matrix: (Units=1/GPa)
#
#
# Indices 1 2 3 4 5 6 
#
# 1 0.013111 -0.007071 0.000547 0.000001 -0.008438 0.000000
# 2 -0.007071 0.017145 -0.003885 0.000000 0.001907 0.000000
# 3 0.000547 -0.003885 0.017032 0.000001 -0.010394 0.000000
# 4 0.000001 0.000000 0.000001 -0.135487 -0.000002 0.071622
# 5 -0.008438 0.001907 -0.010394 -0.000002 0.093161 0.000001
# 6 0.000000 0.000000 0.000000 0.071622 0.000001 0.021540
#
#
# Mechanical properties :
#
#
# Convention : Reuss Voigt Hill
#
# Bulk Modulus (GPa) = 37.78134 46.13184 41.95659
# Shear Modulus (GPa) = 89.05510 17.13691 53.09601
#
# Velocity S-wave (km/s) = 6.72176 2.94863 5.19020
# Velocity P-wave (km/s) = 8.91129 5.91587 7.56335
#
# Compressibility (1/GPa) = 0.02646809
#
# Stress axis : x y z
#
# Youngs Moduli (GPa) = 76.27114 58.32615 58.71407
#
# Poissons Ratio (x) = 0.41245 -0.03210
# Poissons Ratio (y) = 0.53935 0.22811
# Poissons Ratio (z) = -0.04170 0.22661
#
# Static dielectric constant tensor:
#      x y z
#    x 1.769520 0.000000 0.001650 
#    y 0.000000 1.704760 0.000000 
#    z 0.001650 0.000000 1.699770 
# 
# From -- ./inp_files/51671.got.cif
#   From: 2010.05.17/outbox.ucp.g08.bks.cvg/sg5_26_cif.got.tgz:51671.got - 2010.06.11 12:53:14.
