data_PCOD9130942
_publ_section_title
;
Structure prediction by ZEFSAII (Michael W. Deem and Ramdas Pophale) SiO2 
 PCOD9130942
Probable space group: P M
;
_chemical_formula_sum "Si O2"
_cell_formula_units_Z 16
_cell_length_a 12.986947
_cell_length_b 8.059824
_cell_length_c 13.139380
_cell_angle_alpha 90.000000
_cell_angle_beta 145.236236
_cell_angle_gamma 90.000000
_cell_volume 784.206143
_symmetry_space_group_name_H-M "P M"
_symmetry_group_IT_number 6
_symmetry_cell_setting 'monoclinic'
loop_
_space_group_symop_operation_xyz
x,y,z
x,-y,z
loop_
_atom_site_type_symbol
_atom_site_label
_atom_site_fract_x
_atom_site_fract_y
_atom_site_fract_z
Si Si1 0.314510 0.805494 0.901840
Si Si2 0.912309 0.806358 0.295754
Si Si3 0.804636 0.801332 0.789016
Si Si4 0.672116 0.693954 0.284146
Si Si5 0.418681 0.796364 0.542758
Si Si6 0.930492 0.304073 0.671582
Si Si7 0.016123 0.203225 0.159686
Si Si8 0.336925 0.193803 0.696764
O O1 0.366923 0.733680 0.832963
O O2 0.132192 0.729067 0.796892
O O3 0.277049 0.000000 0.856821
O O4 0.482574 0.782121 0.112403
O O5 0.790751 0.713747 0.278347
O O6 0.913204 0.746369 0.179827
O O7 0.121587 0.799867 0.500899
O O8 0.856146 0.000000 0.251537
O O9 0.597537 0.741855 0.629406
O O10 0.892824 0.763382 0.752819
O O11 0.798333 0.000000 0.794720
O O12 0.920196 0.739047 0.979187
O O13 0.636239 0.500000 0.271852
O O14 0.790050 0.763211 0.473336
O O15 0.426666 0.738304 0.667055
O O16 0.225798 0.745099 0.339863
O O17 0.414581 0.000000 0.541367
O O18 0.903636 0.500000 0.653631
O O19 0.015604 0.000000 0.160925
O O20 0.392885 0.000000 0.746699
#
# Coordination Sequence:
#
# PCOD9130942 Si02
#       8
#     2   2   2   2   2   2   2   2
#     4  11  22  37  63  92 114 146 198 249 294 345
#     4   9  16  32  58  86 118 150 188 237 289 345
#     4  10  20  34  58  84 109 148 198 240 282 339
#     4  11  24  39  56  83 120 161 196 234 293 354
#     4   8  15  29  50  82 117 142 172 228 292 338
#     4  11  25  44  59  77 119 165 200 240 290 347
#     4   8  16  30  52  85 117 143 179 238 296 336
#     4   8  15  29  54  87 118 143 177 234 292 338
#
# _framework density 20.402797
#
# number of rings (size 3 to 8) (size 9 to 14) (size 15 to 20)
#    0.000    2.500    1.250    2.625    1.750    2.500 
#    0.000    1.875    0.000    3.000    0.000    0.000 
#    0.000    0.000    0.000    0.000    0.000    0.000 
#
# Total GULP energy -89292.401378 kJ/mol
# GULP energy per Si atom -5580.775086 kJ/mol
# Density = 2.035636 g / cm^3
# Si number density = 20.402797 Si / 1000 Ang^3
#
#
#
# Elastic Constant Matrix: (Units=GPa)
#
#
# Indices 1 2 3 4 5 6 
#
# 1 62.9698 -3.0993 39.3820 0.0000 -24.3190 0.0000
# 2 -3.0993 10.2205 -0.5629 0.0000 -2.7736 0.0000
# 3 39.3820 -0.5629 107.8511 0.0000 -26.0529 0.0000
# 4 0.0000 0.0000 0.0000 35.4851 0.0000 -57.2994
# 5 -24.3190 -2.7736 -26.0529 0.0000 23.8794 0.0000
# 6 0.0000 0.0000 0.0000 -57.2994 0.0000 172.3502
#
#
#
# Elastic Compliance Matrix: (Units=1/GPa)
#
#
# Indices 1 2 3 4 5 6 
#
# 1 0.030128 0.016534 -0.004127 0.000000 0.028100 0.000000
# 2 0.016534 0.111784 0.002376 0.000000 0.032415 0.000000
# 3 -0.004127 0.002376 0.013365 0.000000 0.010655 0.000000
# 4 0.000000 0.000000 0.000000 0.060844 0.000000 0.020228
# 5 0.028100 0.032415 0.010655 0.000000 0.085885 0.000000
# 6 0.000000 0.000000 0.000000 0.020228 0.000000 0.012527
#
#
# Mechanical properties :
#
#
# Convention : Reuss Voigt Hill
#
# Bulk Modulus (GPa) = 5.40994 28.05344 16.73169
# Shear Modulus (GPa) = 14.42665 56.03104 35.22885
#
# Velocity S-wave (km/s) = 2.66200 5.24615 4.15983
# Velocity P-wave (km/s) = 3.47932 7.10463 5.59381
#
# Compressibility (1/GPa) = 0.18484493
#
# Stress axis : x y z
#
# Youngs Moduli (GPa) = 33.19195 8.94579 74.82112
#
# Poissons Ratio (x) = -0.14791 0.30878
# Poissons Ratio (y) = -0.54881 -0.17779
# Poissons Ratio (z) = 0.13698 -0.02126
#
# Static dielectric constant tensor:
#      x y z
#    x 1.709020 0.000000 -0.024000 
#    y 0.000000 1.716370 0.000000 
#    z -0.024000 0.000000 1.740600 
# 
# From -- ./inp_files/5049.got.cif
#   From: 2010.05.17/outbox.cif.g08.bks.cpg/sg6_3_cif.got.tgz:5049.got - 2010.06.03 19:42:10.
