data_PCOD9130282
_publ_section_title
;
Structure prediction by ZEFSAII (Michael W. Deem and Ramdas Pophale) SiO2 
 PCOD9130282
Probable space group: C 2
;
_chemical_formula_sum "Si O2"
_cell_formula_units_Z 18
_cell_length_a 7.986308
_cell_length_b 18.600048
_cell_length_c 4.980193
_cell_angle_alpha 90.000000
_cell_angle_beta 68.920299
_cell_angle_gamma 90.000000
_cell_volume 690.280568
_symmetry_space_group_name_H-M "C 2"
_symmetry_group_IT_number 5
_symmetry_cell_setting 'monoclinic'
loop_
_space_group_symop_operation_xyz
x,y,z
-x,y,-z
1/2+x,1/2+y,z
1/2-x,1/2+y,-z
loop_
_atom_site_type_symbol
_atom_site_label
_atom_site_fract_x
_atom_site_fract_y
_atom_site_fract_z
Si Si1 0.828876 0.693130 0.799356
Si Si2 0.200858 0.121542 0.394157
Si Si3 0.211877 0.851450 0.301662
Si Si4 0.696132 0.492583 0.010555
Si Si5 0.000000 0.438199 0.500000
O O1 0.735677 0.629016 0.689276
O O2 0.738437 0.771024 0.816077
O O3 0.000000 0.699084 0.500000
O O4 0.816508 0.669780 0.117564
O O5 0.000000 0.150240 0.500000
O O6 0.208312 0.041640 0.269612
O O7 0.201447 0.907735 0.068888
O O8 0.358872 0.887319 0.416925
O O9 0.000000 0.849425 0.500000
O O10 0.500000 0.507049 0.000000
O O11 0.881900 0.493271 0.744270
#
# Coordination Sequence:
#
# PCOD9130282 Si02
#       5
#     4   4   4   4   2
#     4  11  28  49  80 115 161 209 265 334 401 484
#     4  12  28  50  78 115 159 212 263 333 405 481
#     4  11  26  50  79 116 161 206 270 336 400 479
#     4  12  27  50  80 117 163 210 274 342 400 483
#     4  12  28  46  84 112 154 220 266 330 410 486
#
# _framework density 26.076356000000001
#
# number of rings (size 3 to 8) (size 9 to 14) (size 15 to 20)
#    0.000    0.444    2.222    4.000    9.333    3.556 
#    0.000    0.000    0.000    0.000    0.000    0.000 
#    0.000    0.000    0.000    0.000    0.000    0.000 
#
# Total GULP energy -50234.516938 kJ/mol
# GULP energy per Si atom -5581.612993 kJ/mol
# Density = 2.601701 g / cm^3
# Si number density = 26.076356 Si / 1000 Ang^3
#
#
#
# Elastic Constant Matrix: (Units=GPa)
#
#
# Indices 1 2 3 4 5 6 
#
# 1 123.9695 29.8975 36.4661 0.0000 -15.9687 0.0000
# 2 29.8975 125.3384 23.6551 0.0000 2.3214 0.0000
# 3 36.4661 23.6551 135.1147 0.0000 -17.6079 0.0000
# 4 0.0000 0.0000 0.0000 23.1901 0.0000 -6.5720
# 5 -15.9687 2.3214 -17.6079 0.0000 53.6836 0.0000
# 6 0.0000 0.0000 0.0000 -6.5720 0.0000 8.3659
#
#
#
# Elastic Compliance Matrix: (Units=1/GPa)
#
#
# Indices 1 2 3 4 5 6 
#
# 1 0.009379 -0.001920 -0.001902 0.000000 0.002249 0.000000
# 2 -0.001920 0.008683 -0.001176 0.000000 -0.001332 0.000000
# 3 -0.001902 -0.001176 0.008413 0.000000 0.002244 0.000000
# 4 0.000000 0.000000 0.000000 0.055471 0.000000 0.043576
# 5 0.002249 -0.001332 0.002244 0.000000 0.020090 0.000000
# 6 0.000000 0.000000 0.000000 0.043576 0.000000 0.153765
#
#
# Mechanical properties :
#
#
# Convention : Reuss Voigt Hill
#
# Bulk Modulus (GPa) = 60.68174 62.71778 61.69976
# Shear Modulus (GPa) = 18.43057 36.67485 27.55271
#
# Velocity S-wave (km/s) = 2.66144 3.75432 3.25409
# Velocity P-wave (km/s) = 5.72413 6.54958 6.15072
#
# Compressibility (1/GPa) = 0.01647942
#
# Stress axis : x y z
#
# Youngs Moduli (GPa) = 106.62478 115.16900 118.86702
#
# Poissons Ratio (x) = 0.22110 0.22609
# Poissons Ratio (y) = 0.20470 0.13974
# Poissons Ratio (z) = 0.20280 0.13539
#
# Static dielectric constant tensor:
#      x y z
#    x 2.226920 0.000000 -0.275300 
#    y 0.000000 2.060320 0.000000 
#    z -0.275300 0.000000 2.583070 
# 
# From -- ./inp_files/2293.got.cif
#   From: 2010.05.17/outbox.cif.g08.bks.cpg/sg5_2_cif.got.tgz:2293.got - 2010.06.03 18:56:24.
