data_PCOD9130873
_publ_section_title
;
Structure prediction by ZEFSAII (Michael W. Deem and Ramdas Pophale) SiO2 
 PCOD9130873
Probable space group: P M
;
_chemical_formula_sum "Si O2"
_cell_formula_units_Z 16
_cell_length_a 8.703598
_cell_length_b 7.477675
_cell_length_c 20.305051
_cell_angle_alpha 90.000000
_cell_angle_beta 150.237515
_cell_angle_gamma 90.000000
_cell_volume 656.003615
_symmetry_space_group_name_H-M "P M"
_symmetry_group_IT_number 6
_symmetry_cell_setting 'monoclinic'
loop_
_space_group_symop_operation_xyz
x,y,z
x,-y,z
loop_
_atom_site_type_symbol
_atom_site_label
_atom_site_fract_x
_atom_site_fract_y
_atom_site_fract_z
Si Si1 0.416630 0.798630 0.215380
Si Si2 0.133779 0.780613 0.977135
Si Si3 0.083205 0.700579 0.458111
Si Si4 0.374133 0.781507 0.346967
Si Si5 0.685300 0.217488 0.088008
Si Si6 0.676611 0.784822 0.590520
Si Si7 0.440936 0.216306 0.719504
Si Si8 0.358091 0.781883 0.839019
O O1 0.421157 0.717290 0.289941
O O2 0.775725 0.809982 0.327529
O O3 0.289965 0.000000 0.177043
O O4 0.217434 0.719461 0.082119
O O5 0.405789 0.721901 0.030021
O O6 0.788181 0.728923 0.828247
O O7 0.138759 0.000000 0.979393
O O8 0.984826 0.500000 0.408970
O O9 0.388885 0.738601 0.529503
O O10 0.189041 0.723305 0.573102
O O11 0.605625 0.721551 0.489871
O O12 0.398573 0.000000 0.354973
O O13 0.025717 0.730256 0.237365
O O14 0.615079 0.274571 0.987006
O O15 0.681802 0.000000 0.087601
O O16 0.018577 0.726102 0.738186
O O17 0.687443 0.000000 0.593792
O O18 0.394849 0.275995 0.777458
O O19 0.427277 0.000000 0.713795
O O20 0.367452 0.000000 0.841220
#
# Coordination Sequence:
#
# PCOD9130873 Si02
#       8
#     2   2   2   2   2   2   2   2
#     4  10  19  35  58  84 110 140 177 221 268 319
#     4   9  17  29  54  87 114 139 172 214 266 319
#     4  12  25  38  52  76 108 146 185 224 268 318
#     4   9  17  29  51  80 108 135 170 215 265 314
#     4   9  15  25  43  77 116 139 160 206 264 317
#     4  10  19  34  54  76 102 138 179 222 266 312
#     4  10  19  35  58  84 110 140 177 221 268 319
#     4   9  17  29  51  80 108 135 170 215 265 314
#
# _framework density 24.390108999999999
#
# number of rings (size 3 to 8) (size 9 to 14) (size 15 to 20)
#    0.000    2.250    0.000    4.125    0.000    9.000 
#    0.000    3.125    0.000    0.000    0.000    1.750 
#    0.000    0.000    0.000    0.000    0.000    0.000 
#
# Total GULP energy -89473.496832 kJ/mol
# GULP energy per Si atom -5592.093552 kJ/mol
# Density = 2.433460 g / cm^3
# Si number density = 24.390109 Si / 1000 Ang^3
#
#
#
# Elastic Constant Matrix: (Units=GPa)
#
#
# Indices 1 2 3 4 5 6 
#
# 1 58.6404 -5.2821 -22.3178 0.0000 -0.2118 0.0000
# 2 -5.2821 71.8423 -3.3524 0.0000 -0.0018 0.0000
# 3 -22.3178 -3.3524 83.4502 0.0000 -3.4826 0.0000
# 4 0.0000 0.0000 0.0000 349.8286 0.0000 -294.8936
# 5 -0.2118 -0.0018 -3.4826 0.0000 41.7399 0.0000
# 6 0.0000 0.0000 0.0000 -294.8936 0.0000 198.8978
#
#
#
# Elastic Compliance Matrix: (Units=1/GPa)
#
#
# Indices 1 2 3 4 5 6 
#
# 1 0.019191 0.001655 0.005221 0.000000 0.000533 0.000000
# 2 0.001655 0.014088 0.001012 0.000000 0.000093 0.000000
# 3 0.005221 0.001012 0.013468 0.000000 0.001150 0.000000
# 4 0.000000 0.000000 0.000000 -0.011443 0.000000 -0.016965
# 5 0.000533 0.000093 0.001150 0.000000 0.024057 0.000000
# 6 0.000000 0.000000 0.000000 -0.016965 0.000000 -0.020126
#
#
# Mechanical properties :
#
#
# Convention : Reuss Voigt Hill
#
# Bulk Modulus (GPa) = 15.99382 16.89201 16.44292
# Shear Modulus (GPa) = 112.86502 134.41894 123.64198
#
# Velocity S-wave (km/s) = 6.80995 7.43180 7.12766
# Velocity P-wave (km/s) = 8.27077 8.97681 8.63101
#
# Compressibility (1/GPa) = 0.06252416
#
# Stress axis : x y z
#
# Youngs Moduli (GPa) = 52.10727 70.98096 74.24885
#
# Poissons Ratio (x) = -0.11745 -0.38767
# Poissons Ratio (y) = -0.08622 -0.07517
# Poissons Ratio (z) = -0.27206 -0.07186
#
# Static dielectric constant tensor:
#      x y z
#    x 1.943630 0.000000 0.007310 
#    y 0.000000 1.673380 0.000000 
#    z 0.007310 0.000000 1.863960 
# 
# From -- ./inp_files/4280.got.cif
#   From: 2010.05.17/outbox.cif.g08.bks.cpg/sg6_3_cif.got.tgz:4280.got - 2010.06.03 19:42:10.
