data_PCOD9130489
_publ_section_title
;
Structure prediction by ZEFSAII (Michael W. Deem and Ramdas Pophale) SiO2 
 PCOD9130489
Probable space group: C 2
;
_chemical_formula_sum "Si O2"
_cell_formula_units_Z 18
_cell_length_a 5.123171
_cell_length_b 17.695395
_cell_length_c 8.376097
_cell_angle_alpha 90.000000
_cell_angle_beta 80.038947
_cell_angle_gamma 90.000000
_cell_volume 747.901184
_symmetry_space_group_name_H-M "C 2"
_symmetry_group_IT_number 5
_symmetry_cell_setting 'monoclinic'
loop_
_space_group_symop_operation_xyz
x,y,z
-x,y,-z
1/2+x,1/2+y,z
1/2-x,1/2+y,-z
loop_
_atom_site_type_symbol
_atom_site_label
_atom_site_fract_x
_atom_site_fract_y
_atom_site_fract_z
Si Si1 0.324672 0.871750 0.679163
Si Si2 0.288175 0.007439 0.894362
Si Si3 0.000000 0.973075 0.500000
Si Si4 0.907641 0.602169 0.351266
Si Si5 0.281239 0.718352 0.882134
O O1 0.500000 0.867720 0.500000
O O2 0.401468 0.929887 0.810391
O O3 0.066648 0.916373 0.638508
O O4 0.311867 0.791989 0.766949
O O5 0.322313 0.070375 0.755311
O O6 0.500000 0.033602 0.000000
O O7 0.000000 0.000261 0.000000
O O8 0.237394 0.029284 0.425153
O O9 0.744122 0.650208 0.241831
O O10 0.000000 0.646247 0.500000
O O11 0.500000 0.711499 0.000000
O O12 0.000000 0.724690 0.000000
#
# Coordination Sequence:
#
# PCOD9130489 Si02
#       5
#     4   4   2   4   4
#     4  12  27  49  79 116 157 212 278 320 399 480
#     4  12  25  46  78 116 160 207 259 335 398 467
#     4  12  24  48  84 120 150 206 278 338 384 470
#     4  12  28  50  81 121 160 216 275 329 403 488
#     4  12  33  55  78 118 168 217 263 333 414 478
#
# _framework density 24.067352
#
# number of rings (size 3 to 8) (size 9 to 14) (size 15 to 20)
#    0.000    0.000    4.444    3.333    9.333    3.556 
#    0.000    0.000    0.000    0.000    0.000    0.000 
#    0.000    0.000    0.000    0.000    0.000    0.000 
#
# Total GULP energy -50351.295437 kJ/mol
# GULP energy per Si atom -5594.588382 kJ/mol
# Density = 2.401257 g / cm^3
# Si number density = 24.067352 Si / 1000 Ang^3
#
#
#
# Elastic Constant Matrix: (Units=GPa)
#
#
# Indices 1 2 3 4 5 6 
#
# 1 145.5731 45.9939 87.6804 0.0000 -7.7539 0.0000
# 2 45.9939 146.9632 85.4556 0.0000 15.3634 0.0000
# 3 87.6804 85.4556 189.0473 0.0000 9.2016 0.0000
# 4 0.0000 0.0000 0.0000 84.9895 0.0000 -34.5002
# 5 -7.7539 15.3634 9.2016 0.0000 47.1636 0.0000
# 6 0.0000 0.0000 0.0000 -34.5002 0.0000 98.6390
#
#
#
# Elastic Compliance Matrix: (Units=1/GPa)
#
#
# Indices 1 2 3 4 5 6 
#
# 1 0.009901 -0.000866 -0.004334 0.000000 0.002756 0.000000
# 2 -0.000866 0.009541 -0.003789 0.000000 -0.002511 0.000000
# 3 -0.004334 -0.003789 0.009074 0.000000 -0.001249 0.000000
# 4 0.000000 0.000000 0.000000 0.013713 0.000000 0.004796
# 5 0.002756 -0.002511 -0.001249 0.000000 0.022717 0.000000
# 6 0.000000 0.000000 0.000000 0.004796 0.000000 0.011816
#
#
# Mechanical properties :
#
#
# Convention : Reuss Voigt Hill
#
# Bulk Modulus (GPa) = 94.91218 102.20482 98.55850
# Shear Modulus (GPa) = 50.88917 63.65533 57.27225
#
# Velocity S-wave (km/s) = 4.60330 5.14842 4.88347
# Velocity P-wave (km/s) = 8.23259 8.82610 8.53451
#
# Compressibility (1/GPa) = 0.01053606
#
# Stress axis : x y z
#
# Youngs Moduli (GPa) = 101.00459 104.80835 110.21063
#
# Poissons Ratio (x) = 0.09078 0.47770
# Poissons Ratio (y) = 0.08749 0.41759
# Poissons Ratio (z) = 0.43780 0.39712
#
# Static dielectric constant tensor:
#      x y z
#    x 1.727710 0.000000 -0.433580 
#    y 0.000000 1.895270 0.000000 
#    z -0.433580 0.000000 0.924200 
# 
# From -- ./inp_files/11874.got.cif
#   From: 2010.05.17/outbox.cif.g08.bks.cpg/sg5_6_cif.got.tgz:11874.got - 2010.06.03 18:56:24.
