data_PCOD9130228
_publ_section_title
;
Structure prediction by ZEFSAII (Michael W. Deem and Ramdas Pophale) SiO2 
 PCOD9130228
Probable space group: C 2
;
_chemical_formula_sum "Si O2"
_cell_formula_units_Z 30
_cell_length_a 25.640816
_cell_length_b 10.142385
_cell_length_c 14.315261
_cell_angle_alpha 90.000000
_cell_angle_beta 19.004998
_cell_angle_gamma 90.000000
_cell_volume 1212.336360
_symmetry_space_group_name_H-M "C 2"
_symmetry_group_IT_number 5
_symmetry_cell_setting 'monoclinic'
loop_
_space_group_symop_operation_xyz
x,y,z
-x,y,-z
1/2+x,1/2+y,z
1/2-x,1/2+y,-z
loop_
_atom_site_type_symbol
_atom_site_label
_atom_site_fract_x
_atom_site_fract_y
_atom_site_fract_z
Si Si1 0.770052 0.139990 0.182507
Si Si2 0.571430 0.424154 0.201258
Si Si3 0.155367 0.924220 0.670629
Si Si4 0.416133 0.720293 0.243105
Si Si5 0.239329 0.361373 0.948034
Si Si6 0.031258 0.701964 0.740200
Si Si7 0.764429 0.072033 0.765686
Si Si8 0.500000 0.738517 0.500000
O O1 0.707308 0.240019 0.208623
O O2 0.666975 0.126953 0.451558
O O3 0.940856 0.198122 0.926166
O O4 0.806314 0.003245 0.070494
O O5 0.624662 0.425724 0.217724
O O6 0.563672 0.275145 0.182199
O O7 0.395914 0.487613 0.487621
O O8 0.308665 0.846617 0.451484
O O9 0.106875 0.819231 0.672261
O O10 0.177798 0.078490 0.604916
O O11 0.000000 0.928548 0.000000
O O12 0.500000 0.744107 0.000000
O O13 0.177210 0.472455 0.983993
O O14 0.108493 0.317646 0.243820
O O15 0.883192 0.631640 0.042390
O O16 0.879267 0.161871 0.635168
#
# Coordination Sequence:
#
# PCOD9130228 Si02
#       8
#     4   4   4   4   4   4   4   2
#     4  12  26  47  78 105 146 204 248 310 377 445
#     4  12  25  47  67 100 152 186 248 305 359 441
#     4  11  27  48  78 111 150 195 247 319 389 464
#     4  11  25  51  77 111 154 194 252 319 386 460
#     4  12  25  43  71 101 144 197 245 303 364 435
#     4  12  27  45  73 108 139 194 245 301 377 450
#     4  12  25  43  67  97 143 183 247 298 361 434
#     4  12  24  42  62 100 136 196 238 308 362 428
#
# _framework density 24.745608000000001
#
# number of rings (size 3 to 8) (size 9 to 14) (size 15 to 20)
#    0.000    0.267    8.000    0.000    3.733    1.600 
#    0.000    0.000    0.000    0.000    0.000    0.000 
#    0.000    0.000    0.000    0.000    0.000    0.000 
#
# Total GULP energy -83864.657344 kJ/mol
# GULP energy per Si atom -5590.977156 kJ/mol
# Density = 2.468929 g / cm^3
# Si number density = 24.745608 Si / 1000 Ang^3
#
#
#
# Elastic Constant Matrix: (Units=GPa)
#
#
# Indices 1 2 3 4 5 6 
#
# 1 53.1534 -2.2402 7.6257 0.0000 3.3392 0.0000
# 2 -2.2402 71.9692 48.1995 0.0000 -0.9402 0.0000
# 3 7.6257 48.1995 111.7611 0.0000 4.3378 0.0000
# 4 0.0000 0.0000 0.0000 31.3210 0.0000 6.9422
# 5 3.3392 -0.9402 4.3378 0.0000 43.9061 0.0000
# 6 0.0000 0.0000 0.0000 6.9422 0.0000 36.1650
#
#
#
# Elastic Compliance Matrix: (Units=1/GPa)
#
#
# Indices 1 2 3 4 5 6 
#
# 1 0.019281 0.002016 -0.002138 0.000000 -0.001212 0.000000
# 2 0.002016 0.019818 -0.008729 0.000000 0.001133 0.000000
# 3 -0.002138 -0.008729 0.012908 0.000000 -0.001300 0.000000
# 4 0.000000 0.000000 0.000000 0.033346 0.000000 -0.006401
# 5 -0.001212 0.001133 -0.001300 0.000000 0.023021 0.000000
# 6 0.000000 0.000000 0.000000 -0.006401 0.000000 0.028880
#
#
# Mechanical properties :
#
#
# Convention : Reuss Voigt Hill
#
# Bulk Modulus (GPa) = 29.14856 38.22819 33.68838
# Shear Modulus (GPa) = 30.04966 34.49831 32.27399
#
# Velocity S-wave (km/s) = 3.48852 3.73784 3.61533
# Velocity P-wave (km/s) = 5.29445 5.84043 5.57413
#
# Compressibility (1/GPa) = 0.03430701
#
# Stress axis : x y z
#
# Youngs Moduli (GPa) = 51.86361 50.45883 77.46898
#
# Poissons Ratio (x) = -0.10174 0.16564
# Poissons Ratio (y) = -0.10457 0.67619
# Poissons Ratio (z) = 0.11089 0.44043
#
# Static dielectric constant tensor:
#      x y z
#    x 1.979530 0.000000 -0.089320 
#    y 0.000000 1.998520 0.000000 
#    z -0.089320 0.000000 2.057250 
# 
# From -- ./inp_files/58167.got.cif
#   From: 2010.05.17/outbox.cif.g08.bks.cpg/sg5_30_cif.got.tgz:58167.got - 2010.06.03 18:56:24.
