data_PCOD9130579
_publ_section_title
;
Structure prediction by ZEFSAII (Michael W. Deem and Ramdas Pophale) SiO2 
 PCOD9130579
Probable space group: C 2
;
_chemical_formula_sum "Si O2"
_cell_formula_units_Z 32
_cell_length_a 11.170027
_cell_length_b 18.683533
_cell_length_c 6.681716
_cell_angle_alpha 90.000000
_cell_angle_beta 62.643828
_cell_angle_gamma 90.000000
_cell_volume 1238.499815
_symmetry_space_group_name_H-M "C 2"
_symmetry_group_IT_number 5
_symmetry_cell_setting 'monoclinic'
loop_
_space_group_symop_operation_xyz
x,y,z
-x,y,-z
1/2+x,1/2+y,z
1/2-x,1/2+y,-z
loop_
_atom_site_type_symbol
_atom_site_label
_atom_site_fract_x
_atom_site_fract_y
_atom_site_fract_z
Si Si1 0.646822 0.741890 0.892303
Si Si2 0.116234 0.625336 0.289758
Si Si3 0.895910 0.636560 0.205562
Si Si4 0.402856 0.396038 0.768232
Si Si5 0.198742 0.788990 0.859110
Si Si6 0.861654 0.018176 0.130290
Si Si7 0.723866 0.985006 0.635083
Si Si8 0.616114 0.858213 0.565658
O O1 0.776076 0.691274 0.764681
O O2 0.631541 0.803335 0.736469
O O3 0.500000 0.707411 0.000000
O O4 0.676683 0.772188 0.089600
O O5 0.067842 0.623836 0.571893
O O6 0.219383 0.557195 0.193023
O O7 0.069871 0.636384 0.078612
O O8 0.836955 0.717580 0.237254
O O9 0.808453 0.563153 0.260163
O O10 0.500000 0.389366 0.500000
O O11 0.270040 0.425964 0.758371
O O12 0.403343 0.322646 0.897205
O O13 0.398064 0.455716 0.946033
O O14 0.245321 0.848715 0.666693
O O15 0.837465 0.995808 0.378992
O O16 0.000000 0.062805 0.000000
O O17 0.598956 0.941815 0.635644
O O18 0.500000 0.839388 0.500000
#
# Coordination Sequence:
#
# PCOD9130579 Si02
#       8
#     4   4   4   4   4   4   4   4
#     4  12  26  51  77 119 165 221 284 351 422 498
#     4  12  26  50  80 117 163 222 276 345 427 498
#     4  12  27  49  79 120 162 219 282 343 418 495
#     4  12  27  50  80 121 165 225 286 346 427 506
#     4  12  27  51  77 121 168 218 282 353 416 503
#     4  12  26  50  80 120 171 218 280 351 422 502
#     4  12  27  49  79 122 164 221 276 348 421 509
#     4  12  27  47  80 118 161 220 282 345 421 508
#
# _framework density 25.837710000000001
#
# number of rings (size 3 to 8) (size 9 to 14) (size 15 to 20)
#    0.000    0.000    7.500    1.875    1.750    3.500 
#    0.000    0.625    0.000    0.000    0.000    0.000 
#    0.000    0.000    0.000    0.000    0.000    0.000 
#
# Total GULP energy -89174.231453 kJ/mol
# GULP energy per Si atom -5573.389466 kJ/mol
# Density = 2.577890 g / cm^3
# Si number density = 25.837710 Si / 1000 Ang^3
#
#
#
# Elastic Constant Matrix: (Units=GPa)
#
#
# Indices 1 2 3 4 5 6 
#
# 1 142.2237 55.7809 73.1033 0.0000 17.3794 0.0000
# 2 55.7809 163.4258 69.9392 0.0000 -7.2642 0.0000
# 3 73.1033 69.9392 168.5261 0.0000 2.1283 0.0000
# 4 0.0000 0.0000 0.0000 45.2895 0.0000 21.5765
# 5 17.3794 -7.2642 2.1283 0.0000 53.8081 0.0000
# 6 0.0000 0.0000 0.0000 21.5765 0.0000 -8.2301
#
#
#
# Elastic Compliance Matrix: (Units=1/GPa)
#
#
# Indices 1 2 3 4 5 6 
#
# 1 0.010038 -0.002106 -0.003438 0.000000 -0.003391 0.000000
# 2 -0.002106 0.007951 -0.002410 0.000000 0.001849 0.000000
# 3 -0.003438 -0.002410 0.008419 0.000000 0.000452 0.000000
# 4 0.000000 0.000000 0.000000 0.009818 0.000000 0.025739
# 5 -0.003391 0.001849 0.000452 0.000000 0.019911 0.000000
# 6 0.000000 0.000000 0.000000 0.025739 0.000000 -0.054027
#
#
# Mechanical properties :
#
#
# Convention : Reuss Voigt Hill
#
# Bulk Modulus (GPa) = 95.21561 96.86917 96.04239
# Shear Modulus (GPa) = 232.35571 36.53031 134.44301
#
# Velocity S-wave (km/s) = 9.49337 3.76418 7.22126
# Velocity P-wave (km/s) = 12.53383 7.51431 10.33348
#
# Compressibility (1/GPa) = 0.01050248
#
# Stress axis : x y z
#
# Youngs Moduli (GPa) = 99.61726 125.76763 118.77445
#
# Poissons Ratio (x) = 0.26485 0.40831
# Poissons Ratio (y) = 0.20978 0.28620
# Poissons Ratio (z) = 0.34246 0.30306
#
# Static dielectric constant tensor:
#      x y z
#    x 2.236130 0.000000 0.027570 
#    y 0.000000 1.985520 0.000000 
#    z 0.027570 0.000000 2.110900 
# 
# From -- ./inp_files/7564.got.cif
#   From: 2010.05.17/outbox.cif.g08.bks.cpg/sg5_4_cif.got.tgz:7564.got - 2010.06.03 18:56:24.
