data_PCOD9130877
_publ_section_title
;
Structure prediction by ZEFSAII (Michael W. Deem and Ramdas Pophale) SiO2 
 PCOD9130877
Probable space group: P M
;
_chemical_formula_sum "Si O2"
_cell_formula_units_Z 12
_cell_length_a 5.522728
_cell_length_b 10.396560
_cell_length_c 9.347755
_cell_angle_alpha 90.000000
_cell_angle_beta 107.478359
_cell_angle_gamma 90.000000
_cell_volume 511.943258
_symmetry_space_group_name_H-M "P M"
_symmetry_group_IT_number 6
_symmetry_cell_setting 'monoclinic'
loop_
_space_group_symop_operation_xyz
x,y,z
x,-y,z
loop_
_atom_site_type_symbol
_atom_site_label
_atom_site_fract_x
_atom_site_fract_y
_atom_site_fract_z
Si Si1 0.485680 0.000000 0.567831
Si Si2 0.684928 0.702495 0.838875
Si Si3 0.900842 0.740330 0.375325
Si Si4 0.989287 0.853020 0.089461
Si Si5 0.991796 0.000000 0.575475
Si Si6 0.255317 0.362079 0.992851
Si Si7 0.454885 0.716635 0.482731
O O1 0.430828 0.127093 0.464847
O O2 0.779834 0.000000 0.657141
O O3 0.287470 0.000000 0.662246
O O4 0.467050 0.651391 0.907478
O O5 0.570691 0.702143 0.661303
O O6 0.962436 0.634949 0.883198
O O7 0.780399 0.835089 0.927907
O O8 0.168915 0.665870 0.427930
O O9 0.870962 0.786313 0.208239
O O10 0.941178 0.870254 0.477373
O O11 0.659277 0.672266 0.402862
O O12 0.053704 0.000000 0.125539
O O13 0.230224 0.764410 0.087279
O O14 0.298949 0.500000 0.074157
#
# Coordination Sequence:
#
# PCOD9130877 Si02
#       7
#     1   2   2   2   1   2   2
#     4   8  16  26  45  69 116 156 184 221 298 381
#     4  10  23  40  65  96 124 170 221 278 317 380
#     4  10  19  34  56  84 132 164 198 252 330 391
#     4  10  24  41  64 103 136 166 218 280 328 380
#     4   8  14  28  41  71 104 170 184 217 284 389
#     4  10  23  44  69  92 127 182 224 262 328 400
#     4  10  20  34  56  88 124 163 208 254 323 387
#
# _framework density 23.440097999999999
#
# number of rings (size 3 to 8) (size 9 to 14) (size 15 to 20)
#    1.000    1.333    0.833    1.500    3.500    0.667 
#    0.000    0.000    0.000    6.000    0.000    0.000 
#    0.000    0.000    0.000    0.000    0.000    0.000 
#
# Total GULP energy -66829.280947 kJ/mol
# GULP energy per Si atom -5569.106746 kJ/mol
# Density = 2.338675 g / cm^3
# Si number density = 23.440098 Si / 1000 Ang^3
#
#
#
# Elastic Constant Matrix: (Units=GPa)
#
#
# Indices 1 2 3 4 5 6 
#
# 1 224.9983 19.1511 41.8540 0.0000 -31.1644 0.0000
# 2 19.1511 47.3460 24.1985 0.0000 -7.7377 0.0000
# 3 41.8540 24.1985 100.4205 0.0000 -8.9570 0.0000
# 4 0.0000 0.0000 0.0000 7.1515 0.0000 -11.6935
# 5 -31.1644 -7.7377 -8.9570 0.0000 32.0171 0.0000
# 6 0.0000 0.0000 0.0000 -11.6935 0.0000 26.6708
#
#
#
# Elastic Compliance Matrix: (Units=1/GPa)
#
#
# Indices 1 2 3 4 5 6 
#
# 1 0.005464 -0.000561 -0.001723 0.000000 0.004701 0.000000
# 2 -0.000561 0.024738 -0.005377 0.000000 0.003928 0.000000
# 3 -0.001723 -0.005377 0.012006 0.000000 0.000382 0.000000
# 4 0.000000 0.000000 0.000000 0.493913 0.000000 0.216550
# 5 0.004701 0.003928 0.000382 0.000000 0.036865 0.000000
# 6 0.000000 0.000000 0.000000 0.216550 0.000000 0.132438
#
#
# Mechanical properties :
#
#
# Convention : Reuss Voigt Hill
#
# Bulk Modulus (GPa) = 37.19399 60.35244 48.77322
# Shear Modulus (GPa) = 6.85205 32.33863 19.59534
#
# Velocity S-wave (km/s) = 1.71160 3.71837 2.89446
# Velocity P-wave (km/s) = 4.45064 6.65120 5.65891
#
# Compressibility (1/GPa) = 0.02688607
#
# Stress axis : x y z
#
# Youngs Moduli (GPa) = 183.02265 40.42323 83.29233
#
# Poissons Ratio (x) = 0.02269 0.14349
# Poissons Ratio (y) = 0.10274 0.44785
# Poissons Ratio (z) = 0.31529 0.21735
#
# Static dielectric constant tensor:
#      x y z
#    x 1.965020 0.000000 0.008510 
#    y 0.000000 1.903060 0.000000 
#    z 0.008510 0.000000 1.855420 
# 
# From -- ./inp_files/2105.got.cif
#   From: 2010.05.17/outbox.cif.g08.bks.cpg/sg6_2_cif.got.tgz:2105.got - 2010.06.03 19:42:10.
