data_PCOD9130022
_publ_section_title
;
Structure prediction by ZEFSAII (Michael W. Deem and Ramdas Pophale) SiO2 
 PCOD9130022
Probable space group: C 2
;
_chemical_formula_sum "Si O2"
_cell_formula_units_Z 30
_cell_length_a 14.271173
_cell_length_b 5.127332
_cell_length_c 17.803132
_cell_angle_alpha 90.000000
_cell_angle_beta 69.414209
_cell_angle_gamma 90.000000
_cell_volume 1219.527116
_symmetry_space_group_name_H-M "C 2"
_symmetry_group_IT_number 5
_symmetry_cell_setting 'monoclinic'
loop_
_space_group_symop_operation_xyz
x,y,z
-x,y,-z
1/2+x,1/2+y,z
1/2-x,1/2+y,-z
loop_
_atom_site_type_symbol
_atom_site_label
_atom_site_fract_x
_atom_site_fract_y
_atom_site_fract_z
Si Si1 0.046638 0.951340 0.702795
Si Si2 0.362033 0.745630 0.101725
Si Si3 0.124086 0.238675 0.547870
Si Si4 0.500000 0.113553 0.500000
Si Si5 0.146539 0.466001 0.748669
Si Si6 0.363630 0.209474 0.840150
Si Si7 0.807404 0.930888 0.597110
Si Si8 0.581106 0.698932 0.082728
O O1 0.117313 0.727439 0.714925
O O2 0.937840 0.839026 0.756942
O O3 0.072738 0.004272 0.608496
O O4 0.080805 0.223187 0.733971
O O5 0.363478 0.987815 0.159250
O O6 0.250904 0.634630 0.147575
O O7 0.466062 0.609732 0.098281
O O8 0.375115 0.787926 0.009883
O O9 0.037946 0.444738 0.559628
O O10 0.218355 0.322200 0.569897
O O11 0.165041 0.198620 0.451982
O O12 0.406781 0.273469 0.555972
O O13 0.261330 0.424588 0.691869
O O14 0.361606 0.448200 0.900836
O O15 0.410347 0.948878 0.864541
#
# Coordination Sequence:
#
# PCOD9130022 Si02
#       8
#     4   4   4   2   4   4   4   4
#     4  11  24  46  72 101 147 182 232 293 352 406
#     4  11  25  45  75 103 140 191 234 288 355 416
#     4  11  24  45  73 100 142 187 229 296 349 417
#     4  12  26  44  74 108 130 192 244 278 356 424
#     4  11  25  47  72 103 142 188 232 290 351 419
#     4  12  24  46  71 105 142 186 234 293 349 417
#     4  11  24  46  72  99 145 182 234 292 353 414
#     4  11  26  46  69 105 146 182 236 292 350 420
#
# _framework density 24.599696999999999
#
# number of rings (size 3 to 8) (size 9 to 14) (size 15 to 20)
#    0.000    0.800    4.000    2.000    3.733    7.467 
#    2.400    0.000    0.000    0.000    0.000    0.000 
#    0.000    0.000    0.000    0.000    0.000    0.000 
#
# Total GULP energy -83781.217584 kJ/mol
# GULP energy per Si atom -5585.414506 kJ/mol
# Density = 2.454371 g / cm^3
# Si number density = 24.599697 Si / 1000 Ang^3
#
#
#
# Elastic Constant Matrix: (Units=GPa)
#
#
# Indices 1 2 3 4 5 6 
#
# 1 144.4793 28.6034 20.5577 0.0005 -26.7859 0.0003
# 2 28.6034 106.3277 2.9017 0.0009 6.4088 0.0005
# 3 20.5577 2.9017 111.3479 0.0003 -24.6296 0.0005
# 4 0.0005 0.0009 0.0003 0.6567 -0.0001 -18.9877
# 5 -26.7859 6.4088 -24.6296 -0.0001 30.8315 0.0001
# 6 0.0003 0.0005 0.0005 -18.9877 0.0001 11.1904
#
#
#
# Elastic Compliance Matrix: (Units=1/GPa)
#
#
# Indices 1 2 3 4 5 6 
#
# 1 0.009095 -0.002986 0.000345 0.000000 0.008797 0.000000
# 2 -0.002986 0.010569 -0.000952 0.000000 -0.005552 0.000000
# 3 0.000345 -0.000952 0.010995 0.000000 0.009280 0.000000
# 4 0.000000 0.000000 0.000000 -0.031684 0.000000 -0.053762
# 5 0.008797 -0.005552 0.009280 0.000000 0.048645 0.000000
# 6 0.000000 0.000000 0.000000 -0.053762 0.000000 -0.001859
#
#
# Mechanical properties :
#
#
# Convention : Reuss Voigt Hill
#
# Bulk Modulus (GPa) = 42.60611 51.80895 47.20753
# Shear Modulus (GPa) = 82.27688 29.20852 55.74270
#
# Velocity S-wave (km/s) = 5.78955 3.44954 4.76541
# Velocity P-wave (km/s) = 7.87713 6.08048 7.03639
#
# Compressibility (1/GPa) = 0.02347081
#
# Stress axis : x y z
#
# Youngs Moduli (GPa) = 109.95615 94.61789 90.95176
#
# Poissons Ratio (x) = 0.28255 -0.03134
# Poissons Ratio (y) = 0.32835 0.08660
# Poissons Ratio (z) = -0.03789 0.09009
#
# Static dielectric constant tensor:
#      x y z
#    x 1.984010 0.000000 -0.014290 
#    y 0.000000 1.955750 0.000000 
#    z -0.014290 0.000000 2.030490 
# 
# From -- ./inp_files/65677.got.cif
#   From: 2010.05.17/outbox.cif.g08.bks.cpg/sg5_33_cif.got.tgz:65677.got - 2010.06.03 18:56:24.
