data_PCOD9130539
_publ_section_title
;
Structure prediction by ZEFSAII (Michael W. Deem and Ramdas Pophale) SiO2 
 PCOD9130539
Probable space group: C 2
;
_chemical_formula_sum "Si O2"
_cell_formula_units_Z 28
_cell_length_a 22.017998
_cell_length_b 4.874117
_cell_length_c 11.004258
_cell_angle_alpha 90.000000
_cell_angle_beta 120.010778
_cell_angle_gamma 90.000000
_cell_volume 1022.628745
_symmetry_space_group_name_H-M "C 2"
_symmetry_group_IT_number 5
_symmetry_cell_setting 'monoclinic'
loop_
_space_group_symop_operation_xyz
x,y,z
-x,y,-z
1/2+x,1/2+y,z
1/2-x,1/2+y,-z
loop_
_atom_site_type_symbol
_atom_site_label
_atom_site_fract_x
_atom_site_fract_y
_atom_site_fract_z
Si Si1 0.000000 0.638021 0.000000
Si Si2 0.628181 0.522719 0.069657
Si Si3 0.239384 0.275090 0.910182
Si Si4 0.135932 0.672207 0.680204
Si Si5 0.709507 0.123052 0.512134
Si Si6 0.414586 0.783272 0.735045
Si Si7 0.000000 0.463989 0.500000
Si Si8 0.451297 0.580476 0.234965
O O1 0.064048 0.818174 0.021276
O O2 0.027150 0.466977 0.140539
O O3 0.696797 0.353316 0.111835
O O4 0.631137 0.688524 0.195502
O O5 0.601335 0.686142 0.923939
O O6 0.171929 0.403522 0.776945
O O7 0.255089 0.457964 0.047353
O O8 0.193345 0.743024 0.632215
O O9 0.066233 0.637953 0.528985
O O10 0.097607 0.845890 0.750422
O O11 0.731882 0.383719 0.451751
O O12 0.639551 0.955821 0.399714
O O13 0.467277 0.548783 0.733230
O O14 0.029378 0.285480 0.637947
#
# Coordination Sequence:
#
# PCOD9130539 Si02
#       8
#     2   4   4   4   4   4   2   4
#     4  12  26  42  82 124 160 214 284 354 440 490
#     4  12  26  49  80 121 165 216 278 359 424 512
#     4  12  29  51  79 117 167 219 284 348 427 513
#     4  12  29  50  83 121 166 229 281 357 434 518
#     4  12  32  57  86 124 176 232 289 349 436 532
#     4  12  27  51  84 125 169 219 288 361 435 508
#     4  12  28  46  82 112 170 212 288 352 426 504
#     4  12  25  50  74 120 170 213 291 348 428 510
#
# _framework density 27.380414999999999
#
# number of rings (size 3 to 8) (size 9 to 14) (size 15 to 20)
#    0.000    0.000    5.714    2.143   10.000    2.286 
#    0.000    0.000    0.000    0.000    0.000    0.000 
#    0.000    0.000    0.000    0.000    0.000    0.000 
#
# Total GULP energy -78246.065124 kJ/mol
# GULP energy per Si atom -5589.004652 kJ/mol
# Density = 2.731810 g / cm^3
# Si number density = 27.380415 Si / 1000 Ang^3
#
#
#
# Elastic Constant Matrix: (Units=GPa)
#
#
# Indices 1 2 3 4 5 6 
#
# 1 186.4264 26.8388 42.2886 0.0000 -7.9885 0.0000
# 2 26.8388 71.2864 15.1908 0.0000 -4.5341 0.0001
# 3 42.2886 15.1908 114.3255 0.0000 3.1333 0.0000
# 4 0.0000 0.0000 0.0000 38.0744 0.0000 -46.2813
# 5 -7.9885 -4.5341 3.1333 0.0000 60.5681 0.0000
# 6 0.0000 0.0001 0.0000 -46.2813 0.0000 -173.5510
#
#
#
# Elastic Compliance Matrix: (Units=1/GPa)
#
#
# Indices 1 2 3 4 5 6 
#
# 1 0.006123 -0.001820 -0.002044 0.000000 0.000777 0.000000
# 2 -0.001820 0.015063 -0.001354 0.000000 0.000958 0.000000
# 3 -0.002044 -0.001354 0.009707 0.000000 -0.000873 0.000000
# 4 0.000000 0.000000 0.000000 0.019835 0.000000 -0.005289
# 5 0.000777 0.000958 -0.000873 0.000000 0.016730 0.000000
# 6 0.000000 0.000000 0.000000 -0.005289 0.000000 -0.004351
#
#
# Mechanical properties :
#
#
# Convention : Reuss Voigt Hill
#
# Bulk Modulus (GPa) = 48.88791 60.07497 54.48144
# Shear Modulus (GPa) = 62.21826 4.19965 33.20895
#
# Velocity S-wave (km/s) = 4.77210 1.23982 3.48641
# Velocity P-wave (km/s) = 6.94678 4.90286 6.01231
#
# Compressibility (1/GPa) = 0.02045495
#
# Stress axis : x y z
#
# Youngs Moduli (GPa) = 163.31503 66.38899 103.01790
#
# Poissons Ratio (x) = 0.12084 0.21061
# Poissons Ratio (y) = 0.29727 0.13953
# Poissons Ratio (z) = 0.33387 0.08992
#
# Static dielectric constant tensor:
#      x y z
#    x 2.271070 0.000000 -0.041500 
#    y 0.000000 2.194330 0.000000 
#    z -0.041500 0.000000 3.876000 
# 
# From -- ./inp_files/45754.got.cif
#   From: 2010.05.17/outbox.cif.g08.bks.cpg/sg5_23_cif.got.tgz:45754.got - 2010.06.03 18:56:24.
