data_PCOD9130234
_publ_section_title
;
Structure prediction by ZEFSAII (Michael W. Deem and Ramdas Pophale) SiO2 
 PCOD9130234
Probable space group: C 2
;
_chemical_formula_sum "Si O2"
_cell_formula_units_Z 22
_cell_length_a 7.446860
_cell_length_b 18.267990
_cell_length_c 6.837695
_cell_angle_alpha 90.000000
_cell_angle_beta 65.999479
_cell_angle_gamma 90.000000
_cell_volume 849.771348
_symmetry_space_group_name_H-M "C 2"
_symmetry_group_IT_number 5
_symmetry_cell_setting 'monoclinic'
loop_
_space_group_symop_operation_xyz
x,y,z
-x,y,-z
1/2+x,1/2+y,z
1/2-x,1/2+y,-z
loop_
_atom_site_type_symbol
_atom_site_label
_atom_site_fract_x
_atom_site_fract_y
_atom_site_fract_z
Si Si1 0.363120 0.307560 0.295930
Si Si2 0.000000 0.568859 0.500000
Si Si3 0.713965 0.875670 0.987336
Si Si4 0.281114 0.518138 0.703491
Si Si5 0.723701 0.708235 0.681972
Si Si6 0.286380 0.678954 0.861236
O O1 0.500000 0.511536 0.500000
O O2 0.576949 0.341348 0.173785
O O3 0.702005 0.281901 0.459560
O O4 0.355430 0.226101 0.208523
O O5 0.103119 0.519756 0.622571
O O6 0.171606 0.629592 0.395954
O O7 0.742831 0.956073 0.881962
O O8 0.500000 0.850867 0.000000
O O9 0.724275 0.857854 0.217246
O O10 0.263034 0.594080 0.829869
O O11 0.505636 0.698420 0.704375
O O12 0.725167 0.707689 0.914530
#
# Coordination Sequence:
#
# PCOD9130234 Si02
#       6
#     4   2   4   4   4   4
#     4  11  26  55  84 125 177 233 291 371 448 525
#     4  12  26  44  90 126 178 230 288 370 442 516
#     4  11  31  54  84 120 185 243 294 363 453 540
#     4  12  27  57  84 131 183 237 297 371 450 542
#     4  11  26  46  89 133 168 222 292 373 442 520
#     4  11  25  52  93 133 172 223 302 374 445 529
#
# _framework density 25.889317999999999
#
# number of rings (size 3 to 8) (size 9 to 14) (size 15 to 20)
#    0.000    0.727    3.636    0.545   10.182    7.273 
#    3.273    0.000    0.000    0.000    0.000    0.000 
#    0.000    0.000    0.000    0.000    0.000    0.000 
#
# Total GULP energy -61428.822029 kJ/mol
# GULP energy per Si atom -5584.438366 kJ/mol
# Density = 2.583039 g / cm^3
# Si number density = 25.889318 Si / 1000 Ang^3
#
#
#
# Elastic Constant Matrix: (Units=GPa)
#
#
# Indices 1 2 3 4 5 6 
#
# 1 203.7905 74.8273 65.8248 0.0000 6.1370 0.0000
# 2 74.8273 182.1274 57.9935 0.0000 13.1673 0.0000
# 3 65.8248 57.9935 151.9329 0.0000 35.7544 0.0000
# 4 0.0000 0.0000 0.0000 958.2160 0.0000 35.8815
# 5 6.1370 13.1673 35.7544 0.0000 44.1673 0.0000
# 6 0.0000 0.0000 0.0000 35.8815 0.0000 43.2194
#
#
#
# Elastic Compliance Matrix: (Units=1/GPa)
#
#
# Indices 1 2 3 4 5 6 
#
# 1 0.006351 -0.001968 -0.002385 0.000000 0.001635 0.000000
# 2 -0.001968 0.006860 -0.001667 0.000000 -0.000423 0.000000
# 3 -0.002385 -0.001667 0.009952 0.000000 -0.007228 0.000000
# 4 0.000000 0.000000 0.000000 0.001077 0.000000 -0.000894
# 5 0.001635 -0.000423 -0.007228 0.000000 0.028392 0.000000
# 6 0.000000 0.000000 0.000000 -0.000894 0.000000 0.023880
#
#
# Mechanical properties :
#
#
# Convention : Reuss Voigt Hill
#
# Bulk Modulus (GPa) = 89.89254 103.90466 96.89860
# Shear Modulus (GPa) = 54.19488 231.73422 142.96455
#
# Velocity S-wave (km/s) = 4.58026 9.47121 7.43917
# Velocity P-wave (km/s) = 7.92268 12.64225 10.54977
#
# Compressibility (1/GPa) = 0.01112439
#
# Stress axis : x y z
#
# Youngs Moduli (GPa) = 157.46235 145.76329 100.47862
#
# Poissons Ratio (x) = 0.28686 0.23964
# Poissons Ratio (y) = 0.30988 0.16746
# Poissons Ratio (z) = 0.37555 0.24293
#
# Static dielectric constant tensor:
#      x y z
#    x 1.993240 0.000000 -0.008460 
#    y 0.000000 2.054240 0.000000 
#    z -0.008460 0.000000 2.280890 
# 
# From -- ./inp_files/14949.got.cif
#   From: 2010.05.17/outbox.cif.g08.bks.cpg/sg5_8_cif.got.tgz:14949.got - 2010.06.03 18:56:24.
