data_PCOD9130693
_publ_section_title
;
Structure prediction by ZEFSAII (Michael W. Deem and Ramdas Pophale) SiO2 
 PCOD9130693
Probable space group: C 2
;
_chemical_formula_sum "Si O2"
_cell_formula_units_Z 16
_cell_length_a 12.000000
_cell_length_b 15.000000
_cell_length_c 18.000000
_cell_angle_alpha 90.000000
_cell_angle_beta 30.000000
_cell_angle_gamma 90.000000
_cell_volume 1620.000000
_symmetry_space_group_name_H-M "C 2"
_symmetry_group_IT_number 5
_symmetry_cell_setting 'monoclinic'
loop_
_space_group_symop_operation_xyz
x,y,z
-x,y,-z
1/2+x,1/2+y,z
1/2-x,1/2+y,-z
loop_
_atom_site_type_symbol
_atom_site_label
_atom_site_fract_x
_atom_site_fract_y
_atom_site_fract_z
Si Si1 0.514200 0.163440 0.686040
Si Si2 0.710266 0.391166 0.824919
Si Si3 0.352229 0.580707 0.208242
Si Si4 0.213260 0.689941 0.823043
Si Si5 0.750762 0.545237 0.328447
Si Si6 0.475657 0.863367 0.215339
Si Si7 0.653807 0.739804 0.983866
Si Si8 0.814186 0.193029 0.371448
O O1 0.311283 0.117458 0.760430
O O2 0.636955 0.092553 0.665987
O O3 0.670059 0.195479 0.529194
O O4 0.400896 0.233503 0.807546
O O5 0.670780 0.474091 0.791359
O O6 0.714106 0.290972 0.789506
O O7 0.909365 0.391084 0.772121
O O8 0.500000 0.396803 0.000000
O O9 0.575136 0.641173 0.061193
O O10 0.274439 0.614662 0.334381
O O11 0.229766 0.614400 0.750972
O O12 0.431056 0.683844 0.748937
O O13 0.000000 0.680560 0.000000
O O14 0.500000 0.527761 0.500000
O O15 0.872393 0.452410 0.241289
O O16 0.624872 0.811115 0.067274
O O17 0.296368 0.786899 0.339009
O O18 0.500000 0.761193 0.000000
#
# Coordination Sequence:
#
# PCOD9130693 Si02
#       8
#     4   4   4   4   4   4   4   4
#     4  11  21  39  65  96 129 167 212 275 333 384
#     4  10  20  37  62  94 122 161 219 272 326 378
#     4  10  20  38  67  95 121 165 216 272 325 385
#     4  10  24  42  63  90 133 177 218 268 326 402
#     4  12  25  42  65  93 137 177 213 267 345 391
#     4  10  23  41  65  90 127 171 216 266 325 398
#     4   9  21  38  66  97 124 162 220 269 330 385
#     4  10  22  42  65  94 127 172 219 268 332 388
#
# _framework density 9.8765429999999999
#
# number of rings (size 3 to 8) (size 9 to 14) (size 15 to 20)
#    0.000    1.750    2.500    1.500    7.000    3.500 
#    0.000    2.500    2.750    0.000    0.000    0.000 
#    0.000    0.000    0.000    0.000    0.000    0.000 
#
# Total GULP energy -89200.816199 kJ/mol
# GULP energy per Si atom -5575.051012 kJ/mol
# Density = 0.985406 g / cm^3
# Si number density = 9.876543 Si / 1000 Ang^3
#
#
#
# Elastic Constant Matrix: (Units=GPa)
#
#
# Indices 1 2 3 4 5 6 
#
# 1 70.2071 49.2402 21.4415 -0.0075 14.1418 -0.0017
# 2 49.2402 167.5231 41.7232 0.0080 20.4025 -0.0016
# 3 21.4415 41.7232 99.9912 0.0080 20.5282 -0.0078
# 4 -0.0075 0.0080 0.0080 10.4798 0.0076 6.0737
# 5 14.1418 20.4025 20.5282 0.0076 32.3934 0.0028
# 6 -0.0017 -0.0016 -0.0078 6.0737 0.0028 32.5128
#
#
#
# Elastic Compliance Matrix: (Units=1/GPa)
#
#
# Indices 1 2 3 4 5 6 
#
# 1 0.018792 -0.004687 -0.001145 0.000023 -0.004527 -0.000003
# 2 -0.004687 0.008059 -0.001995 -0.000007 -0.001765 0.000001
# 3 -0.001145 -0.001995 0.012321 -0.000007 -0.006052 0.000005
# 4 0.000023 -0.000007 -0.000007 0.107008 -0.000024 -0.019990
# 5 -0.004527 -0.001765 -0.006052 -0.000024 0.037793 -0.000001
# 6 -0.000003 0.000001 0.000005 -0.019990 -0.000001 0.034491
#
#
# Mechanical properties :
#
#
# Convention : Reuss Voigt Hill
#
# Bulk Modulus (GPa) = 42.51987 62.50347 52.51167
# Shear Modulus (GPa) = 20.66465 30.09829 25.38147
#
# Velocity S-wave (km/s) = 3.23793 3.90773 3.58849
# Velocity P-wave (km/s) = 5.96249 7.21606 6.61902
#
# Compressibility (1/GPa) = 0.02351842
#
# Stress axis : x y z
#
# Youngs Moduli (GPa) = 53.21301 124.08512 81.16004
#
# Poissons Ratio (x) = 0.58163 0.09289
# Poissons Ratio (y) = 0.24943 0.16194
# Poissons Ratio (z) = 0.06091 0.24758
#
# Static dielectric constant tensor:
#      x y z
#    x 1.736690 0.000000 -0.048030 
#    y 0.000000 1.716530 0.000000 
#    z -0.048030 0.000000 1.748750 
# 
# From -- ./inp_files/60680.got.cif
#   From: 2010.05.17/outbox.ucp.g08.bks.cvg/sg5_31_cif.got.tgz:60680.got - 2010.06.11 12:53:14.
