data_PCOD9130407
_publ_section_title
;
Structure prediction by ZEFSAII (Michael W. Deem and Ramdas Pophale) SiO2 
 PCOD9130407
Probable space group: C 2
;
_chemical_formula_sum "Si O2"
_cell_formula_units_Z 22
_cell_length_a 9.870411
_cell_length_b 15.150343
_cell_length_c 6.751286
_cell_angle_alpha 90.000000
_cell_angle_beta 68.719638
_cell_angle_gamma 90.000000
_cell_volume 940.749987
_symmetry_space_group_name_H-M "C 2"
_symmetry_group_IT_number 5
_symmetry_cell_setting 'monoclinic'
loop_
_space_group_symop_operation_xyz
x,y,z
-x,y,-z
1/2+x,1/2+y,z
1/2-x,1/2+y,-z
loop_
_atom_site_type_symbol
_atom_site_label
_atom_site_fract_x
_atom_site_fract_y
_atom_site_fract_z
Si Si1 0.302955 0.636250 0.928000
Si Si2 0.000000 0.646618 0.500000
Si Si3 0.748840 0.015196 0.338663
Si Si4 0.000000 0.042557 0.500000
Si Si5 0.585889 0.244604 0.792739
Si Si6 0.500000 0.790511 0.000000
Si Si7 0.863590 0.335587 0.472252
O O1 0.408431 0.597736 0.705543
O O2 0.160921 0.668047 0.884069
O O3 0.379041 0.723510 0.977074
O O4 0.287711 0.561053 0.107686
O O5 0.863379 0.587116 0.515965
O O6 0.030642 0.708231 0.299582
O O7 0.881927 0.996464 0.418296
O O8 0.660436 0.924346 0.387044
O O9 0.714487 0.284584 0.591996
O O10 0.500000 0.303639 0.000000
O O11 0.584427 0.844569 0.782892
O O12 0.000000 0.286711 0.500000
#
# Coordination Sequence:
#
# PCOD9130407 Si02
#       7
#     4   2   4   2   4   2   4
#     4  12  23  44  77 107 144 204 262 308 371 465
#     4  12  24  45  75 106 144 196 256 306 370 461
#     4  12  26  46  71 110 150 197 255 320 384 448
#     4  12  24  43  75 108 148 198 260 312 376 451
#     4  12  26  44  75 113 152 201 253 318 381 460
#     4  12  24  48  78 106 144 208 256 308 380 468
#     4  12  28  48  75 109 159 201 256 317 398 452
#
# _framework density 23.385596
#
# number of rings (size 3 to 8) (size 9 to 14) (size 15 to 20)
#    0.000    0.000    8.182    2.182    0.000    3.636 
#    1.636    0.000    0.000    0.000    0.000    0.000 
#    0.000    0.000    0.000    0.000    0.000    0.000 
#
# Total GULP energy -61373.172285 kJ/mol
# GULP energy per Si atom -5579.379299 kJ/mol
# Density = 2.333237 g / cm^3
# Si number density = 23.385596 Si / 1000 Ang^3
#
#
#
# Elastic Constant Matrix: (Units=GPa)
#
#
# Indices 1 2 3 4 5 6 
#
# 1 104.7488 3.9726 17.5531 0.0000 9.2570 0.0000
# 2 3.9726 65.6056 40.7126 0.0000 -1.3374 0.0000
# 3 17.5531 40.7126 184.0196 0.0000 -20.4210 0.0000
# 4 0.0000 0.0000 0.0000 -15.8397 0.0000 -9.6027
# 5 9.2570 -1.3374 -20.4210 0.0000 45.4426 0.0000
# 6 0.0000 0.0000 0.0000 -9.6027 0.0000 23.6606
#
#
#
# Elastic Compliance Matrix: (Units=1/GPa)
#
#
# Indices 1 2 3 4 5 6 
#
# 1 0.009984 0.000130 -0.001270 0.000000 -0.002601 0.000000
# 2 0.000130 0.017744 -0.004087 0.000000 -0.001341 0.000000
# 3 -0.001270 -0.004087 0.006815 0.000000 0.003201 0.000000
# 4 0.000000 0.000000 0.000000 -0.050666 0.000000 -0.020563
# 5 -0.002601 -0.001341 0.003201 0.000000 0.023934 0.000000
# 6 0.000000 0.000000 0.000000 -0.020563 0.000000 0.033919
#
#
# Mechanical properties :
#
#
# Convention : Reuss Voigt Hill
#
# Bulk Modulus (GPa) = 41.51088 53.20562 47.35825
# Shear Modulus (GPa) = 83.04012 30.12842 56.58427
#
# Velocity S-wave (km/s) = 5.96541 3.59323 4.92430
# Velocity P-wave (km/s) = 8.07697 6.32581 7.25442
#
# Compressibility (1/GPa) = 0.02409007
#
# Stress axis : x y z
#
# Youngs Moduli (GPa) = 100.15697 56.35855 146.74152
#
# Poissons Ratio (x) = -0.00735 0.18634
# Poissons Ratio (y) = -0.01306 0.59971
# Poissons Ratio (z) = 0.12718 0.23033
#
# Static dielectric constant tensor:
#      x y z
#    x 2.047480 0.000000 -0.049850 
#    y 0.000000 1.859060 0.000000 
#    z -0.049850 0.000000 1.949070 
# 
# From -- ./inp_files/5141.got.cif
#   From: 2010.05.17/outbox.cif.g08.bks.cpg/sg5_3_cif.got.tgz:5141.got - 2010.06.03 18:56:24.
