data_PCOD9130249
_publ_section_title
;
Structure prediction by ZEFSAII (Michael W. Deem and Ramdas Pophale) SiO2 
 PCOD9130249
Probable space group: C 2
;
_chemical_formula_sum "Si O2"
_cell_formula_units_Z 24
_cell_length_a 9.253411
_cell_length_b 17.951158
_cell_length_c 7.880516
_cell_angle_alpha 90.000000
_cell_angle_beta 57.260738
_cell_angle_gamma 90.000000
_cell_volume 1101.076418
_symmetry_space_group_name_H-M "C 2"
_symmetry_group_IT_number 5
_symmetry_cell_setting 'monoclinic'
loop_
_space_group_symop_operation_xyz
x,y,z
-x,y,-z
1/2+x,1/2+y,z
1/2-x,1/2+y,-z
loop_
_atom_site_type_symbol
_atom_site_label
_atom_site_fract_x
_atom_site_fract_y
_atom_site_fract_z
Si Si1 0.500000 0.296120 0.000000
Si Si2 0.000000 0.326557 0.000000
Si Si3 0.704179 0.694574 0.351693
Si Si4 0.767376 0.916584 0.024736
Si Si5 0.698210 0.280201 0.417301
Si Si6 0.305276 0.522549 0.680911
Si Si7 0.810812 0.427151 0.550835
O O1 0.663055 0.246535 0.837529
O O2 0.412000 0.352104 0.920559
O O3 0.912630 0.376344 0.908718
O O4 0.840774 0.282360 0.179876
O O5 0.500000 0.715101 0.500000
O O6 0.773530 0.704672 0.497309
O O7 0.719977 0.610304 0.279716
O O8 0.218477 0.944895 0.790176
O O9 0.781275 0.978042 0.870378
O O10 0.500000 0.286639 0.500000
O O11 0.744009 0.351227 0.507161
O O12 0.500000 0.509921 0.500000
O O13 0.198937 0.488975 0.590301
O O14 0.000000 0.415278 0.500000
#
# Coordination Sequence:
#
# PCOD9130249 Si02
#       7
#     2   2   4   4   4   4   4
#     4  12  24  41  80 109 134 200 252 296 370 445
#     4  12  24  39  72 111 140 188 244 310 362 433
#     4  11  26  48  70 105 155 195 240 317 378 434
#     4  12  23  42  74 109 140 191 256 296 364 451
#     4  12  24  45  71 110 149 190 254 310 366 445
#     4  11  26  47  70 105 153 198 244 307 378 439
#     4  12  23  42  73 108 146 191 249 306 362 445
#
# _framework density 21.796851
#
# number of rings (size 3 to 8) (size 9 to 14) (size 15 to 20)
#    0.000    0.333    5.000    4.000    0.000    2.667 
#    0.000    5.000    0.000    1.000    0.000    0.000 
#    0.000    0.000    0.000    0.000    0.000    0.000 
#
# Total GULP energy -67001.169920 kJ/mol
# GULP energy per Si atom -5583.430827 kJ/mol
# Density = 2.174724 g / cm^3
# Si number density = 21.796851 Si / 1000 Ang^3
#
#
#
# Elastic Constant Matrix: (Units=GPa)
#
#
# Indices 1 2 3 4 5 6 
#
# 1 161.9315 47.2667 51.3865 0.0000 -20.6983 0.0000
# 2 47.2667 90.3207 62.3698 0.0000 -7.4633 0.0000
# 3 51.3865 62.3698 162.8569 0.0000 -1.6820 0.0000
# 4 0.0000 0.0000 0.0000 23.3756 0.0000 1.7557
# 5 -20.6983 -7.4633 -1.6820 0.0000 49.3285 0.0000
# 6 0.0000 0.0000 0.0000 1.7557 0.0000 29.5150
#
#
#
# Elastic Compliance Matrix: (Units=1/GPa)
#
#
# Indices 1 2 3 4 5 6 
#
# 1 0.007808 -0.002956 -0.001303 0.000000 0.002784 0.000000
# 2 -0.002956 0.016388 -0.005333 0.000000 0.001057 0.000000
# 3 -0.001303 -0.005333 0.008583 0.000000 -0.001061 0.000000
# 4 0.000000 0.000000 0.000000 0.042972 0.000000 -0.002556
# 5 0.002784 0.001057 -0.001061 0.000000 0.021564 0.000000
# 6 0.000000 0.000000 0.000000 -0.002556 0.000000 0.034033
#
#
# Mechanical properties :
#
#
# Convention : Reuss Voigt Hill
#
# Bulk Modulus (GPa) = 73.55265 81.90613 77.72939
# Shear Modulus (GPa) = 32.24497 37.38290 34.81394
#
# Velocity S-wave (km/s) = 3.85039 4.14582 4.00083
# Velocity P-wave (km/s) = 7.32019 7.78304 7.55516
#
# Compressibility (1/GPa) = 0.01359570
#
# Stress axis : x y z
#
# Youngs Moduli (GPa) = 128.07946 61.01843 116.51392
#
# Poissons Ratio (x) = 0.18039 0.15177
# Poissons Ratio (y) = 0.37865 0.62132
# Poissons Ratio (z) = 0.16684 0.32539
#
# Static dielectric constant tensor:
#      x y z
#    x 1.815360 0.000000 -0.002110 
#    y 0.000000 1.780660 0.000000 
#    z -0.002110 0.000000 1.943480 
# 
# From -- ./inp_files/16746.got.cif
#   From: 2010.05.17/outbox.cif.g08.bks.cpg/sg5_9_cif.got.tgz:16746.got - 2010.06.03 18:56:24.
