data_PCOD9130502
_publ_section_title
;
Structure prediction by ZEFSAII (Michael W. Deem and Ramdas Pophale) SiO2 
 PCOD9130502
Probable space group: C 2
;
_chemical_formula_sum "Si O2"
_cell_formula_units_Z 18
_cell_length_a 12.423967
_cell_length_b 7.838159
_cell_length_c 8.885453
_cell_angle_alpha 90.000000
_cell_angle_beta 61.224058
_cell_angle_gamma 90.000000
_cell_volume 758.420836
_symmetry_space_group_name_H-M "C 2"
_symmetry_group_IT_number 5
_symmetry_cell_setting 'monoclinic'
loop_
_space_group_symop_operation_xyz
x,y,z
-x,y,-z
1/2+x,1/2+y,z
1/2-x,1/2+y,-z
loop_
_atom_site_type_symbol
_atom_site_label
_atom_site_fract_x
_atom_site_fract_y
_atom_site_fract_z
Si Si1 0.871345 0.274960 0.365184
Si Si2 0.689516 0.363104 0.061530
Si Si3 0.000000 0.080088 0.000000
Si Si4 0.365258 0.451849 0.577246
Si Si5 0.441397 0.003851 0.870216
O O1 0.731508 0.334353 0.443570
O O2 0.879585 0.133765 0.487638
O O3 0.928319 0.187121 0.176294
O O4 0.952748 0.446372 0.315969
O O5 0.604484 0.462196 0.002281
O O6 0.684905 0.465647 0.221037
O O7 0.628291 0.178644 0.120858
O O8 0.833466 0.362380 0.928495
O O9 0.500000 0.373614 0.500000
O O10 0.500000 0.018254 0.000000
#
# Coordination Sequence:
#
# PCOD9130502 Si02
#       5
#     4   4   2   4   4
#     4  12  27  50  76 110 158 195 260 308 385 451
#     4  12  26  48  82 113 155 197 258 316 385 446
#     4  12  24  52  80 116 146 208 262 314 366 476
#     4  12  28  49  71 113 157 197 246 317 386 451
#     4  12  25  49  83 114 146 206 260 318 372 460
#
# _framework density 23.733526000000001
#
# number of rings (size 3 to 8) (size 9 to 14) (size 15 to 20)
#    0.000    0.000    6.667    2.667    3.111    1.778 
#    4.000    0.000    0.000    0.000    0.000    0.000 
#    0.000    0.000    0.000    0.000    0.000    0.000 
#
# Total GULP energy -50397.151356 kJ/mol
# GULP energy per Si atom -5599.683484 kJ/mol
# Density = 2.367951 g / cm^3
# Si number density = 23.733526 Si / 1000 Ang^3
#
#
#
# Elastic Constant Matrix: (Units=GPa)
#
#
# Indices 1 2 3 4 5 6 
#
# 1 164.6191 65.4191 30.0684 0.0000 -29.2764 0.0000
# 2 65.4191 134.6339 35.5299 0.0000 -5.1693 0.0000
# 3 30.0684 35.5299 47.9501 0.0000 -7.2568 0.0000
# 4 0.0000 0.0000 0.0000 26.0598 0.0000 4.9795
# 5 -29.2764 -5.1693 -7.2568 0.0000 48.5367 0.0000
# 6 0.0000 0.0000 0.0000 4.9795 0.0000 41.6845
#
#
#
# Elastic Compliance Matrix: (Units=1/GPa)
#
#
# Indices 1 2 3 4 5 6 
#
# 1 0.008650 -0.003454 -0.002180 0.000000 0.004524 0.000000
# 2 -0.003454 0.010612 -0.005977 0.000000 -0.001847 0.000000
# 3 -0.002180 -0.005977 0.026966 0.000000 0.002080 0.000000
# 4 0.000000 0.000000 0.000000 0.039270 0.000000 -0.004691
# 5 0.004524 -0.001847 0.002080 0.000000 0.023446 0.000000
# 6 0.000000 0.000000 0.000000 -0.004691 0.000000 0.024550
#
#
# Mechanical properties :
#
#
# Convention : Reuss Voigt Hill
#
# Bulk Modulus (GPa) = 43.46780 67.69309 55.58045
# Shear Modulus (GPa) = 30.41645 37.66858 34.04252
#
# Velocity S-wave (km/s) = 3.58380 3.98822 3.79141
# Velocity P-wave (km/s) = 5.95647 7.05634 6.52961
#
# Compressibility (1/GPa) = 0.02300553
#
# Stress axis : x y z
#
# Youngs Moduli (GPa) = 115.60731 94.23039 37.08401
#
# Poissons Ratio (x) = 0.32547 0.08085
# Poissons Ratio (y) = 0.39931 0.22165
# Poissons Ratio (z) = 0.25205 0.56322
#
# Static dielectric constant tensor:
#      x y z
#    x 1.921020 0.000000 -0.036060 
#    y 0.000000 1.949060 0.000000 
#    z -0.036060 0.000000 1.964480 
# 
# From -- ./inp_files/18213.got.cif
#   From: 2010.05.17/outbox.cif.g08.bks.cpg/sg5_10_cif.got.tgz:18213.got - 2010.06.03 18:56:24.
