data_PCOD9130029
_publ_section_title
;
Structure prediction by ZEFSAII (Michael W. Deem and Ramdas Pophale) SiO2 
 PCOD9130029
Probable space group: C 2
;
_chemical_formula_sum "Si O2"
_cell_formula_units_Z 18
_cell_length_a 7.842316
_cell_length_b 20.692640
_cell_length_c 5.263425
_cell_angle_alpha 90.000000
_cell_angle_beta 66.794036
_cell_angle_gamma 90.000000
_cell_volume 785.034540
_symmetry_space_group_name_H-M "C 2"
_symmetry_group_IT_number 5
_symmetry_cell_setting 'monoclinic'
loop_
_space_group_symop_operation_xyz
x,y,z
-x,y,-z
1/2+x,1/2+y,z
1/2-x,1/2+y,-z
loop_
_atom_site_type_symbol
_atom_site_label
_atom_site_fract_x
_atom_site_fract_y
_atom_site_fract_z
Si Si1 0.000000 0.146120 0.000000
Si Si2 0.220132 0.721457 0.821985
Si Si3 0.122401 0.455890 0.684510
Si Si4 0.799829 0.593393 0.485128
Si Si5 0.883649 0.845945 0.327856
O O1 0.127351 0.095611 0.772504
O O2 0.851920 0.196430 0.966204
O O3 0.232751 0.660578 0.633237
O O4 0.262004 0.791056 0.677491
O O5 0.000000 0.727196 0.000000
O O6 0.195856 0.528877 0.685831
O O7 0.283998 0.406734 0.515239
O O8 0.000000 0.458933 0.500000
O O9 0.000000 0.436003 0.000000
O O10 0.000000 0.597350 0.500000
O O11 0.000000 0.817416 0.500000
O O12 0.000000 0.862882 0.000000
#
# Coordination Sequence:
#
# PCOD9130029 Si02
#       5
#     2   4   4   4   4
#     4  12  26  42  78 112 146 210 252 308 396 454
#     4  11  24  47  73 110 152 197 253 322 374 452
#     4  11  26  48  77 110 151 200 248 316 381 453
#     4  11  24  45  75 109 156 194 256 323 377 451
#     4  11  26  48  77 107 154 200 249 316 379 452
#
# _framework density 22.928930000000001
#
# number of rings (size 3 to 8) (size 9 to 14) (size 15 to 20)
#    0.000    0.889    2.222    3.333    7.778    3.556 
#    4.000    0.000    0.000    0.000    0.000    0.000 
#    0.000    0.000    0.000    0.000    0.000    0.000 
#
# Total GULP energy -50223.183844 kJ/mol
# GULP energy per Si atom -5580.353760 kJ/mol
# Density = 2.287674 g / cm^3
# Si number density = 22.928930 Si / 1000 Ang^3
#
#
#
# Elastic Constant Matrix: (Units=GPa)
#
#
# Indices 1 2 3 4 5 6 
#
# 1 69.8444 -17.5711 38.7861 0.0000 -13.4313 0.0000
# 2 -17.5711 80.6898 54.0453 0.0000 -23.7977 0.0000
# 3 38.7861 54.0453 156.0970 0.0000 -13.5935 0.0000
# 4 0.0000 0.0000 0.0000 34.8252 0.0000 8.4668
# 5 -13.4313 -23.7977 -13.5935 0.0000 33.0183 0.0000
# 6 0.0000 0.0000 0.0000 8.4668 0.0000 1.2192
#
#
#
# Elastic Compliance Matrix: (Units=1/GPa)
#
#
# Indices 1 2 3 4 5 6 
#
# 1 0.033450 0.024513 -0.014598 0.000000 0.025264 0.000000
# 2 0.024513 0.037755 -0.016517 0.000000 0.030383 0.000000
# 3 -0.014598 -0.016517 0.014726 0.000000 -0.011780 0.000000
# 4 0.000000 0.000000 0.000000 -0.041714 0.000000 0.289682
# 5 0.025264 0.030383 -0.011780 0.000000 0.057612 0.000000
# 6 0.000000 0.000000 0.000000 0.289682 0.000000 -1.191500
#
#
# Mechanical properties :
#
#
# Convention : Reuss Voigt Hill
#
# Bulk Modulus (GPa) = 13.75015 50.79465 32.27240
# Shear Modulus (GPa) = -4.75184 29.23726 12.24271
#
# Velocity S-wave (km/s) = -1.44115 3.57476 2.31322
# Velocity P-wave (km/s) = 1.80018 6.26416 4.60871
#
# Compressibility (1/GPa) = 0.07272648
#
# Stress axis : x y z
#
# Youngs Moduli (GPa) = 29.89567 26.48675 67.90550
#
# Poissons Ratio (x) = -0.64927 0.99131
# Poissons Ratio (y) = -0.73283 1.12158
# Poissons Ratio (z) = 0.43643 0.43748
#
# Static dielectric constant tensor:
#      x y z
#    x 1.867280 0.000000 0.096240 
#    y 0.000000 1.955020 0.000000 
#    z 0.096240 0.000000 2.154840 
# 
# From -- ./inp_files/2304.got.cif
#   From: 2010.05.17/outbox.cif.g08.bks.cpg/sg5_2_cif.got.tgz:2304.got - 2010.06.03 18:56:24.
