data_PCOD9130308
_publ_section_title
;
Structure prediction by ZEFSAII (Michael W. Deem and Ramdas Pophale) SiO2 
 PCOD9130308
Probable space group: C 2
;
_chemical_formula_sum "Si O2"
_cell_formula_units_Z 18
_cell_length_a 8.645218
_cell_length_b 19.115464
_cell_length_c 8.341983
_cell_angle_alpha 90.000000
_cell_angle_beta 34.581554
_cell_angle_gamma 90.000000
_cell_volume 782.449274
_symmetry_space_group_name_H-M "C 2"
_symmetry_group_IT_number 5
_symmetry_cell_setting 'monoclinic'
loop_
_space_group_symop_operation_xyz
x,y,z
-x,y,-z
1/2+x,1/2+y,z
1/2-x,1/2+y,-z
loop_
_atom_site_type_symbol
_atom_site_label
_atom_site_fract_x
_atom_site_fract_y
_atom_site_fract_z
Si Si1 0.500000 0.807441 0.000000
Si Si2 0.984362 0.149087 0.333603
Si Si3 0.449555 0.241751 0.794889
Si Si4 0.319385 0.871416 0.491134
Si Si5 0.303765 0.516387 0.304427
O O1 0.758922 0.758390 0.806797
O O2 0.544801 0.847992 0.793874
O O3 0.707529 0.192539 0.552854
O O4 0.000000 0.121162 0.500000
O O5 0.959984 0.083976 0.236401
O O6 0.237900 0.201435 0.091254
O O7 0.575849 0.316865 0.732484
O O8 0.500000 0.869266 0.500000
O O9 0.231664 0.951823 0.544613
O O10 0.000000 0.534764 0.500000
O O11 0.500000 0.486587 0.000000
#
# Coordination Sequence:
#
# PCOD9130308 Si02
#       5
#     2   4   4   4   4
#     4  12  28  46  82 110 152 206 248 324 370 460
#     4  12  28  47  77 113 152 203 249 320 382 454
#     4  12  27  47  74 115 151 197 259 311 379 452
#     4  11  28  51  79 116 155 201 256 318 379 455
#     4  11  28  50  76 109 155 204 248 314 380 455
#
# _framework density 23.004687000000001
#
# number of rings (size 3 to 8) (size 9 to 14) (size 15 to 20)
#    0.000    0.444    2.222    3.333   14.000    1.778 
#    4.000    0.000    0.000    0.000    0.000    0.000 
#    0.000    0.000    0.000    0.000    0.000    0.000 
#
# Total GULP energy -50338.378353 kJ/mol
# GULP energy per Si atom -5593.153150 kJ/mol
# Density = 2.295233 g / cm^3
# Si number density = 23.004687 Si / 1000 Ang^3
#
#
#
# Elastic Constant Matrix: (Units=GPa)
#
#
# Indices 1 2 3 4 5 6 
#
# 1 91.7995 26.4174 33.5104 0.0000 4.9578 0.0000
# 2 26.4174 91.8045 19.8772 0.0000 -10.0899 0.0000
# 3 33.5104 19.8772 138.4277 0.0000 -4.6762 0.0000
# 4 0.0000 0.0000 0.0000 28.0945 0.0000 2.0174
# 5 4.9578 -10.0899 -4.6762 0.0000 48.5653 0.0000
# 6 0.0000 0.0000 0.0000 2.0174 0.0000 15.3077
#
#
#
# Elastic Compliance Matrix: (Units=1/GPa)
#
#
# Indices 1 2 3 4 5 6 
#
# 1 0.012994 -0.003399 -0.002735 0.000000 -0.002296 0.000000
# 2 -0.003399 0.012368 -0.000857 0.000000 0.002834 0.000000
# 3 -0.002735 -0.000857 0.008039 0.000000 0.000875 0.000000
# 4 0.000000 0.000000 0.000000 0.035934 0.000000 -0.004736
# 5 -0.002296 0.002834 0.000875 0.000000 0.021498 0.000000
# 6 0.000000 0.000000 0.000000 -0.004736 0.000000 0.065951
#
#
# Mechanical properties :
#
#
# Convention : Reuss Voigt Hill
#
# Bulk Modulus (GPa) = 51.50011 53.51574 52.50793
# Shear Modulus (GPa) = 28.21039 34.54194 31.37616
#
# Velocity S-wave (km/s) = 3.50564 3.87915 3.69711
# Velocity P-wave (km/s) = 6.23068 6.58613 6.41087
#
# Compressibility (1/GPa) = 0.01941744
#
# Stress axis : x y z
#
# Youngs Moduli (GPa) = 76.95915 80.85401 124.39758
#
# Poissons Ratio (x) = 0.27484 0.34023
# Poissons Ratio (y) = 0.26160 0.10665
# Poissons Ratio (z) = 0.21048 0.06932
#
# Static dielectric constant tensor:
#      x y z
#    x 1.865140 0.000000 0.020640 
#    y 0.000000 1.843840 0.000000 
#    z 0.020640 0.000000 1.948420 
# 
# From -- ./inp_files/16636.got.cif
#   From: 2010.05.17/outbox.cif.g08.bks.cpg/sg5_9_cif.got.tgz:16636.got - 2010.06.03 18:56:24.
