data_PCOD9130787
_publ_section_title
;
Structure prediction by ZEFSAII (Michael W. Deem and Ramdas Pophale) SiO2 
 PCOD9130787
Probable space group: P M
;
_chemical_formula_sum "Si O2"
_cell_formula_units_Z 16
_cell_length_a 9.432652
_cell_length_b 8.802132
_cell_length_c 21.937182
_cell_angle_alpha 90.000000
_cell_angle_beta 29.394151
_cell_angle_gamma 90.000000
_cell_volume 893.964329
_symmetry_space_group_name_H-M "P M"
_symmetry_group_IT_number 6
_symmetry_cell_setting 'monoclinic'
loop_
_space_group_symop_operation_xyz
x,y,z
x,-y,z
loop_
_atom_site_type_symbol
_atom_site_label
_atom_site_fract_x
_atom_site_fract_y
_atom_site_fract_z
Si Si1 0.094910 0.824588 0.571220
Si Si2 0.228909 0.683662 0.837844
Si Si3 0.264790 0.682569 0.318029
Si Si4 0.617658 0.183421 0.299288
Si Si5 0.255381 0.684556 0.071372
Si Si6 0.577154 0.317906 0.828343
Si Si7 0.564550 0.684755 0.080310
Si Si8 0.736655 0.175844 0.577881
O O1 0.411572 0.768387 0.433189
O O2 0.899357 0.737502 0.692797
O O3 0.917300 0.817662 0.573862
O O4 0.114704 0.000000 0.582251
O O5 0.237402 0.500000 0.832121
O O6 0.370440 0.730809 0.849578
O O7 0.432561 0.747962 0.708255
O O8 0.897898 0.734556 0.958083
O O9 0.272426 0.500000 0.319310
O O10 0.471519 0.750912 0.292899
O O11 0.387285 0.731148 0.206598
O O12 0.941398 0.740021 0.453044
O O13 0.938279 0.245400 0.185723
O O14 0.610499 0.000000 0.299288
O O15 0.232588 0.500000 0.078846
O O16 0.410375 0.731191 0.075789
O O17 0.444305 0.732426 0.942093
O O18 0.579006 0.500000 0.827454
O O19 0.570278 0.500000 0.078668
O O20 0.701083 0.000000 0.574770
#
# Coordination Sequence:
#
# PCOD9130787 Si02
#       8
#     2   2   2   2   2   2   2   2
#     4   8  16  30  48  70  98 126 157 200 249 294
#     4   9  16  30  51  74  98 128 165 207 251 298
#     4  10  18  32  55  79 100 130 169 209 251 297
#     4  10  20  34  52  77 104 132 166 207 252 301
#     4  10  20  35  52  73 102 136 170 208 250 297
#     4   9  17  29  50  76  98 123 162 205 247 293
#     4   9  19  34  52  74 102 133 171 213 250 291
#     4   9  17  30  48  75 104 128 160 207 254 299
#
# _framework density 17.897807
#
# number of rings (size 3 to 8) (size 9 to 14) (size 15 to 20)
#    0.000    2.750    0.000    2.625    0.000    6.000 
#    0.000    6.875    0.000    6.000    0.000    0.000 
#    0.000    0.000    0.000    0.000    0.000    0.000 
#
# Total GULP energy -89190.969275 kJ/mol
# GULP energy per Si atom -5574.435580 kJ/mol
# Density = 1.785707 g / cm^3
# Si number density = 17.897807 Si / 1000 Ang^3
#
#
#
# Elastic Constant Matrix: (Units=GPa)
#
#
# Indices 1 2 3 4 5 6 
#
# 1 78.7129 25.7717 86.8968 0.0000 14.4260 0.0000
# 2 25.7717 32.7005 45.6024 0.0000 5.4800 0.0000
# 3 86.8968 45.6024 214.5564 0.0000 22.7364 0.0000
# 4 0.0000 0.0000 0.0000 13.4104 0.0000 -6.8699
# 5 14.4260 5.4800 22.7364 0.0000 -1.3233 0.0000
# 6 0.0000 0.0000 0.0000 -6.8699 0.0000 4.1085
#
#
#
# Elastic Compliance Matrix: (Units=1/GPa)
#
#
# Indices 1 2 3 4 5 6 
#
# 1 0.020877 -0.007411 -0.009836 0.000000 0.027897 0.000000
# 2 -0.007411 0.045883 -0.006496 0.000000 -0.002400 0.000000
# 3 -0.009836 -0.006496 0.008593 0.000000 0.013513 0.000000
# 4 0.000000 0.000000 0.000000 0.519930 0.000000 0.869370
# 5 0.027897 -0.002400 0.013513 0.000000 -0.229326 0.000000
# 6 0.000000 0.000000 0.000000 0.869370 0.000000 1.697063
#
#
# Mechanical properties :
#
#
# Convention : Reuss Voigt Hill
#
# Bulk Modulus (GPa) = 35.88643 71.39019 53.63831
# Shear Modulus (GPa) = 2.35872 14.41904 8.38888
#
# Velocity S-wave (km/s) = 1.14923 2.84144 2.16732
# Velocity P-wave (km/s) = 4.67496 7.12316 6.02472
#
# Compressibility (1/GPa) = 0.02786569
#
# Stress axis : x y z
#
# Youngs Moduli (GPa) = 47.89867 21.79459 116.36886
#
# Poissons Ratio (x) = 0.16153 1.14466
# Poissons Ratio (y) = 0.35500 0.75595
# Poissons Ratio (z) = 0.47116 0.14158
#
# Static dielectric constant tensor:
#      x y z
#    x 1.590440 0.000000 0.005170 
#    y 0.000000 1.603550 0.000000 
#    z 0.005170 0.000000 1.617910 
# 
# From -- ./inp_files/4269.got.cif
#   From: 2010.05.17/outbox.cif.g08.bks.cpg/sg6_3_cif.got.tgz:4269.got - 2010.06.03 19:42:10.
