data_PCOD9130433
_publ_section_title
;
Structure prediction by ZEFSAII (Michael W. Deem and Ramdas Pophale) SiO2 
 PCOD9130433
Probable space group: C 2
;
_chemical_formula_sum "Si O2"
_cell_formula_units_Z 30
_cell_length_a 8.283080
_cell_length_b 5.181275
_cell_length_c 30.511128
_cell_angle_alpha 90.000000
_cell_angle_beta 113.485026
_cell_angle_gamma 90.000000
_cell_volume 1200.974768
_symmetry_space_group_name_H-M "C 2"
_symmetry_group_IT_number 5
_symmetry_cell_setting 'monoclinic'
loop_
_space_group_symop_operation_xyz
x,y,z
-x,y,-z
1/2+x,1/2+y,z
1/2-x,1/2+y,-z
loop_
_atom_site_type_symbol
_atom_site_label
_atom_site_fract_x
_atom_site_fract_y
_atom_site_fract_z
Si Si1 0.772881 0.641420 0.779702
Si Si2 0.012261 0.144931 0.184165
Si Si3 0.026745 0.237591 0.951002
Si Si4 0.872625 0.173016 0.637180
Si Si5 0.000000 0.422422 0.500000
Si Si6 0.765436 0.659375 0.674299
Si Si7 0.188008 0.733800 0.083885
Si Si8 0.317276 0.426640 0.462944
O O1 0.843802 0.367427 0.803972
O O2 0.578215 0.670471 0.777936
O O3 0.780056 0.654587 0.728244
O O4 0.897210 0.868845 0.810988
O O5 0.852832 0.191954 0.133549
O O6 0.951582 0.507180 0.925603
O O7 0.225850 0.213526 0.955423
O O8 0.907999 0.004313 0.920065
O O9 0.000000 0.229179 0.000000
O O10 0.886976 0.440082 0.665994
O O11 0.749525 0.249524 0.583311
O O12 0.064138 0.088745 0.641766
O O13 0.802601 0.941316 0.659228
O O14 0.167529 0.457355 0.482475
O O15 0.112856 0.206981 0.542790
O O16 0.500000 0.282761 0.500000
#
# Coordination Sequence:
#
# PCOD9130433 Si02
#       8
#     4   4   4   4   2   4   4   4
#     4  12  24  44  65  96 127 170 215 268 343 387
#     4  12  25  43  71  95 132 171 219 282 327 392
#     4  12  24  42  66  96 139 180 221 273 329 391
#     4  12  25  45  68  99 132 173 216 267 323 384
#     4   6  14  28  58  80 122 150 206 240 310 350
#     4  12  26  43  68  95 132 169 216 267 324 405
#     4  12  24  43  65  99 130 173 230 271 330 390
#     4   8  16  35  62  89 126 163 210 257 314 374
#
# _framework density 24.979709
#
# number of rings (size 3 to 8) (size 9 to 14) (size 15 to 20)
#    0.800    0.000    0.000    9.200    0.000    0.000 
#    0.000    1.333    0.000    0.000    0.000    0.000 
#    0.000    0.000    0.000    0.000    0.000    0.000 
#
# Total GULP energy -84083.303628 kJ/mol
# GULP energy per Si atom -5605.553575 kJ/mol
# Density = 2.492285 g / cm^3
# Si number density = 24.979709 Si / 1000 Ang^3
#
#
#
# Elastic Constant Matrix: (Units=GPa)
#
#
# Indices 1 2 3 4 5 6 
#
# 1 112.9432 21.4237 -13.5854 0.0000 -14.8226 0.0000
# 2 21.4237 107.0421 10.7880 0.0000 -5.9281 0.0000
# 3 -13.5854 10.7880 79.0791 0.0000 -6.5204 0.0000
# 4 0.0000 0.0000 0.0000 17.6396 0.0000 -15.4663
# 5 -14.8226 -5.9281 -6.5204 0.0000 41.6307 0.0000
# 6 0.0000 0.0000 0.0000 -15.4663 0.0000 14.8812
#
#
#
# Elastic Compliance Matrix: (Units=1/GPa)
#
#
# Indices 1 2 3 4 5 6 
#
# 1 0.009991 -0.002030 0.002292 0.000000 0.003627 0.000000
# 2 -0.002030 0.009940 -0.001669 0.000000 0.000431 0.000000
# 3 0.002292 -0.001669 0.013489 0.000000 0.002691 0.000000
# 4 0.000000 0.000000 0.000000 0.638896 0.000000 0.664016
# 5 0.003627 0.000431 0.002691 0.000000 0.025795 0.000000
# 6 0.000000 0.000000 0.000000 0.664016 0.000000 0.757322
#
#
# Mechanical properties :
#
#
# Convention : Reuss Voigt Hill
#
# Bulk Modulus (GPa) = 32.67218 37.36855 35.02037
# Shear Modulus (GPa) = 3.40495 33.52620 18.46558
#
# Velocity S-wave (km/s) = 1.16878 3.66749 2.72182
# Velocity P-wave (km/s) = 3.86384 5.73812 4.89159
#
# Compressibility (1/GPa) = 0.03060708
#
# Stress axis : x y z
#
# Youngs Moduli (GPa) = 100.09218 100.59881 74.13451
#
# Poissons Ratio (x) = 0.20419 -0.16994
# Poissons Ratio (y) = 0.20316 0.12375
# Poissons Ratio (z) = -0.22945 0.16792
#
# Static dielectric constant tensor:
#      x y z
#    x 1.944890 0.000000 -0.023980 
#    y 0.000000 1.959800 0.000000 
#    z -0.023980 0.000000 2.042490 
# 
# From -- ./inp_files/71504.got.cif
#   From: 2010.05.17/outbox.cif.g08.bks.cpg/sg5_36_cif.got.tgz:71504.got - 2010.06.03 18:56:24.
