data_PCOD9130065
_publ_section_title
;
Structure prediction by ZEFSAII (Michael W. Deem and Ramdas Pophale) SiO2 
 PCOD9130065
Probable space group: C 2
;
_chemical_formula_sum "Si O2"
_cell_formula_units_Z 20
_cell_length_a 25.264355
_cell_length_b 5.024125
_cell_length_c 17.212423
_cell_angle_alpha 90.000000
_cell_angle_beta 158.639296
_cell_angle_gamma 90.000000
_cell_volume 795.785607
_symmetry_space_group_name_H-M "C 2"
_symmetry_group_IT_number 5
_symmetry_cell_setting 'monoclinic'
loop_
_space_group_symop_operation_xyz
x,y,z
-x,y,-z
1/2+x,1/2+y,z
1/2-x,1/2+y,-z
loop_
_atom_site_type_symbol
_atom_site_label
_atom_site_fract_x
_atom_site_fract_y
_atom_site_fract_z
Si Si1 0.701672 0.932390 0.976872
Si Si2 0.840093 0.937528 0.804415
Si Si3 0.927494 0.068913 0.583316
Si Si4 0.647171 0.213843 0.665173
Si Si5 0.223764 0.766005 0.513305
O O1 0.545231 0.798787 0.752488
O O2 0.791006 0.738113 0.039427
O O3 0.771017 0.877578 0.155577
O O4 0.771567 0.034896 0.793194
O O5 0.819600 0.183574 0.717738
O O6 0.726075 0.716537 0.623750
O O7 0.000000 0.841290 0.000000
O O8 0.925651 0.876935 0.655456
O O9 0.920595 0.905453 0.493856
O O10 0.500000 0.076935 0.500000
O O11 0.295010 0.997999 0.560730
#
# Coordination Sequence:
#
# PCOD9130065 Si02
#       5
#     4   4   4   4   4
#     4  12  28  49  80 117 157 209 272 328 404 474
#     4  11  27  48  75 115 158 209 260 326 407 471
#     4  11  26  48  78 116 160 207 271 323 403 480
#     4  11  25  49  77 114 158 208 260 338 391 476
#     4  11  24  47  73 104 152 201 258 321 384 470
#
# _framework density 25.132397999999998
#
# number of rings (size 3 to 8) (size 9 to 14) (size 15 to 20)
#    0.000    0.800    4.000    1.200    8.400    4.000 
#    3.600    0.000    0.000    0.000    0.000    0.000 
#    0.000    0.000    0.000    0.000    0.000    0.000 
#
# Total GULP energy -55917.683495 kJ/mol
# GULP energy per Si atom -5591.768349 kJ/mol
# Density = 2.507520 g / cm^3
# Si number density = 25.132398 Si / 1000 Ang^3
#
#
#
# Elastic Constant Matrix: (Units=GPa)
#
#
# Indices 1 2 3 4 5 6 
#
# 1 147.0673 27.1583 42.2928 -0.0001 12.4652 0.0002
# 2 27.1583 79.1499 -1.1881 0.0019 4.6786 -0.0053
# 3 42.2928 -1.1881 111.4664 0.0001 39.4657 -0.0007
# 4 -0.0001 0.0019 0.0001 31.9125 0.0000 -8.9157
# 5 12.4652 4.6786 39.4657 0.0000 57.2304 0.0000
# 6 0.0002 -0.0053 -0.0007 -8.9157 0.0000 220.4641
#
#
#
# Elastic Compliance Matrix: (Units=1/GPa)
#
#
# Indices 1 2 3 4 5 6 
#
# 1 0.008267 -0.002937 -0.003460 0.000000 0.000826 0.000000
# 2 -0.002937 0.013777 0.001897 -0.000001 -0.001794 0.000000
# 3 -0.003460 0.001897 0.013353 0.000000 -0.008609 0.000000
# 4 0.000000 -0.000001 0.000000 0.031694 0.000000 0.001282
# 5 0.000826 -0.001794 -0.008609 0.000000 0.023377 0.000000
# 6 0.000000 0.000000 0.000000 0.001282 0.000000 0.004588
#
#
# Mechanical properties :
#
#
# Convention : Reuss Voigt Hill
#
# Bulk Modulus (GPa) = 37.88710 52.68996 45.28853
# Shear Modulus (GPa) = 44.30447 79.88277 62.09362
#
# Velocity S-wave (km/s) = 4.20318 5.64392 4.97597
# Velocity P-wave (km/s) = 6.21798 7.96757 7.14652
#
# Compressibility (1/GPa) = 0.02639421
#
# Stress axis : x y z
#
# Youngs Moduli (GPa) = 120.96001 72.58636 74.89136
#
# Poissons Ratio (x) = 0.21322 0.25916
# Poissons Ratio (y) = 0.35531 -0.14205
# Poissons Ratio (z) = 0.41857 -0.13767
#
# Static dielectric constant tensor:
#      x y z
#    x 1.891970 0.000000 -0.227210 
#    y 0.000000 2.007890 0.000000 
#    z -0.227210 0.000000 1.620790 
# 
# From -- ./inp_files/63549.got.cif
#   From: 2010.05.17/outbox.cif.g08.bks.cpg/sg5_32_cif.got.tgz:63549.got - 2010.06.03 18:56:24.
