data_PCOD9130741
_publ_section_title
;
Structure prediction by ZEFSAII (Michael W. Deem and Ramdas Pophale) SiO2 
 PCOD9130741
Probable space group: C 2
;
_chemical_formula_sum "Si O2"
_cell_formula_units_Z 16
_cell_length_a 24.000000
_cell_length_b 9.000000
_cell_length_c 15.000000
_cell_angle_alpha 90.000000
_cell_angle_beta 150.000000
_cell_angle_gamma 90.000000
_cell_volume 1620.000000
_symmetry_space_group_name_H-M "C 2"
_symmetry_group_IT_number 5
_symmetry_cell_setting 'monoclinic'
loop_
_space_group_symop_operation_xyz
x,y,z
-x,y,-z
1/2+x,1/2+y,z
1/2-x,1/2+y,-z
loop_
_atom_site_type_symbol
_atom_site_label
_atom_site_fract_x
_atom_site_fract_y
_atom_site_fract_z
Si Si1 0.501320 0.355100 0.761014
Si Si2 0.625786 0.690803 0.136734
Si Si3 0.147198 0.153822 0.961130
Si Si4 0.579605 0.161486 0.696565
Si Si5 0.755317 0.425023 0.569093
Si Si6 0.081934 0.684314 0.179035
Si Si7 0.744663 0.892579 0.642236
Si Si8 0.504028 0.824118 0.398871
O O1 0.594158 0.486339 0.898285
O O2 0.539577 0.260424 0.726634
O O3 0.375111 0.425044 0.581964
O O4 0.479779 0.251077 0.819198
O O5 0.677687 0.818843 0.270930
O O6 0.715531 0.556315 0.273014
O O7 0.500000 0.656119 0.000000
O O8 0.623714 0.724166 0.027240
O O9 0.073906 0.228577 0.778386
O O10 0.283493 0.165270 0.131276
O O11 0.500000 0.202489 0.500000
O O12 0.546931 0.990540 0.671605
O O13 0.813999 0.583579 0.651561
O O14 0.771792 0.383225 0.487822
O O15 0.138538 0.803289 0.190456
O O16 0.000000 0.595819 0.000000
O O17 0.633111 0.837723 0.540175
O O18 0.500000 0.776280 0.500000
#
# Coordination Sequence:
#
# PCOD9130741 Si02
#       8
#     4   4   4   4   4   4   4   4
#     4  11  24  44  66  93 131 173 218 271 331 396
#     4  12  23  39  64  95 130 172 220 276 334 397
#     4  12  25  43  66  98 131 176 229 280 336 405
#     4  11  24  44  68  95 130 175 224 279 338 399
#     4  11  22  39  63  94 128 167 210 268 329 395
#     4  11  23  38  61  93 126 161 206 262 322 383
#     4  11  21  40  63  89 125 170 216 265 328 395
#     4  11  24  43  65  93 130 178 227 281 339 400
#
# _framework density 9.8765429999999999
#
# number of rings (size 3 to 8) (size 9 to 14) (size 15 to 20)
#    0.000    0.750    0.000   10.500    0.000    2.500 
#    0.000    3.750    0.000    0.000    0.000    0.000 
#    0.000    0.000    0.000    0.000    0.000    0.000 
#
# Total GULP energy -89221.533190 kJ/mol
# GULP energy per Si atom -5576.345824 kJ/mol
# Density = 0.985406 g / cm^3
# Si number density = 9.876543 Si / 1000 Ang^3
#
#
#
# Elastic Constant Matrix: (Units=GPa)
#
#
# Indices 1 2 3 4 5 6 
#
# 1 195.9376 34.6707 78.7546 0.0000 13.5217 0.0000
# 2 34.6707 62.8001 32.9566 0.0000 -11.1903 0.0000
# 3 78.7546 32.9566 131.9347 0.0000 2.5624 0.0000
# 4 0.0000 0.0000 0.0000 49.4925 0.0000 2.1770
# 5 13.5217 -11.1903 2.5624 0.0000 54.7947 0.0000
# 6 0.0000 0.0000 0.0000 2.1770 0.0000 40.1427
#
#
#
# Elastic Compliance Matrix: (Units=1/GPa)
#
#
# Indices 1 2 3 4 5 6 
#
# 1 0.007125 -0.002410 -0.003611 0.000000 -0.002081 0.000000
# 2 -0.002410 0.020042 -0.003662 0.000000 0.004859 0.000000
# 3 -0.003611 -0.003662 0.010657 0.000000 -0.000355 0.000000
# 4 0.000000 0.000000 0.000000 0.020253 0.000000 -0.001098
# 5 -0.002081 0.004859 -0.000355 0.000000 0.019772 0.000000
# 6 0.000000 0.000000 0.000000 -0.001098 0.000000 0.024971
#
#
# Mechanical properties :
#
#
# Convention : Reuss Voigt Hill
#
# Bulk Modulus (GPa) = 54.17755 75.93734 65.05744
# Shear Modulus (GPa) = 38.95982 45.17204 42.06593
#
# Velocity S-wave (km/s) = 4.44592 4.78727 4.61975
# Velocity P-wave (km/s) = 7.33770 8.31168 7.83983
#
# Compressibility (1/GPa) = 0.01845783
#
# Stress axis : x y z
#
# Youngs Moduli (GPa) = 140.35177 49.89641 93.83912
#
# Poissons Ratio (x) = 0.12023 0.33883
# Poissons Ratio (y) = 0.33819 0.34367
# Poissons Ratio (z) = 0.50677 0.18274
#
# Static dielectric constant tensor:
#      x y z
#    x 1.673070 0.000000 -0.020200 
#    y 0.000000 1.777080 0.000000 
#    z -0.020200 0.000000 1.765370 
# 
# From -- ./inp_files/57717.got.cif
#   From: 2010.05.17/outbox.ucp.g08.bks.cvg/sg5_29_cif.got.tgz:57717.got - 2010.06.11 12:53:14.
