data_PCOD9130439
_publ_section_title
;
Structure prediction by ZEFSAII (Michael W. Deem and Ramdas Pophale) SiO2 
 PCOD9130439
Probable space group: C 2
;
_chemical_formula_sum "Si O2"
_cell_formula_units_Z 30
_cell_length_a 27.067832
_cell_length_b 8.786463
_cell_length_c 8.212883
_cell_angle_alpha 90.000000
_cell_angle_beta 138.531009
_cell_angle_gamma 90.000000
_cell_volume 1293.486649
_symmetry_space_group_name_H-M "C 2"
_symmetry_group_IT_number 5
_symmetry_cell_setting 'monoclinic'
loop_
_space_group_symop_operation_xyz
x,y,z
-x,y,-z
1/2+x,1/2+y,z
1/2-x,1/2+y,-z
loop_
_atom_site_type_symbol
_atom_site_label
_atom_site_fract_x
_atom_site_fract_y
_atom_site_fract_z
Si Si1 0.000000 0.506551 0.000000
Si Si2 0.707984 0.816784 0.224265
Si Si3 0.957363 0.732101 0.621251
Si Si4 0.346556 0.072868 0.091794
Si Si5 0.759854 0.016474 0.889105
Si Si6 0.389643 0.361767 0.043677
Si Si7 0.863833 0.962795 0.613235
Si Si8 0.143607 0.301282 0.420004
O O1 0.001417 0.615529 0.847116
O O2 0.927958 0.404383 0.791834
O O3 0.738821 0.665637 0.218155
O O4 0.775892 0.934073 0.396643
O O5 0.682831 0.782720 0.342755
O O6 0.645487 0.904459 0.963346
O O7 0.909681 0.635406 0.372820
O O8 0.904016 0.835097 0.602763
O O9 0.023220 0.836769 0.715454
O O10 0.271306 0.067286 0.013909
O O11 0.349456 0.196207 0.954214
O O12 0.842882 0.949860 0.068023
O O13 0.700340 0.892099 0.676985
O O14 0.384438 0.439191 0.854209
O O15 0.880030 0.131623 0.588149
#
# Coordination Sequence:
#
# PCOD9130439 Si02
#       8
#     2   4   4   4   4   4   4   4
#     4  12  24  42  76 100 148 200 258 320 382 468
#     4  12  24  44  74 106 148 197 253 319 386 464
#     4  12  26  50  75 112 153 208 258 312 401 466
#     4  12  27  46  72 109 153 201 251 315 388 460
#     4  12  25  47  72 114 148 196 258 318 390 452
#     4  12  25  46  78 106 155 198 255 316 382 467
#     4  12  25  45  78 110 147 198 265 321 389 458
#     4  12  25  43  73 110 148 193 261 331 385 462
#
# _framework density 23.193124999999998
#
# number of rings (size 3 to 8) (size 9 to 14) (size 15 to 20)
#    0.000    0.000    6.667    2.800    3.733    0.000 
#    0.000    0.000    2.933    0.000    0.000    0.000 
#    0.000    0.000    0.000    0.000    0.000    0.000 
#
# Total GULP energy -83927.736488 kJ/mol
# GULP energy per Si atom -5595.182433 kJ/mol
# Density = 2.314034 g / cm^3
# Si number density = 23.193125 Si / 1000 Ang^3
#
#
#
# Elastic Constant Matrix: (Units=GPa)
#
#
# Indices 1 2 3 4 5 6 
#
# 1 69.2439 8.6233 18.4148 0.0000 12.6496 0.0000
# 2 8.6233 114.4521 29.3363 0.0000 -0.9653 0.0000
# 3 18.4148 29.3363 99.3252 0.0000 5.8976 0.0000
# 4 0.0000 0.0000 0.0000 36.7374 0.0000 3.7701
# 5 12.6496 -0.9653 5.8976 0.0000 28.6095 0.0000
# 6 0.0000 0.0000 0.0000 3.7701 0.0000 46.0620
#
#
#
# Elastic Compliance Matrix: (Units=1/GPa)
#
#
# Indices 1 2 3 4 5 6 
#
# 1 0.016412 -0.000667 -0.002443 0.000000 -0.006776 0.000000
# 2 -0.000667 0.009503 -0.002753 0.000000 0.001183 0.000000
# 3 -0.002443 -0.002753 0.011415 0.000000 -0.001366 0.000000
# 4 0.000000 0.000000 0.000000 0.027451 0.000000 -0.002247
# 5 -0.006776 0.001183 -0.001366 0.000000 0.038271 0.000000
# 6 0.000000 0.000000 0.000000 -0.002247 0.000000 0.021894
#
#
# Mechanical properties :
#
#
# Convention : Reuss Voigt Hill
#
# Bulk Modulus (GPa) = 39.05865 43.97445 41.51655
# Shear Modulus (GPa) = 34.43319 37.39158 35.91239
#
# Velocity S-wave (km/s) = 3.85727 4.01956 3.93925
# Velocity P-wave (km/s) = 6.05931 6.36740 6.21526
#
# Compressibility (1/GPa) = 0.02560253
#
# Stress axis : x y z
#
# Youngs Moduli (GPa) = 60.92951 105.22678 87.60209
#
# Poissons Ratio (x) = 0.07023 0.21405
# Poissons Ratio (y) = 0.04067 0.24120
# Poissons Ratio (z) = 0.14888 0.28973
#
# Static dielectric constant tensor:
#      x y z
#    x 1.879250 0.000000 -0.026580 
#    y 0.000000 1.920560 0.000000 
#    z -0.026580 0.000000 1.909340 
# 
# From -- ./inp_files/31807.got.cif
#   From: 2010.05.17/outbox.cif.g08.bks.cpg/sg5_16_cif.got.tgz:31807.got - 2010.06.03 18:56:24.
