data_PCOD9130569
_publ_section_title
;
Structure prediction by ZEFSAII (Michael W. Deem and Ramdas Pophale) SiO2 
 PCOD9130569
Probable space group: C 2
;
_chemical_formula_sum "Si O2"
_cell_formula_units_Z 20
_cell_length_a 13.456991
_cell_length_b 4.695333
_cell_length_c 12.804822
_cell_angle_alpha 90.000000
_cell_angle_beta 64.166585
_cell_angle_gamma 90.000000
_cell_volume 728.218452
_symmetry_space_group_name_H-M "C 2"
_symmetry_group_IT_number 5
_symmetry_cell_setting 'monoclinic'
loop_
_space_group_symop_operation_xyz
x,y,z
-x,y,-z
1/2+x,1/2+y,z
1/2-x,1/2+y,-z
loop_
_atom_site_type_symbol
_atom_site_label
_atom_site_fract_x
_atom_site_fract_y
_atom_site_fract_z
Si Si1 0.000000 0.630440 0.000000
Si Si2 0.000000 0.440540 0.500000
Si Si3 0.919814 0.911649 0.839578
Si Si4 0.133033 0.263799 0.772077
Si Si5 0.838519 0.385096 0.750596
Si Si6 0.817394 0.676081 0.437844
O O1 0.075453 0.431177 0.893740
O O2 0.925847 0.826143 0.957831
O O3 0.087639 0.285854 0.383088
O O4 0.075977 0.628620 0.540377
O O5 0.827890 0.124416 0.836019
O O6 0.035507 0.071733 0.767401
O O7 0.730094 0.555217 0.765482
O O8 0.172216 0.513315 0.676265
O O9 0.907451 0.621944 0.782228
O O10 0.720291 0.499676 0.541218
#
# Coordination Sequence:
#
# PCOD9130569 Si02
#       6
#     2   2   4   4   4   4
#     4  12  28  58  86 114 172 218 278 354 398 480
#     4  12  26  48  82 124 162 214 260 330 406 494
#     4  12  28  55  77 119 159 216 273 339 398 490
#     4  12  29  55  83 120 166 215 274 338 410 481
#     4  12  30  48  86 119 168 210 273 330 417 489
#     4  12  29  47  83 120 164 211 261 331 409 483
#
# _framework density 27.464286000000001
#
# number of rings (size 3 to 8) (size 9 to 14) (size 15 to 20)
#    0.000    0.000    6.000    0.600   11.200    1.600 
#    7.200    0.000    0.000    0.000    0.000    0.000 
#    0.000    0.000    0.000    0.000    0.000    0.000 
#
# Total GULP energy -56176.556621 kJ/mol
# GULP energy per Si atom -5617.655662 kJ/mol
# Density = 2.740178 g / cm^3
# Si number density = 27.464286 Si / 1000 Ang^3
#
#
#
# Elastic Constant Matrix: (Units=GPa)
#
#
# Indices 1 2 3 4 5 6 
#
# 1 155.8880 35.6866 51.8539 0.0010 14.7068 0.0023
# 2 35.6866 149.8809 49.8828 0.0038 17.8912 0.0081
# 3 51.8539 49.8828 159.6594 -0.0006 18.2746 0.0006
# 4 0.0010 0.0038 -0.0006 45.2008 -0.0002 12.5829
# 5 14.7068 17.8912 18.2746 -0.0002 44.6523 0.0004
# 6 0.0023 0.0081 0.0006 12.5829 0.0004 48.8946
#
#
#
# Elastic Compliance Matrix: (Units=1/GPa)
#
#
# Indices 1 2 3 4 5 6 
#
# 1 0.007405 -0.000961 -0.001962 0.000000 -0.001251 0.000000
# 2 -0.000961 0.007769 -0.001883 0.000000 -0.002026 -0.000001
# 3 -0.001962 -0.001883 0.007689 0.000000 -0.001746 0.000000
# 4 0.000000 0.000000 0.000000 0.023831 0.000000 -0.006133
# 5 -0.001251 -0.002026 -0.001746 0.000000 0.024334 0.000000
# 6 0.000000 -0.000001 0.000000 -0.006133 0.000000 0.022030
#
#
# Mechanical properties :
#
#
# Convention : Reuss Voigt Hill
#
# Bulk Modulus (GPa) = 75.46399 82.25275 78.85837
# Shear Modulus (GPa) = 46.69073 49.61654 48.15363
#
# Velocity S-wave (km/s) = 4.12764 4.25500 4.19181
# Velocity P-wave (km/s) = 7.08896 7.35895 7.22521
#
# Compressibility (1/GPa) = 0.01325135
#
# Stress axis : x y z
#
# Youngs Moduli (GPa) = 135.03632 128.70966 130.06047
#
# Poissons Ratio (x) = 0.12369 0.25513
# Poissons Ratio (y) = 0.12977 0.24496
# Poissons Ratio (z) = 0.26490 0.24242
#
# Static dielectric constant tensor:
#      x y z
#    x 2.122150 0.000000 0.005130 
#    y 0.000000 2.077780 0.000000 
#    z 0.005130 0.000000 2.173060 
# 
# From -- ./inp_files/55120.got.cif
#   From: 2010.05.17/outbox.cif.g08.bks.cpg/sg5_28_cif.got.tgz:55120.got - 2010.06.03 18:56:24.
