data_PCOD9130171
_publ_section_title
;
Structure prediction by ZEFSAII (Michael W. Deem and Ramdas Pophale) SiO2 
 PCOD9130171
Probable space group: C 2
;
_chemical_formula_sum "Si O2"
_cell_formula_units_Z 22
_cell_length_a 17.096613
_cell_length_b 8.964607
_cell_length_c 5.419323
_cell_angle_alpha 90.000000
_cell_angle_beta 69.791727
_cell_angle_gamma 90.000000
_cell_volume 779.460916
_symmetry_space_group_name_H-M "C 2"
_symmetry_group_IT_number 5
_symmetry_cell_setting 'monoclinic'
loop_
_space_group_symop_operation_xyz
x,y,z
-x,y,-z
1/2+x,1/2+y,z
1/2-x,1/2+y,-z
loop_
_atom_site_type_symbol
_atom_site_label
_atom_site_fract_x
_atom_site_fract_y
_atom_site_fract_z
Si Si1 0.620622 0.217440 0.969727
Si Si2 0.603926 0.495054 0.670962
Si Si3 0.021107 0.270680 0.224437
Si Si4 0.500000 0.260684 0.500000
Si Si5 0.203766 0.303199 0.057328
Si Si6 0.292902 0.995506 0.444619
O O1 0.544960 0.173323 0.228734
O O2 0.602770 0.388173 0.911549
O O3 0.710516 0.214444 0.007048
O O4 0.640675 0.121354 0.702429
O O5 0.540940 0.631072 0.726767
O O6 0.572942 0.375297 0.504586
O O7 0.500000 0.859333 0.000000
O O8 0.116237 0.217745 0.139113
O O9 0.197826 0.054192 0.546620
O O10 0.000000 0.351838 0.500000
O O11 0.196176 0.409257 0.308734
O O12 0.205408 0.387699 0.795096
#
# Coordination Sequence:
#
# PCOD9130171 Si02
#       6
#     4   4   4   2   4   4
#     4  11  26  45  78 116 161 212 264 328 406 470
#     4  11  25  46  75 119 148 206 271 326 385 470
#     4  12  25  45  78 113 151 195 258 332 377 461
#     4  12  22  46  72 112 154 202 272 316 394 478
#     4  11  26  49  75 118 153 210 263 323 398 472
#     4  11  26  49  77 110 163 204 262 328 399 469
#
# _framework density 28.224633999999998
#
# number of rings (size 3 to 8) (size 9 to 14) (size 15 to 20)
#    0.000    0.727    2.727    3.818    2.545    4.364 
#    1.636    1.818    0.000    0.000    0.000    0.000 
#    0.000    0.000    0.000    0.000    0.000    0.000 
#
# Total GULP energy -61715.894041 kJ/mol
# GULP energy per Si atom -5610.535822 kJ/mol
# Density = 2.816039 g / cm^3
# Si number density = 28.224634 Si / 1000 Ang^3
#
#
#
# Elastic Constant Matrix: (Units=GPa)
#
#
# Indices 1 2 3 4 5 6 
#
# 1 204.1717 54.5236 61.8110 0.0000 -30.2012 0.0000
# 2 54.5236 114.3935 69.1689 0.0000 -10.4166 0.0000
# 3 61.8110 69.1689 232.7561 0.0000 -7.8368 0.0000
# 4 0.0000 0.0000 0.0000 40.9127 0.0000 -3.5208
# 5 -30.2012 -10.4166 -7.8368 0.0000 70.5902 0.0000
# 6 0.0000 0.0000 0.0000 -3.5208 0.0000 52.0772
#
#
#
# Elastic Compliance Matrix: (Units=1/GPa)
#
#
# Indices 1 2 3 4 5 6 
#
# 1 0.006066 -0.002149 -0.000899 0.000000 0.002178 0.000000
# 2 -0.002149 0.011525 -0.002838 0.000000 0.000466 0.000000
# 3 -0.000899 -0.002838 0.005372 0.000000 -0.000207 0.000000
# 4 0.000000 0.000000 0.000000 0.024585 0.000000 0.001662
# 5 0.002178 0.000466 -0.000207 0.000000 0.015144 0.000000
# 6 0.000000 0.000000 0.000000 0.001662 0.000000 0.019315
#
#
# Mechanical properties :
#
#
# Convention : Reuss Voigt Hill
#
# Bulk Modulus (GPa) = 89.37136 102.48092 95.92614
# Shear Modulus (GPa) = 51.27683 57.10388 54.19035
#
# Velocity S-wave (km/s) = 4.26695 4.50287 4.38650
# Velocity P-wave (km/s) = 7.48391 7.96381 7.72759
#
# Compressibility (1/GPa) = 0.01118927
#
# Stress axis : x y z
#
# Youngs Moduli (GPa) = 164.84802 86.76814 186.16558
#
# Poissons Ratio (x) = 0.18651 0.16733
# Poissons Ratio (y) = 0.35434 0.52841
# Poissons Ratio (z) = 0.14817 0.24628
#
# Static dielectric constant tensor:
#      x y z
#    x 2.187540 0.000000 0.048630 
#    y 0.000000 2.143270 0.000000 
#    z 0.048630 0.000000 2.349880 
# 
# From -- ./inp_files/8217.got.cif
#   From: 2010.05.17/outbox.cif.g08.bks.cpg/sg5_5_cif.got.tgz:8217.got - 2010.06.03 18:56:24.
