data_PCOD9130261
_publ_section_title
;
Structure prediction by ZEFSAII (Michael W. Deem and Ramdas Pophale) SiO2 
 PCOD9130261
Probable space group: C 2
;
_chemical_formula_sum "Si O2"
_cell_formula_units_Z 14
_cell_length_a 5.257941
_cell_length_b 21.259502
_cell_length_c 5.074727
_cell_angle_alpha 90.000000
_cell_angle_beta 93.563695
_cell_angle_gamma 90.000000
_cell_volume 566.162210
_symmetry_space_group_name_H-M "C 2"
_symmetry_group_IT_number 5
_symmetry_cell_setting 'monoclinic'
loop_
_space_group_symop_operation_xyz
x,y,z
-x,y,-z
1/2+x,1/2+y,z
1/2-x,1/2+y,-z
loop_
_atom_site_type_symbol
_atom_site_label
_atom_site_fract_x
_atom_site_fract_y
_atom_site_fract_z
Si Si1 0.266617 0.575230 0.166202
Si Si2 0.500000 0.806247 0.000000
Si Si3 0.500000 0.887302 0.500000
Si Si4 0.340475 0.205132 0.728361
Si Si5 0.500000 0.462321 0.500000
O O1 0.241867 0.634925 0.360902
O O2 0.358568 0.510207 0.294034
O O3 0.500000 0.597053 0.000000
O O4 0.000000 0.563956 0.000000
O O5 0.401697 0.851091 0.757983
O O6 0.652702 0.757436 0.824321
O O7 0.760099 0.923731 0.601736
O O8 0.500000 0.232736 0.500000
O O9 0.500000 0.191586 0.000000
#
# Coordination Sequence:
#
# PCOD9130261 Si02
#       5
#     4   2   2   4   2
#     4  11  26  48  81 120 161 202 264 340 413 476
#     4  12  28  54  76 118 156 220 268 334 388 490
#     4  12  32  49  84 109 168 220 274 316 398 478
#     4  11  26  47  81 119 158 204 262 340 412 473
#     4  12  30  51  78 117 158 220 266 334 390 490
#
# _framework density 24.727895
#
# number of rings (size 3 to 8) (size 9 to 14) (size 15 to 20)
#    0.000    0.571    1.429    3.429   22.000    1.143 
#    0.000    0.000    0.000    0.000    0.000    0.000 
#    0.000    0.000    0.000    0.000    0.000    0.000 
#
# Total GULP energy -39057.311442 kJ/mol
# GULP energy per Si atom -5579.615920 kJ/mol
# Density = 2.467161 g / cm^3
# Si number density = 24.727895 Si / 1000 Ang^3
#
#
#
# Elastic Constant Matrix: (Units=GPa)
#
#
# Indices 1 2 3 4 5 6 
#
# 1 175.4878 56.0158 51.5800 0.0000 -1.5993 0.0000
# 2 56.0158 110.7882 38.8781 0.0000 -1.7754 0.0000
# 3 51.5800 38.8781 138.2871 0.0000 -29.2728 0.0000
# 4 0.0000 0.0000 0.0000 34.3003 0.0000 -7.1125
# 5 -1.5993 -1.7754 -29.2728 0.0000 67.5689 0.0000
# 6 0.0000 0.0000 0.0000 -7.1125 0.0000 17.7447
#
#
#
# Elastic Compliance Matrix: (Units=1/GPa)
#
#
# Indices 1 2 3 4 5 6 
#
# 1 0.007232 -0.002956 -0.002033 0.000000 -0.000787 0.000000
# 2 -0.002956 0.011291 -0.002228 0.000000 -0.000739 0.000000
# 3 -0.002033 -0.002228 0.009461 0.000000 0.003992 0.000000
# 4 0.000000 0.000000 0.000000 0.031797 0.000000 0.012745
# 5 -0.000787 -0.000739 0.003992 0.000000 0.016491 0.000000
# 6 0.000000 0.000000 0.000000 0.012745 0.000000 0.061463
#
#
# Mechanical properties :
#
#
# Convention : Reuss Voigt Hill
#
# Bulk Modulus (GPa) = 73.80149 79.72343 76.76246
# Shear Modulus (GPa) = 31.91076 42.46208 37.18642
#
# Velocity S-wave (km/s) = 3.59622 4.14837 3.88212
# Velocity P-wave (km/s) = 6.86687 7.43341 7.15575
#
# Compressibility (1/GPa) = 0.01354986
#
# Stress axis : x y z
#
# Youngs Moduli (GPa) = 138.26740 88.56754 105.69455
#
# Poissons Ratio (x) = 0.26179 0.21491
# Poissons Ratio (y) = 0.40870 0.23550
# Poissons Ratio (z) = 0.28114 0.19734
#
# Static dielectric constant tensor:
#      x y z
#    x 2.124970 0.000000 0.033700 
#    y 0.000000 2.093530 0.000000 
#    z 0.033700 0.000000 1.927660 
# 
# From -- ./inp_files/416.got.cif
#   From: 2010.05.17/outbox.cif.g08.bks.cpg/sg5_1_cif.got.tgz:416.got - 2010.06.03 18:56:24.
