data_PCOD9130269
_publ_section_title
;
Structure prediction by ZEFSAII (Michael W. Deem and Ramdas Pophale) SiO2 
 PCOD9130269
Probable space group: C 2
;
_chemical_formula_sum "Si O2"
_cell_formula_units_Z 20
_cell_length_a 20.682319
_cell_length_b 8.695262
_cell_length_c 5.366501
_cell_angle_alpha 90.000000
_cell_angle_beta 59.069629
_cell_angle_gamma 90.000000
_cell_volume 827.857142
_symmetry_space_group_name_H-M "C 2"
_symmetry_group_IT_number 5
_symmetry_cell_setting 'monoclinic'
loop_
_space_group_symop_operation_xyz
x,y,z
-x,y,-z
1/2+x,1/2+y,z
1/2-x,1/2+y,-z
loop_
_atom_site_type_symbol
_atom_site_label
_atom_site_fract_x
_atom_site_fract_y
_atom_site_fract_z
Si Si1 0.388111 0.683130 0.632239
Si Si2 0.258851 0.311630 0.200594
Si Si3 0.413532 0.324916 0.610998
Si Si4 0.577993 0.866609 0.942951
Si Si5 0.679553 0.105343 0.545662
O O1 0.298681 0.711556 0.848618
O O2 0.411121 0.506578 0.553443
O O3 0.403487 0.761866 0.334924
O O4 0.425754 0.767688 0.796323
O O5 0.262070 0.225189 0.457539
O O6 0.221715 0.477914 0.298617
O O7 0.345606 0.316767 0.946800
O O8 0.500000 0.286373 0.500000
O O9 0.383400 0.205225 0.467058
O O10 0.639550 0.001067 0.837450
O O11 0.500000 0.938841 0.000000
#
# Coordination Sequence:
#
# PCOD9130269 Si02
#       5
#     4   4   4   4   4
#     4  11  27  49  78 110 150 212 253 317 382 472
#     4  11  27  47  76 105 153 199 267 305 394 455
#     4  12  28  46  76 112 156 196 258 324 392 452
#     4  11  26  48  78 110 158 198 260 314 394 457
#     4  11  28  45  75 111 148 207 254 324 378 467
#
# _framework density 24.158757999999999
#
# number of rings (size 3 to 8) (size 9 to 14) (size 15 to 20)
#    0.000    0.800    0.000    4.200   25.200    0.000 
#    0.000    0.000    0.000    0.000    0.000    0.000 
#    0.000    0.000    0.000    0.000    0.000    0.000 
#
# Total GULP energy -55888.775132 kJ/mol
# GULP energy per Si atom -5588.877513 kJ/mol
# Density = 2.410377 g / cm^3
# Si number density = 24.158758 Si / 1000 Ang^3
#
#
#
# Elastic Constant Matrix: (Units=GPa)
#
#
# Indices 1 2 3 4 5 6 
#
# 1 176.2641 52.6602 30.1067 0.0000 -7.8959 0.0000
# 2 52.6602 135.4671 23.8831 0.0000 18.8272 0.0000
# 3 30.1067 23.8831 77.6602 0.0000 7.3999 0.0000
# 4 0.0000 0.0000 0.0000 31.6107 0.0000 12.5324
# 5 -7.8959 18.8272 7.3999 0.0000 39.5259 0.0000
# 6 0.0000 0.0000 0.0000 12.5324 0.0000 33.6241
#
#
#
# Elastic Compliance Matrix: (Units=1/GPa)
#
#
# Indices 1 2 3 4 5 6 
#
# 1 0.007013 -0.002780 -0.002162 0.000000 0.003130 0.000000
# 2 -0.002780 0.009362 -0.001348 0.000000 -0.004762 0.000000
# 3 -0.002162 -0.001348 0.014366 0.000000 -0.002480 0.000000
# 4 0.000000 0.000000 0.000000 0.037120 0.000000 -0.013835
# 5 0.003130 -0.004762 -0.002480 0.000000 0.028658 0.000000
# 6 0.000000 0.000000 0.000000 -0.013835 0.000000 0.034897
#
#
# Mechanical properties :
#
#
# Convention : Reuss Voigt Hill
#
# Bulk Modulus (GPa) = 55.06239 66.96571 61.01405
# Shear Modulus (GPa) = 33.32229 39.80156 36.56192
#
# Velocity S-wave (km/s) = 3.71793 4.06334 3.89447
# Velocity P-wave (km/s) = 6.42433 7.05645 6.74780
#
# Compressibility (1/GPa) = 0.01816122
#
# Stress axis : x y z
#
# Youngs Moduli (GPa) = 142.58374 106.81402 69.61120
#
# Poissons Ratio (x) = 0.29696 0.15051
# Poissons Ratio (y) = 0.39641 0.09381
# Poissons Ratio (z) = 0.30829 0.14394
#
# Static dielectric constant tensor:
#      x y z
#    x 1.965870 0.000000 -0.064490 
#    y 0.000000 1.866780 0.000000 
#    z -0.064490 0.000000 2.035060 
# 
# From -- ./inp_files/9202.got.cif
#   From: 2010.05.17/outbox.cif.g08.bks.cpg/sg5_5_cif.got.tgz:9202.got - 2010.06.03 18:56:24.
