data_PCOD9130492
_publ_section_title
;
Structure prediction by ZEFSAII (Michael W. Deem and Ramdas Pophale) SiO2 
 PCOD9130492
Probable space group: C 2
;
_chemical_formula_sum "Si O2"
_cell_formula_units_Z 24
_cell_length_a 12.326369
_cell_length_b 9.656540
_cell_length_c 18.203876
_cell_angle_alpha 90.000000
_cell_angle_beta 27.317126
_cell_angle_gamma 90.000000
_cell_volume 994.381346
_symmetry_space_group_name_H-M "C 2"
_symmetry_group_IT_number 5
_symmetry_cell_setting 'monoclinic'
loop_
_space_group_symop_operation_xyz
x,y,z
-x,y,-z
1/2+x,1/2+y,z
1/2-x,1/2+y,-z
loop_
_atom_site_type_symbol
_atom_site_label
_atom_site_fract_x
_atom_site_fract_y
_atom_site_fract_z
Si Si1 0.614259 0.940730 0.148906
Si Si2 0.517072 0.349898 0.678963
Si Si3 0.171456 0.064911 0.327184
Si Si4 0.548361 0.867051 0.357270
Si Si5 0.657878 0.730921 0.009152
Si Si6 0.372085 0.160818 0.652228
O O1 0.532256 0.900204 0.279787
O O2 0.718273 0.800210 0.051097
O O3 0.411899 0.002337 0.216206
O O4 0.785502 0.072957 0.045991
O O5 0.438062 0.471572 0.671759
O O6 0.780567 0.369911 0.549818
O O7 0.540144 0.209534 0.616810
O O8 0.311131 0.323422 0.861301
O O9 0.000000 0.062571 0.500000
O O10 0.175881 0.222808 0.296516
O O11 0.672792 0.998604 0.318451
O O12 0.374169 0.734237 0.181393
O O13 0.500000 0.202432 0.500000
#
# Coordination Sequence:
#
# PCOD9130492 Si02
#       6
#     4   4   4   4   4   4
#     4  12  28  49  73 114 153 202 262 331 389 472
#     4  12  24  49  75 107 154 198 254 320 391 466
#     4  12  25  48  77 114 153 203 263 318 390 476
#     4  12  27  47  81 112 151 202 262 318 390 480
#     4  12  29  49  74 111 155 199 260 330 391 463
#     4  12  26  49  77 106 149 200 254 321 396 464
#
# _framework density 24.13561
#
# number of rings (size 3 to 8) (size 9 to 14) (size 15 to 20)
#    0.000    0.000    5.000    4.500    7.000    0.000 
#    0.000    0.000    0.000    0.000    0.000    0.000 
#    0.000    0.000    0.000    0.000    0.000    0.000 
#
# Total GULP energy -67139.185124 kJ/mol
# GULP energy per Si atom -5594.932094 kJ/mol
# Density = 2.408068 g / cm^3
# Si number density = 24.135610 Si / 1000 Ang^3
#
#
#
# Elastic Constant Matrix: (Units=GPa)
#
#
# Indices 1 2 3 4 5 6 
#
# 1 60.6241 14.7366 44.7114 -0.0022 12.5481 -0.0070
# 2 14.7366 114.1842 36.9044 0.0051 0.8248 -0.0024
# 3 44.7114 36.9044 138.8022 0.0014 11.0247 -0.0075
# 4 -0.0022 0.0051 0.0014 33.5778 -0.0005 7.1721
# 5 12.5481 0.8248 11.0247 -0.0005 37.8276 0.0090
# 6 -0.0070 -0.0024 -0.0075 7.1721 0.0090 32.8276
#
#
#
# Elastic Compliance Matrix: (Units=1/GPa)
#
#
# Indices 1 2 3 4 5 6 
#
# 1 0.022767 -0.000734 -0.006695 0.000001 -0.005585 0.000005
# 2 -0.000734 0.009616 -0.002378 -0.000001 0.000727 0.000000
# 3 -0.006695 -0.002378 0.010045 -0.000001 -0.000655 0.000001
# 4 0.000001 -0.000001 -0.000001 0.031239 0.000002 -0.006825
# 5 -0.005585 0.000727 -0.000655 0.000002 0.028463 -0.000010
# 6 0.000005 0.000000 0.000001 -0.006825 -0.000010 0.031953
#
#
# Mechanical properties :
#
#
# Convention : Reuss Voigt Hill
#
# Bulk Modulus (GPa) = 43.83218 56.25725 50.04471
# Shear Modulus (GPa) = 30.99746 35.33049 33.16397
#
# Velocity S-wave (km/s) = 3.58761 3.83016 3.71086
# Velocity P-wave (km/s) = 5.94655 6.55130 6.25624
#
# Compressibility (1/GPa) = 0.02281429
#
# Stress axis : x y z
#
# Youngs Moduli (GPa) = 43.92265 103.99538 99.54838
#
# Poissons Ratio (x) = 0.07635 0.66648
# Poissons Ratio (y) = 0.03225 0.23671
# Poissons Ratio (z) = 0.29406 0.24729
#
# Static dielectric constant tensor:
#      x y z
#    x 2.079890 0.000000 -0.088800 
#    y 0.000000 1.936070 0.000000 
#    z -0.088800 0.000000 1.941410 
# 
# From -- ./inp_files/60448.got.cif
#   From: 2010.05.17/outbox.cif.g08.bks.cpg/sg5_31_cif.got.tgz:60448.got - 2010.06.03 18:56:24.
