data_PCOD9130170
_publ_section_title
;
Structure prediction by ZEFSAII (Michael W. Deem and Ramdas Pophale) SiO2 
 PCOD9130170
Probable space group: C 2
;
_chemical_formula_sum "Si O2"
_cell_formula_units_Z 26
_cell_length_a 13.822424
_cell_length_b 8.876885
_cell_length_c 10.113899
_cell_angle_alpha 90.000000
_cell_angle_beta 119.571971
_cell_angle_gamma 90.000000
_cell_volume 1079.322159
_symmetry_space_group_name_H-M "C 2"
_symmetry_group_IT_number 5
_symmetry_cell_setting 'monoclinic'
loop_
_space_group_symop_operation_xyz
x,y,z
-x,y,-z
1/2+x,1/2+y,z
1/2-x,1/2+y,-z
loop_
_atom_site_type_symbol
_atom_site_label
_atom_site_fract_x
_atom_site_fract_y
_atom_site_fract_z
Si Si1 0.855026 0.268540 0.023862
Si Si2 0.657055 0.328857 0.247524
Si Si3 0.000000 0.057627 0.000000
Si Si4 0.730913 0.272121 0.663893
Si Si5 0.844416 0.622103 0.981598
Si Si6 0.988735 0.715769 0.322742
Si Si7 0.825998 0.483986 0.516521
O O1 0.797842 0.243243 0.842769
O O2 0.778279 0.188050 0.078508
O O3 0.859631 0.448225 0.029875
O O4 0.966857 0.172243 0.094295
O O5 0.588104 0.324017 0.338732
O O6 0.783752 0.369261 0.372689
O O7 0.600648 0.450363 0.112473
O O8 0.633698 0.173104 0.153436
O O9 0.601621 0.268359 0.628580
O O10 0.783551 0.413509 0.624355
O O11 0.742940 0.131388 0.573676
O O12 0.917107 0.706705 0.139918
O O13 0.049151 0.553220 0.390733
#
# Coordination Sequence:
#
# PCOD9130170 Si02
#       7
#     4   4   2   4   4   4   4
#     4  11  26  43  72 106 145 188 252 316 370 461
#     4  12  24  44  75 103 146 195 246 314 381 452
#     4  12  24  42  66 110 142 186 250 312 366 444
#     4  11  26  46  74 100 148 197 248 302 383 449
#     4  11  25  46  74 108 144 196 252 309 387 450
#     4  11  25  47  76 100 150 198 246 306 392 449
#     4  12  25  45  71 104 143 197 246 311 366 461
#
# _framework density 24.089193999999999
#
# number of rings (size 3 to 8) (size 9 to 14) (size 15 to 20)
#    0.000    0.615    4.615    2.308    8.615    0.000 
#    0.000    0.000    6.769    0.000    0.000    0.000 
#    0.000    0.000    0.000    0.000    0.000    0.000 
#
# Total GULP energy -72515.354573 kJ/mol
# GULP energy per Si atom -5578.104198 kJ/mol
# Density = 2.403437 g / cm^3
# Si number density = 24.089194 Si / 1000 Ang^3
#
#
#
# Elastic Constant Matrix: (Units=GPa)
#
#
# Indices 1 2 3 4 5 6 
#
# 1 114.2963 16.1856 11.9787 0.0000 -22.6542 0.0000
# 2 16.1856 89.0500 6.8671 0.0000 -22.9338 0.0000
# 3 11.9787 6.8671 69.1490 0.0000 -6.9073 0.0000
# 4 0.0000 0.0000 0.0000 39.7793 0.0000 -1.6694
# 5 -22.6542 -22.9338 -6.9073 0.0000 41.4345 0.0000
# 6 0.0000 0.0000 0.0000 -1.6694 0.0000 36.5854
#
#
#
# Elastic Compliance Matrix: (Units=1/GPa)
#
#
# Indices 1 2 3 4 5 6 
#
# 1 0.009923 -0.000427 -0.001178 0.000000 0.004993 0.000000
# 2 -0.000427 0.013138 -0.000537 0.000000 0.006949 0.000000
# 3 -0.001178 -0.000537 0.014873 0.000000 0.001538 0.000000
# 4 0.000000 0.000000 0.000000 0.025187 0.000000 0.001149
# 5 0.004993 0.006949 0.001538 0.000000 0.030967 0.000000
# 6 0.000000 0.000000 0.000000 0.001149 0.000000 0.027386
#
#
# Mechanical properties :
#
#
# Convention : Reuss Voigt Hill
#
# Bulk Modulus (GPa) = 29.71709 38.06202 33.88955
# Shear Modulus (GPa) = 36.50364 39.39076 37.94720
#
# Velocity S-wave (km/s) = 3.89698 4.04815 3.97328
# Velocity P-wave (km/s) = 5.71066 6.13880 5.92859
#
# Compressibility (1/GPa) = 0.03365067
#
# Stress axis : x y z
#
# Youngs Moduli (GPa) = 100.77973 76.11337 67.23812
#
# Poissons Ratio (x) = 0.03250 0.07919
# Poissons Ratio (y) = 0.04303 0.03608
# Poissons Ratio (z) = 0.11870 0.04085
#
# Static dielectric constant tensor:
#      x y z
#    x 2.179370 0.000000 -0.016610 
#    y 0.000000 1.966070 0.000000 
#    z -0.016610 0.000000 2.026990 
# 
# From -- ./inp_files/41837.got.cif
#   From: 2010.05.17/outbox.cif.g08.bks.cpg/sg5_21_cif.got.tgz:41837.got - 2010.06.03 18:56:24.
