data_PCOD9130442
_publ_section_title
;
Structure prediction by ZEFSAII (Michael W. Deem and Ramdas Pophale) SiO2 
 PCOD9130442
Probable space group: C 2
;
_chemical_formula_sum "Si O2"
_cell_formula_units_Z 16
_cell_length_a 18.366334
_cell_length_b 5.145683
_cell_length_c 14.711104
_cell_angle_alpha 90.000000
_cell_angle_beta 29.346960
_cell_angle_gamma 90.000000
_cell_volume 681.385444
_symmetry_space_group_name_H-M "C 2"
_symmetry_group_IT_number 5
_symmetry_cell_setting 'monoclinic'
loop_
_space_group_symop_operation_xyz
x,y,z
-x,y,-z
1/2+x,1/2+y,z
1/2-x,1/2+y,-z
loop_
_atom_site_type_symbol
_atom_site_label
_atom_site_fract_x
_atom_site_fract_y
_atom_site_fract_z
Si Si1 0.856940 0.691340 0.200957
Si Si2 0.041417 0.005090 0.561764
Si Si3 0.390821 0.007184 0.814573
Si Si4 0.886590 0.844363 0.980054
O O1 0.718664 0.528440 0.382687
O O2 0.939812 0.877861 0.183152
O O3 0.807253 0.845652 0.164714
O O4 0.000000 0.542086 0.000000
O O5 0.000000 0.010165 0.500000
O O6 0.968378 0.250976 0.691832
O O7 0.978414 0.745707 0.674407
O O8 0.390092 0.069186 0.922570
O O9 0.220402 0.011906 0.966048
#
# Coordination Sequence:
#
# PCOD9130442 Si02
#       4
#     4   4   4   4
#     4   8  21  47  68 103 148 185 236 286 370 415
#     4  12  24  43  70 106 139 186 235 294 349 420
#     4  12  24  43  74 100 142 181 244 284 350 422
#     4   9  22  44  71 102 143 188 230 292 356 422
#
# _framework density 23.481570000000001
#
# number of rings (size 3 to 8) (size 9 to 14) (size 15 to 20)
#    1.500    0.000    2.500    2.250    0.000    2.000 
#    0.000    8.750    0.000    0.000    0.000    0.000 
#    0.000    0.000    0.000    0.000    0.000    0.000 
#
# Total GULP energy -44571.261054 kJ/mol
# GULP energy per Si atom -5571.407632 kJ/mol
# Density = 2.342812 g / cm^3
# Si number density = 23.481570 Si / 1000 Ang^3
#
#
#
# Elastic Constant Matrix: (Units=GPa)
#
#
# Indices 1 2 3 4 5 6 
#
# 1 129.0762 -3.2495 31.6523 -0.0026 -6.7303 0.0004
# 2 -3.2495 86.7919 39.7620 -0.0099 -9.4450 0.0052
# 3 31.6523 39.7620 114.1634 -0.0039 -38.6432 0.0012
# 4 -0.0026 -0.0099 -0.0039 43.4372 0.0006 -11.1826
# 5 -6.7303 -9.4450 -38.6432 0.0006 40.7750 0.0003
# 6 0.0004 0.0052 0.0012 -11.1826 0.0003 16.7986
#
#
#
# Elastic Compliance Matrix: (Units=1/GPa)
#
#
# Indices 1 2 3 4 5 6 
#
# 1 0.008570 0.001759 -0.003492 0.000001 -0.001488 0.000000
# 2 0.001759 0.014181 -0.006208 0.000002 -0.002308 -0.000002
# 3 -0.003492 -0.006208 0.016502 0.000000 0.013624 0.000000
# 4 0.000001 0.000002 0.000000 0.027783 0.000000 0.018495
# 5 -0.001488 -0.002308 0.013624 0.000000 0.036657 -0.000001
# 6 0.000000 -0.000002 0.000000 0.018495 -0.000001 0.071840
#
#
# Mechanical properties :
#
#
# Convention : Reuss Voigt Hill
#
# Bulk Modulus (GPa) = 42.79045 51.81788 47.30417
# Shear Modulus (GPa) = 25.09972 37.65994 31.37983
#
# Velocity S-wave (km/s) = 3.27297 4.00910 3.65959
# Velocity P-wave (km/s) = 5.70488 6.59893 6.16813
#
# Compressibility (1/GPa) = 0.02336970
#
# Stress axis : x y z
#
# Youngs Moduli (GPa) = 116.67944 70.51923 60.60033
#
# Poissons Ratio (x) = -0.12404 0.21164
# Poissons Ratio (y) = -0.20524 0.37621
# Poissons Ratio (z) = 0.40750 0.43778
#
# Static dielectric constant tensor:
#      x y z
#    x 1.923220 0.000000 -0.002300 
#    y 0.000000 1.919890 0.000000 
#    z -0.002300 0.000000 1.890290 
# 
# From -- ./inp_files/56340.got.cif
#   From: 2010.05.17/outbox.cif.g08.bks.cpg/sg5_29_cif.got.tgz:56340.got - 2010.06.03 18:56:24.
