data_PCOD9130353
_publ_section_title
;
Structure prediction by ZEFSAII (Michael W. Deem and Ramdas Pophale) SiO2 
 PCOD9130353
Probable space group: C 2
;
_chemical_formula_sum "Si O2"
_cell_formula_units_Z 26
_cell_length_a 29.982216
_cell_length_b 5.374700
_cell_length_c 7.933119
_cell_angle_alpha 90.000000
_cell_angle_beta 72.851056
_cell_angle_gamma 90.000000
_cell_volume 1221.550634
_symmetry_space_group_name_H-M "C 2"
_symmetry_group_IT_number 5
_symmetry_cell_setting 'monoclinic'
loop_
_space_group_symop_operation_xyz
x,y,z
-x,y,-z
1/2+x,1/2+y,z
1/2-x,1/2+y,-z
loop_
_atom_site_type_symbol
_atom_site_label
_atom_site_fract_x
_atom_site_fract_y
_atom_site_fract_z
Si Si1 0.872833 0.203600 0.478689
Si Si2 0.618274 0.242595 0.129117
Si Si3 0.000000 0.446632 0.500000
Si Si4 0.415287 0.206035 0.443191
Si Si5 0.271506 0.263666 0.044821
Si Si6 0.235051 0.082272 0.441283
Si Si7 0.415261 0.740559 0.797586
O O1 0.887610 0.473987 0.393939
O O2 0.820205 0.128187 0.501985
O O3 0.880051 0.225391 0.674501
O O4 0.905910 0.977882 0.380737
O O5 0.604676 0.227923 0.342832
O O6 0.591441 0.486148 0.096284
O O7 0.599296 0.982029 0.081579
O O8 0.673190 0.270260 0.045878
O O9 0.968092 0.617405 0.414968
O O10 0.965019 0.283284 0.652372
O O11 0.258831 0.175004 0.244612
O O12 0.250544 0.538831 0.040436
O O13 0.254881 0.289293 0.548810
#
# Coordination Sequence:
#
# PCOD9130353 Si02
#       7
#     4   4   2   4   4   4   4
#     4   9  17  31  45  65  99 143 170 217 274 318
#     4   9  17  28  43  69  98 135 169 217 263 319
#     4   8  16  26  44  76 110 144 162 218 292 348
#     4   9  16  27  47  72 106 133 174 219 280 334
#     4  12  22  37  60  81 108 152 201 236 290 349
#     4  12  25  39  56  82 116 153 201 247 280 331
#     4   9  17  28  47  72 108 134 174 220 281 335
#
# _framework density 21.284421999999999
#
# number of rings (size 3 to 8) (size 9 to 14) (size 15 to 20)
#    0.000    2.462    0.000    6.462    0.000    9.846 
#    0.000    0.000    0.000    0.000    0.000    0.000 
#    0.000  128.000    0.000    0.308    0.000    0.000 
#
# Total GULP energy -72483.248146 kJ/mol
# GULP energy per Si atom -5575.634473 kJ/mol
# Density = 2.123598 g / cm^3
# Si number density = 21.284422 Si / 1000 Ang^3
#
#
#
# Elastic Constant Matrix: (Units=GPa)
#
#
# Indices 1 2 3 4 5 6 
#
# 1 58.3771 -11.5205 15.9036 0.0000 -28.2801 0.0000
# 2 -11.5205 134.7136 5.2809 0.0000 -2.5704 0.0000
# 3 15.9036 5.2809 27.1879 0.0000 -8.2934 0.0000
# 4 0.0000 0.0000 0.0000 17.7951 0.0000 -0.7332
# 5 -28.2801 -2.5704 -8.2934 0.0000 22.8998 0.0000
# 6 0.0000 0.0000 0.0000 -0.7332 0.0000 35.5399
#
#
#
# Elastic Compliance Matrix: (Units=1/GPa)
#
#
# Indices 1 2 3 4 5 6 
#
# 1 0.049310 0.005798 -0.012587 0.000000 0.056988 0.000000
# 2 0.005798 0.008164 -0.002826 0.000000 0.007053 0.000000
# 3 -0.012587 -0.002826 0.044804 0.000000 0.000365 0.000000
# 4 0.000000 0.000000 0.000000 0.056243 0.000000 0.001160
# 5 0.056988 0.007053 0.000365 0.000000 0.114969 0.000000
# 6 0.000000 0.000000 0.000000 0.001160 0.000000 0.028161
#
#
# Mechanical properties :
#
#
# Convention : Reuss Voigt Hill
#
# Bulk Modulus (GPa) = 12.04110 26.62296 19.33203
# Shear Modulus (GPa) = 14.34457 29.28794 21.81625
#
# Velocity S-wave (km/s) = 2.59887 3.71351 3.20501
# Velocity P-wave (km/s) = 3.83079 5.56077 4.77479
#
# Compressibility (1/GPa) = 0.08304889
#
# Stress axis : x y z
#
# Youngs Moduli (GPa) = 20.27986 122.48433 22.31945
#
# Poissons Ratio (x) = -0.71012 0.28093
# Poissons Ratio (y) = -0.11758 0.06307
# Poissons Ratio (z) = 0.25525 0.34611
#
# Static dielectric constant tensor:
#      x y z
#    x 1.760670 0.000000 0.025790 
#    y 0.000000 1.952410 0.000000 
#    z 0.025790 0.000000 1.737470 
# 
# From -- ./inp_files/32035.got.cif
#   From: 2010.05.17/outbox.cif.g08.bks.cpg/sg5_17_cif.got.tgz:32035.got - 2010.06.03 18:56:24.
