data_PCOD9130207
_publ_section_title
;
Structure prediction by ZEFSAII (Michael W. Deem and Ramdas Pophale) SiO2 
 PCOD9130207
Probable space group: C 2
;
_chemical_formula_sum "Si O2"
_cell_formula_units_Z 14
_cell_length_a 5.716605
_cell_length_b 13.684805
_cell_length_c 8.023309
_cell_angle_alpha 90.000000
_cell_angle_beta 67.321716
_cell_angle_gamma 90.000000
_cell_volume 579.139840
_symmetry_space_group_name_H-M "C 2"
_symmetry_group_IT_number 5
_symmetry_cell_setting 'monoclinic'
loop_
_space_group_symop_operation_xyz
x,y,z
-x,y,-z
1/2+x,1/2+y,z
1/2-x,1/2+y,-z
loop_
_atom_site_type_symbol
_atom_site_label
_atom_site_fract_x
_atom_site_fract_y
_atom_site_fract_z
Si Si1 0.649853 0.302900 0.281283
Si Si2 0.000000 0.927733 0.000000
Si Si3 0.806255 0.475812 0.402568
Si Si4 0.878485 0.610269 0.864564
O O1 0.500000 0.286073 0.500000
O O2 0.510306 0.359580 0.163922
O O3 0.857889 0.382554 0.272026
O O4 0.754770 0.199484 0.190824
O O5 0.774866 0.009690 0.068857
O O6 0.500000 0.476713 0.500000
O O7 0.000000 0.463043 0.500000
O O8 0.880094 0.579465 0.309755
O O9 0.000000 0.646490 0.000000
#
# Coordination Sequence:
#
# PCOD9130207 Si02
#       4
#     4   2   4   4
#     4  11  25  49  75 111 152 205 259 312 387 461
#     4  12  26  50  74 112 158 202 254 324 382 458
#     4  11  25  51  79 110 156 204 258 319 382 460
#     4  12  25  46  76 111 155 201 255 320 387 454
#
# _framework density 24.173781000000002
#
# number of rings (size 3 to 8) (size 9 to 14) (size 15 to 20)
#    0.000    0.571    4.286    4.286    0.000    2.286 
#   10.286    5.714    0.000    0.000    0.000    0.000 
#    0.000    0.000    0.000    0.000    0.000    0.000 
#
# Total GULP energy -38992.448635 kJ/mol
# GULP energy per Si atom -5570.349805 kJ/mol
# Density = 2.411876 g / cm^3
# Si number density = 24.173781 Si / 1000 Ang^3
#
#
#
# Elastic Constant Matrix: (Units=GPa)
#
#
# Indices 1 2 3 4 5 6 
#
# 1 104.6438 31.0235 52.2138 0.0000 9.0993 0.0000
# 2 31.0235 139.7991 64.4056 0.0000 2.9385 0.0000
# 3 52.2138 64.4056 124.0291 0.0000 39.8707 0.0000
# 4 0.0000 0.0000 0.0000 -53.9703 0.0000 20.8793
# 5 9.0993 2.9385 39.8707 0.0000 46.4719 0.0000
# 6 0.0000 0.0000 0.0000 20.8793 0.0000 23.1270
#
#
#
# Elastic Compliance Matrix: (Units=1/GPa)
#
#
# Indices 1 2 3 4 5 6 
#
# 1 0.012360 0.000019 -0.006123 0.000000 0.002832 0.000000
# 2 0.000019 0.010312 -0.007114 0.000000 0.005448 0.000000
# 3 -0.006123 -0.007114 0.019062 0.000000 -0.014705 0.000000
# 4 0.000000 0.000000 0.000000 -0.013732 0.000000 0.012398
# 5 0.002832 0.005448 -0.014705 0.000000 0.033236 0.000000
# 6 0.000000 0.000000 0.000000 0.012398 0.000000 0.032047
#
#
# Mechanical properties :
#
#
# Convention : Reuss Voigt Hill
#
# Bulk Modulus (GPa) = 65.37538 73.75086 69.56312
# Shear Modulus (GPa) = 40.05803 17.84766 28.95285
#
# Velocity S-wave (km/s) = 4.07515 2.72013 3.46453
# Velocity P-wave (km/s) = 7.01748 6.35927 6.69647
#
# Compressibility (1/GPa) = 0.01529628
#
# Stress axis : x y z
#
# Youngs Moduli (GPa) = 80.90751 96.97654 52.46126
#
# Poissons Ratio (x) = -0.00182 0.32124
# Poissons Ratio (y) = -0.00152 0.37320
# Poissons Ratio (z) = 0.49543 0.68987
#
# Static dielectric constant tensor:
#      x y z
#    x 2.023390 0.000000 -0.114110 
#    y 0.000000 1.874970 0.000000 
#    z -0.114110 0.000000 2.155840 
# 
# From -- ./inp_files/11497.got.cif
#   From: 2010.05.17/outbox.cif.g08.bks.cpg/sg5_6_cif.got.tgz:11497.got - 2010.06.03 18:56:24.
