data_PCOD9130841
_publ_section_title
;
Structure prediction by ZEFSAII (Michael W. Deem and Ramdas Pophale) SiO2 
 PCOD9130841
Probable space group: P M
;
_chemical_formula_sum "Si O2"
_cell_formula_units_Z 16
_cell_length_a 16.820262
_cell_length_b 7.386931
_cell_length_c 7.922516
_cell_angle_alpha 90.000000
_cell_angle_beta 133.197112
_cell_angle_gamma 90.000000
_cell_volume 717.611380
_symmetry_space_group_name_H-M "P M"
_symmetry_group_IT_number 6
_symmetry_cell_setting 'monoclinic'
loop_
_space_group_symop_operation_xyz
x,y,z
x,-y,z
loop_
_atom_site_type_symbol
_atom_site_label
_atom_site_fract_x
_atom_site_fract_y
_atom_site_fract_z
Si Si1 0.675280 0.778480 0.621580
Si Si2 0.399495 0.288222 0.533461
Si Si3 0.644103 0.782170 0.959805
Si Si4 0.167427 0.208474 0.341453
Si Si5 0.805600 0.220840 0.490018
Si Si6 0.208533 0.222881 0.762806
Si Si7 0.053417 0.221589 0.841872
Si Si8 0.438331 0.205069 0.205058
O O1 0.681175 0.720332 0.825700
O O2 0.766901 0.724911 0.621220
O O3 0.558908 0.714622 0.377366
O O4 0.672164 0.000000 0.621386
O O5 0.380763 0.500000 0.480325
O O6 0.516292 0.264004 0.792648
O O7 0.295235 0.212937 0.478514
O O8 0.409154 0.201238 0.362090
O O9 0.650137 0.000000 0.967518
O O10 0.720931 0.718252 0.222978
O O11 0.157886 0.286048 0.513796
O O12 0.132193 0.000000 0.303512
O O13 0.099592 0.286450 0.088210
O O14 0.929078 0.277031 0.633657
O O15 0.803854 0.000000 0.485516
O O16 0.135708 0.278204 0.814784
O O17 0.212374 0.000000 0.768925
O O18 0.333358 0.286411 0.962571
O O19 0.055824 0.000000 0.846113
O O20 0.449471 0.000000 0.156469
#
# Coordination Sequence:
#
# PCOD9130841 Si02
#       8
#     2   2   2   2   2   2   2   2
#     4   8  15  26  43  71 100 128 164 205 247 297
#     4  11  21  33  51  76 107 136 169 215 260 305
#     4   9  18  32  51  73 100 135 170 208 254 303
#     4  10  19  32  53  76 103 139 170 207 257 305
#     4   9  17  28  48  76 105 134 166 208 253 297
#     4   9  17  28  49  78 103 134 171 207 252 306
#     4   9  17  30  47  76 109 131 166 215 254 296
#     4   9  16  31  52  74 105 137 170 207 251 309
#
# _framework density 22.296191
#
# number of rings (size 3 to 8) (size 9 to 14) (size 15 to 20)
#    0.000    2.750    1.250    1.875    1.750    1.000 
#    0.000    5.625    0.000    0.750    0.000    3.500 
#    0.000    0.000    0.000    0.000    0.000    0.000 
#
# Total GULP energy -89340.044087 kJ/mol
# GULP energy per Si atom -5583.752755 kJ/mol
# Density = 2.224544 g / cm^3
# Si number density = 22.296191 Si / 1000 Ang^3
#
#
#
# Elastic Constant Matrix: (Units=GPa)
#
#
# Indices 1 2 3 4 5 6 
#
# 1 30.3063 -10.3235 17.6405 0.0000 -1.3208 0.0000
# 2 -10.3235 83.4646 -7.9638 0.0000 -3.7128 0.0000
# 3 17.6405 -7.9638 125.4393 0.0000 -9.2959 0.0000
# 4 0.0000 0.0000 0.0000 -35.8296 0.0000 -9.5670
# 5 -1.3208 -3.7128 -9.2959 0.0000 23.3651 0.0000
# 6 0.0000 0.0000 0.0000 -9.5670 0.0000 -34.4858
#
#
#
# Elastic Compliance Matrix: (Units=1/GPa)
#
#
# Indices 1 2 3 4 5 6 
#
# 1 0.037322 0.004183 -0.004923 0.000000 0.000816 0.000000
# 2 0.004183 0.012643 0.000392 0.000000 0.002402 0.000000
# 3 -0.004923 0.000392 0.008937 0.000000 0.003340 0.000000
# 4 0.000000 0.000000 0.000000 -0.030143 0.000000 0.008362
# 5 0.000816 0.002402 0.003340 0.000000 0.044555 0.000000
# 6 0.000000 0.000000 0.000000 0.008362 0.000000 -0.031317
#
#
# Mechanical properties :
#
#
# Convention : Reuss Voigt Hill
#
# Bulk Modulus (GPa) = 17.18009 26.43517 21.80763
# Shear Modulus (GPa) = 80.52347 6.60041 43.56194
#
# Velocity S-wave (km/s) = 6.01612 1.72243 4.42496
# Velocity P-wave (km/s) = 7.48201 3.97967 5.99242
#
# Compressibility (1/GPa) = 0.05820693
#
# Stress axis : x y z
#
# Youngs Moduli (GPa) = 26.79377 79.09657 111.89889
#
# Poissons Ratio (x) = -0.33085 0.55083
# Poissons Ratio (y) = -0.11208 -0.04391
# Poissons Ratio (z) = 0.13189 -0.03104
#
# Static dielectric constant tensor:
#      x y z
#    x 1.780330 0.000000 -0.013220 
#    y 0.000000 1.913000 0.000000 
#    z -0.013220 0.000000 1.795950 
# 
# From -- ./inp_files/3534.got.cif
#   From: 2010.05.17/outbox.cif.g08.bks.cpg/sg6_2_cif.got.tgz:3534.got - 2010.06.03 19:42:10.
