data_PCOD9130709
_publ_section_title
;
Structure prediction by ZEFSAII (Michael W. Deem and Ramdas Pophale) SiO2 
 PCOD9130709
Probable space group: C 2
;
_chemical_formula_sum "Si O2"
_cell_formula_units_Z 15
_cell_length_a 12.000000
_cell_length_b 9.000000
_cell_length_c 15.000000
_cell_angle_alpha 90.000000
_cell_angle_beta 90.000000
_cell_angle_gamma 90.000000
_cell_volume 1620.000000
_symmetry_space_group_name_H-M "C 2"
_symmetry_group_IT_number 5
_symmetry_cell_setting 'monoclinic'
loop_
_space_group_symop_operation_xyz
x,y,z
-x,y,-z
1/2+x,1/2+y,z
1/2-x,1/2+y,-z
loop_
_atom_site_type_symbol
_atom_site_label
_atom_site_fract_x
_atom_site_fract_y
_atom_site_fract_z
Si Si1 0.271616 0.154190 0.480351
Si Si2 0.678063 0.934061 0.749575
Si Si3 0.500000 0.335659 0.500000
Si Si4 0.385945 0.871803 0.445679
Si Si5 0.226772 0.160371 0.104923
Si Si6 0.019505 0.172488 0.816479
Si Si7 0.379100 0.439780 0.042401
Si Si8 0.390914 0.522631 0.657877
O O1 0.389809 0.240054 0.473347
O O2 0.188724 0.223895 0.553088
O O3 0.309517 0.987004 0.501136
O O4 0.194179 0.137656 0.391704
O O5 0.609874 0.940686 0.654368
O O6 0.607646 0.806740 0.801004
O O7 0.806119 0.914208 0.712888
O O8 0.703082 0.072338 0.817230
O O9 0.457263 0.435213 0.581913
O O10 0.500000 0.852199 0.500000
O O11 0.302728 0.298764 0.071416
O O12 0.102385 0.211849 0.139333
O O13 0.192021 0.040676 0.027975
O O14 0.081913 0.048198 0.876554
O O15 0.977692 0.103021 0.722790
O O16 0.500000 0.393263 0.000000
#
# Coordination Sequence:
#
# PCOD9130709 Si02
#       8
#     4   4   2   4   4   4   4   4
#     4  11  22  38  56  85 112 159 214 261 310 362
#     4  10  21  40  59  89 127 160 209 258 307 368
#     4  12  22  38  60  84 120 164 216 276 312 362
#     4  11  23  38  58  83 120 163 212 262 309 361
#     4  10  22  41  64  97 127 157 203 252 305 381
#     4  10  22  40  62  89 124 163 200 256 310 373
#     4  10  22  42  68  95 124 159 198 247 311 379
#     4  10  24  38  59  87 123 163 217 263 310 369
#
# _framework density 9.2592590000000001
#
# number of rings (size 3 to 8) (size 9 to 14) (size 15 to 20)
#    0.000    1.600    3.333    1.600    2.800    4.267 
#    0.000    4.000    0.000    0.000    0.000    0.000 
#    0.000    0.000    0.000    0.000    0.000    0.000 
#
# Total GULP energy -83545.985921 kJ/mol
# GULP energy per Si atom -5569.732395 kJ/mol
# Density = 0.923818 g / cm^3
# Si number density = 9.259259 Si / 1000 Ang^3
#
#
#
# Elastic Constant Matrix: (Units=GPa)
#
#
# Indices 1 2 3 4 5 6 
#
# 1 119.9910 53.7887 40.9563 0.0000 2.0498 0.0000
# 2 53.7887 83.5531 38.3670 0.0000 -13.5365 0.0000
# 3 40.9563 38.3670 83.1118 0.0000 3.5279 0.0000
# 4 0.0000 0.0000 0.0000 29.1570 0.0000 -4.5697
# 5 2.0498 -13.5365 3.5279 0.0000 40.6182 0.0000
# 6 0.0000 0.0000 0.0000 -4.5697 0.0000 48.1577
#
#
#
# Elastic Compliance Matrix: (Units=1/GPa)
#
#
# Indices 1 2 3 4 5 6 
#
# 1 0.012587 -0.007323 -0.002702 0.000000 -0.002841 0.000000
# 2 -0.007323 0.020883 -0.006366 0.000000 0.007882 0.000000
# 3 -0.002702 -0.006366 0.016447 0.000000 -0.003414 0.000000
# 4 0.000000 0.000000 0.000000 0.034815 0.000000 0.003304
# 5 -0.002841 0.007882 -0.003414 0.000000 0.027686 0.000000
# 6 0.000000 0.000000 0.000000 0.003304 0.000000 0.021079
#
#
# Mechanical properties :
#
#
# Convention : Reuss Voigt Hill
#
# Bulk Modulus (GPa) = 58.35781 61.43109 59.89445
# Shear Modulus (GPa) = 29.07134 33.82284 31.44709
#
# Velocity S-wave (km/s) = 3.96643 4.27832 4.12532
# Velocity P-wave (km/s) = 7.24972 7.59277 7.42323
#
# Compressibility (1/GPa) = 0.01713567
#
# Stress axis : x y z
#
# Youngs Moduli (GPa) = 79.44481 47.88588 60.80097
#
# Poissons Ratio (x) = 0.35067 0.16427
# Poissons Ratio (y) = 0.58177 0.38707
# Poissons Ratio (z) = 0.21464 0.30485
#
# Static dielectric constant tensor:
#      x y z
#    x 1.633820 0.000000 -0.016110 
#    y 0.000000 1.678740 0.000000 
#    z -0.016110 0.000000 1.686460 
# 
# From -- ./inp_files/52273.got.cif
#   From: 2010.05.17/outbox.ucp.g08.bks.cvg/sg5_27_cif.got.tgz:52273.got - 2010.06.11 12:53:14.
