data_PCOD9130276
_publ_section_title
;
Structure prediction by ZEFSAII (Michael W. Deem and Ramdas Pophale) SiO2 
 PCOD9130276
Probable space group: C 2
;
_chemical_formula_sum "Si O2"
_cell_formula_units_Z 20
_cell_length_a 8.280336
_cell_length_b 12.074681
_cell_length_c 8.829470
_cell_angle_alpha 90.000000
_cell_angle_beta 75.354382
_cell_angle_gamma 90.000000
_cell_volume 854.108222
_symmetry_space_group_name_H-M "C 2"
_symmetry_group_IT_number 5
_symmetry_cell_setting 'monoclinic'
loop_
_space_group_symop_operation_xyz
x,y,z
-x,y,-z
1/2+x,1/2+y,z
1/2-x,1/2+y,-z
loop_
_atom_site_type_symbol
_atom_site_label
_atom_site_fract_x
_atom_site_fract_y
_atom_site_fract_z
Si Si1 0.739299 0.685610 0.262958
Si Si2 0.586331 0.750441 0.825231
Si Si3 0.234102 0.968801 0.098122
Si Si4 0.144600 0.916932 0.776179
Si Si5 0.195545 0.597837 0.431132
O O1 0.567042 0.743994 0.254417
O O2 0.793915 0.589493 0.134297
O O3 0.869140 0.785699 0.234588
O O4 0.721798 0.632002 0.430878
O O5 0.660357 0.870906 0.848197
O O6 0.729218 0.673061 0.721395
O O7 0.500000 0.706238 0.000000
O O8 0.040661 0.965281 0.195019
O O9 0.222597 0.946039 0.921706
O O10 0.258535 0.972584 0.622575
O O11 0.000000 0.612398 0.500000
#
# Coordination Sequence:
#
# PCOD9130276 Si02
#       5
#     4   4   4   4   4
#     4  12  27  49  79 113 162 207 265 330 399 466
#     4  12  25  52  81 114 157 208 265 333 391 476
#     4  11  26  49  79 113 157 207 268 326 394 470
#     4  11  26  50  77 113 159 210 264 327 392 479
#     4  12  29  49  79 117 162 212 267 326 404 472
#
# _framework density 23.416239000000001
#
# number of rings (size 3 to 8) (size 9 to 14) (size 15 to 20)
#    0.000    0.400    4.000    3.000    5.600    0.000 
#    3.600    0.000    0.000    0.000    0.000    0.000 
#    0.000    0.000    0.000    0.000    0.000    0.000 
#
# Total GULP energy -56025.588224 kJ/mol
# GULP energy per Si atom -5602.558822 kJ/mol
# Density = 2.336294 g / cm^3
# Si number density = 23.416239 Si / 1000 Ang^3
#
#
#
# Elastic Constant Matrix: (Units=GPa)
#
#
# Indices 1 2 3 4 5 6 
#
# 1 98.0636 9.2115 38.1962 0.0000 4.0300 0.0000
# 2 9.2115 127.8090 40.3207 0.0000 11.5729 0.0000
# 3 38.1962 40.3207 116.2995 0.0000 3.9235 0.0000
# 4 0.0000 0.0000 0.0000 44.8763 0.0000 3.0465
# 5 4.0300 11.5729 3.9235 0.0000 42.5044 0.0000
# 6 0.0000 0.0000 0.0000 3.0465 0.0000 31.3080
#
#
#
# Elastic Compliance Matrix: (Units=1/GPa)
#
#
# Indices 1 2 3 4 5 6 
#
# 1 0.011745 0.000495 -0.003999 0.000000 -0.000879 0.000000
# 2 0.000495 0.009000 -0.003209 0.000000 -0.002201 0.000000
# 3 -0.003999 -0.003209 0.011016 0.000000 0.000236 0.000000
# 4 0.000000 0.000000 0.000000 0.022432 0.000000 -0.002183
# 5 -0.000879 -0.002201 0.000236 0.000000 0.024188 0.000000
# 6 0.000000 0.000000 0.000000 -0.002183 0.000000 0.032153
#
#
# Mechanical properties :
#
#
# Convention : Reuss Voigt Hill
#
# Bulk Modulus (GPa) = 54.53956 57.51431 56.02693
# Shear Modulus (GPa) = 38.44036 40.70066 39.57051
#
# Velocity S-wave (km/s) = 4.05608 4.17362 4.11527
# Velocity P-wave (km/s) = 6.72886 6.91668 6.82342
#
# Compressibility (1/GPa) = 0.01833532
#
# Stress axis : x y z
#
# Youngs Moduli (GPa) = 85.14382 111.11051 90.77383
#
# Poissons Ratio (x) = -0.05498 0.36303
# Poissons Ratio (y) = -0.04213 0.29125
# Poissons Ratio (z) = 0.34051 0.35650
#
# Static dielectric constant tensor:
#      x y z
#    x 1.882560 0.000000 0.014740 
#    y 0.000000 1.889040 0.000000 
#    z 0.014740 0.000000 1.859440 
# 
# From -- ./inp_files/14226.got.cif
#   From: 2010.05.17/outbox.cif.g08.bks.cpg/sg5_8_cif.got.tgz:14226.got - 2010.06.03 18:56:24.
