data_PCOD9130468
_publ_section_title
;
Structure prediction by ZEFSAII (Michael W. Deem and Ramdas Pophale) SiO2 
 PCOD9130468
Probable space group: C 2
;
_chemical_formula_sum "Si O2"
_cell_formula_units_Z 32
_cell_length_a 12.214312
_cell_length_b 8.391087
_cell_length_c 29.132500
_cell_angle_alpha 90.000000
_cell_angle_beta 152.076017
_cell_angle_gamma 90.000000
_cell_volume 1398.263013
_symmetry_space_group_name_H-M "C 2"
_symmetry_group_IT_number 5
_symmetry_cell_setting 'monoclinic'
loop_
_space_group_symop_operation_xyz
x,y,z
-x,y,-z
1/2+x,1/2+y,z
1/2-x,1/2+y,-z
loop_
_atom_site_type_symbol
_atom_site_label
_atom_site_fract_x
_atom_site_fract_y
_atom_site_fract_z
Si Si1 0.670930 0.881820 0.023623
Si Si2 0.067481 0.644711 0.209664
Si Si3 0.915822 0.073075 0.729355
Si Si4 0.909259 0.278070 0.602610
Si Si5 0.424264 0.561216 0.838087
Si Si6 0.789382 0.379396 0.809550
Si Si7 0.091252 0.470990 0.486257
Si Si8 0.517120 0.923839 0.735324
O O1 0.844899 0.746472 0.108777
O O2 0.500000 0.943331 0.000000
O O3 0.490060 0.818521 0.918748
O O4 0.806557 0.028221 0.049684
O O5 0.315575 0.737633 0.301294
O O6 0.108288 0.502351 0.188772
O O7 0.037881 0.565757 0.249353
O O8 0.987069 0.255218 0.748916
O O9 0.955746 0.024877 0.796067
O O10 0.644118 0.054067 0.618772
O O11 0.075530 0.960001 0.756636
O O12 0.825944 0.354918 0.523772
O O13 0.777166 0.111944 0.563675
O O14 0.882947 0.396668 0.636683
O O15 0.248019 0.711581 0.770115
O O16 0.284091 0.442525 0.818619
O O17 0.000000 0.392578 0.500000
#
# Coordination Sequence:
#
# PCOD9130468 Si02
#       8
#     4   4   4   4   4   4   4   4
#     4  12  24  45  71 109 153 189 254 308 363 448
#     4  12  26  49  73 110 153 204 246 309 375 444
#     4  12  24  48  73 105 146 197 246 308 375 444
#     4  12  28  49  73 109 151 192 253 309 373 449
#     4  12  25  45  73 108 143 197 245 304 371 437
#     4  12  25  44  76 107 149 198 246 310 372 436
#     4  12  27  46  76 108 147 191 251 308 375 448
#     4  12  25  46  78 102 150 200 245 303 376 441
#
# _framework density 22.885538
#
# number of rings (size 3 to 8) (size 9 to 14) (size 15 to 20)
#    0.000    0.000    7.500    1.500    3.500    2.000 
#    0.000    0.625    0.000    0.000    0.000    0.000 
#    0.000    0.000    0.000    0.000    0.000    0.000 
#
# Total GULP energy -89290.406203 kJ/mol
# GULP energy per Si atom -5580.650388 kJ/mol
# Density = 2.283345 g / cm^3
# Si number density = 22.885538 Si / 1000 Ang^3
#
#
#
# Elastic Constant Matrix: (Units=GPa)
#
#
# Indices 1 2 3 4 5 6 
#
# 1 118.8534 20.0149 -6.3356 0.0000 -5.2307 0.0000
# 2 20.0149 69.8103 1.6738 0.0000 1.8973 0.0000
# 3 -6.3356 1.6738 45.2901 0.0001 6.2435 0.0000
# 4 0.0000 0.0000 0.0001 19.1909 0.0000 -8.0911
# 5 -5.2307 1.8973 6.2435 0.0000 38.7411 0.0000
# 6 0.0000 0.0000 0.0000 -8.0911 0.0000 46.8639
#
#
#
# Elastic Compliance Matrix: (Units=1/GPa)
#
#
# Indices 1 2 3 4 5 6 
#
# 1 0.008971 -0.002632 0.001194 0.000000 0.001148 0.000000
# 2 -0.002632 0.015124 -0.000794 0.000000 -0.000968 0.000000
# 3 0.001194 -0.000794 0.022754 0.000000 -0.003467 0.000000
# 4 0.000000 0.000000 0.000000 0.056199 0.000000 0.009703
# 5 0.001148 -0.000968 -0.003467 0.000000 0.026573 0.000000
# 6 0.000000 0.000000 0.000000 0.009703 0.000000 0.023014
#
#
# Mechanical properties :
#
#
# Convention : Reuss Voigt Hill
#
# Bulk Modulus (GPa) = 23.59233 29.40667 26.49950
# Shear Modulus (GPa) = 29.20091 35.53257 32.36674
#
# Velocity S-wave (km/s) = 3.57593 3.94461 3.76478
# Velocity P-wave (km/s) = 5.23267 5.79861 5.52290
#
# Compressibility (1/GPa) = 0.04238665
#
# Stress axis : x y z
#
# Youngs Moduli (GPa) = 111.46916 66.11808 43.94799
#
# Poissons Ratio (x) = 0.17401 -0.05247
# Poissons Ratio (y) = 0.29337 0.03488
# Poissons Ratio (z) = -0.13310 0.05248
#
# Static dielectric constant tensor:
#      x y z
#    x 1.985520 0.000000 -0.084780 
#    y 0.000000 2.010720 0.000000 
#    z -0.084780 0.000000 1.933990 
# 
# From -- ./inp_files/71766.got.cif
#   From: 2010.05.17/outbox.cif.g08.bks.cpg/sg5_36_cif.got.tgz:71766.got - 2010.06.03 18:56:24.
