data_PCOD9130057
_publ_section_title
;
Structure prediction by ZEFSAII (Michael W. Deem and Ramdas Pophale) SiO2 
 PCOD9130057
Probable space group: C 2
;
_chemical_formula_sum "Si O2"
_cell_formula_units_Z 28
_cell_length_a 15.421216
_cell_length_b 8.243435
_cell_length_c 9.737633
_cell_angle_alpha 90.000000
_cell_angle_beta 67.231526
_cell_angle_gamma 90.000000
_cell_volume 1141.424184
_symmetry_space_group_name_H-M "C 2"
_symmetry_group_IT_number 5
_symmetry_cell_setting 'monoclinic'
loop_
_space_group_symop_operation_xyz
x,y,z
-x,y,-z
1/2+x,1/2+y,z
1/2-x,1/2+y,-z
loop_
_atom_site_type_symbol
_atom_site_label
_atom_site_fract_x
_atom_site_fract_y
_atom_site_fract_z
Si Si1 0.138789 0.744960 0.850256
Si Si2 0.314186 0.905504 0.605654
Si Si3 0.351449 0.755375 0.046416
Si Si4 0.000000 0.470137 0.000000
Si Si5 0.966989 0.880995 0.334448
Si Si6 0.337098 0.428884 0.887416
Si Si7 0.500000 0.080076 0.500000
Si Si8 0.344528 0.659269 0.354903
O O1 0.245511 0.781749 0.732626
O O2 0.081380 0.577594 0.880156
O O3 0.073842 0.856137 0.793457
O O4 0.137238 0.802445 0.007534
O O5 0.330950 0.820039 0.450343
O O6 0.413736 0.967449 0.603300
O O7 0.251970 0.065219 0.618334
O O8 0.259667 0.866919 0.114978
O O9 0.381414 0.698942 0.180025
O O10 0.328865 0.601248 0.967023
O O11 0.437759 0.860165 0.936828
O O12 0.076117 0.925295 0.268392
O O13 0.958029 0.708926 0.415543
O O14 0.906469 0.037659 0.411078
#
# Coordination Sequence:
#
# PCOD9130057 Si02
#       8
#     4   4   4   2   4   4   2   4
#     4  11  24  46  78 102 147 198 243 308 374 444
#     4  11  25  48  75 106 149 193 255 302 371 444
#     4  12  27  45  73 112 150 196 249 308 370 450
#     4  12  26  44  72 110 144 198 246 292 386 436
#     4  11  24  47  78 101 153 192 252 306 380 436
#     4  12  24  48  71 112 146 193 247 315 366 435
#     4  12  28  48  74 112 148 196 250 320 368 440
#     4  11  25  48  76 105 145 206 244 299 373 454
#
# _framework density 24.530757000000001
#
# number of rings (size 3 to 8) (size 9 to 14) (size 15 to 20)
#    0.000    0.571    4.286    4.286    4.000    0.571 
#    7.714    0.000    0.000    0.000    0.000    0.000 
#    0.000    0.000    0.000    0.000    0.000    0.000 
#
# Total GULP energy -78266.703017 kJ/mol
# GULP energy per Si atom -5590.478787 kJ/mol
# Density = 2.447492 g / cm^3
# Si number density = 24.530757 Si / 1000 Ang^3
#
#
#
# Elastic Constant Matrix: (Units=GPa)
#
#
# Indices 1 2 3 4 5 6 
#
# 1 122.8218 41.6050 35.9988 0.0000 -41.0922 0.0000
# 2 41.6050 102.6634 31.2474 0.0000 -21.2728 0.0000
# 3 35.9988 31.2474 59.2421 0.0000 -12.8105 0.0000
# 4 0.0000 0.0000 0.0000 41.3348 0.0000 -15.1990
# 5 -41.0922 -21.2728 -12.8105 0.0000 52.7462 0.0000
# 6 0.0000 0.0000 0.0000 -15.1990 0.0000 61.2833
#
#
#
# Elastic Compliance Matrix: (Units=1/GPa)
#
#
# Indices 1 2 3 4 5 6 
#
# 1 0.013037 -0.002059 -0.005087 0.000000 0.008091 0.000000
# 2 -0.002059 0.012525 -0.004866 0.000000 0.002266 0.000000
# 3 -0.005087 -0.004866 0.022434 0.000000 -0.000476 0.000000
# 4 0.000000 0.000000 0.000000 0.026620 0.000000 0.006602
# 5 0.008091 0.002266 -0.000476 0.000000 0.026060 0.000000
# 6 0.000000 0.000000 0.000000 0.006602 0.000000 0.017955
#
#
# Mechanical properties :
#
#
# Convention : Reuss Voigt Hill
#
# Bulk Modulus (GPa) = 41.71036 55.82552 48.76794
# Shear Modulus (GPa) = 33.19050 42.79792 37.99421
#
# Velocity S-wave (km/s) = 3.68233 4.18145 3.93980
# Velocity P-wave (km/s) = 5.92618 6.79113 6.37334
#
# Compressibility (1/GPa) = 0.02397486
#
# Stress axis : x y z
#
# Youngs Moduli (GPa) = 76.70431 79.83834 44.57487
#
# Poissons Ratio (x) = 0.16436 0.22674
# Poissons Ratio (y) = 0.15791 0.21688
# Poissons Ratio (z) = 0.39017 0.38846
#
# Static dielectric constant tensor:
#      x y z
#    x 1.933900 0.000000 -0.022900 
#    y 0.000000 1.993550 0.000000 
#    z -0.022900 0.000000 1.959530 
# 
# From -- ./inp_files/41656.got.cif
#   From: 2010.05.17/outbox.cif.g08.bks.cpg/sg5_21_cif.got.tgz:41656.got - 2010.06.03 18:56:24.
