data_PCOD9130955
_publ_section_title
;
Structure prediction by ZEFSAII (Michael W. Deem and Ramdas Pophale) SiO2 
 PCOD9130955
Probable space group: P M
;
_chemical_formula_sum "Si O2"
_cell_formula_units_Z 14
_cell_length_a 7.191774
_cell_length_b 19.768687
_cell_length_c 5.622203
_cell_angle_alpha 90.000000
_cell_angle_beta 43.707334
_cell_angle_gamma 90.000000
_cell_volume 552.309712
_symmetry_space_group_name_H-M "P M"
_symmetry_group_IT_number 6
_symmetry_cell_setting 'monoclinic'
loop_
_space_group_symop_operation_xyz
x,y,z
x,-y,z
loop_
_atom_site_type_symbol
_atom_site_label
_atom_site_fract_x
_atom_site_fract_y
_atom_site_fract_z
Si Si1 0.259550 0.784522 0.107680
Si Si2 0.763826 0.500000 0.179645
Si Si3 0.114609 0.354668 0.276238
Si Si4 0.575218 0.642621 0.494013
Si Si5 0.074249 0.072944 0.485112
Si Si6 0.077262 0.500000 0.400152
Si Si7 0.738050 0.781868 0.333936
Si Si8 0.597370 0.072862 0.261362
O O1 0.170864 0.857742 0.280096
O O2 0.055432 0.777570 0.074239
O O3 0.184419 0.717574 0.329091
O O4 0.566193 0.780734 0.739876
O O5 0.887681 0.500000 0.804211
O O6 0.955247 0.500000 0.241553
O O7 0.607470 0.570388 0.345224
O O8 0.282266 0.352902 0.876139
O O9 0.208584 0.425722 0.298835
O O10 0.800055 0.357830 0.499940
O O11 0.644257 0.712493 0.294876
O O12 0.278010 0.071119 0.520516
O O13 0.121006 0.000000 0.317405
O O14 0.767374 0.074356 0.857052
O O15 0.670247 0.855600 0.302482
O O16 0.673439 0.000000 0.304311
#
# Coordination Sequence:
#
# PCOD9130955 Si02
#       8
#     2   1   2   2   2   1   2   2
#     4  10  20  35  57  83 111 145 191 244 296 356
#     4  10  21  40  64  92 126 166 210 258 312 370
#     4   9  19  37  58  84 119 155 196 250 308 366
#     4   9  19  37  58  84 119 155 196 250 308 366
#     4  10  21  36  53  77 112 151 191 238 295 359
#     4  10  21  40  64  92 126 166 210 258 312 370
#     4  10  20  35  57  83 111 145 191 244 296 356
#     4  10  21  36  53  77 112 151 191 238 295 359
#
# _framework density 25.348099000000001
#
# number of rings (size 3 to 8) (size 9 to 14) (size 15 to 20)
#    0.000    2.286    0.000    2.143    0.000    2.286 
#    0.000   17.143    0.000    0.000    0.000    0.000 
#    0.000    0.000    0.000    0.000    0.000    0.000 
#
# Total GULP energy -78051.739266 kJ/mol
# GULP energy per Si atom -5575.124233 kJ/mol
# Density = 2.529041 g / cm^3
# Si number density = 25.348099 Si / 1000 Ang^3
#
#
#
# Elastic Constant Matrix: (Units=GPa)
#
#
# Indices 1 2 3 4 5 6 
#
# 1 70.7308 8.3443 -0.0426 0.0000 -2.6266 0.0000
# 2 8.3443 327.9213 34.5908 0.0000 11.3945 0.0000
# 3 -0.0426 34.5908 55.7051 0.0000 -10.8360 0.0000
# 4 0.0000 0.0000 0.0000 53.0050 0.0000 3.8594
# 5 -2.6266 11.3945 -10.8360 0.0000 14.4163 0.0000
# 6 0.0000 0.0000 0.0000 3.8594 0.0000 45.2597
#
#
#
# Elastic Compliance Matrix: (Units=1/GPa)
#
#
# Indices 1 2 3 4 5 6 
#
# 1 0.014362 -0.000629 0.001180 0.000000 0.004000 0.000000
# 2 -0.000629 0.003602 -0.003295 0.000000 -0.005438 0.000000
# 3 0.001180 -0.003295 0.024066 0.000000 0.020908 0.000000
# 4 0.000000 0.000000 0.000000 0.018984 0.000000 -0.001619
# 5 0.004000 -0.005438 0.020908 0.000000 0.090109 0.000000
# 6 0.000000 0.000000 0.000000 -0.001619 0.000000 0.022233
#
#
# Mechanical properties :
#
#
# Convention : Reuss Voigt Hill
#
# Bulk Modulus (GPa) = 27.36666 60.01581 43.69124
# Shear Modulus (GPa) = 26.17467 49.96717 38.07092
#
# Velocity S-wave (km/s) = 3.21691 4.44468 3.87967
# Velocity P-wave (km/s) = 4.96163 7.07590 6.11090
#
# Compressibility (1/GPa) = 0.03654081
#
# Stress axis : x y z
#
# Youngs Moduli (GPa) = 69.63029 277.61807 41.55258
#
# Poissons Ratio (x) = 0.17459 -0.04902
# Poissons Ratio (y) = 0.04379 0.13692
# Poissons Ratio (z) = -0.08214 0.91479
#
# Static dielectric constant tensor:
#      x y z
#    x 2.074400 0.000000 0.064690 
#    y 0.000000 2.129780 0.000000 
#    z 0.064690 0.000000 1.947020 
# 
# From -- ./inp_files/1325.got.cif
#   From: 2010.05.17/outbox.cif.g08.bks.cpg/sg6_1_cif.got.tgz:1325.got - 2010.06.03 19:42:10.
