data_PCOD9130397
_publ_section_title
;
Structure prediction by ZEFSAII (Michael W. Deem and Ramdas Pophale) SiO2 
 PCOD9130397
Probable space group: C 2
;
_chemical_formula_sum "Si O2"
_cell_formula_units_Z 20
_cell_length_a 21.927126
_cell_length_b 5.114977
_cell_length_c 13.803417
_cell_angle_alpha 90.000000
_cell_angle_beta 151.087552
_cell_angle_gamma 90.000000
_cell_volume 748.486288
_symmetry_space_group_name_H-M "C 2"
_symmetry_group_IT_number 5
_symmetry_cell_setting 'monoclinic'
loop_
_space_group_symop_operation_xyz
x,y,z
-x,y,-z
1/2+x,1/2+y,z
1/2-x,1/2+y,-z
loop_
_atom_site_type_symbol
_atom_site_label
_atom_site_fract_x
_atom_site_fract_y
_atom_site_fract_z
Si Si1 0.351735 0.853660 0.803153
Si Si2 0.392406 0.052164 0.155900
Si Si3 0.110659 0.814528 0.381849
Si Si4 0.960937 0.047149 0.339668
Si Si5 0.366201 0.365182 0.935453
O O1 0.259666 0.801167 0.584666
O O2 0.311140 0.644587 0.829876
O O3 0.343539 0.155572 0.820946
O O4 0.500000 0.808762 0.000000
O O5 0.536734 0.051481 0.312224
O O6 0.374697 0.759473 0.165331
O O7 0.102448 0.760260 0.749265
O O8 0.323530 0.206916 0.972806
O O9 0.078040 0.993648 0.430473
O O10 0.016757 0.901369 0.166294
O O11 0.000000 0.132931 0.500000
#
# Coordination Sequence:
#
# PCOD9130397 Si02
#       5
#     4   4   4   4   4
#     4  12  23  36  60  85 109 151 193 228 279 334
#     4   8  18  34  54  79 112 149 174 226 285 316
#     4   8  23  36  58  81 115 150 183 224 291 318
#     4   9  16  31  59  87 106 146 192 221 273 338
#     4   9  22  39  54  82 115 148 185 236 273 336
#
# _framework density 26.720597000000001
#
# number of rings (size 3 to 8) (size 9 to 14) (size 15 to 20)
#    2.400    0.000    0.000    3.600    2.800    1.600 
#    0.000    0.000    0.000   14.400    0.000    0.000 
#    0.000    0.000    0.000    0.000    0.000    0.000 
#
# Total GULP energy -55702.854024 kJ/mol
# GULP energy per Si atom -5570.285402 kJ/mol
# Density = 2.665978 g / cm^3
# Si number density = 26.720597 Si / 1000 Ang^3
#
#
#
# Elastic Constant Matrix: (Units=GPa)
#
#
# Indices 1 2 3 4 5 6 
#
# 1 40.9547 18.0849 -0.6180 -0.0001 3.5734 -0.0001
# 2 18.0849 112.8886 -0.6512 0.0014 -13.8626 -0.0003
# 3 -0.6180 -0.6512 145.6722 0.0001 15.6270 0.0000
# 4 -0.0001 0.0014 0.0001 18.8404 0.0001 -30.9069
# 5 3.5734 -13.8626 15.6270 0.0001 39.5204 -0.0002
# 6 -0.0001 -0.0003 0.0000 -30.9069 -0.0002 7.9516
#
#
#
# Elastic Compliance Matrix: (Units=1/GPa)
#
#
# Indices 1 2 3 4 5 6 
#
# 1 0.026947 -0.004849 0.000560 0.000000 -0.004359 0.000000
# 2 -0.004849 0.010144 -0.000422 0.000000 0.004163 0.000000
# 3 0.000560 -0.000422 0.007192 0.000000 -0.003042 0.000000
# 4 0.000000 0.000000 0.000000 -0.009873 0.000000 -0.038373
# 5 -0.004359 0.004163 -0.003042 0.000000 0.028361 0.000000
# 6 0.000000 0.000000 0.000000 -0.038373 0.000000 -0.023392
#
#
# Mechanical properties :
#
#
# Convention : Reuss Voigt Hill
#
# Bulk Modulus (GPa) = 28.68495 37.01632 32.85064
# Shear Modulus (GPa) = 82.75270 32.10913 57.43091
#
# Velocity S-wave (km/s) = 5.57107 3.47026 4.64110
# Velocity P-wave (km/s) = 7.22087 5.47176 6.40629
#
# Compressibility (1/GPa) = 0.03486149
#
# Stress axis : x y z
#
# Youngs Moduli (GPa) = 37.10954 98.58094 139.05150
#
# Poissons Ratio (x) = 0.47802 -0.07790
# Poissons Ratio (y) = 0.17995 0.05866
# Poissons Ratio (z) = -0.02079 0.04159
#
# Static dielectric constant tensor:
#      x y z
#    x 2.231510 0.000000 0.114850 
#    y 0.000000 1.999010 0.000000 
#    z 0.114850 0.000000 2.163210 
# 
# From -- ./inp_files/63659.got.cif
#   From: 2010.05.17/outbox.cif.g08.bks.cpg/sg5_32_cif.got.tgz:63659.got - 2010.06.03 18:56:24.
