data_PCOD9130185
_publ_section_title
;
Structure prediction by ZEFSAII (Michael W. Deem and Ramdas Pophale) SiO2 
 PCOD9130185
Probable space group: C 2
;
_chemical_formula_sum "Si O2"
_cell_formula_units_Z 26
_cell_length_a 26.747370
_cell_length_b 6.219046
_cell_length_c 21.711489
_cell_angle_alpha 90.000000
_cell_angle_beta 160.845858
_cell_angle_gamma 90.000000
_cell_volume 1184.990425
_symmetry_space_group_name_H-M "C 2"
_symmetry_group_IT_number 5
_symmetry_cell_setting 'monoclinic'
loop_
_space_group_symop_operation_xyz
x,y,z
-x,y,-z
1/2+x,1/2+y,z
1/2-x,1/2+y,-z
loop_
_atom_site_type_symbol
_atom_site_label
_atom_site_fract_x
_atom_site_fract_y
_atom_site_fract_z
Si Si1 0.765438 0.700390 0.314586
Si Si2 0.502822 0.876350 0.189673
Si Si3 0.716586 0.683704 0.845044
Si Si4 0.436538 0.477345 0.022360
Si Si5 0.049044 0.361486 0.387531
Si Si6 0.000000 0.942188 0.500000
Si Si7 0.831225 0.593162 0.722518
O O1 0.653425 0.564187 0.141213
O O2 0.868275 0.566176 0.483627
O O3 0.884174 0.802123 0.404963
O O4 0.661772 0.884577 0.225828
O O5 0.552016 0.862503 0.317348
O O6 0.624730 0.020367 0.294797
O O7 0.494136 0.663851 0.136350
O O8 0.337351 0.994085 0.000406
O O9 0.620280 0.804100 0.785906
O O10 0.594303 0.587115 0.656311
O O11 0.815392 0.853280 0.923008
O O12 0.561016 0.301866 0.145003
O O13 0.159540 0.166159 0.533348
#
# Coordination Sequence:
#
# PCOD9130185 Si02
#       7
#     4   4   4   4   4   2   4
#     4  12  26  47  78 108 149 194 252 311 376 438
#     4  11  28  48  73 107 154 194 246 307 376 445
#     4  11  25  47  75 109 145 189 251 308 374 447
#     4  11  26  50  75 107 151 195 244 315 373 444
#     4  12  28  45  77 110 146 196 251 306 373 447
#     4  12  22  50  72 110 144 188 250 318 358 446
#     4  11  28  48  74 108 148 197 248 300 371 458
#
# _framework density 21.941108
#
# number of rings (size 3 to 8) (size 9 to 14) (size 15 to 20)
#    0.000    0.615    3.077    2.769    6.462    4.923 
#    0.000    0.000    0.000    0.000    0.000    0.000 
#    0.000    0.000    0.000    0.000    0.000    0.000 
#
# Total GULP energy -72650.626404 kJ/mol
# GULP energy per Si atom -5588.509723 kJ/mol
# Density = 2.189117 g / cm^3
# Si number density = 21.941108 Si / 1000 Ang^3
#
#
#
# Elastic Constant Matrix: (Units=GPa)
#
#
# Indices 1 2 3 4 5 6 
#
# 1 149.3797 59.2977 37.2808 0.0001 6.0122 0.0001
# 2 59.2977 105.5531 30.2967 0.0005 -13.1797 0.0003
# 3 37.2808 30.2967 46.0854 0.0001 5.0134 0.0001
# 4 0.0001 0.0005 0.0001 31.4593 0.0001 11.4616
# 5 6.0122 -13.1797 5.0134 0.0001 48.1621 0.0000
# 6 0.0001 0.0003 0.0001 11.4616 0.0000 37.8163
#
#
#
# Elastic Compliance Matrix: (Units=1/GPa)
#
#
# Indices 1 2 3 4 5 6 
#
# 1 0.009671 -0.004291 -0.004798 0.000000 -0.001882 0.000000
# 2 -0.004291 0.014414 -0.006566 0.000000 0.005164 0.000000
# 3 -0.004798 -0.006566 0.030371 0.000000 -0.004360 0.000000
# 4 0.000000 0.000000 0.000000 0.035733 0.000000 -0.010830
# 5 -0.001882 0.005164 -0.004360 0.000000 0.022865 0.000000
# 6 0.000000 0.000000 0.000000 -0.010830 0.000000 0.029726
#
#
# Mechanical properties :
#
#
# Convention : Reuss Voigt Hill
#
# Bulk Modulus (GPa) = 43.20424 61.64096 52.42260
# Shear Modulus (GPa) = 27.50207 35.09706 31.29956
#
# Velocity S-wave (km/s) = 3.54425 4.00384 3.78104
# Velocity P-wave (km/s) = 6.04009 7.03769 6.55789
#
# Compressibility (1/GPa) = 0.02314588
#
# Stress axis : x y z
#
# Youngs Moduli (GPa) = 103.40511 69.37771 32.92620
#
# Poissons Ratio (x) = 0.29768 0.15797
# Poissons Ratio (y) = 0.44369 0.21621
# Poissons Ratio (z) = 0.49610 0.45556
#
# Static dielectric constant tensor:
#      x y z
#    x 1.788810 0.000000 0.015460 
#    y 0.000000 1.863100 0.000000 
#    z 0.015460 0.000000 1.808610 
# 
# From -- ./inp_files/69991.got.cif
#   From: 2010.05.17/outbox.cif.g08.bks.cpg/sg5_35_cif.got.tgz:69991.got - 2010.06.03 18:56:24.
