data_PCOD9130114
_publ_section_title
;
Structure prediction by ZEFSAII (Michael W. Deem and Ramdas Pophale) SiO2 
 PCOD9130114
Probable space group: C 2
;
_chemical_formula_sum "Si O2"
_cell_formula_units_Z 28
_cell_length_a 5.881238
_cell_length_b 14.704789
_cell_length_c 16.535150
_cell_angle_alpha 90.000000
_cell_angle_beta 120.734590
_cell_angle_gamma 90.000000
_cell_volume 1229.146789
_symmetry_space_group_name_H-M "C 2"
_symmetry_group_IT_number 5
_symmetry_cell_setting 'monoclinic'
loop_
_space_group_symop_operation_xyz
x,y,z
-x,y,-z
1/2+x,1/2+y,z
1/2-x,1/2+y,-z
loop_
_atom_site_type_symbol
_atom_site_label
_atom_site_fract_x
_atom_site_fract_y
_atom_site_fract_z
Si Si1 0.320222 0.167880 0.550441
Si Si2 0.117851 0.227222 0.878207
Si Si3 0.500000 0.600258 0.000000
Si Si4 0.418583 0.001580 0.682613
Si Si5 0.009453 0.929640 0.183848
Si Si6 0.669419 0.317574 0.704023
Si Si7 0.561856 0.074216 0.137781
Si Si8 0.500000 0.367898 0.000000
O O1 0.500000 0.164263 0.500000
O O2 0.347635 0.068389 0.596954
O O3 0.465678 0.249988 0.624615
O O4 0.000000 0.186192 0.500000
O O5 0.358656 0.171837 0.881970
O O6 0.939058 0.263923 0.773143
O O7 0.974833 0.159702 0.914226
O O8 0.236005 0.306541 0.954315
O O9 0.778171 0.549070 0.049476
O O10 0.425407 0.064885 0.763742
O O11 0.237628 0.912074 0.668671
O O12 0.716908 0.965916 0.730095
O O13 0.929325 0.845463 0.224828
O O14 0.034991 0.910230 0.094496
O O15 0.783017 0.004016 0.150706
#
# Coordination Sequence:
#
# PCOD9130114 Si02
#       8
#     4   4   2   4   4   4   4   2
#     4  12  32  56  91 126 159 207 277 354 431 526
#     4  12  24  44  70 101 153 205 269 318 388 476
#     4  12  22  39  64 105 144 208 272 326 377 464
#     4  11  27  51  78 114 157 208 260 335 423 498
#     4  11  26  48  72 108 160 207 268 326 390 487
#     4  11  27  51  81 111 159 218 255 340 431 488
#     4  11  25  43  70 100 148 211 257 331 391 483
#     4  12  24  43  68 113 152 212 274 312 371 462
#
# _framework density 22.780028000000001
#
# number of rings (size 3 to 8) (size 9 to 14) (size 15 to 20)
#    0.000    0.571    2.857    3.429   10.000    4.000 
#    2.571    0.000    0.000    0.000    0.000    0.000 
#    0.000    0.000    0.000    0.000    0.000    0.000 
#
# Total GULP energy -78281.389914 kJ/mol
# GULP energy per Si atom -5591.527851 kJ/mol
# Density = 2.272818 g / cm^3
# Si number density = 22.780028 Si / 1000 Ang^3
#
#
#
# Elastic Constant Matrix: (Units=GPa)
#
#
# Indices 1 2 3 4 5 6 
#
# 1 117.3258 42.7807 54.1894 0.0000 12.7374 0.0000
# 2 42.7807 90.4441 60.7564 0.0000 7.0975 0.0000
# 3 54.1894 60.7564 109.9467 0.0000 18.7892 0.0000
# 4 0.0000 0.0000 0.0000 49.2005 0.0000 6.7166
# 5 12.7374 7.0975 18.7892 0.0000 46.0762 0.0000
# 6 0.0000 0.0000 0.0000 6.7166 0.0000 31.8101
#
#
#
# Elastic Compliance Matrix: (Units=1/GPa)
#
#
# Indices 1 2 3 4 5 6 
#
# 1 0.011454 -0.002651 -0.003987 0.000000 -0.001132 0.000000
# 2 -0.002651 0.018276 -0.009069 0.000000 0.001616 0.000000
# 3 -0.003987 -0.009069 0.016817 0.000000 -0.004358 0.000000
# 4 0.000000 0.000000 0.000000 0.020928 0.000000 -0.004419
# 5 -0.001132 0.001616 -0.004358 0.000000 0.023545 0.000000
# 6 0.000000 0.000000 0.000000 -0.004419 0.000000 0.032370
#
#
# Mechanical properties :
#
#
# Convention : Reuss Voigt Hill
#
# Bulk Modulus (GPa) = 66.07952 70.35218 68.21585
# Shear Modulus (GPa) = 31.27999 36.08337 33.68168
#
# Velocity S-wave (km/s) = 3.70960 3.98426 3.84938
# Velocity P-wave (km/s) = 6.88613 7.21914 7.05460
#
# Compressibility (1/GPa) = 0.01513328
#
# Stress axis : x y z
#
# Youngs Moduli (GPa) = 87.30347 54.71800 59.46472
#
# Poissons Ratio (x) = 0.14504 0.23710
# Poissons Ratio (y) = 0.23141 0.53927
# Poissons Ratio (z) = 0.34810 0.49622
#
# Static dielectric constant tensor:
#      x y z
#    x 1.903210 0.000000 0.000790 
#    y 0.000000 1.969050 0.000000 
#    z 0.000790 0.000000 1.790580 
# 
# From -- ./inp_files/58835.got.cif
#   From: 2010.05.17/outbox.cif.g08.bks.cpg/sg5_30_cif.got.tgz:58835.got - 2010.06.03 18:56:24.
