data_PCOD9130767
_publ_section_title
;
Structure prediction by ZEFSAII (Michael W. Deem and Ramdas Pophale) SiO2 
 PCOD9130767
Probable space group: P M
;
_chemical_formula_sum "Si O2"
_cell_formula_units_Z 12
_cell_length_a 8.432355
_cell_length_b 8.420094
_cell_length_c 8.229275
_cell_angle_alpha 90.000000
_cell_angle_beta 71.206734
_cell_angle_gamma 90.000000
_cell_volume 553.138478
_symmetry_space_group_name_H-M "P M"
_symmetry_group_IT_number 6
_symmetry_cell_setting 'monoclinic'
loop_
_space_group_symop_operation_xyz
x,y,z
x,-y,z
loop_
_atom_site_type_symbol
_atom_site_label
_atom_site_fract_x
_atom_site_fract_y
_atom_site_fract_z
Si Si1 0.304530 0.333712 0.666620
Si Si2 0.657017 0.000000 0.436615
Si Si3 0.165310 0.000000 0.094672
Si Si4 0.708952 0.323158 0.552349
Si Si5 0.297017 0.000000 0.677548
Si Si6 0.790046 0.184094 0.870240
Si Si7 0.049810 0.676993 0.039024
Si Si8 0.518279 0.000000 0.121407
O O1 0.255327 0.500000 0.600529
O O2 0.505042 0.331571 0.616817
O O3 0.217008 0.333503 0.871482
O O4 0.249362 0.165717 0.609381
O O5 0.748778 0.166842 0.433249
O O6 0.575412 0.000000 0.287196
O O7 0.500581 0.000000 0.615824
O O8 0.227882 0.000000 0.883941
O O9 0.071178 0.832581 0.142374
O O10 0.324088 0.000000 0.157501
O O11 0.766200 0.500000 0.485556
O O12 0.773925 0.278462 0.709478
O O13 0.606309 0.150444 0.005340
O O14 0.854720 0.000000 0.826654
O O15 0.903155 0.276962 0.960865
O O16 0.024381 0.500000 0.115954
#
# Coordination Sequence:
#
# PCOD9130767 Si02
#       8
#     2   1   1   2   1   2   2   1
#     4   8  15  25  44  73  96 122 159 204 256 298
#     4  10  18  34  50  76 108 140 180 212 263 318
#     4  10  17  34  53  78 105 130 178 224 268 314
#     4  10  18  33  57  80 106 135 173 224 269 314
#     4   8  14  25  49  67  95 125 157 210 251 296
#     4  10  19  33  51  81 106 139 175 213 269 310
#     4  10  18  30  52  78 106 136 171 220 269 314
#     4  10  21  33  56  75 112 147 177 220 264 316
#
# _framework density 21.694385
#
# number of rings (size 3 to 8) (size 9 to 14) (size 15 to 20)
#    0.500    2.000    1.667    3.500    0.000    0.000 
#    0.000    3.333    0.000   12.000    0.000    7.000 
#    0.000    0.000    0.000    0.000    0.000    0.000 
#
# Total GULP energy -66822.768262 kJ/mol
# GULP energy per Si atom -5568.564022 kJ/mol
# Density = 2.164501 g / cm^3
# Si number density = 21.694385 Si / 1000 Ang^3
#
#
#
# Elastic Constant Matrix: (Units=GPa)
#
#
# Indices 1 2 3 4 5 6 
#
# 1 60.9678 34.7841 37.3414 0.0000 0.0788 0.0000
# 2 34.7841 283.0887 36.0535 0.0000 17.7987 0.0000
# 3 37.3414 36.0535 50.7351 0.0000 12.4622 0.0000
# 4 0.0000 0.0000 0.0000 -18.5746 0.0000 20.8562
# 5 0.0788 17.7987 12.4622 0.0000 37.2976 0.0000
# 6 0.0000 0.0000 0.0000 20.8562 0.0000 15.4472
#
#
#
# Elastic Compliance Matrix: (Units=1/GPa)
#
#
# Indices 1 2 3 4 5 6 
#
# 1 0.032651 -0.001360 -0.025283 0.000000 0.009028 0.000000
# 2 -0.001360 0.003976 -0.001481 0.000000 -0.001400 0.000000
# 3 -0.025283 -0.001481 0.042688 0.000000 -0.013503 0.000000
# 4 0.000000 0.000000 0.000000 -0.021398 0.000000 0.028890
# 5 0.009028 -0.001400 -0.013503 0.000000 0.031972 0.000000
# 6 0.000000 0.000000 0.000000 0.028890 0.000000 0.025730
#
#
# Mechanical properties :
#
#
# Convention : Reuss Voigt Hill
#
# Bulk Modulus (GPa) = 43.34964 67.90549 55.62756
# Shear Modulus (GPa) = 27.84647 25.94156 26.89401
#
# Velocity S-wave (km/s) = 3.58659 3.46175 3.52472
# Velocity P-wave (km/s) = 6.09729 6.88093 6.50092
#
# Compressibility (1/GPa) = 0.02306824
#
# Stress axis : x y z
#
# Youngs Moduli (GPa) = 30.62663 251.49971 23.42586
#
# Poissons Ratio (x) = 0.34194 0.59227
# Poissons Ratio (y) = 0.04164 0.03469
# Poissons Ratio (z) = 0.77433 0.37248
#
# Static dielectric constant tensor:
#      x y z
#    x 1.793420 0.000000 -0.055420 
#    y 0.000000 1.895920 0.000000 
#    z -0.055420 0.000000 1.737390 
# 
# From -- ./inp_files/2553.got.cif
#   From: 2010.05.17/outbox.cif.g08.bks.cpg/sg6_2_cif.got.tgz:2553.got - 2010.06.03 19:42:10.
