data_PCOD9130616
_publ_section_title
;
Structure prediction by ZEFSAII (Michael W. Deem and Ramdas Pophale) SiO2 
 PCOD9130616
Probable space group: C 2
;
_chemical_formula_sum "Si O2"
_cell_formula_units_Z 14
_cell_length_a 10.275573
_cell_length_b 10.878558
_cell_length_c 10.411275
_cell_angle_alpha 90.000000
_cell_angle_beta 152.926258
_cell_angle_gamma 90.000000
_cell_volume 529.691899
_symmetry_space_group_name_H-M "C 2"
_symmetry_group_IT_number 5
_symmetry_cell_setting 'monoclinic'
loop_
_space_group_symop_operation_xyz
x,y,z
-x,y,-z
1/2+x,1/2+y,z
1/2-x,1/2+y,-z
loop_
_atom_site_type_symbol
_atom_site_label
_atom_site_fract_x
_atom_site_fract_y
_atom_site_fract_z
Si Si1 0.212453 0.705600 0.458474
Si Si2 0.500000 0.026753 0.500000
Si Si3 0.826233 0.027828 0.244486
Si Si4 0.226848 0.366302 0.915616
O O1 0.123702 0.617014 0.498098
O O2 0.439371 0.634513 0.569194
O O3 0.409879 0.819473 0.672972
O O4 0.946990 0.756406 0.142186
O O5 0.702030 0.931650 0.755615
O O6 0.000000 0.944448 0.500000
O O7 0.500000 0.048513 0.000000
O O8 0.807177 0.968662 0.088516
#
# Coordination Sequence:
#
# PCOD9130616 Si02
#       4
#     4   2   4   4
#     4  12  29  53  88 127 166 231 278 355 447 487
#     4  12  30  60  86 132 180 210 310 360 400 554
#     4  12  27  53  81 125 171 210 289 353 416 530
#     4  12  29  53  87 125 166 234 274 354 446 489
#
# _framework density 26.430458000000002
#
# number of rings (size 3 to 8) (size 9 to 14) (size 15 to 20)
#    0.000    0.000    0.000    8.571    8.000    9.143 
#   10.286    0.000    0.000    0.000    0.000    0.000 
#    0.000    0.000    0.000    0.000    0.000    0.000 
#
# Total GULP energy -39187.583939 kJ/mol
# GULP energy per Si atom -5598.226277 kJ/mol
# Density = 2.637030 g / cm^3
# Si number density = 26.430458 Si / 1000 Ang^3
#
#
#
# Elastic Constant Matrix: (Units=GPa)
#
#
# Indices 1 2 3 4 5 6 
#
# 1 192.6918 76.8368 106.4267 0.0033 -10.6692 0.0000
# 2 76.8368 111.5633 74.1348 0.0014 -2.0823 0.0003
# 3 106.4267 74.1348 275.0320 0.0112 -12.9379 0.0037
# 4 0.0033 0.0014 0.0112 62.8326 0.0052 -4.4043
# 5 -10.6692 -2.0823 -12.9379 0.0052 58.5241 0.0006
# 6 0.0000 0.0003 0.0037 -4.4043 0.0006 36.9819
#
#
#
# Elastic Compliance Matrix: (Units=1/GPa)
#
#
# Indices 1 2 3 4 5 6 
#
# 1 0.007969 -0.004203 -0.001909 0.000000 0.000881 0.000000
# 2 -0.004203 0.013141 -0.001950 0.000000 -0.000730 0.000000
# 3 -0.001909 -0.001950 0.004932 -0.000001 0.000673 -0.000001
# 4 0.000000 0.000000 -0.000001 0.016049 -0.000002 0.001911
# 5 0.000881 -0.000730 0.000673 -0.000002 0.017370 -0.000001
# 6 0.000000 0.000000 -0.000001 0.001911 -0.000001 0.027268
#
#
# Mechanical properties :
#
#
# Convention : Reuss Voigt Hill
#
# Bulk Modulus (GPa) = 100.83988 121.56486 111.20237
# Shear Modulus (GPa) = 47.09894 53.12698 50.11296
#
# Velocity S-wave (km/s) = 4.22595 4.48824 4.35907
# Velocity P-wave (km/s) = 7.87701 8.54126 8.21585
#
# Compressibility (1/GPa) = 0.00991671
#
# Stress axis : x y z
#
# Youngs Moduli (GPa) = 125.48572 76.10039 202.75859
#
# Poissons Ratio (x) = 0.31988 0.38712
# Poissons Ratio (y) = 0.52746 0.39534
# Poissons Ratio (z) = 0.23958 0.14838
#
# Static dielectric constant tensor:
#      x y z
#    x 2.229100 0.000000 -0.164700 
#    y 0.000000 2.515850 0.000000 
#    z -0.164700 0.000000 2.153740 
# 
# From -- ./inp_files/39008.got.cif
#   From: 2010.05.17/outbox.cif.g08.bks.cpg/sg5_20_cif.got.tgz:39008.got - 2010.06.03 18:56:24.
