data_PCOD9130864
_publ_section_title
;
Structure prediction by ZEFSAII (Michael W. Deem and Ramdas Pophale) SiO2 
 PCOD9130864
Probable space group: P M
;
_chemical_formula_sum "Si O2"
_cell_formula_units_Z 16
_cell_length_a 12.481900
_cell_length_b 8.713186
_cell_length_c 10.497669
_cell_angle_alpha 90.000000
_cell_angle_beta 127.659191
_cell_angle_gamma 90.000000
_cell_volume 903.833957
_symmetry_space_group_name_H-M "P M"
_symmetry_group_IT_number 6
_symmetry_cell_setting 'monoclinic'
loop_
_space_group_symop_operation_xyz
x,y,z
x,-y,z
loop_
_atom_site_type_symbol
_atom_site_label
_atom_site_fract_x
_atom_site_fract_y
_atom_site_fract_z
Si Si1 0.714090 0.315649 0.982230
Si Si2 0.002930 0.684600 0.084490
Si Si3 0.159739 0.683488 0.457424
Si Si4 0.411296 0.317300 0.031573
Si Si5 0.985081 0.184418 0.562290
Si Si6 0.696930 0.183707 0.253320
Si Si7 0.427450 0.183036 0.758523
Si Si8 0.139097 0.816630 0.932972
O O1 0.707139 0.500000 0.989389
O O2 0.572709 0.252295 0.826413
O O3 0.728196 0.244352 0.133631
O O4 0.846283 0.275278 0.997017
O O5 0.010679 0.500000 0.075267
O O6 0.087221 0.725699 0.272643
O O7 0.064827 0.763839 0.006392
O O8 0.174237 0.500000 0.472400
O O9 0.305377 0.760519 0.582059
O O10 0.066345 0.736746 0.506960
O O11 0.411686 0.500000 0.019149
O O12 0.555442 0.260009 0.189197
O O13 0.398541 0.243763 0.881040
O O14 0.284983 0.261467 0.022228
O O15 0.826420 0.221624 0.433630
O O16 0.050145 0.227025 0.744395
O O17 0.998904 0.000000 0.556930
O O18 0.680161 0.000000 0.236652
O O19 0.434022 0.000000 0.766556
O O20 0.155883 0.000000 0.944035
#
# Coordination Sequence:
#
# PCOD9130864 Si02
#       8
#     2   2   2   2   2   2   2   2
#     4  10  19  35  56  82 114 149 189 234 285 339
#     4  10  23  40  58  84 117 151 192 235 284 346
#     4  11  21  36  59  86 114 149 191 239 286 336
#     4  11  21  35  56  83 115 152 191 234 286 339
#     4  10  21  36  57  86 116 146 189 239 284 338
#     4  10  19  33  56  85 115 146 185 238 289 335
#     4  11  21  34  55  86 117 147 189 238 286 337
#     4  11  23  39  59  84 116 154 192 235 286 344
#
# _framework density 17.702366999999999
#
# number of rings (size 3 to 8) (size 9 to 14) (size 15 to 20)
#    0.000    1.500    2.500    5.250    0.000    3.000 
#    0.000    1.250    0.000    3.000    0.000    0.000 
#    0.000    0.000    0.000    0.000    0.000    0.000 
#
# Total GULP energy -89386.475211 kJ/mol
# GULP energy per Si atom -5586.654701 kJ/mol
# Density = 1.766208 g / cm^3
# Si number density = 17.702367 Si / 1000 Ang^3
#
#
#
# Elastic Constant Matrix: (Units=GPa)
#
#
# Indices 1 2 3 4 5 6 
#
# 1 149.2561 56.5920 71.5328 0.0000 18.5975 0.0000
# 2 56.5920 75.9160 45.1532 0.0000 8.3160 0.0000
# 3 71.5328 45.1532 95.4585 0.0000 11.8053 0.0000
# 4 0.0000 0.0000 0.0000 23.0304 0.0000 1.6620
# 5 18.5975 8.3160 11.8053 0.0000 31.2016 0.0000
# 6 0.0000 0.0000 0.0000 1.6620 0.0000 38.9438
#
#
#
# Elastic Compliance Matrix: (Units=1/GPa)
#
#
# Indices 1 2 3 4 5 6 
#
# 1 0.011954 -0.004812 -0.006252 0.000000 -0.003477 0.000000
# 2 -0.004812 0.020351 -0.005984 0.000000 -0.000292 0.000000
# 3 -0.006252 -0.005984 0.018184 0.000000 -0.001559 0.000000
# 4 0.000000 0.000000 0.000000 0.043555 0.000000 -0.001859
# 5 -0.003477 -0.000292 -0.001559 0.000000 0.034790 0.000000
# 6 0.000000 0.000000 0.000000 -0.001859 0.000000 0.025757
#
#
# Mechanical properties :
#
#
# Convention : Reuss Voigt Hill
#
# Bulk Modulus (GPa) = 61.00190 74.13184 67.56687
# Shear Modulus (GPa) = 25.75326 28.45867 27.10596
#
# Velocity S-wave (km/s) = 3.81831 4.01386 3.91731
# Velocity P-wave (km/s) = 7.34669 7.96550 7.66234
#
# Compressibility (1/GPa) = 0.01639293
#
# Stress axis : x y z
#
# Youngs Moduli (GPa) = 83.65577 49.13830 54.99365
#
# Poissons Ratio (x) = 0.23644 0.34380
# Poissons Ratio (y) = 0.40253 0.32910
# Poissons Ratio (z) = 0.52298 0.29406
#
# Static dielectric constant tensor:
#      x y z
#    x 1.590670 0.000000 0.027500 
#    y 0.000000 1.592660 0.000000 
#    z 0.027500 0.000000 1.593540 
# 
# From -- ./inp_files/3795.got.cif
#   From: 2010.05.17/outbox.cif.g08.bks.cpg/sg6_2_cif.got.tgz:3795.got - 2010.06.03 19:42:10.
