data_PCOD9130863
_publ_section_title
;
Structure prediction by ZEFSAII (Michael W. Deem and Ramdas Pophale) SiO2 
 PCOD9130863
Probable space group: P M
;
_chemical_formula_sum "Si O2"
_cell_formula_units_Z 16
_cell_length_a 12.518662
_cell_length_b 8.797277
_cell_length_c 10.307800
_cell_angle_alpha 90.000000
_cell_angle_beta 126.119592
_cell_angle_gamma 90.000000
_cell_volume 917.000890
_symmetry_space_group_name_H-M "P M"
_symmetry_group_IT_number 6
_symmetry_cell_setting 'monoclinic'
loop_
_space_group_symop_operation_xyz
x,y,z
x,-y,z
loop_
_atom_site_type_symbol
_atom_site_label
_atom_site_fract_x
_atom_site_fract_y
_atom_site_fract_z
Si Si1 0.760640 0.818166 0.459150
Si Si2 0.684522 0.317129 0.668578
Si Si3 0.712895 0.183286 0.132653
Si Si4 0.506528 0.317722 0.782140
Si Si5 0.982234 0.682036 0.964710
Si Si6 0.219118 0.182641 0.626025
Si Si7 0.047957 0.317544 0.725678
Si Si8 0.008483 0.182637 0.257486
O O1 0.678586 0.759594 0.523798
O O2 0.699949 0.779772 0.275762
O O3 0.906132 0.744143 0.575006
O O4 0.776003 0.000000 0.476264
O O5 0.684444 0.500000 0.652077
O O6 0.572473 0.274497 0.691261
O O7 0.827877 0.275597 0.831960
O O8 0.860882 0.229987 0.195002
O O9 0.702719 0.000000 0.111150
O O10 0.605666 0.261787 0.965210
O O11 0.496997 0.500000 0.779107
O O12 0.363972 0.244487 0.699930
O O13 0.987290 0.500000 0.982123
O O14 0.055349 0.723664 0.883347
O O15 0.034470 0.756883 0.132370
O O16 0.161535 0.246951 0.719012
O O17 0.116603 0.232289 0.439959
O O18 0.220114 0.000000 0.631515
O O19 0.048173 0.500000 0.716100
O O20 0.009374 0.000000 0.256566
#
# Coordination Sequence:
#
# PCOD9130863 Si02
#       8
#     2   2   2   2   2   2   2   2
#     4  10  19  33  56  85 114 144 186 234 280 328
#     4   9  19  35  53  80 115 146 183 229 280 335
#     4  10  20  36  56  84 115 145 188 235 277 329
#     4  11  23  39  58  83 114 151 190 229 282 339
#     4   9  18  33  54  83 113 141 181 231 277 326
#     4  11  23  40  58  82 115 150 189 232 279 337
#     4  10  20  35  55  82 115 149 186 228 280 334
#     4  10  20  35  56  83 113 144 187 232 275 328
#
# _framework density 17.448183
#
# number of rings (size 3 to 8) (size 9 to 14) (size 15 to 20)
#    0.000    2.000    2.500    2.250    0.000    5.500 
#    0.000    1.250    0.000    3.000    0.000    0.000 
#    0.000    0.000    0.000    0.000    0.000    0.000 
#
# Total GULP energy -89309.439716 kJ/mol
# GULP energy per Si atom -5581.839982 kJ/mol
# Density = 1.740847 g / cm^3
# Si number density = 17.448183 Si / 1000 Ang^3
#
#
#
# Elastic Constant Matrix: (Units=GPa)
#
#
# Indices 1 2 3 4 5 6 
#
# 1 157.2082 48.6090 82.7975 0.0000 -16.8401 0.0000
# 2 48.6090 39.6267 39.1941 0.0000 -7.7157 0.0000
# 3 82.7975 39.1941 115.0122 0.0000 -16.2376 0.0000
# 4 0.0000 0.0000 0.0000 44.5717 0.0000 2.4030
# 5 -16.8401 -7.7157 -16.2376 0.0000 30.7620 0.0000
# 6 0.0000 0.0000 0.0000 2.4030 0.0000 31.5488
#
#
#
# Elastic Compliance Matrix: (Units=1/GPa)
#
#
# Indices 1 2 3 4 5 6 
#
# 1 0.012293 -0.009418 -0.005428 0.000000 0.001502 0.000000
# 2 -0.009418 0.045526 -0.008482 0.000000 0.001786 0.000000
# 3 -0.005428 -0.008482 0.015963 0.000000 0.003327 0.000000
# 4 0.000000 0.000000 0.000000 0.022528 0.000000 -0.001716
# 5 0.001502 0.001786 0.003327 0.000000 0.035534 0.000000
# 6 0.000000 0.000000 0.000000 -0.001716 0.000000 0.031828
#
#
# Mechanical properties :
#
#
# Convention : Reuss Voigt Hill
#
# Bulk Modulus (GPa) = 36.86684 72.56093 54.71388
# Shear Modulus (GPa) = 22.79269 30.79294 26.79281
#
# Velocity S-wave (km/s) = 3.61821 4.20554 3.92288
# Velocity P-wave (km/s) = 6.21534 8.07829 7.20726
#
# Compressibility (1/GPa) = 0.02712465
#
# Stress axis : x y z
#
# Youngs Moduli (GPa) = 81.34881 21.96567 62.64628
#
# Poissons Ratio (x) = 0.20687 0.34005
# Poissons Ratio (y) = 0.76614 0.53138
# Poissons Ratio (z) = 0.44156 0.18632
#
# Static dielectric constant tensor:
#      x y z
#    x 1.584120 0.000000 -0.017920 
#    y 0.000000 1.584620 0.000000 
#    z -0.017920 0.000000 1.576970 
# 
# From -- ./inp_files/3510.got.cif
#   From: 2010.05.17/outbox.cif.g08.bks.cpg/sg6_2_cif.got.tgz:3510.got - 2010.06.03 19:42:10.
