data_PCOD9130830
_publ_section_title
;
Structure prediction by ZEFSAII (Michael W. Deem and Ramdas Pophale) SiO2 
 PCOD9130830
Probable space group: P M
;
_chemical_formula_sum "Si O2"
_cell_formula_units_Z 16
_cell_length_a 10.360216
_cell_length_b 7.477428
_cell_length_c 7.986067
_cell_angle_alpha 90.000000
_cell_angle_beta 71.148052
_cell_angle_gamma 90.000000
_cell_volume 585.475672
_symmetry_space_group_name_H-M "P M"
_symmetry_group_IT_number 6
_symmetry_cell_setting 'monoclinic'
loop_
_space_group_symop_operation_xyz
x,y,z
x,-y,z
loop_
_atom_site_type_symbol
_atom_site_label
_atom_site_fract_x
_atom_site_fract_y
_atom_site_fract_z
Si Si1 0.036870 0.213864 0.442700
Si Si2 0.465122 0.205844 0.776492
Si Si3 0.204519 0.220912 0.049537
Si Si4 0.291592 0.703634 0.535603
Si Si5 0.543715 0.215457 0.237941
Si Si6 0.782275 0.210427 0.358633
Si Si7 0.962745 0.790231 0.938417
Si Si8 0.718450 0.783246 0.834630
O O1 0.129587 0.278563 0.248749
O O2 0.136523 0.245241 0.557686
O O3 0.883937 0.279988 0.461606
O O4 0.023598 0.000000 0.437093
O O5 0.379994 0.200535 0.641099
O O6 0.619664 0.276709 0.724195
O O7 0.482796 0.000000 0.820367
O O8 0.356253 0.285500 0.951594
O O9 0.205391 0.000000 0.051635
O O10 0.108130 0.281201 0.936127
O O11 0.293061 0.500000 0.584036
O O12 0.389155 0.728193 0.332654
O O13 0.639817 0.285582 0.349268
O O14 0.544695 0.000000 0.243672
O O15 0.619935 0.259872 0.034194
O O16 0.756003 0.000000 0.407709
O O17 0.874116 0.215743 0.148889
O O18 0.866371 0.713862 0.832660
O O19 0.983736 0.000000 0.892929
O O20 0.740079 0.000000 0.815968
#
# Coordination Sequence:
#
# PCOD9130830 Si02
#       8
#     2   2   2   2   2   2   2   2
#     4   9  16  32  57  81 100 122 155 201 249 296
#     4  10  19  32  48  68  94 128 165 202 240 282
#     4   8  14  26  50  78  98 116 148 194 246 294
#     4  12  25  36  44  64 100 142 177 204 236 280
#     4   9  16  32  57  81 100 122 155 201 249 296
#     4   7  12  24  50  83 104 116 144 193 250 299
#     4   7  10  20  41  75 106 116 130 183 250 299
#     4   8  14  26  50  78  98 116 148 194 246 294
#
# _framework density 27.328206999999999
#
# number of rings (size 3 to 8) (size 9 to 14) (size 15 to 20)
#    0.000    3.250    0.000    4.875    0.000    2.000 
#    0.000    4.375    0.000    4.500    0.000    1.750 
#    0.000    0.000    0.000    0.000    0.000    0.000 
#
# Total GULP energy -89363.976341 kJ/mol
# GULP energy per Si atom -5585.248521 kJ/mol
# Density = 2.726601 g / cm^3
# Si number density = 27.328207 Si / 1000 Ang^3
#
#
#
# Elastic Constant Matrix: (Units=GPa)
#
#
# Indices 1 2 3 4 5 6 
#
# 1 271.1351 6.7310 32.4797 0.0000 28.4400 0.0000
# 2 6.7310 77.6101 -11.4581 0.0000 2.3601 0.0000
# 3 32.4797 -11.4581 102.6409 0.0000 28.1693 0.0000
# 4 0.0000 0.0000 0.0000 53.8549 0.0000 -32.8704
# 5 28.4400 2.3601 28.1693 0.0000 62.3148 0.0000
# 6 0.0000 0.0000 0.0000 -32.8704 0.0000 -54.5604
#
#
#
# Elastic Compliance Matrix: (Units=1/GPa)
#
#
# Indices 1 2 3 4 5 6 
#
# 1 0.003953 -0.000438 -0.000924 0.000000 -0.001370 0.000000
# 2 -0.000438 0.013245 0.001941 0.000000 -0.001179 0.000000
# 3 -0.000924 0.001941 0.011595 0.000000 -0.004893 0.000000
# 4 0.000000 0.000000 0.000000 0.013576 0.000000 -0.008179
# 5 -0.001370 -0.001179 -0.004893 0.000000 0.018929 0.000000
# 6 0.000000 0.000000 0.000000 -0.008179 0.000000 -0.013401
#
#
# Mechanical properties :
#
#
# Convention : Reuss Voigt Hill
#
# Bulk Modulus (GPa) = 33.38694 56.32125 44.85410
# Shear Modulus (GPa) = 88.14650 40.56411 64.35531
#
# Velocity S-wave (km/s) = 5.68549 3.85688 4.85800
# Velocity P-wave (km/s) = 7.43931 6.36302 6.92211
#
# Compressibility (1/GPa) = 0.02995183
#
# Stress axis : x y z
#
# Youngs Moduli (GPa) = 252.94384 75.49875 86.24697
#
# Poissons Ratio (x) = 0.03304 0.07968
# Poissons Ratio (y) = 0.11069 -0.16738
# Poissons Ratio (z) = 0.23368 -0.14652
#
# Static dielectric constant tensor:
#      x y z
#    x 2.140170 0.000000 0.029620 
#    y 0.000000 1.998070 0.000000 
#    z 0.029620 0.000000 2.289890 
# 
# From -- ./inp_files/3577.got.cif
#   From: 2010.05.17/outbox.cif.g08.bks.cpg/sg6_2_cif.got.tgz:3577.got - 2010.06.03 19:42:10.
