data_PCOD9130941
_publ_section_title
;
Structure prediction by ZEFSAII (Michael W. Deem and Ramdas Pophale) SiO2 
 PCOD9130941
Probable space group: P M
;
_chemical_formula_sum "Si O2"
_cell_formula_units_Z 16
_cell_length_a 10.400261
_cell_length_b 8.639449
_cell_length_c 12.424901
_cell_angle_alpha 90.000000
_cell_angle_beta 127.600360
_cell_angle_gamma 90.000000
_cell_volume 884.514788
_symmetry_space_group_name_H-M "P M"
_symmetry_group_IT_number 6
_symmetry_cell_setting 'monoclinic'
loop_
_space_group_symop_operation_xyz
x,y,z
x,-y,z
loop_
_atom_site_type_symbol
_atom_site_label
_atom_site_fract_x
_atom_site_fract_y
_atom_site_fract_z
Si Si1 0.048020 0.184951 0.500000
Si Si2 0.923034 0.316257 0.219734
Si Si3 0.770363 0.314698 0.514236
Si Si4 0.991237 0.814610 0.801443
Si Si5 0.438303 0.685025 0.231248
Si Si6 0.273198 0.684760 0.792735
Si Si7 0.083705 0.184305 0.089929
Si Si8 0.563523 0.184689 0.067720
O O1 0.199429 0.252158 0.643846
O O2 0.032387 0.249501 0.372226
O O3 0.888793 0.241770 0.484502
O O4 0.052270 0.000000 0.502626
O O5 0.908903 0.500000 0.224551
O O6 0.745834 0.240825 0.141370
O O7 0.999135 0.271595 0.144534
O O8 0.793667 0.500000 0.524586
O O9 0.832953 0.247339 0.659031
O O10 0.585474 0.280908 0.388497
O O11 0.143450 0.738226 0.817294
O O12 0.003176 0.000000 0.794088
O O13 0.002550 0.778304 0.933086
O O14 0.413911 0.500000 0.215524
O O15 0.271521 0.767222 0.176744
O O16 0.497134 0.741984 0.144478
O O17 0.282071 0.500000 0.795735
O O18 0.444262 0.757440 0.912889
O O19 0.070986 0.000000 0.100139
O O20 0.557676 0.000000 0.073183
#
# Coordination Sequence:
#
# PCOD9130941 Si02
#       8
#     2   2   2   2   2   2   2   2
#     4  11  21  36  59  87 121 157 198 244 301 358
#     4  12  25  42  62  87 121 160 203 249 305 364
#     4  10  20  34  57  88 121 153 197 246 295 349
#     4  10  20  35  57  86 120 155 198 243 296 354
#     4  11  22  37  60  90 121 156 201 249 298 352
#     4  11  21  35  59  89 122 155 197 248 300 351
#     4  11  24  41  61  87 121 160 202 247 302 362
#     4  12  23  38  61  90 121 156 202 252 301 354
#
# _framework density 18.089015
#
# number of rings (size 3 to 8) (size 9 to 14) (size 15 to 20)
#    0.000    1.000    2.500    7.500    0.000    3.000 
#    0.000    1.250    0.000    3.000    0.000    0.000 
#    0.000    0.000    0.000    0.000    0.000    0.000 
#
# Total GULP energy -89466.718422 kJ/mol
# GULP energy per Si atom -5591.669901 kJ/mol
# Density = 1.804784 g / cm^3
# Si number density = 18.089015 Si / 1000 Ang^3
#
#
#
# Elastic Constant Matrix: (Units=GPa)
#
#
# Indices 1 2 3 4 5 6 
#
# 1 40.7178 -7.3244 24.1990 0.0000 -2.3697 0.0000
# 2 -7.3244 76.7711 35.3794 0.0000 -3.9969 0.0000
# 3 24.1990 35.3794 135.2294 0.0000 -1.8852 0.0000
# 4 0.0000 0.0000 0.0000 33.6406 0.0000 0.1378
# 5 -2.3697 -3.9969 -1.8852 0.0000 23.0981 0.0000
# 6 0.0000 0.0000 0.0000 0.1378 0.0000 31.6164
#
#
#
# Elastic Compliance Matrix: (Units=1/GPa)
#
#
# Indices 1 2 3 4 5 6 
#
# 1 0.030032 0.006261 -0.006962 0.000000 0.003596 0.000000
# 2 0.006261 0.016234 -0.005326 0.000000 0.003017 0.000000
# 3 -0.006962 -0.005326 0.010023 0.000000 -0.000818 0.000000
# 4 0.000000 0.000000 0.000000 0.029726 0.000000 -0.000130
# 5 0.003596 0.003017 -0.000818 0.000000 0.044118 0.000000
# 6 0.000000 0.000000 0.000000 -0.000130 0.000000 0.031630
#
#
# Mechanical properties :
#
#
# Convention : Reuss Voigt Hill
#
# Bulk Modulus (GPa) = 22.60611 39.69181 31.14896
# Shear Modulus (GPa) = 26.51641 31.03532 28.77587
#
# Velocity S-wave (km/s) = 3.83284 4.14659 3.99280
# Velocity P-wave (km/s) = 5.66673 6.70192 6.20595
#
# Compressibility (1/GPa) = 0.04423583
#
# Stress axis : x y z
#
# Youngs Moduli (GPa) = 33.29728 61.59753 99.77430
#
# Poissons Ratio (x) = -0.38566 0.69464
# Poissons Ratio (y) = -0.20847 0.53136
# Poissons Ratio (z) = 0.23182 0.32805
#
# Static dielectric constant tensor:
#      x y z
#    x 1.578990 0.000000 0.004560 
#    y 0.000000 1.599330 0.000000 
#    z 0.004560 0.000000 1.636960 
# 
# From -- ./inp_files/4650.got.cif
#   From: 2010.05.17/outbox.cif.g08.bks.cpg/sg6_3_cif.got.tgz:4650.got - 2010.06.03 19:42:10.
