data_PCOD9130854
_publ_section_title
;
Structure prediction by ZEFSAII (Michael W. Deem and Ramdas Pophale) SiO2 
 PCOD9130854
Probable space group: P M
;
_chemical_formula_sum "Si O2"
_cell_formula_units_Z 10
_cell_length_a 12.273895
_cell_length_b 10.547128
_cell_length_c 5.184111
_cell_angle_alpha 90.000000
_cell_angle_beta 129.129984
_cell_angle_gamma 90.000000
_cell_volume 520.587583
_symmetry_space_group_name_H-M "P M"
_symmetry_group_IT_number 6
_symmetry_cell_setting 'monoclinic'
loop_
_space_group_symop_operation_xyz
x,y,z
x,-y,z
loop_
_atom_site_type_symbol
_atom_site_label
_atom_site_fract_x
_atom_site_fract_y
_atom_site_fract_z
Si Si1 0.282700 0.846425 0.364740
Si Si2 0.720718 0.640550 0.637999
Si Si3 0.117567 0.153121 0.614238
Si Si4 0.849183 0.856655 0.534606
Si Si5 0.585795 0.738784 0.950173
O O1 0.168043 0.805764 0.408046
O O2 0.431836 0.788122 0.661853
O O3 0.293420 0.000000 0.388026
O O4 0.231443 0.810657 0.002690
O O5 0.782219 0.500000 0.714976
O O6 0.829275 0.753239 0.729804
O O7 0.648473 0.663477 0.802616
O O8 0.603975 0.657932 0.238153
O O9 0.967440 0.188156 0.510559
O O10 0.114664 0.000000 0.599877
O O11 0.881842 0.000000 0.672444
O O12 0.697439 0.852167 0.169190
#
# Coordination Sequence:
#
# PCOD9130854 Si02
#       5
#     2   2   2   2   2
#     4  10  19  33  52  83 118 147 176 226 290 336
#     4  10  22  38  59  83 113 152 188 231 284 332
#     4   9  19  32  51  79 120 150 173 221 289 339
#     4   9  21  36  59  90 114 143 189 238 277 327
#     4  10  21  35  59  83 107 150 192 232 268 330
#
# _framework density 19.209060999999998
#
# number of rings (size 3 to 8) (size 9 to 14) (size 15 to 20)
#    1.200    1.200    0.000    2.400    2.800    1.600 
#    0.000    0.000    0.000    7.200    0.000    0.000 
#    0.000    0.000    0.000    0.000    0.000    0.000 
#
# Total GULP energy -55683.249041 kJ/mol
# GULP energy per Si atom -5568.324904 kJ/mol
# Density = 1.916534 g / cm^3
# Si number density = 19.209061 Si / 1000 Ang^3
#
#
#
# Elastic Constant Matrix: (Units=GPa)
#
#
# Indices 1 2 3 4 5 6 
#
# 1 43.9180 15.9006 5.4133 0.0000 -0.1935 0.0000
# 2 15.9006 75.9564 0.9203 0.0000 -3.6946 0.0000
# 3 5.4133 0.9203 45.1980 0.0000 -6.5200 0.0000
# 4 0.0000 0.0000 0.0000 4.4165 0.0000 -0.3548
# 5 -0.1935 -3.6946 -6.5200 0.0000 43.6966 0.0000
# 6 0.0000 0.0000 0.0000 -0.3548 0.0000 7.9653
#
#
#
# Elastic Compliance Matrix: (Units=1/GPa)
#
#
# Indices 1 2 3 4 5 6 
#
# 1 0.025035 -0.005242 -0.003004 0.000000 -0.000781 0.000000
# 2 -0.005242 0.014318 0.000519 0.000000 0.001265 0.000000
# 3 -0.003004 0.000519 0.022973 0.000000 0.003458 0.000000
# 4 0.000000 0.000000 0.000000 0.227235 0.000000 0.010122
# 5 -0.000781 0.001265 0.003458 0.000000 0.023505 0.000000
# 6 0.000000 0.000000 0.000000 0.010122 0.000000 0.125995
#
#
# Mechanical properties :
#
#
# Convention : Reuss Voigt Hill
#
# Bulk Modulus (GPa) = 21.33550 23.28230 22.30890
# Shear Modulus (GPa) = 10.63515 20.73824 15.68669
#
# Velocity S-wave (km/s) = 2.35554 3.28930 2.86077
# Velocity P-wave (km/s) = 4.30455 5.15488 4.74879
#
# Compressibility (1/GPa) = 0.04687024
#
# Stress axis : x y z
#
# Youngs Moduli (GPa) = 39.94483 69.84165 43.52934
#
# Poissons Ratio (x) = 0.36613 0.13077
# Poissons Ratio (y) = 0.20940 -0.02258
# Poissons Ratio (z) = 0.12000 -0.03623
#
# Static dielectric constant tensor:
#      x y z
#    x 1.661130 0.000000 -0.009250 
#    y 0.000000 1.675060 0.000000 
#    z -0.009250 0.000000 1.697290 
# 
# From -- ./inp_files/762.got.cif
#   From: 2010.05.17/outbox.cif.g08.bks.cpg/sg6_1_cif.got.tgz:762.got - 2010.06.03 19:42:10.
