data_PCOD9130224
_publ_section_title
;
Structure prediction by ZEFSAII (Michael W. Deem and Ramdas Pophale) SiO2 
 PCOD9130224
Probable space group: C 2
;
_chemical_formula_sum "Si O2"
_cell_formula_units_Z 20
_cell_length_a 14.251304
_cell_length_b 9.712056
_cell_length_c 11.916505
_cell_angle_alpha 90.000000
_cell_angle_beta 28.831085
_cell_angle_gamma 90.000000
_cell_volume 795.367853
_symmetry_space_group_name_H-M "C 2"
_symmetry_group_IT_number 5
_symmetry_cell_setting 'monoclinic'
loop_
_space_group_symop_operation_xyz
x,y,z
-x,y,-z
1/2+x,1/2+y,z
1/2-x,1/2+y,-z
loop_
_atom_site_type_symbol
_atom_site_label
_atom_site_fract_x
_atom_site_fract_y
_atom_site_fract_z
Si Si1 0.073590 0.199970 0.064559
Si Si2 0.816694 0.695359 0.032800
Si Si3 0.188068 0.812598 0.584501
Si Si4 0.641475 0.397431 0.248690
Si Si5 0.281572 0.956349 0.715960
O O1 0.228782 0.233505 0.002605
O O2 0.864659 0.237300 0.334519
O O3 0.172750 0.316411 0.887753
O O4 0.137291 0.058872 0.935888
O O5 0.732954 0.546261 0.134470
O O6 0.738250 0.810587 0.199644
O O7 0.049850 0.698926 0.789133
O O8 0.026412 0.883455 0.675269
O O9 0.253546 0.918389 0.614090
O O10 0.500000 0.393137 0.500000
O O11 0.500000 0.013652 0.500000
#
# Coordination Sequence:
#
# PCOD9130224 Si02
#       5
#     4   4   4   4   4
#     4  11  25  51  80 119 161 210 282 339 408 505
#     4  11  25  50  77 114 166 211 274 342 408 500
#     4  11  27  53  82 117 161 226 273 341 425 496
#     4  11  27  54  75 116 164 209 276 351 407 494
#     4  12  25  53  84 119 169 221 277 345 418 508
#
# _framework density 25.145598
#
# number of rings (size 3 to 8) (size 9 to 14) (size 15 to 20)
#    0.000    0.800    2.000    4.200    0.000    4.000 
#   36.000    0.000    0.000    0.000    0.000    0.000 
#    0.000    0.000    0.000    0.000    0.000    0.000 
#
# Total GULP energy -55730.833498 kJ/mol
# GULP energy per Si atom -5573.083350 kJ/mol
# Density = 2.508837 g / cm^3
# Si number density = 25.145598 Si / 1000 Ang^3
#
#
#
# Elastic Constant Matrix: (Units=GPa)
#
#
# Indices 1 2 3 4 5 6 
#
# 1 315.4800 -539.5076 -22.2016 0.0000 -272.2154 -0.0003
# 2 -539.5076 2374.9504 277.1117 -0.0002 1022.8101 0.0012
# 3 -22.2016 277.1117 235.7539 0.0000 80.6059 0.0002
# 4 0.0000 -0.0002 0.0000 19.5435 -0.0001 -20.2258
# 5 -272.2154 1022.8101 80.6059 -0.0001 515.3151 0.0006
# 6 -0.0003 0.0012 0.0002 -20.2258 0.0006 -15.5031
#
#
#
# Elastic Compliance Matrix: (Units=1/GPa)
#
#
# Indices 1 2 3 4 5 6 
#
# 1 0.005901 0.000206 -0.000647 0.000000 0.002809 0.000000
# 2 0.000206 0.003536 -0.001875 0.000000 -0.006616 0.000000
# 3 -0.000647 -0.001875 0.005525 0.000000 0.002515 0.000000
# 4 0.000000 0.000000 0.000000 0.021772 0.000000 -0.028404
# 5 0.002809 -0.006616 0.002515 0.000000 0.016163 0.000000
# 6 0.000000 0.000000 0.000000 -0.028404 0.000000 -0.027446
#
#
# Mechanical properties :
#
#
# Convention : Reuss Voigt Hill
#
# Bulk Modulus (GPa) = 96.80764 261.88770 179.34767
# Shear Modulus (GPa) = 149.14344 317.92322 233.53333
#
# Velocity S-wave (km/s) = 7.70978 11.25644 9.64749
# Velocity P-wave (km/s) = 10.85526 16.53233 13.98489
#
# Compressibility (1/GPa) = 0.01032976
#
# Stress axis : x y z
#
# Youngs Moduli (GPa) = 169.47496 282.79946 181.01105
#
# Poissons Ratio (x) = -0.05832 0.11713
# Poissons Ratio (y) = -0.03495 0.33936
# Poissons Ratio (z) = 0.10967 0.53020
#
# Static dielectric constant tensor:
#      x y z
#    x 2.106080 0.000000 0.064910 
#    y 0.000000 -5.344870 -0.000020 
#    z 0.064910 -0.000020 2.138510 
# 
# From -- ./inp_files/8239.got.cif
#   From: 2010.05.17/outbox.cif.g08.bks.cpg/sg5_5_cif.got.tgz:8239.got - 2010.06.03 18:56:24.
