data_PCOD9130169
_publ_section_title
;
Structure prediction by ZEFSAII (Michael W. Deem and Ramdas Pophale) SiO2 
 PCOD9130169
Probable space group: C 2
;
_chemical_formula_sum "Si O2"
_cell_formula_units_Z 26
_cell_length_a 9.376788
_cell_length_b 16.496837
_cell_length_c 10.944543
_cell_angle_alpha 90.000000
_cell_angle_beta 42.670117
_cell_angle_gamma 90.000000
_cell_volume 1147.463228
_symmetry_space_group_name_H-M "C 2"
_symmetry_group_IT_number 5
_symmetry_cell_setting 'monoclinic'
loop_
_space_group_symop_operation_xyz
x,y,z
-x,y,-z
1/2+x,1/2+y,z
1/2-x,1/2+y,-z
loop_
_atom_site_type_symbol
_atom_site_label
_atom_site_fract_x
_atom_site_fract_y
_atom_site_fract_z
Si Si1 0.272638 0.163690 0.756188
Si Si2 0.978047 0.818326 0.339967
Si Si3 0.799342 0.456521 0.039005
Si Si4 0.500000 0.019969 0.500000
Si Si5 0.871972 0.136386 0.874192
Si Si6 0.207237 0.771842 0.800130
Si Si7 0.569008 0.894121 0.642285
O O1 0.397416 0.246211 0.676387
O O2 0.392909 0.079806 0.662235
O O3 0.115492 0.159716 0.738676
O O4 0.196890 0.160919 0.944797
O O5 0.143233 0.885275 0.183820
O O6 0.206509 0.857987 0.462350
O O7 0.859032 0.775664 0.299061
O O8 0.673911 0.541275 0.111062
O O9 0.000000 0.466577 0.000000
O O10 0.918015 0.433553 0.838634
O O11 0.634033 0.958798 0.497402
O O12 0.760763 0.187651 0.837020
O O13 0.413519 0.825755 0.688178
O O14 0.000000 0.805725 0.000000
#
# Coordination Sequence:
#
# PCOD9130169 Si02
#       7
#     4   4   4   2   4   4   4
#     4  11  26  43  74 109 148 192 252 317 371 448
#     4  12  27  48  78 110 153 198 253 317 378 458
#     4  12  28  48  79 110 153 198 253 319 382 448
#     4  12  24  44  72 106 144 196 252 302 378 442
#     4  11  25  46  74 106 146 196 253 306 382 450
#     4  12  23  44  77 106 146 197 250 305 379 449
#     4  12  26  48  76 112 148 202 255 309 384 455
#
# _framework density 22.658678999999999
#
# number of rings (size 3 to 8) (size 9 to 14) (size 15 to 20)
#    0.000    0.308    6.154    1.385    6.462    0.615 
#    0.000    0.000    3.385    0.000    0.000    0.000 
#    0.000    0.000    0.000    0.000    0.000    0.000 
#
# Total GULP energy -72582.262381 kJ/mol
# GULP energy per Si atom -5583.250952 kJ/mol
# Density = 2.260711 g / cm^3
# Si number density = 22.658679 Si / 1000 Ang^3
#
#
#
# Elastic Constant Matrix: (Units=GPa)
#
#
# Indices 1 2 3 4 5 6 
#
# 1 124.7878 89.7839 19.5441 -0.0003 -17.9160 0.0002
# 2 89.7839 173.2066 57.7368 0.0000 -13.0935 0.0000
# 3 19.5441 57.7368 77.7839 -0.0007 -11.6421 0.0005
# 4 -0.0003 0.0000 -0.0007 23.9079 0.0003 4.5957
# 5 -17.9160 -13.0935 -11.6421 0.0003 42.1500 -0.0002
# 6 0.0002 0.0000 0.0005 4.5957 -0.0002 49.6932
#
#
#
# Elastic Compliance Matrix: (Units=1/GPa)
#
#
# Indices 1 2 3 4 5 6 
#
# 1 0.013779 -0.007812 0.002973 0.000000 0.004251 0.000000
# 2 -0.007812 0.012130 -0.007274 0.000000 -0.001562 0.000000
# 3 0.002973 -0.007274 0.018108 0.000001 0.004006 0.000000
# 4 0.000000 0.000000 0.000001 0.042584 0.000000 -0.003938
# 5 0.004251 -0.001562 0.004006 0.000000 0.026153 0.000000
# 6 0.000000 0.000000 0.000000 -0.003938 0.000000 0.020488
#
#
# Mechanical properties :
#
#
# Convention : Reuss Voigt Hill
#
# Bulk Modulus (GPa) = 50.53130 78.87866 64.70498
# Shear Modulus (GPa) = 30.47546 37.06446 33.76996
#
# Velocity S-wave (km/s) = 3.67137 4.04886 3.86473
# Velocity P-wave (km/s) = 6.34992 7.53292 6.96658
#
# Compressibility (1/GPa) = 0.01978972
#
# Stress axis : x y z
#
# Youngs Moduli (GPa) = 72.57311 82.44124 55.22322
#
# Poissons Ratio (x) = 0.64405 -0.16417
# Poissons Ratio (y) = 0.56696 0.40172
# Poissons Ratio (z) = -0.21575 0.59972
#
# Static dielectric constant tensor:
#      x y z
#    x 1.883030 0.000000 0.015710 
#    y 0.000000 1.825260 0.000000 
#    z 0.015710 0.000000 1.984510 
# 
# From -- ./inp_files/36792.got.cif
#   From: 2010.05.17/outbox.cif.g08.bks.cpg/sg5_19_cif.got.tgz:36792.got - 2010.06.03 18:56:24.
