data_PCOD9130884
_publ_section_title
;
Structure prediction by ZEFSAII (Michael W. Deem and Ramdas Pophale) SiO2 
 PCOD9130884
Probable space group: P M
;
_chemical_formula_sum "Si O2"
_cell_formula_units_Z 16
_cell_length_a 16.754290
_cell_length_b 7.454509
_cell_length_c 11.975406
_cell_angle_alpha 90.000000
_cell_angle_beta 155.925685
_cell_angle_gamma 90.000000
_cell_volume 610.114859
_symmetry_space_group_name_H-M "P M"
_symmetry_group_IT_number 6
_symmetry_cell_setting 'monoclinic'
loop_
_space_group_symop_operation_xyz
x,y,z
x,-y,z
loop_
_atom_site_type_symbol
_atom_site_label
_atom_site_fract_x
_atom_site_fract_y
_atom_site_fract_z
Si Si1 0.023630 0.719375 0.825820
Si Si2 0.758626 0.784201 0.186236
Si Si3 0.166033 0.791584 0.411892
Si Si4 0.605794 0.296883 0.218807
Si Si5 0.441060 0.294550 0.328553
Si Si6 0.865204 0.716487 0.854747
Si Si7 0.486382 0.217029 0.644668
Si Si8 0.174697 0.212009 0.673238
O O1 0.029219 0.500000 0.824898
O O2 0.816165 0.787715 0.515421
O O3 0.009213 0.766665 0.938156
O O4 0.226932 0.787221 0.034341
O O5 0.611992 0.711554 0.092373
O O6 0.981312 0.717609 0.488483
O O7 0.746857 0.000000 0.181609
O O8 0.682085 0.739717 0.964821
O O9 0.314790 0.718259 0.509099
O O10 0.168441 0.713486 0.538659
O O11 0.223850 0.000000 0.498959
O O12 0.954027 0.783019 0.083701
O O13 0.621159 0.500000 0.277370
O O14 0.397294 0.232981 0.997334
O O15 0.432339 0.500000 0.278125
O O16 0.646265 0.216371 0.549039
O O17 0.468183 0.294427 0.498063
O O18 0.856250 0.500000 0.848354
O O19 0.475415 0.000000 0.618572
O O20 0.139051 0.000000 0.621545
#
# Coordination Sequence:
#
# PCOD9130884 Si02
#       8
#     2   2   2   2   2   2   2   2
#     4   9  20  38  55  76 108 147 186 225 274 323
#     4  10  21  39  61  83 113 152 188 226 278 339
#     4  10  19  34  58  84 111 144 179 220 273 331
#     4  11  23  38  59  84 112 147 190 241 282 323
#     4  10  20  35  57  82 109 143 181 222 271 328
#     4  10  20  35  57  82 109 143 181 222 271 328
#     4  10  19  34  58  84 111 144 179 220 273 331
#     4  10  21  39  61  83 113 152 188 226 278 339
#
# _framework density 26.22457
#
# number of rings (size 3 to 8) (size 9 to 14) (size 15 to 20)
#    0.000    2.000    2.500    1.125    0.000    4.000 
#    0.000    5.000    0.000    0.000    0.000    0.000 
#    0.000    0.000    0.000    0.000    0.000    0.000 
#
# Total GULP energy -89469.550463 kJ/mol
# GULP energy per Si atom -5591.846904 kJ/mol
# Density = 2.616488 g / cm^3
# Si number density = 26.224570 Si / 1000 Ang^3
#
#
#
# Elastic Constant Matrix: (Units=GPa)
#
#
# Indices 1 2 3 4 5 6 
#
# 1 88.0171 1.5713 27.9397 0.0000 27.7987 0.0000
# 2 1.5713 84.2084 -3.5059 0.0000 6.4176 0.0000
# 3 27.9397 -3.5059 161.7267 0.0000 32.9246 0.0000
# 4 0.0000 0.0000 0.0000 19.1632 0.0000 1.6738
# 5 27.7987 6.4176 32.9246 0.0000 59.3341 0.0000
# 6 0.0000 0.0000 0.0000 1.6738 0.0000 8.1328
#
#
#
# Elastic Compliance Matrix: (Units=1/GPa)
#
#
# Indices 1 2 3 4 5 6 
#
# 1 0.013533 0.000133 -0.001174 0.000000 -0.005703 0.000000
# 2 0.000133 0.012025 0.000581 0.000000 -0.001685 0.000000
# 3 -0.001174 0.000581 0.007102 0.000000 -0.003454 0.000000
# 4 0.000000 0.000000 0.000000 0.053138 0.000000 -0.010936
# 5 -0.005703 -0.001685 -0.003454 0.000000 0.021624 0.000000
# 6 0.000000 0.000000 0.000000 -0.010936 0.000000 0.125210
#
#
# Mechanical properties :
#
#
# Convention : Reuss Voigt Hill
#
# Bulk Modulus (GPa) = 31.50563 42.88470 37.19517
# Shear Modulus (GPa) = 20.48063 37.85585 29.16824
#
# Velocity S-wave (km/s) = 2.79762 3.80350 3.33866
# Velocity P-wave (km/s) = 4.74082 5.97304 5.39224
#
# Compressibility (1/GPa) = 0.03174035
#
# Stress axis : x y z
#
# Youngs Moduli (GPa) = 73.89347 83.15705 140.81023
#
# Poissons Ratio (x) = -0.01108 0.16531
# Poissons Ratio (y) = -0.00985 -0.08178
# Poissons Ratio (z) = 0.08675 -0.04830
#
# Static dielectric constant tensor:
#      x y z
#    x 2.032090 0.000000 -0.010790 
#    y 0.000000 1.977080 0.000000 
#    z -0.010790 0.000000 2.132480 
# 
# From -- ./inp_files/4573.got.cif
#   From: 2010.05.17/outbox.cif.g08.bks.cpg/sg6_3_cif.got.tgz:4573.got - 2010.06.03 19:42:10.
