data_PCOD9130479
_publ_section_title
;
Structure prediction by ZEFSAII (Michael W. Deem and Ramdas Pophale) SiO2 
 PCOD9130479
Probable space group: C 2
;
_chemical_formula_sum "Si O2"
_cell_formula_units_Z 22
_cell_length_a 17.546366
_cell_length_b 10.348730
_cell_length_c 11.371230
_cell_angle_alpha 90.000000
_cell_angle_beta 154.205152
_cell_angle_gamma 90.000000
_cell_volume 898.505652
_symmetry_space_group_name_H-M "C 2"
_symmetry_group_IT_number 5
_symmetry_cell_setting 'monoclinic'
loop_
_space_group_symop_operation_xyz
x,y,z
-x,y,-z
1/2+x,1/2+y,z
1/2-x,1/2+y,-z
loop_
_atom_site_type_symbol
_atom_site_label
_atom_site_fract_x
_atom_site_fract_y
_atom_site_fract_z
Si Si1 0.578670 0.988740 0.934390
Si Si2 0.532450 0.186638 0.405793
Si Si3 0.642904 0.629182 0.521597
Si Si4 0.500000 0.845728 0.500000
Si Si5 0.173486 0.922305 0.923732
Si Si6 0.359131 0.749097 0.727962
O O1 0.742205 0.933550 0.087446
O O2 0.455509 0.879766 0.819345
O O3 0.470462 0.060698 0.680358
O O4 0.317770 0.077939 0.828747
O O5 0.500000 0.181117 0.500000
O O6 0.703931 0.265416 0.604695
O O7 0.379649 0.273968 0.139283
O O8 0.557071 0.748693 0.474304
O O9 0.694532 0.676889 0.464177
O O10 0.487295 0.522053 0.291921
O O11 0.332157 0.934052 0.235903
O O12 0.500000 0.669826 0.000000
#
# Coordination Sequence:
#
# PCOD9130479 Si02
#       6
#     4   4   4   2   4   4
#     4  12  27  50  86 115 164 213 265 336 399 478
#     4  12  29  51  80 119 159 218 271 328 406 478
#     4  12  25  50  78 119 162 211 266 333 401 475
#     4  12  24  46  74 126 154 214 270 322 396 490
#     4  12  24  48  81 114 162 211 267 321 401 480
#     4  12  30  50  79 116 162 209 273 331 401 474
#
# _framework density 24.485099000000002
#
# number of rings (size 3 to 8) (size 9 to 14) (size 15 to 20)
#    0.000    0.000    5.455    3.273    8.909    0.000 
#    0.000    0.000    0.000    0.000    0.000    0.000 
#    0.000    0.000    0.000    0.000    0.000    0.000 
#
# Total GULP energy -61532.543607 kJ/mol
# GULP energy per Si atom -5593.867601 kJ/mol
# Density = 2.442937 g / cm^3
# Si number density = 24.485099 Si / 1000 Ang^3
#
#
#
# Elastic Constant Matrix: (Units=GPa)
#
#
# Indices 1 2 3 4 5 6 
#
# 1 197.4738 53.2570 65.5361 0.0000 -0.3620 0.0000
# 2 53.2570 83.1555 35.4477 0.0000 -0.1503 0.0000
# 3 65.5361 35.4477 131.0579 0.0000 -16.8980 0.0000
# 4 0.0000 0.0000 0.0000 47.0550 0.0000 -11.8359
# 5 -0.3620 -0.1503 -16.8980 0.0000 52.0934 0.0000
# 6 0.0000 0.0000 0.0000 -11.8359 0.0000 38.0052
#
#
#
# Elastic Compliance Matrix: (Units=1/GPa)
#
#
# Indices 1 2 3 4 5 6 
#
# 1 0.006811 -0.003240 -0.002635 0.000000 -0.000817 0.000000
# 2 -0.003240 0.015207 -0.002599 0.000000 -0.000822 0.000000
# 3 -0.002635 -0.002599 0.010068 0.000000 0.003240 0.000000
# 4 0.000000 0.000000 0.000000 0.023058 0.000000 0.007181
# 5 -0.000817 -0.000822 0.003240 0.000000 0.020239 0.000000
# 6 0.000000 0.000000 0.000000 0.007181 0.000000 0.028548
#
#
# Mechanical properties :
#
#
# Convention : Reuss Voigt Hill
#
# Bulk Modulus (GPa) = 66.05487 80.01876 73.03682
# Shear Modulus (GPa) = 39.70597 44.59381 42.14989
#
# Velocity S-wave (km/s) = 4.03133 4.27226 4.15354
# Velocity P-wave (km/s) = 6.97889 7.55564 7.27299
#
# Compressibility (1/GPa) = 0.01513893
#
# Stress axis : x y z
#
# Youngs Moduli (GPa) = 146.82775 65.75818 99.32142
#
# Poissons Ratio (x) = 0.21308 0.26167
# Poissons Ratio (y) = 0.47577 0.25811
# Poissons Ratio (z) = 0.38683 0.17089
#
# Static dielectric constant tensor:
#      x y z
#    x 1.950420 0.000000 0.012950 
#    y 0.000000 1.988320 0.000000 
#    z 0.012950 0.000000 2.037210 
# 
# From -- ./inp_files/42723.got.cif
#   From: 2010.05.17/outbox.cif.g08.bks.cpg/sg5_22_cif.got.tgz:42723.got - 2010.06.03 18:56:24.
