data_PCOD9130917
_publ_section_title
;
Structure prediction by ZEFSAII (Michael W. Deem and Ramdas Pophale) SiO2 
 PCOD9130917
Probable space group: P M
;
_chemical_formula_sum "Si O2"
_cell_formula_units_Z 16
_cell_length_a 8.562968
_cell_length_b 17.972736
_cell_length_c 5.098193
_cell_angle_alpha 90.000000
_cell_angle_beta 87.095035
_cell_angle_gamma 90.000000
_cell_volume 783.603465
_symmetry_space_group_name_H-M "P M"
_symmetry_group_IT_number 6
_symmetry_cell_setting 'monoclinic'
loop_
_space_group_symop_operation_xyz
x,y,z
x,-y,z
loop_
_atom_site_type_symbol
_atom_site_label
_atom_site_fract_x
_atom_site_fract_y
_atom_site_fract_z
Si Si1 0.125000 0.688428 0.055910
Si Si2 0.428997 0.273131 0.287152
Si Si3 0.710459 0.668107 0.602139
Si Si4 0.922974 0.198870 0.430479
Si Si5 0.495331 0.141668 0.953948
Si Si6 0.835799 0.412008 0.082472
Si Si7 0.666543 0.915012 0.417834
Si Si8 0.216534 0.185900 0.676139
O O1 0.289890 0.675150 0.189240
O O2 0.021294 0.749559 0.222944
O O3 0.010924 0.619677 0.019771
O O4 0.174395 0.732444 0.792702
O O5 0.545398 0.309846 0.484408
O O6 0.336678 0.205689 0.436142
O O7 0.518196 0.228062 0.047653
O O8 0.817005 0.742347 0.598791
O O9 0.787888 0.613760 0.377727
O O10 0.722440 0.628009 0.880599
O O11 0.807075 0.139064 0.318785
O O12 0.052275 0.156258 0.591295
O O13 0.597160 0.117677 0.694647
O O14 0.314556 0.139782 0.877637
O O15 0.542301 0.091065 0.193504
O O16 0.828669 0.500000 0.055115
O O17 0.713417 0.000000 0.453183
#
# Coordination Sequence:
#
# PCOD9130917 Si02
#       8
#     2   2   2   2   2   2   2   2
#     4   9  21  36  64  96 120 165 210 258 307 370
#     4  10  21  37  67  97 121 153 219 263 311 355
#     4  11  22  38  67  92 121 166 209 262 307 367
#     4  10  21  37  63  96 123 157 212 263 302 372
#     4  11  22  41  63  91 123 159 205 266 304 377
#     4  11  24  42  60  91 132 169 205 256 322 375
#     4  12  26  42  63  92 128 169 205 257 327 377
#     4  10  19  37  66  95 119 154 209 265 308 359
#
# _framework density 20.418493000000002
#
# number of rings (size 3 to 8) (size 9 to 14) (size 15 to 20)
#    0.000    1.500    3.750    0.750    7.000    0.000 
#    0.000    2.500    0.000    0.000    0.000    0.000 
#    0.000    0.000    0.000    0.000    0.000    0.000 
#
# Total GULP energy -89288.075169 kJ/mol
# GULP energy per Si atom -5580.504698 kJ/mol
# Density = 2.037202 g / cm^3
# Si number density = 20.418493 Si / 1000 Ang^3
#
#
#
# Elastic Constant Matrix: (Units=GPa)
#
#
# Indices 1 2 3 4 5 6 
#
# 1 101.5620 39.7094 13.7898 0.0000 24.8829 0.0000
# 2 39.7094 95.1671 12.0146 0.0000 8.7049 0.0000
# 3 13.7898 12.0146 79.5896 0.0000 8.4042 0.0000
# 4 0.0000 0.0000 0.0000 20.0057 0.0000 4.7454
# 5 24.8829 8.7049 8.4042 0.0000 34.8800 0.0000
# 6 0.0000 0.0000 0.0000 4.7454 0.0000 19.1079
#
#
#
# Elastic Compliance Matrix: (Units=1/GPa)
#
#
# Indices 1 2 3 4 5 6 
#
# 1 0.013984 -0.004955 -0.000772 0.000000 -0.008553 0.000000
# 2 -0.004955 0.012658 -0.001120 0.000000 0.000646 0.000000
# 3 -0.000772 -0.001120 0.013113 0.000000 -0.002329 0.000000
# 4 0.000000 0.000000 0.000000 0.053115 0.000000 -0.013191
# 5 -0.008553 0.000646 -0.002329 0.000000 0.035172 0.000000
# 6 0.000000 0.000000 0.000000 -0.013191 0.000000 0.055610
#
#
# Mechanical properties :
#
#
# Convention : Reuss Voigt Hill
#
# Bulk Modulus (GPa) = 38.37229 45.26069 41.81649
# Shear Modulus (GPa) = 24.26795 28.85239 26.56017
#
# Velocity S-wave (km/s) = 3.45124 3.76314 3.61056
# Velocity P-wave (km/s) = 5.89196 6.41063 6.15676
#
# Compressibility (1/GPa) = 0.02606047
#
# Stress axis : x y z
#
# Youngs Moduli (GPa) = 71.51043 79.00270 76.25857
#
# Poissons Ratio (x) = 0.39147 0.05885
# Poissons Ratio (y) = 0.35435 0.08544
# Poissons Ratio (z) = 0.05518 0.08852
#
# Static dielectric constant tensor:
#      x y z
#    x 1.763950 0.000000 0.004240 
#    y 0.000000 1.682500 0.000000 
#    z 0.004240 0.000000 1.800580 
# 
# From -- ./inp_files/1306.got.cif
#   From: 2010.05.17/outbox.cif.g08.bks.cpg/sg6_1_cif.got.tgz:1306.got - 2010.06.03 19:42:10.
