data_PCOD9130500
_publ_section_title
;
Structure prediction by ZEFSAII (Michael W. Deem and Ramdas Pophale) SiO2 
 PCOD9130500
Probable space group: C 2
;
_chemical_formula_sum "Si O2"
_cell_formula_units_Z 16
_cell_length_a 8.462246
_cell_length_b 12.818759
_cell_length_c 9.188418
_cell_angle_alpha 90.000000
_cell_angle_beta 133.376044
_cell_angle_gamma 90.000000
_cell_volume 724.476445
_symmetry_space_group_name_H-M "C 2"
_symmetry_group_IT_number 5
_symmetry_cell_setting 'monoclinic'
loop_
_space_group_symop_operation_xyz
x,y,z
-x,y,-z
1/2+x,1/2+y,z
1/2-x,1/2+y,-z
loop_
_atom_site_type_symbol
_atom_site_label
_atom_site_fract_x
_atom_site_fract_y
_atom_site_fract_z
Si Si1 0.264205 0.359230 0.522528
Si Si2 0.500000 0.212759 0.500000
Si Si3 0.500000 0.696165 0.500000
Si Si4 0.227871 0.035304 0.223679
Si Si5 0.112025 0.530747 0.226560
O O1 0.468645 0.284406 0.622035
O O2 0.275389 0.437120 0.667387
O O3 0.236764 0.428889 0.362174
O O4 0.065282 0.278896 0.416472
O O5 0.292761 0.137204 0.356277
O O6 0.290406 0.623711 0.337439
O O7 0.419508 0.035783 0.224968
O O8 0.000000 0.042218 0.000000
O O9 0.000000 0.521987 0.000000
#
# Coordination Sequence:
#
# PCOD9130500 Si02
#       5
#     4   2   2   4   4
#     4  12  25  52  76 104 150 197 245 302 365 433
#     4  12  26  50  78 106 146 202 242 300 370 430
#     4  12  24  52  78 100 152 196 242 302 362 438
#     4  12  27  51  73 109 155 188 243 311 360 436
#     4  12  28  48  75 112 148 193 244 305 367 430
#
# _framework density 22.084916
#
# number of rings (size 3 to 8) (size 9 to 14) (size 15 to 20)
#    0.000    0.000    7.500    0.750   10.500    2.000 
#    0.000    0.000    0.000    0.000    0.000    0.000 
#    0.000    0.000    0.000    0.000    0.000    0.000 
#
# Total GULP energy -44662.374646 kJ/mol
# GULP energy per Si atom -5582.796831 kJ/mol
# Density = 2.203465 g / cm^3
# Si number density = 22.084916 Si / 1000 Ang^3
#
#
#
# Elastic Constant Matrix: (Units=GPa)
#
#
# Indices 1 2 3 4 5 6 
#
# 1 118.8293 82.6703 52.9042 0.0000 2.2630 0.0000
# 2 82.6703 175.9625 79.9370 0.0000 -0.1603 0.0000
# 3 52.9042 79.9370 163.5396 0.0000 4.5939 0.0000
# 4 0.0000 0.0000 0.0000 0.7996 0.0000 -4.3913
# 5 2.2630 -0.1603 4.5939 0.0000 42.9794 0.0000
# 6 0.0000 0.0000 0.0000 -4.3913 0.0000 65.9748
#
#
#
# Elastic Compliance Matrix: (Units=1/GPa)
#
#
# Indices 1 2 3 4 5 6 
#
# 1 0.012810 -0.005326 -0.001526 0.000000 -0.000531 0.000000
# 2 -0.005326 0.009526 -0.002951 0.000000 0.000631 0.000000
# 3 -0.001526 -0.002951 0.008073 0.000000 -0.000794 0.000000
# 4 0.000000 0.000000 0.000000 1.971111 0.000000 0.131196
# 5 -0.000531 0.000631 -0.000794 0.000000 0.023382 0.000000
# 6 0.000000 0.000000 0.000000 0.131196 0.000000 0.023890
#
#
# Mechanical properties :
#
#
# Convention : Reuss Voigt Hill
#
# Bulk Modulus (GPa) = 92.55972 98.81714 95.68843
# Shear Modulus (GPa) = 2.41313 38.13877 20.27595
#
# Velocity S-wave (km/s) = 1.04644 4.16012 3.03329
# Velocity P-wave (km/s) = 6.59256 8.24117 7.46253
#
# Compressibility (1/GPa) = 0.01080384
#
# Stress axis : x y z
#
# Youngs Moduli (GPa) = 78.06415 104.97092 123.86581
#
# Poissons Ratio (x) = 0.55904 0.18901
# Poissons Ratio (y) = 0.41574 0.36558
# Poissons Ratio (z) = 0.11912 0.30981
#
# Static dielectric constant tensor:
#      x y z
#    x 1.915850 0.000000 -0.025370 
#    y 0.000000 1.856130 0.000000 
#    z -0.025370 0.000000 1.757520 
# 
# From -- ./inp_files/14154.got.cif
#   From: 2010.05.17/outbox.cif.g08.bks.cpg/sg5_8_cif.got.tgz:14154.got - 2010.06.03 18:56:24.
