data_PCOD9130788
_publ_section_title
;
Structure prediction by ZEFSAII (Michael W. Deem and Ramdas Pophale) SiO2 
 PCOD9130788
Probable space group: P M
;
_chemical_formula_sum "Si O2"
_cell_formula_units_Z 16
_cell_length_a 10.599913
_cell_length_b 8.369007
_cell_length_c 12.631609
_cell_angle_alpha 90.000000
_cell_angle_beta 127.470447
_cell_angle_gamma 90.000000
_cell_volume 889.351324
_symmetry_space_group_name_H-M "P M"
_symmetry_group_IT_number 6
_symmetry_cell_setting 'monoclinic'
loop_
_space_group_symop_operation_xyz
x,y,z
x,-y,z
loop_
_atom_site_type_symbol
_atom_site_label
_atom_site_fract_x
_atom_site_fract_y
_atom_site_fract_z
Si Si1 0.566010 0.309152 0.662050
Si Si2 0.848996 0.694526 0.648962
Si Si3 0.520985 0.693220 0.073123
Si Si4 0.682469 0.190764 0.941560
Si Si5 0.346634 0.808699 0.371359
Si Si6 0.159868 0.693324 0.922449
Si Si7 0.043407 0.806740 0.092351
Si Si8 0.621161 0.693341 0.353601
O O1 0.568150 0.500000 0.665676
O O2 0.721351 0.255545 0.673567
O O3 0.582462 0.245156 0.788472
O O4 0.414252 0.254507 0.516813
O O5 0.850433 0.500000 0.649658
O O6 0.775330 0.746144 0.499239
O O7 0.023756 0.748645 0.771247
O O8 0.520780 0.500000 0.072943
O O9 0.606235 0.747408 0.225231
O O10 0.606592 0.750445 0.011546
O O11 0.337332 0.747645 0.985578
O O12 0.687416 0.000000 0.945068
O O13 0.864118 0.250827 0.020538
O O14 0.170594 0.756598 0.246568
O O15 0.468734 0.748926 0.343294
O O16 0.351409 0.000000 0.375877
O O17 0.161026 0.500000 0.922773
O O18 0.107450 0.747929 0.012119
O O19 0.041363 0.000000 0.089240
O O20 0.618987 0.500000 0.352942
#
# Coordination Sequence:
#
# PCOD9130788 Si02
#       8
#     2   2   2   2   2   2   2   2
#     4  10  19  34  56  81 109 140 180 225 274 325
#     4   8  15  28  51  80 105 131 166 220 271 310
#     4  10  21  35  53  77 109 147 185 224 269 322
#     4  11  23  38  55  77 111 151 186 222 271 328
#     4  10  19  32  53  81 112 141 175 223 275 323
#     4  10  18  32  55  81 107 138 179 227 271 315
#     4  10  21  35  53  80 111 143 183 226 267 321
#     4   9  17  32  52  77 108 139 178 221 266 318
#
# _framework density 17.990639999999999
#
# number of rings (size 3 to 8) (size 9 to 14) (size 15 to 20)
#    0.000    2.250    2.500    1.875    0.000    2.000 
#    0.000    1.250    0.000    1.500    0.000    0.000 
#    0.000    0.000    0.000    0.000    0.000    0.000 
#
# Total GULP energy -89249.409709 kJ/mol
# GULP energy per Si atom -5578.088107 kJ/mol
# Density = 1.794969 g / cm^3
# Si number density = 17.990640 Si / 1000 Ang^3
#
#
#
# Elastic Constant Matrix: (Units=GPa)
#
#
# Indices 1 2 3 4 5 6 
#
# 1 106.8469 15.7502 83.8686 0.0000 -5.5850 0.0000
# 2 15.7502 11.9237 25.0591 0.0000 -0.6936 0.0000
# 3 83.8686 25.0591 192.2587 0.0000 -5.1982 0.0000
# 4 0.0000 0.0000 0.0000 12.3543 0.0000 4.9314
# 5 -5.5850 -0.6936 -5.1982 0.0000 27.5676 0.0000
# 6 0.0000 0.0000 0.0000 4.9314 0.0000 9.6987
#
#
#
# Elastic Compliance Matrix: (Units=1/GPa)
#
#
# Indices 1 2 3 4 5 6 
#
# 1 0.014885 -0.008282 -0.005365 0.000000 0.001796 0.000000
# 2 -0.008282 0.120115 -0.012068 0.000000 -0.000931 0.000000
# 3 -0.005365 -0.012068 0.009124 0.000000 0.000330 0.000000
# 4 0.000000 0.000000 0.000000 0.101555 0.000000 -0.051636
# 5 0.001796 -0.000931 0.000330 0.000000 0.036677 0.000000
# 6 0.000000 0.000000 0.000000 -0.051636 0.000000 0.129361
#
#
# Mechanical properties :
#
#
# Convention : Reuss Voigt Hill
#
# Bulk Modulus (GPa) = 10.78829 62.26503 36.52666
# Shear Modulus (GPa) = 10.12051 22.34755 16.23403
#
# Velocity S-wave (km/s) = 2.37437 3.52828 3.00719
# Velocity P-wave (km/s) = 3.67784 7.16122 5.69252
#
# Compressibility (1/GPa) = 0.09269307
#
# Stress axis : x y z
#
# Youngs Moduli (GPa) = 67.17992 8.32536 109.60369
#
# Poissons Ratio (x) = 0.06895 0.58807
# Poissons Ratio (y) = 0.55637 1.32273
# Poissons Ratio (z) = 0.36045 0.10047
#
# Static dielectric constant tensor:
#      x y z
#    x 1.582590 0.000000 0.024670 
#    y 0.000000 1.618110 0.000000 
#    z 0.024670 0.000000 1.643280 
# 
# From -- ./inp_files/3789.got.cif
#   From: 2010.05.17/outbox.cif.g08.bks.cpg/sg6_2_cif.got.tgz:3789.got - 2010.06.03 19:42:10.
