data_PCOD9130713
_publ_section_title
;
Structure prediction by ZEFSAII (Michael W. Deem and Ramdas Pophale) SiO2 
 PCOD9130713
Probable space group: C 2
;
_chemical_formula_sum "Si O2"
_cell_formula_units_Z 16
_cell_length_a 12.000000
_cell_length_b 18.000000
_cell_length_c 15.000000
_cell_angle_alpha 90.000000
_cell_angle_beta 150.000000
_cell_angle_gamma 90.000000
_cell_volume 1620.000000
_symmetry_space_group_name_H-M "C 2"
_symmetry_group_IT_number 5
_symmetry_cell_setting 'monoclinic'
loop_
_space_group_symop_operation_xyz
x,y,z
-x,y,-z
1/2+x,1/2+y,z
1/2-x,1/2+y,-z
loop_
_atom_site_type_symbol
_atom_site_label
_atom_site_fract_x
_atom_site_fract_y
_atom_site_fract_z
Si Si1 0.357475 0.472870 0.109292
Si Si2 0.237354 0.390585 0.715329
Si Si3 0.900283 0.609286 0.538720
Si Si4 0.400258 0.494699 0.538703
Si Si5 0.473301 0.890190 0.237982
Si Si6 0.237348 0.213395 0.715326
Si Si7 0.142532 0.631135 0.890707
Si Si8 0.026673 0.213793 0.761997
O O1 0.581154 0.443637 0.209340
O O2 0.412760 0.475974 0.254675
O O3 0.250014 0.552002 0.000005
O O4 0.170993 0.414483 0.947482
O O5 0.307053 0.301990 0.761572
O O6 0.000000 0.395574 0.500000
O O7 0.172335 0.411169 0.773064
O O8 0.750023 0.551993 0.500019
O O9 0.714013 0.673753 0.399810
O O10 0.000000 0.594130 0.500000
O O11 0.087263 0.628028 0.745335
O O12 0.500000 0.509850 0.500000
O O13 0.214001 0.430228 0.399806
O O14 0.503136 0.801992 0.264272
O O15 0.418833 0.160347 0.790645
O O16 0.000000 0.208405 0.500000
O O17 0.172316 0.192812 0.773051
O O18 0.329005 0.689519 0.052517
#
# Coordination Sequence:
#
# PCOD9130713 Si02
#       8
#     4   4   4   4   4   4   4   4
#     4  12  25  43  72 111 149 191 242 307 368 436
#     4  10  21  41  75 109 145 194 247 305 364 435
#     4  12  29  49  75 106 149 199 249 304 373 445
#     4  12  29  49  75 106 149 199 249 304 373 445
#     4  11  25  46  75 112 148 193 248 307 374 440
#     4  10  21  41  75 109 145 194 247 305 364 435
#     4  12  25  43  72 111 149 191 242 307 368 436
#     4  11  25  46  75 112 148 193 248 307 374 440
#
# _framework density 9.8765429999999999
#
# number of rings (size 3 to 8) (size 9 to 14) (size 15 to 20)
#    0.000    0.750    5.000    1.500    3.500    6.500 
#    0.000    1.250    0.000    0.000    0.000    0.000 
#    0.000    0.000    0.000    0.000    0.000    0.000 
#
# Total GULP energy -89077.019584 kJ/mol
# GULP energy per Si atom -5567.313724 kJ/mol
# Density = 0.985406 g / cm^3
# Si number density = 9.876543 Si / 1000 Ang^3
#
#
#
# Elastic Constant Matrix: (Units=GPa)
#
#
# Indices 1 2 3 4 5 6 
#
# 1 145.2981 43.4070 39.8351 0.0026 -15.0811 0.0041
# 2 43.4070 96.2404 31.3200 -0.0057 13.8438 0.0009
# 3 39.8351 31.3200 144.4731 -0.0101 -22.2717 0.0030
# 4 0.0026 -0.0057 -0.0101 48.2112 0.0022 9.4052
# 5 -15.0811 13.8438 -22.2717 0.0022 51.4201 0.0049
# 6 0.0041 0.0009 0.0030 9.4052 0.0049 40.9413
#
#
#
# Elastic Compliance Matrix: (Units=1/GPa)
#
#
# Indices 1 2 3 4 5 6 
#
# 1 0.008707 -0.004052 -0.001029 -0.000001 0.003199 -0.000001
# 2 -0.004052 0.014054 -0.002889 0.000001 -0.006223 0.000001
# 3 -0.001029 -0.002889 0.008471 0.000002 0.004145 -0.000001
# 4 -0.000001 0.000001 0.000002 0.021715 0.000000 -0.004989
# 5 0.003199 -0.006223 0.004145 0.000000 0.023857 -0.000003
# 6 -0.000001 0.000001 -0.000001 -0.004989 -0.000003 0.025571
#
#
# Mechanical properties :
#
#
# Convention : Reuss Voigt Hill
#
# Bulk Modulus (GPa) = 65.39778 68.34841 66.87309
# Shear Modulus (GPa) = 40.51462 46.21116 43.36289
#
# Velocity S-wave (km/s) = 4.53377 4.84202 4.69043
# Velocity P-wave (km/s) = 7.78372 8.12014 7.95371
#
# Compressibility (1/GPa) = 0.01529104
#
# Stress axis : x y z
#
# Youngs Moduli (GPa) = 114.84693 71.15561 118.05471
#
# Poissons Ratio (x) = 0.28835 0.12149
# Poissons Ratio (y) = 0.46541 0.34102
# Poissons Ratio (z) = 0.11819 0.20555
#
# Static dielectric constant tensor:
#      x y z
#    x 1.764090 0.000000 -0.013570 
#    y 0.000000 1.759030 0.000000 
#    z -0.013570 0.000000 1.758590 
# 
# From -- ./inp_files/53480.got.cif
#   From: 2010.05.17/outbox.ucp.g08.bks.cvg/sg5_27_cif.got.tgz:53480.got - 2010.06.11 12:53:14.
