data_PCOD9130047
_publ_section_title
;
Structure prediction by ZEFSAII (Michael W. Deem and Ramdas Pophale) SiO2 
 PCOD9130047
Probable space group: C 2
;
_chemical_formula_sum "Si O2"
_cell_formula_units_Z 26
_cell_length_a 5.111521
_cell_length_b 29.677290
_cell_length_c 8.851763
_cell_angle_alpha 90.000000
_cell_angle_beta 62.656549
_cell_angle_gamma 90.000000
_cell_volume 1192.748142
_symmetry_space_group_name_H-M "C 2"
_symmetry_group_IT_number 5
_symmetry_cell_setting 'monoclinic'
loop_
_space_group_symop_operation_xyz
x,y,z
-x,y,-z
1/2+x,1/2+y,z
1/2-x,1/2+y,-z
loop_
_atom_site_type_symbol
_atom_site_label
_atom_site_fract_x
_atom_site_fract_y
_atom_site_fract_z
Si Si1 0.214650 0.894710 0.684591
Si Si2 0.500000 0.331583 0.500000
Si Si3 0.178219 0.143056 0.609055
Si Si4 0.500000 0.338490 0.000000
Si Si5 0.896368 0.245070 0.353397
Si Si6 0.500000 0.780035 0.000000
Si Si7 0.846527 0.992320 0.382988
Si Si8 0.349526 0.570753 0.881712
O O1 0.500000 0.893023 0.500000
O O2 0.139522 0.947064 0.721029
O O3 0.994141 0.865172 0.642156
O O4 0.218097 0.869507 0.842980
O O5 0.757811 0.294817 0.415488
O O6 0.500000 0.121503 0.500000
O O7 0.233225 0.194997 0.640139
O O8 0.000000 0.140086 0.500000
O O9 0.982385 0.117436 0.783880
O O10 0.299517 0.309017 0.939553
O O11 0.000000 0.237964 0.500000
O O12 0.025143 0.252795 0.150920
O O13 0.500000 0.003543 0.500000
O O14 0.000000 0.979810 0.500000
O O15 0.035040 0.032853 0.264398
O O16 0.500000 0.560202 0.000000
O O17 0.000000 0.572027 0.000000
#
# Coordination Sequence:
#
# PCOD9130047 Si02
#       8
#     4   2   4   2   4   2   4   4
#     4  11  25  42  70 100 144 193 242 298 359 434
#     4  12  18  44  66  96 142 188 240 294 350 426
#     4  11  24  46  73 102 136 193 239 289 364 441
#     4  12  26  44  66 103 144 189 248 296 366 428
#     4  11  25  42  69 101 144 191 246 302 362 435
#     4  12  26  44  66 103 142 193 240 308 358 434
#     4  11  24  46  72 104 138 192 238 290 363 444
#     4  12  26  46  73 108 144 180 231 307 366 428
#
# _framework density 21.798397999999999
#
# number of rings (size 3 to 8) (size 9 to 14) (size 15 to 20)
#    0.000    0.615    3.077    5.077    2.154    0.000 
#    2.769    0.000    0.000    0.000    0.000    0.000 
#    0.000    0.000    0.000    0.000    0.000    0.000 
#
# Total GULP energy -72377.757686 kJ/mol
# GULP energy per Si atom -5567.519822 kJ/mol
# Density = 2.174878 g / cm^3
# Si number density = 21.798398 Si / 1000 Ang^3
#
#
#
# Elastic Constant Matrix: (Units=GPa)
#
#
# Indices 1 2 3 4 5 6 
#
# 1 95.4082 10.6784 22.4283 0.0000 -23.0609 0.0000
# 2 10.6784 119.5013 28.7041 0.0000 -26.1964 0.0000
# 3 22.4283 28.7041 106.4416 0.0000 -7.7297 0.0000
# 4 0.0000 0.0000 0.0000 103.6764 0.0000 28.4976
# 5 -23.0609 -26.1964 -7.7297 0.0000 37.3800 0.0000
# 6 0.0000 0.0000 0.0000 28.4976 0.0000 32.6656
#
#
#
# Elastic Compliance Matrix: (Units=1/GPa)
#
#
# Indices 1 2 3 4 5 6 
#
# 1 0.012939 0.001268 -0.002461 0.000000 0.008362 0.000000
# 2 0.001268 0.010544 -0.002556 0.000000 0.007643 0.000000
# 3 -0.002461 -0.002556 0.010520 0.000000 -0.001134 0.000000
# 4 0.000000 0.000000 0.000000 0.012688 0.000000 -0.011069
# 5 0.008362 0.007643 -0.001134 0.000000 0.037033 0.000000
# 6 0.000000 0.000000 0.000000 -0.011069 0.000000 0.040270
#
#
# Mechanical properties :
#
#
# Convention : Reuss Voigt Hill
#
# Bulk Modulus (GPa) = 37.72686 49.44141 43.58414
# Shear Modulus (GPa) = 35.63094 52.04709 43.83902
#
# Velocity S-wave (km/s) = 4.04736 4.89167 4.48941
# Velocity P-wave (km/s) = 6.25989 7.39155 6.84913
#
# Compressibility (1/GPa) = 0.02650631
#
# Stress axis : x y z
#
# Youngs Moduli (GPa) = 77.28489 94.83907 95.05497
#
# Poissons Ratio (x) = -0.12026 0.23394
# Poissons Ratio (y) = -0.09800 0.24292
# Poissons Ratio (z) = 0.19021 0.24237
#
# Static dielectric constant tensor:
#      x y z
#    x 1.849190 0.000000 -0.035390 
#    y 0.000000 1.779070 0.000000 
#    z -0.035390 0.000000 1.470280 
# 
# From -- ./inp_files/13181.got.cif
#   From: 2010.05.17/outbox.cif.g08.bks.cpg/sg5_7_cif.got.tgz:13181.got - 2010.06.03 18:56:24.
