data_PCOD9130867
_publ_section_title
;
Structure prediction by ZEFSAII (Michael W. Deem and Ramdas Pophale) SiO2 
 PCOD9130867
Probable space group: P M
;
_chemical_formula_sum "Si O2"
_cell_formula_units_Z 16
_cell_length_a 8.521127
_cell_length_b 8.823349
_cell_length_c 10.454349
_cell_angle_alpha 90.000000
_cell_angle_beta 95.238417
_cell_angle_gamma 90.000000
_cell_volume 782.726107
_symmetry_space_group_name_H-M "P M"
_symmetry_group_IT_number 6
_symmetry_cell_setting 'monoclinic'
loop_
_space_group_symop_operation_xyz
x,y,z
x,-y,z
loop_
_atom_site_type_symbol
_atom_site_label
_atom_site_fract_x
_atom_site_fract_y
_atom_site_fract_z
Si Si1 0.315560 0.817620 0.194310
Si Si2 0.097497 0.667437 0.511867
Si Si3 0.935556 0.668728 0.776356
Si Si4 0.645727 0.680021 0.318968
Si Si5 0.349847 0.169963 0.662178
Si Si6 0.252251 0.317427 0.919150
Si Si7 0.966121 0.176860 0.273579
Si Si8 0.700165 0.832887 0.591562
O O1 0.473804 0.751974 0.273737
O O2 0.136492 0.770645 0.226463
O O3 0.321392 0.000000 0.206308
O O4 0.321429 0.760125 0.049120
O O5 0.085922 0.500000 0.452268
O O6 0.271331 0.727903 0.546584
O O7 0.004858 0.790023 0.424618
O O8 0.032942 0.657412 0.650644
O O9 0.873937 0.500000 0.801562
O O10 0.803766 0.782194 0.720329
O O11 0.063905 0.714492 0.890909
O O12 0.636897 0.500000 0.302699
O O13 0.689417 0.720474 0.469779
O O14 0.794867 0.742679 0.245200
O O15 0.328873 0.247900 0.797628
O O16 0.527866 0.157712 0.636518
O O17 0.277648 0.000000 0.659118
O O18 0.269708 0.500000 0.922572
O O19 0.948331 0.000000 0.242647
O O20 0.747478 0.000000 0.548212
#
# Coordination Sequence:
#
# PCOD9130867 Si02
#       8
#     2   2   2   2   2   2   2   2
#     4  11  25  45  67  92 125 168 217 265 316 375
#     4  10  19  33  56  87 119 154 196 248 307 369
#     4   9  19  35  57  85 118 153 193 246 304 363
#     4  12  25  41  65  96 132 170 209 261 318 377
#     4  10  21  36  57  87 121 162 204 250 309 372
#     4  10  22  42  64  87 117 159 209 257 307 368
#     4  11  23  40  64  93 126 168 212 261 317 377
#     4  11  22  36  58  91 126 160 202 252 310 373
#
# _framework density 20.441378
#
# number of rings (size 3 to 8) (size 9 to 14) (size 15 to 20)
#    0.000    1.500    1.250    4.875    0.000    9.500 
#    2.250    0.000    0.000    0.000    0.000    0.000 
#    0.000    0.000    0.000    0.000    0.000    0.000 
#
# Total GULP energy -89159.416249 kJ/mol
# GULP energy per Si atom -5572.463516 kJ/mol
# Density = 2.039485 g / cm^3
# Si number density = 20.441378 Si / 1000 Ang^3
#
#
#
# Elastic Constant Matrix: (Units=GPa)
#
#
# Indices 1 2 3 4 5 6 
#
# 1 111.9661 34.6217 11.4321 0.0000 -1.8483 0.0000
# 2 34.6217 62.6087 -10.6684 0.0000 -4.1758 0.0000
# 3 11.4321 -10.6684 43.6757 0.0000 5.5107 0.0000
# 4 0.0000 0.0000 0.0000 -15.6784 0.0000 37.1315
# 5 -1.8483 -4.1758 5.5107 0.0000 20.5931 0.0000
# 6 0.0000 0.0000 0.0000 37.1315 0.0000 3.3962
#
#
#
# Elastic Compliance Matrix: (Units=1/GPa)
#
#
# Indices 1 2 3 4 5 6 
#
# 1 0.011692 -0.007248 -0.004945 0.000000 0.000903 0.000000
# 2 -0.007248 0.021271 0.006863 0.000000 0.001826 0.000000
# 3 -0.004945 0.006863 0.026647 0.000000 -0.006183 0.000000
# 4 0.000000 0.000000 0.000000 -0.002372 0.000000 0.025930
# 5 0.000903 0.001826 -0.006183 0.000000 0.050666 0.000000
# 6 0.000000 0.000000 0.000000 0.025930 0.000000 0.010949
#
#
# Mechanical properties :
#
#
# Convention : Reuss Voigt Hill
#
# Bulk Modulus (GPa) = 20.42904 32.11349 26.27126
# Shear Modulus (GPa) = 34.28637 13.85318 24.06977
#
# Velocity S-wave (km/s) = 4.09993 2.60610 3.43520
# Velocity P-wave (km/s) = 5.69458 4.97994 5.34921
#
# Compressibility (1/GPa) = 0.04894994
#
# Stress axis : x y z
#
# Youngs Moduli (GPa) = 85.52662 47.01133 37.52806
#
# Poissons Ratio (x) = 0.34074 0.18557
# Poissons Ratio (y) = 0.61990 -0.25754
# Poissons Ratio (z) = 0.42291 -0.32262
#
# Static dielectric constant tensor:
#      x y z
#    x 1.799470 0.000000 -0.007190 
#    y 0.000000 1.752690 0.000000 
#    z -0.007190 0.000000 1.710330 
# 
# From -- ./inp_files/4512.got.cif
#   From: 2010.05.17/outbox.cif.g08.bks.cpg/sg6_3_cif.got.tgz:4512.got - 2010.06.03 19:42:10.
