data_PCOD9130044
_publ_section_title
;
Structure prediction by ZEFSAII (Michael W. Deem and Ramdas Pophale) SiO2 
 PCOD9130044
Probable space group: C 2
;
_chemical_formula_sum "Si O2"
_cell_formula_units_Z 28
_cell_length_a 7.998090
_cell_length_b 11.998503
_cell_length_c 15.913821
_cell_angle_alpha 90.000000
_cell_angle_beta 58.834441
_cell_angle_gamma 90.000000
_cell_volume 1306.763259
_symmetry_space_group_name_H-M "C 2"
_symmetry_group_IT_number 5
_symmetry_cell_setting 'monoclinic'
loop_
_space_group_symop_operation_xyz
x,y,z
-x,y,-z
1/2+x,1/2+y,z
1/2-x,1/2+y,-z
loop_
_atom_site_type_symbol
_atom_site_label
_atom_site_fract_x
_atom_site_fract_y
_atom_site_fract_z
Si Si1 0.420519 0.743940 0.816457
Si Si2 0.370886 0.955939 0.274539
Si Si3 0.076142 0.914657 0.201871
Si Si4 0.485842 0.174412 0.158770
Si Si5 0.648206 0.576890 0.032563
Si Si6 0.382824 0.000163 0.455995
Si Si7 0.287821 0.582202 0.347703
O O1 0.454841 0.874372 0.799639
O O2 0.205476 0.708705 0.843838
O O3 0.447774 0.687231 0.899972
O O4 0.580587 0.684238 0.715229
O O5 0.197496 0.927537 0.255710
O O6 0.422756 0.083494 0.243225
O O7 0.329855 0.941260 0.383903
O O8 0.062513 0.787459 0.179667
O O9 0.167895 0.986419 0.101658
O O10 0.870633 0.975870 0.274933
O O11 0.648540 0.115318 0.059548
O O12 0.500000 0.534282 0.000000
O O13 0.500000 0.932083 0.500000
O O14 0.556264 0.089264 0.390765
O O15 0.207876 0.055569 0.553791
#
# Coordination Sequence:
#
# PCOD9130044 Si02
#       7
#     4   4   4   4   4   4   4
#     4  11  24  46  71 100 143 183 230 292 343 414
#     4  12  25  44  74 102 139 186 226 289 345 415
#     4  11  25  45  70 103 143 183 232 288 345 413
#     4  12  27  45  71 104 142 180 236 285 349 407
#     4  11  26  45  71 102 138 187 232 284 342 418
#     4   8  21  41  73 100 141 179 235 281 342 420
#     4   8  19  46  66 102 141 175 237 277 348 405
#
# _framework density 21.426988000000001
#
# number of rings (size 3 to 8) (size 9 to 14) (size 15 to 20)
#    0.857    0.571    2.857    2.143   10.000    0.571 
#    2.571    0.000    0.000    0.000    0.000    0.000 
#    0.000    0.000    0.000    0.000    0.000    0.000 
#
# Total GULP energy -78107.055510 kJ/mol
# GULP energy per Si atom -5579.075394 kJ/mol
# Density = 2.137822 g / cm^3
# Si number density = 21.426988 Si / 1000 Ang^3
#
#
#
# Elastic Constant Matrix: (Units=GPa)
#
#
# Indices 1 2 3 4 5 6 
#
# 1 72.0658 19.2750 40.5763 0.0000 13.6175 0.0000
# 2 19.2750 79.6271 0.4290 0.0000 4.5272 0.0000
# 3 40.5763 0.4290 78.6190 0.0000 8.6803 0.0000
# 4 0.0000 0.0000 0.0000 10.9631 0.0000 -6.0052
# 5 13.6175 4.5272 8.6803 0.0000 47.1762 0.0000
# 6 0.0000 0.0000 0.0000 -6.0052 0.0000 20.7219
#
#
#
# Elastic Compliance Matrix: (Units=1/GPa)
#
#
# Indices 1 2 3 4 5 6 
#
# 1 0.022149 -0.005081 -0.010974 0.000000 -0.003886 0.000000
# 2 -0.005081 0.013794 0.002584 0.000000 -0.000332 0.000000
# 3 -0.010974 0.002584 0.018421 0.000000 -0.000470 0.000000
# 4 0.000000 0.000000 0.000000 0.108427 0.000000 0.031422
# 5 -0.003886 -0.000332 -0.000470 0.000000 0.022437 0.000000
# 6 0.000000 0.000000 0.000000 0.031422 0.000000 0.057364
#
#
# Mechanical properties :
#
#
# Convention : Reuss Voigt Hill
#
# Bulk Modulus (GPa) = 36.46968 38.98584 37.72776
# Shear Modulus (GPa) = 17.94201 27.10768 22.52485
#
# Velocity S-wave (km/s) = 2.89685 3.56071 3.24580
# Velocity P-wave (km/s) = 5.31473 5.92782 5.62963
#
# Compressibility (1/GPa) = 0.02742004
#
# Stress axis : x y z
#
# Youngs Moduli (GPa) = 45.14932 72.49770 54.28482
#
# Poissons Ratio (x) = 0.36839 0.59574
# Poissons Ratio (y) = 0.22942 -0.14027
# Poissons Ratio (z) = 0.49549 -0.18733
#
# Static dielectric constant tensor:
#      x y z
#    x 1.827310 0.000000 0.024410 
#    y 0.000000 1.768420 0.000000 
#    z 0.024410 0.000000 1.808030 
# 
# From -- ./inp_files/50413.got.cif
#   From: 2010.05.17/outbox.cif.g08.bks.cpg/sg5_26_cif.got.tgz:50413.got - 2010.06.03 18:56:24.
