data_PCOD9130692
_publ_section_title
;
Structure prediction by ZEFSAII (Michael W. Deem and Ramdas Pophale) SiO2 
 PCOD9130692
Probable space group: C 2
;
_chemical_formula_sum "Si O2"
_cell_formula_units_Z 14
_cell_length_a 12.000000
_cell_length_b 9.000000
_cell_length_c 15.000000
_cell_angle_alpha 90.000000
_cell_angle_beta 120.000000
_cell_angle_gamma 90.000000
_cell_volume 1402.961154
_symmetry_space_group_name_H-M "C 2"
_symmetry_group_IT_number 5
_symmetry_cell_setting 'monoclinic'
loop_
_space_group_symop_operation_xyz
x,y,z
-x,y,-z
1/2+x,1/2+y,z
1/2-x,1/2+y,-z
loop_
_atom_site_type_symbol
_atom_site_label
_atom_site_fract_x
_atom_site_fract_y
_atom_site_fract_z
Si Si1 0.650431 0.156380 0.223345
Si Si2 0.688437 0.629484 0.371144
Si Si3 0.168496 0.786024 0.411607
Si Si4 0.212550 0.162781 0.912046
Si Si5 0.067779 0.868430 0.932184
Si Si6 0.945443 0.568913 0.380322
Si Si7 0.996745 0.371485 0.230668
O O1 0.720197 0.207825 0.342016
O O2 0.736794 0.140233 0.169559
O O3 0.547978 0.291979 0.169650
O O4 0.578877 0.000025 0.214672
O O5 0.741617 0.734470 0.471427
O O6 0.661121 0.463349 0.396510
O O7 0.799962 0.613076 0.342064
O O8 0.573452 0.720788 0.282739
O O9 0.032147 0.707306 0.380979
O O10 0.120538 0.307768 0.873048
O O11 0.141123 0.013842 0.920932
O O12 0.335030 0.228386 0.014621
O O13 0.000000 0.908270 0.000000
O O14 0.955012 0.445287 0.307889
O O15 0.000000 0.521881 0.500000
#
# Coordination Sequence:
#
# PCOD9130692 Si02
#       7
#     4   4   4   4   4   4   4
#     4  10  22  40  59  86 117 147 191 240 280 336
#     4  11  21  37  57  83 120 157 192 234 278 329
#     4  10  20  37  59  83 117 155 194 236 279 330
#     4  11  23  40  63  87 113 150 186 233 293 342
#     4  10  23  42  62  85 114 145 187 237 288 345
#     4   9  20  38  56  81 118 158 195 235 277 324
#     4  11  23  36  59  89 116 152 193 231 282 338
#
# _framework density 9.9788940000000004
#
# number of rings (size 3 to 8) (size 9 to 14) (size 15 to 20)
#    0.000    1.714    0.000    5.143    0.000    5.714 
#    0.000    9.286    0.000    0.000    0.000    0.000 
#    0.000    0.000    0.000    0.000    0.000    0.000 
#
# Total GULP energy -78166.655185 kJ/mol
# GULP energy per Si atom -5583.332513 kJ/mol
# Density = 0.995618 g / cm^3
# Si number density = 9.978894 Si / 1000 Ang^3
#
#
#
# Elastic Constant Matrix: (Units=GPa)
#
#
# Indices 1 2 3 4 5 6 
#
# 1 71.6217 20.6783 14.9857 0.0000 -15.0442 0.0000
# 2 20.6783 106.8409 1.5040 0.0000 -10.6033 0.0000
# 3 14.9857 1.5040 26.4602 0.0000 -4.5976 0.0000
# 4 0.0000 0.0000 0.0000 24.4938 0.0000 7.1432
# 5 -15.0442 -10.6033 -4.5976 0.0000 29.7937 0.0000
# 6 0.0000 0.0000 0.0000 7.1432 0.0000 34.5971
#
#
#
# Elastic Compliance Matrix: (Units=1/GPa)
#
#
# Indices 1 2 3 4 5 6 
#
# 1 0.018018 -0.002690 -0.008875 0.000000 0.006771 0.000000
# 2 -0.002690 0.010104 0.001375 0.000000 0.002450 0.000000
# 3 -0.008875 0.001375 0.043206 0.000000 0.002675 0.000000
# 4 0.000000 0.000000 0.000000 0.043442 0.000000 -0.008969
# 5 0.006771 0.002450 0.002675 0.000000 0.038268 0.000000
# 6 0.000000 0.000000 0.000000 -0.008969 0.000000 0.030756
#
#
# Mechanical properties :
#
#
# Convention : Reuss Voigt Hill
#
# Bulk Modulus (GPa) = 19.62819 31.02874 25.32846
# Shear Modulus (GPa) = 22.60827 28.96056 25.78441
#
# Velocity S-wave (km/s) = 3.36937 3.81345 3.59827
# Velocity P-wave (km/s) = 4.99930 5.91361 5.47558
#
# Compressibility (1/GPa) = 0.05094714
#
# Stress axis : x y z
#
# Youngs Moduli (GPa) = 55.49914 98.96893 23.14508
#
# Poissons Ratio (x) = 0.26626 0.20542
# Poissons Ratio (y) = 0.14931 -0.03183
# Poissons Ratio (z) = 0.49256 -0.13608
#
# Static dielectric constant tensor:
#      x y z
#    x 1.727470 0.000000 0.038950 
#    y 0.000000 1.657790 0.000000 
#    z 0.038950 0.000000 1.741370 
# 
# From -- ./inp_files/52222.got.cif
#   From: 2010.05.17/outbox.ucp.g08.bks.cvg/sg5_27_cif.got.tgz:52222.got - 2010.06.11 12:53:14.
