data_PCOD9130081
_publ_section_title
;
Structure prediction by ZEFSAII (Michael W. Deem and Ramdas Pophale) SiO2 
 PCOD9130081
Probable space group: C 2
;
_chemical_formula_sum "Si O2"
_cell_formula_units_Z 20
_cell_length_a 9.977515
_cell_length_b 8.957708
_cell_length_c 14.309952
_cell_angle_alpha 90.000000
_cell_angle_beta 43.506026
_cell_angle_gamma 90.000000
_cell_volume 880.476561
_symmetry_space_group_name_H-M "C 2"
_symmetry_group_IT_number 5
_symmetry_cell_setting 'monoclinic'
loop_
_space_group_symop_operation_xyz
x,y,z
-x,y,-z
1/2+x,1/2+y,z
1/2-x,1/2+y,-z
loop_
_atom_site_type_symbol
_atom_site_label
_atom_site_fract_x
_atom_site_fract_y
_atom_site_fract_z
Si Si1 0.810745 0.638620 0.063937
Si Si2 0.732982 0.954836 0.393711
Si Si3 0.441169 0.637691 0.134704
Si Si4 0.710194 0.614391 0.443489
Si Si5 0.368379 0.957576 0.197145
O O1 0.919259 0.508305 0.948949
O O2 0.633781 0.692435 0.093425
O O3 0.738823 0.565777 0.196758
O O4 0.000000 0.735256 0.000000
O O5 0.500000 0.962990 0.500000
O O6 0.839309 0.009497 0.245971
O O7 0.788584 0.063256 0.450691
O O8 0.781818 0.783824 0.393930
O O9 0.315175 0.788957 0.200571
O O10 0.500000 0.599652 0.000000
O O11 0.500000 0.603365 0.500000
O O12 0.844945 0.501804 0.315639
#
# Coordination Sequence:
#
# PCOD9130081 Si02
#       5
#     4   4   4   4   4
#     4   8  21  42  61  99 134 177 216 275 334 394
#     4  11  28  44  69 105 137 178 231 280 340 407
#     4  12  23  44  72 103 138 182 225 279 343 404
#     4  11  24  48  70  97 137 182 231 280 341 404
#     4   9  21  43  69  94 138 173 228 276 336 397
#
# _framework density 22.714970999999998
#
# number of rings (size 3 to 8) (size 9 to 14) (size 15 to 20)
#    1.200    0.400    2.000    2.400    2.800    8.000 
#    3.600    0.000    0.000    0.000    0.000    0.000 
#    0.000    0.000    0.000    0.000    0.000    0.000 
#
# Total GULP energy -55782.107106 kJ/mol
# GULP energy per Si atom -5578.210711 kJ/mol
# Density = 2.266327 g / cm^3
# Si number density = 22.714971 Si / 1000 Ang^3
#
#
#
# Elastic Constant Matrix: (Units=GPa)
#
#
# Indices 1 2 3 4 5 6 
#
# 1 85.1149 -1.8904 21.7883 0.0000 11.8295 0.0000
# 2 -1.8904 95.0574 49.5341 0.0000 15.9636 0.0000
# 3 21.7883 49.5341 148.0441 0.0000 30.8897 0.0000
# 4 0.0000 0.0000 0.0000 10.8130 0.0000 2.8452
# 5 11.8295 15.9636 30.8897 0.0000 34.8088 0.0000
# 6 0.0000 0.0000 0.0000 2.8452 0.0000 11.9366
#
#
#
# Elastic Compliance Matrix: (Units=1/GPa)
#
#
# Indices 1 2 3 4 5 6 
#
# 1 0.012726 0.001748 -0.001704 0.000000 -0.003615 0.000000
# 2 0.001748 0.013165 -0.004024 0.000000 -0.003061 0.000000
# 3 -0.001704 -0.004024 0.009629 0.000000 -0.006121 0.000000
# 4 0.000000 0.000000 0.000000 0.098670 0.000000 -0.023518
# 5 -0.003615 -0.003061 -0.006121 0.000000 0.036792 0.000000
# 6 0.000000 0.000000 0.000000 -0.023518 0.000000 0.089382
#
#
# Mechanical properties :
#
#
# Convention : Reuss Voigt Hill
#
# Bulk Modulus (GPa) = 36.28211 51.89783 44.08997
# Shear Modulus (GPa) = 18.01741 28.76397 23.39069
#
# Velocity S-wave (km/s) = 2.81943 3.56237 3.21245
# Velocity P-wave (km/s) = 5.15813 6.31012 5.76299
#
# Compressibility (1/GPa) = 0.02756180
#
# Stress axis : x y z
#
# Youngs Moduli (GPa) = 78.57865 75.95629 103.85550
#
# Poissons Ratio (x) = -0.13276 0.17692
# Poissons Ratio (y) = -0.13734 0.41787
# Poissons Ratio (z) = 0.13386 0.30561
#
# Static dielectric constant tensor:
#      x y z
#    x 1.967560 0.000000 -0.041770 
#    y 0.000000 1.817890 0.000000 
#    z -0.041770 0.000000 1.892830 
# 
# From -- ./inp_files/52039.got.cif
#   From: 2010.05.17/outbox.cif.g08.bks.cpg/sg5_27_cif.got.tgz:52039.got - 2010.06.03 18:56:24.
