data_PCOD9130662
_publ_section_title
;
Structure prediction by ZEFSAII (Michael W. Deem and Ramdas Pophale) SiO2 
 PCOD9130662
Probable space group: C 2
;
_chemical_formula_sum "Si O2"
_cell_formula_units_Z 14
_cell_length_a 15.000000
_cell_length_b 12.000000
_cell_length_c 9.000000
_cell_angle_alpha 90.000000
_cell_angle_beta 110.000000
_cell_angle_gamma 90.000000
_cell_volume 1522.302046
_symmetry_space_group_name_H-M "C 2"
_symmetry_group_IT_number 5
_symmetry_cell_setting 'monoclinic'
loop_
_space_group_symop_operation_xyz
x,y,z
-x,y,-z
1/2+x,1/2+y,z
1/2-x,1/2+y,-z
loop_
_atom_site_type_symbol
_atom_site_label
_atom_site_fract_x
_atom_site_fract_y
_atom_site_fract_z
Si Si1 0.990260 0.573850 0.158131
Si Si2 0.927737 0.194484 0.334392
Si Si3 0.592038 0.228146 0.460166
Si Si4 0.305649 0.058511 0.254016
Si Si5 0.897851 0.132110 0.985138
Si Si6 0.224500 0.333340 0.572012
Si Si7 0.922582 0.334498 0.769227
O O1 0.884769 0.552504 0.166902
O O2 0.044551 0.645536 0.313250
O O3 0.044456 0.456867 0.170410
O O4 0.000000 0.628235 0.000000
O O5 0.834797 0.240072 0.367339
O O6 0.000000 0.142076 0.500000
O O7 0.995735 0.288290 0.296786
O O8 0.896431 0.133470 0.164299
O O9 0.500000 0.276405 0.500000
O O10 0.654809 0.154809 0.612296
O O11 0.666632 0.305028 0.410425
O O12 0.200868 0.083093 0.130253
O O13 0.293940 0.945759 0.344178
O O14 0.905738 0.251303 0.899161
O O15 0.000000 0.077396 0.000000
O O16 0.170763 0.341150 0.384123
#
# Coordination Sequence:
#
# PCOD9130662 Si02
#       7
#     4   4   4   4   4   4   4
#     4  11  22  37  60  96 120 153 205 257 295 359
#     4   9  19  32  59  92 115 150 195 256 303 349
#     4  10  23  40  61  86 124 163 200 246 306 365
#     4  11  22  39  65  88 122 164 202 249 304 363
#     4  10  21  38  60  89 124 159 200 253 308 355
#     4  11  20  37  63  88 121 159 200 247 311 354
#     4  10  18  35  62  90 118 149 202 260 296 342
#
# _framework density 9.1965979999999998
#
# number of rings (size 3 to 8) (size 9 to 14) (size 15 to 20)
#    0.000    1.714    4.286    1.286    2.000    0.000 
#    0.000    0.714    9.429    0.000    0.000    0.000 
#    0.000    0.000    0.000    0.000    0.000    0.000 
#
# Total GULP energy -77965.137068 kJ/mol
# GULP energy per Si atom -5568.938362 kJ/mol
# Density = 0.917567 g / cm^3
# Si number density = 9.196598 Si / 1000 Ang^3
#
#
#
# Elastic Constant Matrix: (Units=GPa)
#
#
# Indices 1 2 3 4 5 6 
#
# 1 148.8242 25.1709 41.6713 0.0000 3.3032 0.0000
# 2 25.1709 21.3232 11.0727 0.0000 0.6799 0.0000
# 3 41.6713 11.0727 141.5265 0.0000 3.7061 0.0000
# 4 0.0000 0.0000 0.0000 19.9053 0.0000 1.5465
# 5 3.3032 0.6799 3.7061 0.0000 44.2341 0.0000
# 6 0.0000 0.0000 0.0000 1.5465 0.0000 27.1475
#
#
#
# Elastic Compliance Matrix: (Units=1/GPa)
#
#
# Indices 1 2 3 4 5 6 
#
# 1 0.008848 -0.009470 -0.001855 0.000000 -0.000360 0.000000
# 2 -0.009470 0.059028 -0.001828 0.000000 -0.000047 0.000000
# 3 -0.001855 -0.001828 0.007768 0.000000 -0.000484 0.000000
# 4 0.000000 0.000000 0.000000 0.050461 0.000000 -0.002875
# 5 -0.000360 -0.000047 -0.000484 0.000000 0.022675 0.000000
# 6 0.000000 0.000000 0.000000 -0.002875 0.000000 0.037000
#
#
# Mechanical properties :
#
#
# Convention : Reuss Voigt Hill
#
# Bulk Modulus (GPa) = 20.26913 51.94484 36.10699
# Shear Modulus (GPa) = 21.87866 33.84129 27.85997
#
# Velocity S-wave (km/s) = 3.45265 4.29404 3.89612
# Velocity P-wave (km/s) = 5.19020 7.27239 6.31767
#
# Compressibility (1/GPa) = 0.04933612
#
# Stress axis : x y z
#
# Youngs Moduli (GPa) = 113.01374 16.94119 128.73760
#
# Poissons Ratio (x) = 0.16044 0.23881
# Poissons Ratio (y) = 1.07029 0.23539
# Poissons Ratio (z) = 0.20964 0.03098
#
# Static dielectric constant tensor:
#      x y z
#    x 1.633520 0.000000 0.011030 
#    y 0.000000 1.645300 0.000000 
#    z 0.011030 0.000000 1.665460 
# 
# From -- ./inp_files/20325.got.cif
#   From: 2010.05.17/outbox.ucp.g08.bks.cvg/sg5_11_cif.got.tgz:20325.got - 2010.06.11 12:53:14.
