data_PCOD9130164
_publ_section_title
;
Structure prediction by ZEFSAII (Michael W. Deem and Ramdas Pophale) SiO2 
 PCOD9130164
Probable space group: C 2
;
_chemical_formula_sum "Si O2"
_cell_formula_units_Z 28
_cell_length_a 14.132269
_cell_length_b 5.115829
_cell_length_c 18.950422
_cell_angle_alpha 90.000000
_cell_angle_beta 52.331277
_cell_angle_gamma 90.000000
_cell_volume 1084.498925
_symmetry_space_group_name_H-M "C 2"
_symmetry_group_IT_number 5
_symmetry_cell_setting 'monoclinic'
loop_
_space_group_symop_operation_xyz
x,y,z
-x,y,-z
1/2+x,1/2+y,z
1/2-x,1/2+y,-z
loop_
_atom_site_type_symbol
_atom_site_label
_atom_site_fract_x
_atom_site_fract_y
_atom_site_fract_z
Si Si1 0.000000 0.446630 0.000000
Si Si2 0.000000 0.594947 0.500000
Si Si3 0.188925 0.964662 0.446542
Si Si4 0.077553 0.590938 0.229894
Si Si5 0.812368 0.292776 0.198356
Si Si6 0.060793 0.257197 0.609589
Si Si7 0.665622 0.298190 0.713801
Si Si8 0.323787 0.146086 0.965965
O O1 0.087694 0.283669 0.908859
O O2 0.915522 0.618430 0.988139
O O3 0.974081 0.426100 0.442907
O O4 0.886755 0.778978 0.568606
O O5 0.101303 0.991477 0.553640
O O6 0.313411 0.846553 0.414415
O O7 0.226591 0.228570 0.388836
O O8 0.183779 0.735457 0.222341
O O9 0.120067 0.536502 0.131520
O O10 0.039852 0.327461 0.288230
O O11 0.956994 0.758607 0.273584
O O12 0.823770 0.572223 0.231487
O O13 0.834658 0.072062 0.246923
O O14 0.284188 0.443300 0.971202
#
# Coordination Sequence:
#
# PCOD9130164 Si02
#       8
#     2   2   4   4   4   4   4   4
#     4  12  28  50  80 112 152 192 248 308 376 446
#     4  12  24  44  72  98 146 194 242 302 366 428
#     4  11  25  46  72 104 146 197 245 305 366 434
#     4  11  27  49  76 110 151 196 250 309 367 444
#     4  12  28  48  77 114 147 198 248 303 378 445
#     4  11  25  48  70 107 146 195 248 302 364 435
#     4  11  29  48  74 110 155 193 249 310 366 439
#     4  12  29  51  78 110 151 193 245 306 379 444
#
# _framework density 25.818373999999999
#
# number of rings (size 3 to 8) (size 9 to 14) (size 15 to 20)
#    0.000    0.571    4.286    1.286   10.000    2.286 
#    2.571    0.000    0.000    0.000    0.000    0.000 
#    0.000    0.000    0.000    0.000    0.000    0.000 
#
# Total GULP energy -78527.263728 kJ/mol
# GULP energy per Si atom -5609.090266 kJ/mol
# Density = 2.575961 g / cm^3
# Si number density = 25.818374 Si / 1000 Ang^3
#
#
#
# Elastic Constant Matrix: (Units=GPa)
#
#
# Indices 1 2 3 4 5 6 
#
# 1 186.9469 24.3935 22.1569 0.0018 -13.8870 0.0098
# 2 24.3935 68.7445 12.3626 0.0066 -2.7312 0.0205
# 3 22.1569 12.3626 134.6861 0.0007 17.3525 0.0007
# 4 0.0018 0.0066 0.0007 26.4300 -0.0012 12.7480
# 5 -13.8870 -2.7312 17.3525 -0.0012 35.4671 0.0020
# 6 0.0098 0.0205 0.0007 12.7480 0.0020 34.6949
#
#
#
# Elastic Compliance Matrix: (Units=1/GPa)
#
#
# Indices 1 2 3 4 5 6 
#
# 1 0.005924 -0.001783 -0.001166 0.000001 0.002753 -0.000001
# 2 -0.001783 0.015452 -0.001268 0.000001 0.001112 -0.000009
# 3 -0.001166 -0.001268 0.008329 -0.000001 -0.004629 0.000001
# 4 0.000001 0.000001 -0.000001 0.045986 0.000003 -0.016897
# 5 0.002753 0.001112 -0.004629 0.000003 0.031623 -0.000004
# 6 -0.000001 -0.000009 0.000001 -0.016897 -0.000004 0.035031
#
#
# Mechanical properties :
#
#
# Convention : Reuss Voigt Hill
#
# Bulk Modulus (GPa) = 47.01188 56.46706 51.73947
# Shear Modulus (GPa) = 31.67165 41.41601 36.54383
#
# Velocity S-wave (km/s) = 3.50624 4.00950 3.76629
# Velocity P-wave (km/s) = 5.88556 6.58431 6.24472
#
# Compressibility (1/GPa) = 0.02127122
#
# Stress axis : x y z
#
# Youngs Moduli (GPa) = 168.79305 64.71798 120.05914
#
# Poissons Ratio (x) = 0.11541 0.13994
# Poissons Ratio (y) = 0.30100 0.15226
# Poissons Ratio (z) = 0.19674 0.08208
#
# Static dielectric constant tensor:
#      x y z
#    x 1.975570 0.000000 -0.007390 
#    y 0.000000 2.090010 0.000000 
#    z -0.007390 0.000000 2.074410 
# 
# From -- ./inp_files/65656.got.cif
#   From: 2010.05.17/outbox.cif.g08.bks.cpg/sg5_33_cif.got.tgz:65656.got - 2010.06.03 18:56:24.
