data_PCOD9130449
_publ_section_title
;
Structure prediction by ZEFSAII (Michael W. Deem and Ramdas Pophale) SiO2 
 PCOD9130449
Probable space group: C 2
;
_chemical_formula_sum "Si O2"
_cell_formula_units_Z 22
_cell_length_a 25.308650
_cell_length_b 6.740718
_cell_length_c 9.802762
_cell_angle_alpha 90.000000
_cell_angle_beta 147.536804
_cell_angle_gamma 90.000000
_cell_volume 897.639419
_symmetry_space_group_name_H-M "C 2"
_symmetry_group_IT_number 5
_symmetry_cell_setting 'monoclinic'
loop_
_space_group_symop_operation_xyz
x,y,z
-x,y,-z
1/2+x,1/2+y,z
1/2-x,1/2+y,-z
loop_
_atom_site_type_symbol
_atom_site_label
_atom_site_fract_x
_atom_site_fract_y
_atom_site_fract_z
Si Si1 0.441140 0.461070 0.103251
Si Si2 0.125920 0.790114 0.609519
Si Si3 0.383558 0.814744 0.827010
Si Si4 0.722570 0.546296 0.616361
Si Si5 0.500000 0.155251 0.000000
Si Si6 0.749567 0.915223 0.860093
O O1 0.515364 0.372584 0.378129
O O2 0.462166 0.672048 0.075142
O O3 0.451282 0.294462 0.007845
O O4 0.334438 0.489379 0.939840
O O5 0.156816 0.560294 0.676534
O O6 0.152747 0.872779 0.517449
O O7 0.196112 0.881121 0.877977
O O8 0.314258 0.659118 0.597808
O O9 0.325584 0.941053 0.813179
O O10 0.417167 0.984563 0.793489
O O11 0.721735 0.706555 0.733846
#
# Coordination Sequence:
#
# PCOD9130449 Si02
#       6
#     4   4   4   4   2   4
#     4  12  26  46  73 112 151 201 263 314 392 465
#     4  12  26  47  77 105 153 205 252 321 381 459
#     4  12  26  44  73 112 152 201 255 325 389 460
#     4  12  25  45  74 108 151 201 250 314 396 451
#     4  12  24  44  68 108 154 190 258 324 376 460
#     4  12  25  50  73 111 153 204 263 309 385 468
#
# _framework density 24.508728999999999
#
# number of rings (size 3 to 8) (size 9 to 14) (size 15 to 20)
#    0.000    0.000    5.455    5.455    2.545    0.000 
#    0.000    0.000    0.000    0.000    0.000    0.000 
#    0.000    0.000    0.000    0.000    0.000    0.000 
#
# Total GULP energy -61425.462059 kJ/mol
# GULP energy per Si atom -5584.132914 kJ/mol
# Density = 2.445295 g / cm^3
# Si number density = 24.508729 Si / 1000 Ang^3
#
#
#
# Elastic Constant Matrix: (Units=GPa)
#
#
# Indices 1 2 3 4 5 6 
#
# 1 61.4192 37.5650 1.3752 0.0000 -9.2542 0.0000
# 2 37.5650 169.7234 48.6676 0.0000 -8.9075 0.0000
# 3 1.3752 48.6676 88.9532 0.0000 -18.1880 0.0000
# 4 0.0000 0.0000 0.0000 45.4353 0.0000 1.0616
# 5 -9.2542 -8.9075 -18.1880 0.0000 39.0855 0.0000
# 6 0.0000 0.0000 0.0000 1.0616 0.0000 43.8010
#
#
#
# Elastic Compliance Matrix: (Units=1/GPa)
#
#
# Indices 1 2 3 4 5 6 
#
# 1 0.020197 -0.005234 0.003631 0.000000 0.005279 0.000000
# 2 -0.005234 0.008346 -0.004807 0.000000 -0.001574 0.000000
# 3 0.003631 -0.004807 0.015215 0.000000 0.006844 0.000000
# 4 0.000000 0.000000 0.000000 0.022022 0.000000 -0.000534
# 5 0.005279 -0.001574 0.006844 0.000000 0.029661 0.000000
# 6 0.000000 0.000000 0.000000 -0.000534 0.000000 0.022843
#
#
# Mechanical properties :
#
#
# Convention : Reuss Voigt Hill
#
# Bulk Modulus (GPa) = 32.32370 55.03458 43.67914
# Shear Modulus (GPa) = 35.35596 41.16357 38.25977
#
# Velocity S-wave (km/s) = 3.80226 4.10267 3.95532
# Velocity P-wave (km/s) = 5.70031 6.70421 6.22254
#
# Compressibility (1/GPa) = 0.03093705
#
# Stress axis : x y z
#
# Youngs Moduli (GPa) = 49.51229 119.81320 65.72306
#
# Poissons Ratio (x) = 0.62714 -0.23863
# Poissons Ratio (y) = 0.25916 0.31595
# Poissons Ratio (z) = -0.17977 0.57599
#
# Static dielectric constant tensor:
#      x y z
#    x 2.020490 0.000000 0.071690 
#    y 0.000000 1.942130 0.000000 
#    z 0.071690 0.000000 2.078680 
# 
# From -- ./inp_files/48249.got.cif
#   From: 2010.05.17/outbox.cif.g08.bks.cpg/sg5_25_cif.got.tgz:48249.got - 2010.06.03 18:56:24.
