data_PCOD9130204
_publ_section_title
;
Structure prediction by ZEFSAII (Michael W. Deem and Ramdas Pophale) SiO2 
 PCOD9130204
Probable space group: C 2
;
_chemical_formula_sum "Si O2"
_cell_formula_units_Z 20
_cell_length_a 13.849563
_cell_length_b 10.051716
_cell_length_c 8.719414
_cell_angle_alpha 90.000000
_cell_angle_beta 142.098329
_cell_angle_gamma 90.000000
_cell_volume 745.675545
_symmetry_space_group_name_H-M "C 2"
_symmetry_group_IT_number 5
_symmetry_cell_setting 'monoclinic'
loop_
_space_group_symop_operation_xyz
x,y,z
-x,y,-z
1/2+x,1/2+y,z
1/2-x,1/2+y,-z
loop_
_atom_site_type_symbol
_atom_site_label
_atom_site_fract_x
_atom_site_fract_y
_atom_site_fract_z
Si Si1 0.427061 0.712450 0.563150
Si Si2 0.936283 0.979214 0.088061
Si Si3 0.347780 0.107366 0.630268
Si Si4 0.697638 0.354535 0.598276
Si Si5 0.133624 0.460361 0.889260
O O1 0.500000 0.651224 0.500000
O O2 0.497530 0.624743 0.788512
O O3 0.239551 0.693739 0.343960
O O4 0.505094 0.854605 0.673373
O O5 0.286209 0.197708 0.412193
O O6 0.020924 0.885753 0.321788
O O7 0.752923 0.981677 0.898684
O O8 0.286894 0.959318 0.596244
O O9 0.531764 0.082860 0.829237
O O10 0.766183 0.397617 0.846198
O O11 0.000000 0.942518 0.000000
#
# Coordination Sequence:
#
# PCOD9130204 Si02
#       5
#     4   4   4   4   4
#     4  11  27  50  77 117 169 216 285 344 413 508
#     4  11  28  50  80 120 165 222 284 340 420 511
#     4  11  25  48  86 119 164 219 283 336 423 494
#     4  11  26  50  82 126 171 216 284 345 420 514
#     4  12  27  51  87 115 173 225 269 358 428 482
#
# _framework density 26.821317000000001
#
# number of rings (size 3 to 8) (size 9 to 14) (size 15 to 20)
#    0.000    0.800    2.000    3.600   11.200    1.600 
#    0.000    0.000    0.000    0.000    0.000    0.000 
#    0.000    0.000    0.000    0.000    0.000    0.000 
#
# Total GULP energy -55833.368064 kJ/mol
# GULP energy per Si atom -5583.336806 kJ/mol
# Density = 2.676027 g / cm^3
# Si number density = 26.821317 Si / 1000 Ang^3
#
#
#
# Elastic Constant Matrix: (Units=GPa)
#
#
# Indices 1 2 3 4 5 6 
#
# 1 204.3933 75.0359 121.9414 0.0000 42.4489 0.0000
# 2 75.0359 87.0039 67.6438 0.0000 1.8483 0.0000
# 3 121.9414 67.6438 120.9429 0.0000 18.0173 0.0000
# 4 0.0000 0.0000 0.0000 43.1651 0.0000 -9.9601
# 5 42.4489 1.8483 18.0173 0.0000 67.3206 0.0000
# 6 0.0000 0.0000 0.0000 -9.9601 0.0000 23.2911
#
#
#
# Elastic Compliance Matrix: (Units=1/GPa)
#
#
# Indices 1 2 3 4 5 6 
#
# 1 0.014230 -0.002935 -0.011854 0.000000 -0.005719 0.000000
# 2 -0.002935 0.021385 -0.009572 0.000000 0.003825 0.000000
# 3 -0.011854 -0.009572 0.025435 0.000000 0.000930 0.000000
# 4 0.000000 0.000000 0.000000 0.025703 0.000000 0.010992
# 5 -0.005719 0.003825 0.000930 0.000000 0.018107 0.000000
# 6 0.000000 0.000000 0.000000 0.010992 0.000000 0.047635
#
#
# Mechanical properties :
#
#
# Convention : Reuss Voigt Hill
#
# Bulk Modulus (GPa) = 81.10596 104.62026 92.86311
# Shear Modulus (GPa) = 24.35157 36.60328 30.47742
#
# Velocity S-wave (km/s) = 3.01644 3.69820 3.37458
# Velocity P-wave (km/s) = 6.51436 7.57144 7.06270
#
# Compressibility (1/GPa) = 0.01232955
#
# Stress axis : x y z
#
# Youngs Moduli (GPa) = 70.27561 46.76083 39.31608
#
# Poissons Ratio (x) = 0.13723 0.46604
# Poissons Ratio (y) = 0.20625 0.37632
# Poissons Ratio (z) = 0.83302 0.44758
#
# Static dielectric constant tensor:
#      x y z
#    x 2.175790 0.000000 0.055650 
#    y 0.000000 2.106960 0.000000 
#    z 0.055650 0.000000 2.208300 
# 
# From -- ./inp_files/42589.got.cif
#   From: 2010.05.17/outbox.cif.g08.bks.cpg/sg5_22_cif.got.tgz:42589.got - 2010.06.03 18:56:24.
