data_PCOD9130129
_publ_section_title
;
Structure prediction by ZEFSAII (Michael W. Deem and Ramdas Pophale) SiO2 
 PCOD9130129
Probable space group: C 2
;
_chemical_formula_sum "Si O2"
_cell_formula_units_Z 24
_cell_length_a 7.717136
_cell_length_b 11.747268
_cell_length_c 11.317262
_cell_angle_alpha 90.000000
_cell_angle_beta 85.242899
_cell_angle_gamma 90.000000
_cell_volume 1022.435157
_symmetry_space_group_name_H-M "C 2"
_symmetry_group_IT_number 5
_symmetry_cell_setting 'monoclinic'
loop_
_space_group_symop_operation_xyz
x,y,z
-x,y,-z
1/2+x,1/2+y,z
1/2-x,1/2+y,-z
loop_
_atom_site_type_symbol
_atom_site_label
_atom_site_fract_x
_atom_site_fract_y
_atom_site_fract_z
Si Si1 0.965508 0.151620 0.872624
Si Si2 0.770272 0.358503 0.776690
Si Si3 0.159425 0.706134 0.219519
Si Si4 0.586143 0.997132 0.751727
Si Si5 0.780472 0.914996 0.948890
Si Si6 0.931737 0.901471 0.633285
O O1 0.838348 0.230722 0.802683
O O2 0.154902 0.145846 0.803566
O O3 0.885659 0.029286 0.907821
O O4 0.000000 0.206816 0.000000
O O5 0.998213 0.618943 0.772159
O O6 0.933447 0.420631 0.704998
O O7 0.735482 0.406186 0.910983
O O8 0.158212 0.778860 0.339637
O O9 0.399105 0.385085 0.292083
O O10 0.611915 0.938726 0.878560
O O11 0.774161 0.986266 0.678885
O O12 0.854233 0.798098 0.887259
O O13 0.000000 0.924188 0.500000
#
# Coordination Sequence:
#
# PCOD9130129 Si02
#       6
#     4   4   4   4   4   4
#     4  12  23  45  77 118 162 198 239 298 385 472
#     4  12  24  49  79 110 159 201 243 309 380 451
#     4  11  25  48  75 114 157 192 250 308 379 450
#     4  11  25  48  77 113 155 195 249 310 381 457
#     4  11  25  44  74 119 158 199 239 299 385 475
#     4  11  28  54  76 108 147 200 274 315 368 438
#
# _framework density 23.473372000000001
#
# number of rings (size 3 to 8) (size 9 to 14) (size 15 to 20)
#    0.000    0.667    5.000    2.500    9.333    0.667 
#    9.000    0.000    0.000    0.000    0.000    0.000 
#    0.000    0.000    0.000    0.000    0.000    0.000 
#
# Total GULP energy -67042.044618 kJ/mol
# GULP energy per Si atom -5586.837051 kJ/mol
# Density = 2.341995 g / cm^3
# Si number density = 23.473372 Si / 1000 Ang^3
#
#
#
# Elastic Constant Matrix: (Units=GPa)
#
#
# Indices 1 2 3 4 5 6 
#
# 1 216.8898 81.2315 68.3014 0.0000 -13.5284 0.0000
# 2 81.2315 162.3308 40.6008 0.0000 -13.0787 0.0000
# 3 68.3014 40.6008 109.5483 0.0000 -28.0511 0.0000
# 4 0.0000 0.0000 0.0000 3.8393 0.0000 -6.6106
# 5 -13.5284 -13.0787 -28.0511 0.0000 31.2053 0.0000
# 6 0.0000 0.0000 0.0000 -6.6106 0.0000 62.2698
#
#
#
# Elastic Compliance Matrix: (Units=1/GPa)
#
#
# Indices 1 2 3 4 5 6 
#
# 1 0.006577 -0.002522 -0.003516 0.000000 -0.001366 0.000000
# 2 -0.002522 0.007770 -0.000979 0.000000 0.001284 0.000000
# 3 -0.003516 -0.000979 0.014533 0.000000 0.011130 0.000000
# 4 0.000000 0.000000 0.000000 0.318725 0.000000 0.033836
# 5 -0.001366 0.001284 0.011130 0.000000 0.041996 0.000000
# 6 0.000000 0.000000 0.000000 0.033836 0.000000 0.019651
#
#
# Mechanical properties :
#
#
# Convention : Reuss Voigt Hill
#
# Bulk Modulus (GPa) = 67.35162 96.55959 81.95561
# Shear Modulus (GPa) = 11.67580 39.37190 25.52385
#
# Velocity S-wave (km/s) = 2.23268 4.09993 3.30108
# Velocity P-wave (km/s) = 5.94992 7.97732 7.03702
#
# Compressibility (1/GPa) = 0.01484745
#
# Stress axis : x y z
#
# Youngs Moduli (GPa) = 152.04118 128.69185 68.80835
#
# Poissons Ratio (x) = 0.32456 0.24192
# Poissons Ratio (y) = 0.38344 0.06735
# Poissons Ratio (z) = 0.53456 0.12597
#
# Static dielectric constant tensor:
#      x y z
#    x 2.006610 0.000000 0.009620 
#    y 0.000000 1.974370 0.000000 
#    z 0.009620 0.000000 1.877690 
# 
# From -- ./inp_files/35406.got.cif
#   From: 2010.05.17/outbox.cif.g08.bks.cpg/sg5_18_cif.got.tgz:35406.got - 2010.06.03 18:56:24.
