data_PCOD9130216
_publ_section_title
;
Structure prediction by ZEFSAII (Michael W. Deem and Ramdas Pophale) SiO2 
 PCOD9130216
Probable space group: C 2
;
_chemical_formula_sum "Si O2"
_cell_formula_units_Z 14
_cell_length_a 7.612510
_cell_length_b 15.407254
_cell_length_c 7.284557
_cell_angle_alpha 90.000000
_cell_angle_beta 139.143588
_cell_angle_gamma 90.000000
_cell_volume 558.912690
_symmetry_space_group_name_H-M "C 2"
_symmetry_group_IT_number 5
_symmetry_cell_setting 'monoclinic'
loop_
_space_group_symop_operation_xyz
x,y,z
-x,y,-z
1/2+x,1/2+y,z
1/2-x,1/2+y,-z
loop_
_atom_site_type_symbol
_atom_site_label
_atom_site_fract_x
_atom_site_fract_y
_atom_site_fract_z
Si Si1 0.781013 0.698660 0.987326
Si Si2 0.000000 0.807855 0.500000
Si Si3 0.976099 0.374601 0.275051
Si Si4 0.195463 0.014228 0.829935
O O1 0.898774 0.743219 0.261822
O O2 0.582152 0.772736 0.761739
O O3 0.655629 0.603525 0.912265
O O4 0.000000 0.693966 0.000000
O O5 0.754957 0.868387 0.381119
O O6 0.000000 0.410108 0.500000
O O7 0.732524 0.428347 0.986849
O O8 0.000000 0.022001 0.500000
O O9 0.500000 0.019651 0.000000
#
# Coordination Sequence:
#
# PCOD9130216 Si02
#       4
#     4   2   4   4
#     4  11  25  49  83 116 167 210 277 328 414 481
#     4  12  26  50  84 122 158 224 260 346 402 486
#     4  12  27  51  85 119 165 214 277 330 410 490
#     4  11  28  50  83 119 165 214 271 339 407 485
#
# _framework density 25.048635000000001
#
# number of rings (size 3 to 8) (size 9 to 14) (size 15 to 20)
#    0.000    0.571    2.857    3.429   14.000    0.000 
#    0.000    2.857    0.000    0.000    0.000    0.000 
#    0.000    0.000    0.000    0.000    0.000    0.000 
#
# Total GULP energy -39103.094751 kJ/mol
# GULP energy per Si atom -5586.156393 kJ/mol
# Density = 2.499162 g / cm^3
# Si number density = 25.048635 Si / 1000 Ang^3
#
#
#
# Elastic Constant Matrix: (Units=GPa)
#
#
# Indices 1 2 3 4 5 6 
#
# 1 115.1524 26.6854 61.4864 0.0000 -23.7110 0.0000
# 2 26.6854 192.1128 63.3308 0.0000 -10.9611 0.0000
# 3 61.4864 63.3308 210.0534 0.0000 -40.3688 0.0000
# 4 0.0000 0.0000 0.0000 94.0919 0.0000 -590.8398
# 5 -23.7110 -10.9611 -40.3688 0.0000 57.5145 0.0000
# 6 0.0000 0.0000 0.0000 -590.8398 0.0000 3119.1121
#
#
#
# Elastic Compliance Matrix: (Units=1/GPa)
#
#
# Indices 1 2 3 4 5 6 
#
# 1 0.010650 -0.000519 -0.002469 0.000000 0.002558 0.000000
# 2 -0.000519 0.005806 -0.001649 0.000000 -0.000265 0.000000
# 3 -0.002469 -0.001649 0.006617 0.000000 0.003312 0.000000
# 4 0.000000 0.000000 0.000000 -0.056090 0.000000 -0.010625
# 5 0.002558 -0.000265 0.003312 0.000000 0.020716 0.000000
# 6 0.000000 0.000000 0.000000 -0.010625 0.000000 -0.001692
#
#
# Mechanical properties :
#
#
# Convention : Reuss Voigt Hill
#
# Bulk Modulus (GPa) = 72.47844 91.14711 81.81277
# Shear Modulus (GPa) = -42194.44626 678.53142 -20757.95742
#
# Velocity S-wave (km/s) = -129.92912 16.47646 -91.13206
# Velocity P-wave (km/s) = 149.93256 19.96076 105.07459
#
# Compressibility (1/GPa) = 0.01379721
#
# Stress axis : x y z
#
# Youngs Moduli (GPa) = 93.89941 172.23454 151.11831
#
# Poissons Ratio (x) = 0.08946 0.37312
# Poissons Ratio (y) = 0.04877 0.24927
# Poissons Ratio (z) = 0.23184 0.28410
#
# Static dielectric constant tensor:
#      x y z
#    x -71.463180 0.000000 0.959620 
#    y 0.000000 2.161920 0.000000 
#    z 0.959620 0.000000 2.013780 
# 
# From -- ./inp_files/15963.got.cif
#   From: 2010.05.17/outbox.cif.g08.bks.cpg/sg5_8_cif.got.tgz:15963.got - 2010.06.03 18:56:24.
