data_PCOD9130053
_publ_section_title
;
Structure prediction by ZEFSAII (Michael W. Deem and Ramdas Pophale) SiO2 
 PCOD9130053
Probable space group: C 2
;
_chemical_formula_sum "Si O2"
_cell_formula_units_Z 24
_cell_length_a 17.407130
_cell_length_b 13.213354
_cell_length_c 8.656831
_cell_angle_alpha 90.000000
_cell_angle_beta 150.586601
_cell_angle_gamma 90.000000
_cell_volume 977.857859
_symmetry_space_group_name_H-M "C 2"
_symmetry_group_IT_number 5
_symmetry_cell_setting 'monoclinic'
loop_
_space_group_symop_operation_xyz
x,y,z
-x,y,-z
1/2+x,1/2+y,z
1/2-x,1/2+y,-z
loop_
_atom_site_type_symbol
_atom_site_label
_atom_site_fract_x
_atom_site_fract_y
_atom_site_fract_z
Si Si1 0.470790 0.980840 0.291702
Si Si2 0.671441 0.162962 0.103522
Si Si3 0.216345 0.280580 0.005451
Si Si4 0.686041 0.455237 0.232148
Si Si5 0.503073 0.662775 0.159272
Si Si6 0.068708 0.827296 0.324511
O O1 0.500000 0.044184 0.500000
O O2 0.633506 0.956597 0.494015
O O3 0.372086 0.885690 0.176763
O O4 0.368218 0.047630 0.999805
O O5 0.816360 0.158326 0.474484
O O6 0.724881 0.221579 0.041475
O O7 0.510214 0.220877 0.861436
O O8 0.339197 0.306259 0.357537
O O9 0.087106 0.209302 0.856669
O O10 0.656739 0.389590 0.339440
O O11 0.606974 0.566647 0.085178
O O12 0.583750 0.398146 0.922846
O O13 0.500000 0.731247 0.000000
#
# Coordination Sequence:
#
# PCOD9130053 Si02
#       6
#     4   4   4   4   4   4
#     4  12  26  48  78 112 153 202 261 315 385 459
#     4  12  27  51  79 113 154 206 257 322 382 452
#     4  12  27  47  82 114 152 203 257 320 385 455
#     4  11  25  47  73 114 155 200 257 311 384 452
#     4  12  26  47  76 112 155 199 256 319 383 455
#     4  11  24  46  74 110 156 194 254 313 378 456
#
# _framework density 24.543444999999998
#
# number of rings (size 3 to 8) (size 9 to 14) (size 15 to 20)
#    0.000    0.333    1.667    8.000    7.000    0.000 
#    0.000    5.000    0.000    0.000    0.000    0.000 
#    0.000    0.000    0.000    0.000    0.000    0.000 
#
# Total GULP energy -67055.111248 kJ/mol
# GULP energy per Si atom -5587.925937 kJ/mol
# Density = 2.448758 g / cm^3
# Si number density = 24.543445 Si / 1000 Ang^3
#
#
#
# Elastic Constant Matrix: (Units=GPa)
#
#
# Indices 1 2 3 4 5 6 
#
# 1 105.4361 20.7004 51.3392 0.0000 6.2016 0.0000
# 2 20.7004 80.0063 26.7137 0.0000 3.0423 0.0000
# 3 51.3392 26.7137 211.6159 0.0000 -20.3649 0.0000
# 4 0.0000 0.0000 0.0000 31.1675 0.0000 -0.6645
# 5 6.2016 3.0423 -20.3649 0.0000 37.8364 0.0000
# 6 0.0000 0.0000 0.0000 -0.6645 0.0000 18.5870
#
#
#
# Elastic Compliance Matrix: (Units=1/GPa)
#
#
# Indices 1 2 3 4 5 6 
#
# 1 0.011433 -0.001883 -0.002849 0.000000 -0.003256 0.000000
# 2 -0.001883 0.013510 -0.001396 0.000000 -0.001529 0.000000
# 3 -0.002849 -0.001396 0.005957 0.000000 0.003786 0.000000
# 4 0.000000 0.000000 0.000000 0.032109 0.000000 0.001148
# 5 -0.003256 -0.001529 0.003786 0.000000 0.029124 0.000000
# 6 0.000000 0.000000 0.000000 0.001148 0.000000 0.053842
#
#
# Mechanical properties :
#
#
# Convention : Reuss Voigt Hill
#
# Bulk Modulus (GPa) = 53.63514 66.06279 59.84896
# Shear Modulus (GPa) = 30.40490 37.40516 33.90503
#
# Velocity S-wave (km/s) = 3.52351 3.90813 3.72079
# Velocity P-wave (km/s) = 6.20113 6.88039 6.54957
#
# Compressibility (1/GPa) = 0.01864449
#
# Stress axis : x y z
#
# Youngs Moduli (GPa) = 87.46570 74.01710 167.85990
#
# Poissons Ratio (x) = 0.13937 0.47830
# Poissons Ratio (y) = 0.16469 0.23431
# Poissons Ratio (z) = 0.24922 0.10332
#
# Static dielectric constant tensor:
#      x y z
#    x 2.081400 0.000000 -0.002500 
#    y 0.000000 2.028080 0.000000 
#    z -0.002500 0.000000 1.956770 
# 
# From -- ./inp_files/27763.got.cif
#   From: 2010.05.17/outbox.cif.g08.bks.cpg/sg5_14_cif.got.tgz:27763.got - 2010.06.03 18:56:24.
