data_PCOD9130623
_publ_section_title
;
Structure prediction by ZEFSAII (Michael W. Deem and Ramdas Pophale) SiO2 
 PCOD9130623
Probable space group: C 2
;
_chemical_formula_sum "Si O2"
_cell_formula_units_Z 20
_cell_length_a 22.994229
_cell_length_b 4.920786
_cell_length_c 10.601487
_cell_angle_alpha 90.000000
_cell_angle_beta 145.402460
_cell_angle_gamma 90.000000
_cell_volume 681.117331
_symmetry_space_group_name_H-M "C 2"
_symmetry_group_IT_number 5
_symmetry_cell_setting 'monoclinic'
loop_
_space_group_symop_operation_xyz
x,y,z
-x,y,-z
1/2+x,1/2+y,z
1/2-x,1/2+y,-z
loop_
_atom_site_type_symbol
_atom_site_label
_atom_site_fract_x
_atom_site_fract_y
_atom_site_fract_z
Si Si1 0.790631 0.855580 0.384347
Si Si2 0.104883 0.619353 0.200225
Si Si3 0.892503 0.000399 0.028227
Si Si4 0.674782 0.155430 0.860672
Si Si5 0.559092 0.767333 0.481307
O O1 0.874378 0.707103 0.620128
O O2 0.717610 0.639974 0.185800
O O3 0.846739 0.088423 0.403501
O O4 0.709264 0.986952 0.336778
O O5 0.086556 0.862536 0.068173
O O6 0.000000 0.451250 0.000000
O O7 0.759034 0.388823 0.992483
O O8 0.973785 0.222087 0.221881
O O9 0.601224 0.051516 0.615261
O O10 0.615362 0.268809 0.877405
O O11 0.500000 0.651204 0.500000
#
# Coordination Sequence:
#
# PCOD9130623 Si02
#       5
#     4   4   4   4   4
#     4  12  29  60  97 141 197 256 325 414 495 585
#     4  12  27  56  94 140 189 257 330 404 497 587
#     4  12  30  59  94 136 198 256 330 405 493 585
#     4  12  31  60  91 138 196 261 326 406 494 578
#     4  12  31  58  96 142 196 259 331 394 498 591
#
# _framework density 29.363516000000001
#
# number of rings (size 3 to 8) (size 9 to 14) (size 15 to 20)
#    0.000    0.000    4.000    2.400   14.000    4.800 
#   10.800    0.000    0.000    0.000    0.000    0.000 
#    0.000    0.000    0.000    0.000    0.000    0.000 
#
# Total GULP energy -56136.529154 kJ/mol
# GULP energy per Si atom -5613.652915 kJ/mol
# Density = 2.929668 g / cm^3
# Si number density = 29.363516 Si / 1000 Ang^3
#
#
#
# Elastic Constant Matrix: (Units=GPa)
#
#
# Indices 1 2 3 4 5 6 
#
# 1 135.8732 46.3668 38.5940 0.0000 -8.8315 0.0001
# 2 46.3668 182.8256 81.0017 0.0002 -12.7448 -0.0002
# 3 38.5940 81.0017 250.2486 0.0000 -14.1193 0.0000
# 4 0.0000 0.0002 0.0000 63.9236 0.0000 -10.6852
# 5 -8.8315 -12.7448 -14.1193 0.0000 70.8342 0.0000
# 6 0.0001 -0.0002 0.0000 -10.6852 0.0000 61.3238
#
#
#
# Elastic Compliance Matrix: (Units=1/GPa)
#
#
# Indices 1 2 3 4 5 6 
#
# 1 0.008180 -0.001739 -0.000666 0.000000 0.000574 0.000000
# 2 -0.001739 0.006794 -0.001896 0.000000 0.000628 0.000000
# 3 -0.000666 -0.001896 0.004742 0.000000 0.000521 0.000000
# 4 0.000000 0.000000 0.000000 0.016113 0.000000 0.002808
# 5 0.000574 0.000628 0.000521 0.000000 0.014406 0.000000
# 6 0.000000 0.000000 0.000000 0.002808 0.000000 0.016796
#
#
# Mechanical properties :
#
#
# Convention : Reuss Voigt Hill
#
# Bulk Modulus (GPa) = 89.97746 100.09693 95.03719
# Shear Modulus (GPa) = 63.02170 66.08197 64.55184
#
# Velocity S-wave (km/s) = 4.63780 4.74907 4.69376
# Velocity P-wave (km/s) = 7.70636 8.01464 7.86201
#
# Compressibility (1/GPa) = 0.01111389
#
# Stress axis : x y z
#
# Youngs Moduli (GPa) = 122.25100 147.17944 210.89355
#
# Poissons Ratio (x) = 0.25600 0.14048
# Poissons Ratio (y) = 0.21264 0.39977
# Poissons Ratio (z) = 0.08143 0.27899
#
# Static dielectric constant tensor:
#      x y z
#    x 2.467910 0.000000 0.019940 
#    y 0.000000 2.262140 0.000000 
#    z 0.019940 0.000000 2.238640 
# 
# From -- ./inp_files/40949.got.cif
#   From: 2010.05.17/outbox.cif.g08.bks.cpg/sg5_21_cif.got.tgz:40949.got - 2010.06.03 18:56:24.
