data_PCOD9130982
_publ_section_title
;
Structure prediction by ZEFSAII (Michael W. Deem and Ramdas Pophale) SiO2 
 PCOD9130982
Probable space group: P M
;
_chemical_formula_sum "Si O2"
_cell_formula_units_Z 16
_cell_length_a 9.425391
_cell_length_b 8.419985
_cell_length_c 11.533353
_cell_angle_alpha 90.000000
_cell_angle_beta 113.978761
_cell_angle_gamma 90.000000
_cell_volume 836.311525
_symmetry_space_group_name_H-M "P M"
_symmetry_group_IT_number 6
_symmetry_cell_setting 'monoclinic'
loop_
_space_group_symop_operation_xyz
x,y,z
x,-y,z
loop_
_atom_site_type_symbol
_atom_site_label
_atom_site_fract_x
_atom_site_fract_y
_atom_site_fract_z
Si Si1 0.016690 0.306071 0.439830
Si Si2 0.313131 0.306867 0.681815
Si Si3 0.453217 0.310948 0.969087
Si Si4 0.765901 0.813458 0.962616
Si Si5 0.642335 0.308116 0.685971
Si Si6 0.688556 0.307496 0.436577
Si Si7 0.386890 0.186683 0.201356
Si Si8 0.064682 0.311147 0.190213
O O1 0.018850 0.500000 0.442492
O O2 0.155133 0.251230 0.570094
O O3 0.047715 0.257372 0.318058
O O4 0.847989 0.256026 0.428479
O O5 0.309584 0.500000 0.681852
O O6 0.346748 0.257425 0.825090
O O7 0.464711 0.261929 0.657255
O O8 0.435387 0.500000 0.978161
O O9 0.629694 0.275886 0.988107
O O10 0.412141 0.227588 0.074954
O O11 0.747424 0.762483 0.822719
O O12 0.737503 0.000000 0.964039
O O13 0.932318 0.769483 0.069131
O O14 0.651501 0.500000 0.696536
O O15 0.685950 0.260398 0.570751
O O16 0.681219 0.500000 0.429820
O O17 0.539180 0.241775 0.321206
O O18 0.235194 0.273724 0.199841
O O19 0.364848 0.000000 0.208673
O O20 0.038637 0.500000 0.178328
#
# Coordination Sequence:
#
# PCOD9130982 Si02
#       8
#     2   2   2   2   2   2   2   2
#     4   9  18  33  57  87 112 138 182 239 288 332
#     4   8  15  30  53  82 112 142 182 232 278 326
#     4  10  20  37  61  86 114 152 196 236 283 348
#     4  11  22  37  58  86 121 154 188 237 295 346
#     4   9  18  34  57  83 114 154 197 236 279 339
#     4  10  20  36  60  87 114 148 193 241 288 345
#     4  12  25  39  56  82 117 152 191 244 303 351
#     4  11  22  38  60  83 112 152 197 241 288 349
#
# _framework density 19.131629
#
# number of rings (size 3 to 8) (size 9 to 14) (size 15 to 20)
#    0.000    2.000    0.000    5.250    0.000    4.500 
#    0.000    3.125    0.000    6.000    0.000    0.000 
#    0.000    0.000    0.000    0.000    0.000    0.000 
#
# Total GULP energy -89384.876683 kJ/mol
# GULP energy per Si atom -5586.554793 kJ/mol
# Density = 1.908808 g / cm^3
# Si number density = 19.131629 Si / 1000 Ang^3
#
#
#
# Elastic Constant Matrix: (Units=GPa)
#
#
# Indices 1 2 3 4 5 6 
#
# 1 87.7741 -8.5521 74.5379 0.0000 -2.8106 0.0000
# 2 -8.5521 20.4731 4.1893 0.0000 -1.9139 0.0000
# 3 74.5379 4.1893 133.9319 0.0000 5.0609 0.0000
# 4 0.0000 0.0000 0.0000 -4.0180 0.0000 -4.7072
# 5 -2.8106 -1.9139 5.0609 0.0000 40.8284 0.0000
# 6 0.0000 0.0000 0.0000 -4.7072 0.0000 10.8949
#
#
#
# Elastic Compliance Matrix: (Units=1/GPa)
#
#
# Indices 1 2 3 4 5 6 
#
# 1 0.025416 0.014029 -0.014744 0.000000 0.004235 0.000000
# 2 0.014029 0.057160 -0.009779 0.000000 0.004857 0.000000
# 3 -0.014744 -0.009779 0.016109 0.000000 -0.003470 0.000000
# 4 0.000000 0.000000 0.000000 -0.165241 0.000000 -0.071393
# 5 0.004235 0.004857 -0.003470 0.000000 0.025442 0.000000
# 6 0.000000 0.000000 0.000000 -0.071393 0.000000 0.060940
#
#
# Mechanical properties :
#
#
# Convention : Reuss Voigt Hill
#
# Bulk Modulus (GPa) = 12.87039 42.50325 27.68682
# Shear Modulus (GPa) = 74.94857 21.00799 47.97828
#
# Velocity S-wave (km/s) = 6.26580 3.31732 5.01323
# Velocity P-wave (km/s) = 7.68693 6.07760 6.92915
#
# Compressibility (1/GPa) = 0.07769774
#
# Stress axis : x y z
#
# Youngs Moduli (GPa) = 39.34577 17.49469 62.07774
#
# Poissons Ratio (x) = -0.24544 0.91525
# Poissons Ratio (y) = -0.55200 0.60708
# Poissons Ratio (z) = 0.58010 0.17109
#
# Static dielectric constant tensor:
#      x y z
#    x 1.632590 0.000000 -0.003890 
#    y 0.000000 1.647050 0.000000 
#    z -0.003890 0.000000 1.646830 
# 
# From -- ./inp_files/4543.got.cif
#   From: 2010.05.17/outbox.cif.g08.bks.cpg/sg6_3_cif.got.tgz:4543.got - 2010.06.03 19:42:10.
