data_PCOD9130457
_publ_section_title
;
Structure prediction by ZEFSAII (Michael W. Deem and Ramdas Pophale) SiO2 
 PCOD9130457
Probable space group: C 2
;
_chemical_formula_sum "Si O2"
_cell_formula_units_Z 18
_cell_length_a 11.824396
_cell_length_b 8.784004
_cell_length_c 9.127418
_cell_angle_alpha 90.000000
_cell_angle_beta 62.517810
_cell_angle_gamma 90.000000
_cell_volume 841.043780
_symmetry_space_group_name_H-M "C 2"
_symmetry_group_IT_number 5
_symmetry_cell_setting 'monoclinic'
loop_
_space_group_symop_operation_xyz
x,y,z
-x,y,-z
1/2+x,1/2+y,z
1/2-x,1/2+y,-z
loop_
_atom_site_type_symbol
_atom_site_label
_atom_site_fract_x
_atom_site_fract_y
_atom_site_fract_z
Si Si1 0.573479 0.271650 0.101141
Si Si2 0.768104 0.067474 0.310825
Si Si3 0.110277 0.844585 0.536506
Si Si4 0.000000 0.219680 0.000000
Si Si5 0.321911 0.944942 0.930814
O O1 0.470057 0.258799 0.289645
O O2 0.641399 0.110972 0.033723
O O3 0.500000 0.317116 0.000000
O O4 0.684250 0.391073 0.070291
O O5 0.690645 0.218430 0.401590
O O6 0.895719 0.123456 0.151521
O O7 0.804618 0.968789 0.430952
O O8 0.691741 0.966619 0.236582
O O9 0.000000 0.914908 0.500000
O O10 0.075775 0.325514 0.070404
#
# Coordination Sequence:
#
# PCOD9130457 Si02
#       5
#     4   4   4   2   4
#     4  12  25  45  76 106 142 189 245 297 356 427
#     4  12  28  46  72 106 147 189 242 294 365 422
#     4  12  27  46  72 107 150 186 237 302 361 422
#     4  12  26  46  76 106 142 192 248 290 354 440
#     4  12  24  44  74 106 138 189 240 294 356 422
#
# _framework density 21.401978
#
# number of rings (size 3 to 8) (size 9 to 14) (size 15 to 20)
#    0.000    0.000    7.778    1.333    3.111    3.556 
#    0.000    0.000    0.000    0.000    0.000    0.000 
#    0.000    0.000    0.000    0.000    0.000    0.000 
#
# Total GULP energy -50364.291118 kJ/mol
# GULP energy per Si atom -5596.032346 kJ/mol
# Density = 2.135327 g / cm^3
# Si number density = 21.401978 Si / 1000 Ang^3
#
#
#
# Elastic Constant Matrix: (Units=GPa)
#
#
# Indices 1 2 3 4 5 6 
#
# 1 143.1104 33.4622 24.9864 0.0000 30.2185 0.0000
# 2 33.4622 68.1269 8.7704 0.0000 8.1130 0.0000
# 3 24.9864 8.7704 83.0442 0.0000 6.6689 0.0000
# 4 0.0000 0.0000 0.0000 37.6217 0.0000 9.2225
# 5 30.2185 8.1130 6.6689 0.0000 35.7181 0.0000
# 6 0.0000 0.0000 0.0000 9.2225 0.0000 35.4626
#
#
#
# Elastic Compliance Matrix: (Units=1/GPa)
#
#
# Indices 1 2 3 4 5 6 
#
# 1 0.009658 -0.003661 -0.001959 0.000000 -0.006974 0.000000
# 2 -0.003661 0.016622 -0.000609 0.000000 -0.000564 0.000000
# 3 -0.001959 -0.000609 0.012742 0.000000 -0.000583 0.000000
# 4 0.000000 0.000000 0.000000 0.028390 0.000000 -0.007383
# 5 -0.006974 -0.000564 -0.000583 0.000000 0.034134 0.000000
# 6 0.000000 0.000000 0.000000 -0.007383 0.000000 0.030119
#
#
# Mechanical properties :
#
#
# Convention : Reuss Voigt Hill
#
# Bulk Modulus (GPa) = 37.64371 47.63551 42.63961
# Shear Modulus (GPa) = 32.68410 36.89797 34.79103
#
# Velocity S-wave (km/s) = 3.91212 4.15667 4.03625
# Velocity P-wave (km/s) = 6.16712 6.73372 6.45664
#
# Compressibility (1/GPa) = 0.02656487
#
# Stress axis : x y z
#
# Youngs Moduli (GPa) = 103.53771 60.16001 78.47812
#
# Poissons Ratio (x) = 0.22026 0.15376
# Poissons Ratio (y) = 0.37907 0.04776
# Poissons Ratio (z) = 0.20286 0.03661
#
# Static dielectric constant tensor:
#      x y z
#    x 1.796470 0.000000 0.027600 
#    y 0.000000 1.751170 0.000000 
#    z 0.027600 0.000000 1.749170 
# 
# From -- ./inp_files/18133.got.cif
#   From: 2010.05.17/outbox.cif.g08.bks.cpg/sg5_10_cif.got.tgz:18133.got - 2010.06.03 18:56:24.
