data_PCOD9130978
_publ_section_title
;
Structure prediction by ZEFSAII (Michael W. Deem and Ramdas Pophale) SiO2 
 PCOD9130978
Probable space group: P M
;
_chemical_formula_sum "Si O2"
_cell_formula_units_Z 16
_cell_length_a 8.514008
_cell_length_b 8.532866
_cell_length_c 19.359400
_cell_angle_alpha 90.000000
_cell_angle_beta 146.324662
_cell_angle_gamma 90.000000
_cell_volume 779.851072
_symmetry_space_group_name_H-M "P M"
_symmetry_group_IT_number 6
_symmetry_cell_setting 'monoclinic'
loop_
_space_group_symop_operation_xyz
x,y,z
x,-y,z
loop_
_atom_site_type_symbol
_atom_site_label
_atom_site_fract_x
_atom_site_fract_y
_atom_site_fract_z
Si Si1 0.640810 0.189707 0.491620
Si Si2 0.277567 0.679263 0.109424
Si Si3 0.250695 0.313096 0.462912
Si Si4 0.154826 0.681678 0.919876
Si Si5 0.596734 0.324652 0.852586
Si Si6 0.167790 0.178650 0.782427
Si Si7 0.733731 0.816718 0.365846
Si Si8 0.566609 0.822758 0.705391
O O1 0.356639 0.253497 0.426111
O O2 0.705817 0.239294 0.435771
O O3 0.907640 0.233245 0.638641
O O4 0.623058 0.000000 0.484412
O O5 0.353444 0.500000 0.155258
O O6 0.431585 0.791128 0.218731
O O7 0.362875 0.707301 0.060356
O O8 0.936168 0.688891 0.982704
O O9 0.265934 0.500000 0.468272
O O10 0.476327 0.236303 0.598017
O O11 0.958404 0.263116 0.394930
O O12 0.055020 0.500000 0.890866
O O13 0.241660 0.711069 0.873863
O O14 0.902536 0.806037 0.834103
O O15 0.520213 0.500000 0.847171
O O16 0.449255 0.188672 0.840544
O O17 0.475414 0.296948 0.731220
O O18 0.107401 0.000000 0.781365
O O19 0.808977 0.000000 0.396209
O O20 0.471777 0.000000 0.682741
#
# Coordination Sequence:
#
# PCOD9130978 Si02
#       8
#     2   2   2   2   2   2   2   2
#     4  10  23  42  63  93 130 165 205 262 320 372
#     4   9  21  42  62  84 118 161 208 256 306 365
#     4  12  24  39  64  94 126 168 212 257 316 384
#     4  10  20  36  59  86 119 156 197 247 304 365
#     4  10  21  37  59  87 121 162 204 254 311 373
#     4  11  21  35  59  92 126 158 197 254 318 376
#     4  11  24  43  67  92 125 167 214 267 316 374
#     4  11  20  34  57  86 121 155 195 249 307 371
#
# _framework density 20.516736999999999
#
# number of rings (size 3 to 8) (size 9 to 14) (size 15 to 20)
#    0.000    1.500    1.250    5.250    0.000    5.500 
#    2.250    0.000    0.000    0.000    0.000    0.000 
#    0.000    0.000    0.000    0.000    0.000    0.000 
#
# Total GULP energy -89117.960390 kJ/mol
# GULP energy per Si atom -5569.872524 kJ/mol
# Density = 2.047004 g / cm^3
# Si number density = 20.516737 Si / 1000 Ang^3
#
#
#
# Elastic Constant Matrix: (Units=GPa)
#
#
# Indices 1 2 3 4 5 6 
#
# 1 110.9914 30.4959 36.8481 0.0000 -9.3041 0.0000
# 2 30.4959 73.7484 23.5088 0.0000 -4.0568 0.0000
# 3 36.8481 23.5088 52.8157 0.0000 -15.9336 0.0000
# 4 0.0000 0.0000 0.0000 20.4130 0.0000 4.4005
# 5 -9.3041 -4.0568 -15.9336 0.0000 23.1053 0.0000
# 6 0.0000 0.0000 0.0000 4.4005 0.0000 30.5291
#
#
#
# Elastic Compliance Matrix: (Units=1/GPa)
#
#
# Indices 1 2 3 4 5 6 
#
# 1 0.012184 -0.002677 -0.007539 0.000000 -0.000763 0.000000
# 2 -0.002677 0.016517 -0.006231 0.000000 -0.002475 0.000000
# 3 -0.007539 -0.006231 0.032478 0.000000 0.018267 0.000000
# 4 0.000000 0.000000 0.000000 0.050560 0.000000 -0.007288
# 5 -0.000763 -0.002475 0.018267 0.000000 0.055135 0.000000
# 6 0.000000 0.000000 0.000000 -0.007288 0.000000 0.033806
#
#
# Mechanical properties :
#
#
# Convention : Reuss Voigt Hill
#
# Bulk Modulus (GPa) = 35.35430 46.58458 40.96944
# Shear Modulus (GPa) = 20.57599 24.58965 22.58282
#
# Velocity S-wave (km/s) = 3.17028 3.46572 3.32128
# Velocity P-wave (km/s) = 5.53807 6.22654 5.89237
#
# Compressibility (1/GPa) = 0.02828510
#
# Stress axis : x y z
#
# Youngs Moduli (GPa) = 82.07321 60.54509 30.79026
#
# Poissons Ratio (x) = 0.16208 0.23213
# Poissons Ratio (y) = 0.21971 0.19184
# Poissons Ratio (z) = 0.61876 0.37723
#
# Static dielectric constant tensor:
#      x y z
#    x 1.852410 0.000000 -0.010210 
#    y 0.000000 1.726130 0.000000 
#    z -0.010210 0.000000 1.748080 
# 
# From -- ./inp_files/5900.got.cif
#   From: 2010.05.17/outbox.cif.g08.bks.cpg/sg6_3_cif.got.tgz:5900.got - 2010.06.03 19:42:10.
