data_PCOD9130254
_publ_section_title
;
Structure prediction by ZEFSAII (Michael W. Deem and Ramdas Pophale) SiO2 
 PCOD9130254
Probable space group: C 2
;
_chemical_formula_sum "Si O2"
_cell_formula_units_Z 26
_cell_length_a 19.975507
_cell_length_b 7.281335
_cell_length_c 9.031142
_cell_angle_alpha 90.000000
_cell_angle_beta 125.612195
_cell_angle_gamma 90.000000
_cell_volume 1067.897744
_symmetry_space_group_name_H-M "C 2"
_symmetry_group_IT_number 5
_symmetry_cell_setting 'monoclinic'
loop_
_space_group_symop_operation_xyz
x,y,z
-x,y,-z
1/2+x,1/2+y,z
1/2-x,1/2+y,-z
loop_
_atom_site_type_symbol
_atom_site_label
_atom_site_fract_x
_atom_site_fract_y
_atom_site_fract_z
Si Si1 0.804457 0.056720 0.725322
Si Si2 0.823563 0.839845 0.491389
Si Si3 0.040122 0.232936 0.212932
Si Si4 0.000000 0.212526 0.500000
Si Si5 0.490253 0.165905 0.813473
Si Si6 0.177760 0.139067 0.741637
Si Si7 0.343486 0.335357 0.052994
O O1 0.723518 0.174189 0.647394
O O2 0.867900 0.176039 0.711674
O O3 0.787963 0.874145 0.609756
O O4 0.845867 0.987239 0.927047
O O5 0.918127 0.782474 0.642431
O O6 0.802608 0.029929 0.382882
O O7 0.031563 0.451570 0.222903
O O8 0.008996 0.150603 0.332163
O O9 0.000000 0.187456 0.000000
O O10 0.902763 0.270468 0.366543
O O11 0.579187 0.201742 0.858162
O O12 0.500000 0.216114 0.000000
O O13 0.150851 0.956494 0.795191
O O14 0.256771 0.231972 0.917159
#
# Coordination Sequence:
#
# PCOD9130254 Si02
#       7
#     4   4   4   2   4   4   4
#     4  12  25  45  76 107 146 194 249 310 382 447
#     4  12  25  44  74 107 145 190 249 308 374 460
#     4  11  27  45  79 109 153 198 258 316 383 447
#     4  12  26  48  76 108 148 196 260 300 388 448
#     4  11  26  47  73 108 146 196 254 310 382 454
#     4  12  28  47  71 109 149 197 251 314 387 456
#     4  12  28  48  74 106 154 197 250 318 387 457
#
# _framework density 24.346900999999999
#
# number of rings (size 3 to 8) (size 9 to 14) (size 15 to 20)
#    0.000    0.308    3.077    4.615   10.769    1.231 
#    0.000    0.000    0.000    0.000    0.000    0.000 
#    0.000    0.000    0.000    0.000    0.000    0.000 
#
# Total GULP energy -72457.887352 kJ/mol
# GULP energy per Si atom -5573.683642 kJ/mol
# Density = 2.429149 g / cm^3
# Si number density = 24.346901 Si / 1000 Ang^3
#
#
#
# Elastic Constant Matrix: (Units=GPa)
#
#
# Indices 1 2 3 4 5 6 
#
# 1 40.3829 50.1352 -59.6569 0.0000 -25.6326 0.0000
# 2 50.1352 77.7300 42.7915 0.0000 37.0331 0.0000
# 3 -59.6569 42.7915 -41.0527 0.0000 -66.3787 0.0000
# 4 0.0000 0.0000 0.0000 29.3136 0.0000 14.7075
# 5 -25.6326 37.0331 -66.3787 0.0000 21.9486 0.0000
# 6 0.0000 0.0000 0.0000 14.7075 0.0000 28.5197
#
#
#
# Elastic Compliance Matrix: (Units=1/GPa)
#
#
# Indices 1 2 3 4 5 6 
#
# 1 0.011364 -0.000554 -0.006801 0.000000 -0.006364 0.000000
# 2 -0.000554 0.008773 0.005930 0.000000 0.002486 0.000000
# 3 -0.006801 0.005930 0.003519 0.000000 -0.007306 0.000000
# 4 0.000000 0.000000 0.000000 0.046021 0.000000 -0.023733
# 5 -0.006364 0.002486 -0.007306 0.000000 0.011840 0.000000
# 6 0.000000 0.000000 0.000000 -0.023733 0.000000 0.047303
#
#
# Mechanical properties :
#
#
# Convention : Reuss Voigt Hill
#
# Bulk Modulus (GPa) = 48.06071 15.95552 32.00811
# Shear Modulus (GPa) = 36.07382 18.87572 27.47477
#
# Velocity S-wave (km/s) = 3.85341 2.78741 3.36292
# Velocity P-wave (km/s) = 6.29136 4.11426 5.31547
#
# Compressibility (1/GPa) = 0.02080702
#
# Stress axis : x y z
#
# Youngs Moduli (GPa) = 87.99926 113.98358 284.16743
#
# Poissons Ratio (x) = 0.06310 1.93267
# Poissons Ratio (y) = 0.04871 -1.68518
# Poissons Ratio (z) = 0.59850 -0.67595
#
# Static dielectric constant tensor:
#      x y z
#    x 1.948880 0.000000 -0.021710 
#    y 0.000000 1.962070 0.000000 
#    z -0.021710 0.000000 1.949800 
# 
# From -- ./inp_files/29147.got.cif
#   From: 2010.05.17/outbox.cif.g08.bks.cpg/sg5_15_cif.got.tgz:29147.got - 2010.06.03 18:56:24.
