data_PCOD9130078
_publ_section_title
;
Structure prediction by ZEFSAII (Michael W. Deem and Ramdas Pophale) SiO2 
 PCOD9130078
Probable space group: C 2
;
_chemical_formula_sum "Si O2"
_cell_formula_units_Z 20
_cell_length_a 9.589604
_cell_length_b 14.552262
_cell_length_c 5.656404
_cell_angle_alpha 90.000000
_cell_angle_beta 81.361740
_cell_angle_gamma 90.000000
_cell_volume 780.399424
_symmetry_space_group_name_H-M "C 2"
_symmetry_group_IT_number 5
_symmetry_cell_setting 'monoclinic'
loop_
_space_group_symop_operation_xyz
x,y,z
-x,y,-z
1/2+x,1/2+y,z
1/2-x,1/2+y,-z
loop_
_atom_site_type_symbol
_atom_site_label
_atom_site_fract_x
_atom_site_fract_y
_atom_site_fract_z
Si Si1 0.334688 0.757890 0.006109
Si Si2 0.353500 0.592153 0.686348
Si Si3 0.073205 0.660800 0.235225
Si Si4 0.346932 0.424304 0.036409
Si Si5 0.355796 0.980228 0.562064
O O1 0.324003 0.696806 0.769303
O O2 0.500000 0.760434 0.000000
O O3 0.232679 0.698955 0.199293
O O4 0.268575 0.858695 0.051111
O O5 0.500000 0.586630 0.500000
O O6 0.368584 0.522433 0.905633
O O7 0.212589 0.549584 0.607761
O O8 0.090035 0.550627 0.249716
O O9 0.000000 0.691794 0.500000
O O10 0.000000 0.681707 0.000000
O O11 0.500000 0.379796 0.000000
O O12 0.282338 0.429355 0.313610
O O13 0.500000 0.922366 0.500000
#
# Coordination Sequence:
#
# PCOD9130078 Si02
#       5
#     4   4   4   4   4
#     4  12  27  47  79 119 155 203 274 340 407 482
#     4  12  25  51  80 108 159 216 267 329 411 499
#     4  11  24  47  77 114 158 207 265 330 410 485
#     4  12  27  50  74 113 157 208 269 330 414 493
#     4  11  25  43  77 111 148 205 264 331 400 470
#
# _framework density 25.627901000000001
#
# number of rings (size 3 to 8) (size 9 to 14) (size 15 to 20)
#    0.000    0.400    4.000    4.800    2.800    1.600 
#    7.200    0.000    0.000    0.000    0.000    0.000 
#    0.000    0.000    0.000    0.000    0.000    0.000 
#
# Total GULP energy -55793.701004 kJ/mol
# GULP energy per Si atom -5579.370100 kJ/mol
# Density = 2.556957 g / cm^3
# Si number density = 25.627901 Si / 1000 Ang^3
#
#
#
# Elastic Constant Matrix: (Units=GPa)
#
#
# Indices 1 2 3 4 5 6 
#
# 1 229.9877 2.4013 70.8666 0.0000 -37.7460 0.0000
# 2 2.4013 53.2996 5.5681 0.0000 -4.8269 0.0000
# 3 70.8666 5.5681 100.9491 0.0000 -22.5995 0.0000
# 4 0.0000 0.0000 0.0000 11.3063 0.0000 0.0467
# 5 -37.7460 -4.8269 -22.5995 0.0000 55.3484 0.0000
# 6 0.0000 0.0000 0.0000 0.0467 0.0000 27.4576
#
#
#
# Elastic Compliance Matrix: (Units=1/GPa)
#
#
# Indices 1 2 3 4 5 6 
#
# 1 0.005864 0.000341 -0.003559 0.000000 0.002576 0.000000
# 2 0.000341 0.018982 -0.000950 0.000000 0.001500 0.000000
# 3 -0.003559 -0.000950 0.013091 0.000000 0.002836 0.000000
# 4 0.000000 0.000000 0.000000 0.088447 0.000000 -0.000150
# 5 0.002576 0.001500 0.002836 0.000000 0.021112 0.000000
# 6 0.000000 0.000000 0.000000 -0.000150 0.000000 0.036420
#
#
# Mechanical properties :
#
#
# Convention : Reuss Voigt Hill
#
# Bulk Modulus (GPa) = 33.78350 60.21205 46.99778
# Shear Modulus (GPa) = 24.73790 39.18250 31.96020
#
# Velocity S-wave (km/s) = 3.11025 3.91436 3.53524
# Velocity P-wave (km/s) = 5.10971 6.63139 5.91965
#
# Compressibility (1/GPa) = 0.02960025
#
# Stress axis : x y z
#
# Youngs Moduli (GPa) = 170.54028 52.68255 76.38639
#
# Poissons Ratio (x) = -0.01796 0.27182
# Poissons Ratio (y) = -0.05812 0.07260
# Poissons Ratio (z) = 0.60688 0.05007
#
# Static dielectric constant tensor:
#      x y z
#    x 2.079000 0.000000 -0.042000 
#    y 0.000000 2.061220 0.000000 
#    z -0.042000 0.000000 2.227710 
# 
# From -- ./inp_files/2353.got.cif
#   From: 2010.05.17/outbox.cif.g08.bks.cpg/sg5_2_cif.got.tgz:2353.got - 2010.06.03 18:56:24.
