data_PCOD9130710
_publ_section_title
;
Structure prediction by ZEFSAII (Michael W. Deem and Ramdas Pophale) SiO2 
 PCOD9130710
Probable space group: C 2
;
_chemical_formula_sum "Si O2"
_cell_formula_units_Z 12
_cell_length_a 9.000000
_cell_length_b 18.000000
_cell_length_c 15.000000
_cell_angle_alpha 90.000000
_cell_angle_beta 30.000000
_cell_angle_gamma 90.000000
_cell_volume 1215.000000
_symmetry_space_group_name_H-M "C 2"
_symmetry_group_IT_number 5
_symmetry_cell_setting 'monoclinic'
loop_
_space_group_symop_operation_xyz
x,y,z
-x,y,-z
1/2+x,1/2+y,z
1/2-x,1/2+y,-z
loop_
_atom_site_type_symbol
_atom_site_label
_atom_site_fract_x
_atom_site_fract_y
_atom_site_fract_z
Si Si1 0.000000 0.391910 0.000000
Si Si2 0.678842 0.182266 0.820250
Si Si3 0.108467 0.687046 0.543658
Si Si4 0.310967 0.015094 0.236399
Si Si5 0.094198 0.523810 0.615586
Si Si6 0.000000 0.419807 0.500000
Si Si7 0.012430 0.794209 0.750990
O O1 0.869230 0.447558 0.140575
O O2 0.781603 0.335060 0.065487
O O3 0.590407 0.096478 0.848487
O O4 0.611441 0.233109 0.770314
O O5 0.033573 0.186451 0.645992
O O6 0.500000 0.208117 0.000000
O O7 0.008468 0.608324 0.637515
O O8 0.994465 0.752523 0.666106
O O9 0.000000 0.693859 0.500000
O O10 0.468251 0.002783 0.249967
O O11 0.953716 0.020825 0.426844
O O12 0.969598 0.471067 0.603114
O O13 0.268128 0.363305 0.373170
#
# Coordination Sequence:
#
# PCOD9130710 Si02
#       7
#     2   4   4   4   4   2   4
#     4  12  26  42  66 102 136 164 218 280 324 374
#     4  11  23  42  70  96 131 173 218 268 325 388
#     4  11  23  42  69  98 127 176 224 259 321 398
#     4  10  21  42  68  95 128 176 219 259 324 393
#     4  10  21  40  71  95 126 174 223 261 317 396
#     4  12  22  42  66  98 130 166 216 276 324 376
#     4  12  26  44  64  98 139 168 212 276 333 378
#
# _framework density 9.8765429999999999
#
# number of rings (size 3 to 8) (size 9 to 14) (size 15 to 20)
#    0.000    1.000    6.667    0.000    2.333    2.667 
#    0.000    0.000    0.000    0.000    0.000    0.000 
#    0.000    0.000    0.000    0.000    0.000    0.000 
#
# Total GULP energy -66948.599763 kJ/mol
# GULP energy per Si atom -5579.049980 kJ/mol
# Density = 0.985406 g / cm^3
# Si number density = 9.876543 Si / 1000 Ang^3
#
#
#
# Elastic Constant Matrix: (Units=GPa)
#
#
# Indices 1 2 3 4 5 6 
#
# 1 118.2922 57.7495 0.7498 -0.0794 25.2017 -0.0678
# 2 57.7495 107.7680 15.9486 0.0183 -7.7331 0.0083
# 3 0.7498 15.9486 17.4645 -0.0061 11.0098 0.1306
# 4 -0.0794 0.0183 -0.0061 1.0061 0.0125 -1.8441
# 5 25.2017 -7.7331 11.0098 0.0125 22.8192 -0.0928
# 6 -0.0678 0.0083 0.1306 -1.8441 -0.0928 25.5109
#
#
#
# Elastic Compliance Matrix: (Units=1/GPa)
#
#
# Indices 1 2 3 4 5 6 
#
# 1 -0.054537 0.063094 -0.153394 -0.007074 0.155629 0.000675
# 2 0.063094 -0.059347 0.155360 0.007872 -0.164759 -0.000639
# 3 -0.153394 0.155360 -0.313355 -0.019443 0.373262 0.001099
# 4 -0.007074 0.007872 -0.019443 1.144807 0.019571 0.082906
# 5 0.155629 -0.164759 0.373262 0.019571 -0.363998 -0.001354
# 6 0.000675 -0.000639 0.001099 0.082906 -0.001354 0.045183
#
#
# Mechanical properties :
#
#
# Convention : Reuss Voigt Hill
#
# Bulk Modulus (GPa) = -3.36566 43.60225 20.11830
# Shear Modulus (GPa) = 29.48204 21.13903 25.31053
#
# Velocity S-wave (km/s) = 3.86752 3.27488 3.58347
# Velocity P-wave (km/s) = 4.27036 6.03501 5.22769
#
# Compressibility (1/GPa) = -0.29711855
#
# Stress axis : x y z
#
# Youngs Moduli (GPa) = -18.33623 -16.85017 -3.19127
#
# Poissons Ratio (x) = 1.06315 -0.48952
# Poissons Ratio (y) = 1.15691 0.49580
# Poissons Ratio (z) = -2.81267 2.61784
#
# Static dielectric constant tensor:
#      x y z
#    x 1.666540 -0.000060 0.012680 
#    y -0.000060 1.640840 0.000040 
#    z 0.012680 0.000040 1.650600 
# 
# From -- ./inp_files/14973.got.cif
#   From: 2010.05.17/outbox.ucp.g08.bks.cvg/sg5_8_cif.got.tgz:14973.got - 2010.06.11 12:53:14.
