data_PCOD9130935
_publ_section_title
;
Structure prediction by ZEFSAII (Michael W. Deem and Ramdas Pophale) SiO2 
 PCOD9130935
Probable space group: P M
;
_chemical_formula_sum "Si O2"
_cell_formula_units_Z 16
_cell_length_a 12.915421
_cell_length_b 7.541781
_cell_length_c 13.173689
_cell_angle_alpha 90.000000
_cell_angle_beta 145.058180
_cell_angle_gamma 90.000000
_cell_volume 734.937999
_symmetry_space_group_name_H-M "P M"
_symmetry_group_IT_number 6
_symmetry_cell_setting 'monoclinic'
loop_
_space_group_symop_operation_xyz
x,y,z
x,-y,z
loop_
_atom_site_type_symbol
_atom_site_label
_atom_site_fract_x
_atom_site_fract_y
_atom_site_fract_z
Si Si1 0.391880 0.283031 0.734050
Si Si2 0.994254 0.704397 0.357669
Si Si3 0.761350 0.714144 0.637469
Si Si4 0.090279 0.794168 0.214608
Si Si5 0.500115 0.285108 0.604190
Si Si6 0.520682 0.706619 0.260850
Si Si7 0.127338 0.791403 0.022720
Si Si8 0.602098 0.281845 0.102479
O O1 0.388412 0.500000 0.730539
O O2 0.186049 0.219903 0.549424
O O3 0.507993 0.229992 0.728147
O O4 0.477662 0.224953 0.908444
O O5 0.996269 0.500000 0.392204
O O6 0.997153 0.708393 0.237379
O O7 0.807457 0.779694 0.248587
O O8 0.749830 0.500000 0.628001
O O9 0.654714 0.777482 0.652267
O O10 0.657879 0.782224 0.454845
O O11 0.969753 0.763060 0.815139
O O12 0.305560 0.776065 0.406370
O O13 0.060461 0.718493 0.078143
O O14 0.038160 0.000000 0.174727
O O15 0.498214 0.500000 0.600546
O O16 0.569656 0.500000 0.290830
O O17 0.318459 0.716375 0.141618
O O18 0.535019 0.778995 0.158693
O O19 0.156663 0.000000 0.061349
O O20 0.600089 0.500000 0.097806
#
# Coordination Sequence:
#
# PCOD9130935 Si02
#       8
#     2   2   2   2   2   2   2   2
#     4   8  15  28  48  79 110 135 167 213 267 324
#     4   9  18  32  53  79 108 141 177 221 272 324
#     4  10  21  35  57  86 111 142 186 236 282 326
#     4  10  20  34  53  79 113 148 181 222 273 329
#     4   9  17  32  55  82 111 141 178 225 278 328
#     4  10  21  39  60  84 113 144 187 238 279 323
#     4  11  24  38  55  81 114 153 189 225 279 339
#     4   9  18  32  55  82 106 138 179 224 274 323
#
# _framework density 21.770546
#
# number of rings (size 3 to 8) (size 9 to 14) (size 15 to 20)
#    0.000    2.500    1.250    1.500    1.750    3.500 
#    0.000    4.375    0.000    6.000    0.000    0.000 
#    0.000    0.000    0.000    0.000    0.000    0.000 
#
# Total GULP energy -89328.949628 kJ/mol
# GULP energy per Si atom -5583.059352 kJ/mol
# Density = 2.172099 g / cm^3
# Si number density = 21.770546 Si / 1000 Ang^3
#
#
#
# Elastic Constant Matrix: (Units=GPa)
#
#
# Indices 1 2 3 4 5 6 
#
# 1 84.3090 0.4183 59.9326 0.0000 -28.3358 0.0000
# 2 0.4183 52.3820 -2.2171 0.0000 -6.1433 0.0000
# 3 59.9326 -2.2171 141.6509 0.0000 -29.6634 0.0000
# 4 0.0000 0.0000 0.0000 17.9952 0.0000 49.7526
# 5 -28.3358 -6.1433 -29.6634 0.0000 29.5480 0.0000
# 6 0.0000 0.0000 0.0000 49.7526 0.0000 -22.9131
#
#
#
# Elastic Compliance Matrix: (Units=1/GPa)
#
#
# Indices 1 2 3 4 5 6 
#
# 1 0.020798 0.001283 -0.005757 0.000000 0.014432 0.000000
# 2 0.001283 0.019890 0.001130 0.000000 0.006500 0.000000
# 3 -0.005757 0.001130 0.010644 0.000000 0.005399 0.000000
# 4 0.000000 0.000000 0.000000 0.007935 0.000000 0.017229
# 5 0.014432 0.006500 0.005399 0.000000 0.054454 0.000000
# 6 0.000000 0.000000 0.000000 0.017229 0.000000 -0.006232
#
#
# Mechanical properties :
#
#
# Convention : Reuss Voigt Hill
#
# Bulk Modulus (GPa) = 22.40032 43.84551 33.12292
# Shear Modulus (GPa) = 38.74162 19.60656 29.17409
#
# Velocity S-wave (km/s) = 4.22304 3.00426 3.66467
# Velocity P-wave (km/s) = 5.83870 5.67606 5.75795
#
# Compressibility (1/GPa) = 0.04464221
#
# Stress axis : x y z
#
# Youngs Moduli (GPa) = 48.08187 50.27563 93.95066
#
# Poissons Ratio (x) = -0.06449 0.54091
# Poissons Ratio (y) = -0.06168 -0.10613
# Poissons Ratio (z) = 0.27683 -0.05680
#
# Static dielectric constant tensor:
#      x y z
#    x 1.771640 0.000000 -0.019770 
#    y 0.000000 1.938770 0.000000 
#    z -0.019770 0.000000 1.787220 
# 
# From -- ./inp_files/5081.got.cif
#   From: 2010.05.17/outbox.cif.g08.bks.cpg/sg6_3_cif.got.tgz:5081.got - 2010.06.03 19:42:10.
