data_PCOD9130697
_publ_section_title
;
Structure prediction by ZEFSAII (Michael W. Deem and Ramdas Pophale) SiO2 
 PCOD9130697
Probable space group: C 2
;
_chemical_formula_sum "Si O2"
_cell_formula_units_Z 16
_cell_length_a 12.000000
_cell_length_b 15.000000
_cell_length_c 18.000000
_cell_angle_alpha 90.000000
_cell_angle_beta 30.000000
_cell_angle_gamma 90.000000
_cell_volume 1620.000000
_symmetry_space_group_name_H-M "C 2"
_symmetry_group_IT_number 5
_symmetry_cell_setting 'monoclinic'
loop_
_space_group_symop_operation_xyz
x,y,z
-x,y,-z
1/2+x,1/2+y,z
1/2-x,1/2+y,-z
loop_
_atom_site_type_symbol
_atom_site_label
_atom_site_fract_x
_atom_site_fract_y
_atom_site_fract_z
Si Si1 0.462559 0.426840 0.698314
Si Si2 0.336594 0.829581 0.234703
Si Si3 0.167719 0.861592 0.836121
Si Si4 0.836045 0.306604 0.405820
Si Si5 0.853236 0.804320 0.898006
Si Si6 0.288791 0.047234 0.708362
Si Si7 0.301015 0.600327 0.396832
Si Si8 0.243925 0.192699 0.836078
O O1 0.261776 0.410999 0.756137
O O2 0.675042 0.366610 0.549888
O O3 0.389546 0.386717 0.820072
O O4 0.534303 0.529024 0.662256
O O5 0.280777 0.833126 0.352935
O O6 0.209706 0.748173 0.265530
O O7 0.602204 0.814820 0.074275
O O8 0.405002 0.826932 0.727305
O O9 0.026818 0.797753 0.864048
O O10 0.221611 0.945893 0.753021
O O11 0.000000 0.884746 0.000000
O O12 0.807494 0.199511 0.425340
O O13 0.885441 0.719950 0.824670
O O14 0.552315 0.061133 0.548514
O O15 0.163958 0.096202 0.712619
O O16 0.234156 0.091924 0.818461
O O17 0.000000 0.225065 0.000000
#
# Coordination Sequence:
#
# PCOD9130697 Si02
#       8
#     4   4   4   4   4   4   4   4
#     4  11  22  40  65  94 126 165 219 272 321 382
#     4  10  20  39  66  91 124 168 214 264 318 380
#     4  12  24  41  64  94 137 173 209 269 335 388
#     4  12  24  41  67  95 129 171 215 272 327 387
#     4  10  21  39  64  93 125 169 213 262 326 388
#     4  11  21  39  61  94 126 163 217 268 309 390
#     4  11  23  38  63  93 126 169 218 263 329 379
#     4   9  18  35  63  90 115 156 214 261 307 371
#
# _framework density 9.8765429999999999
#
# number of rings (size 3 to 8) (size 9 to 14) (size 15 to 20)
#    0.000    1.250    5.000    3.375    1.750    0.500 
#    0.000    2.500    5.500    0.000    0.000    0.000 
#    0.000    0.000    0.000    0.000    0.000    0.000 
#
# Total GULP energy -89181.596275 kJ/mol
# GULP energy per Si atom -5573.849767 kJ/mol
# Density = 0.985406 g / cm^3
# Si number density = 9.876543 Si / 1000 Ang^3
#
#
#
# Elastic Constant Matrix: (Units=GPa)
#
#
# Indices 1 2 3 4 5 6 
#
# 1 68.0518 17.2900 1.4885 -0.0050 -13.5587 -0.0023
# 2 17.2900 64.7299 3.7035 -0.0107 1.4551 0.0013
# 3 1.4885 3.7035 57.5030 -0.0148 -5.1823 0.0056
# 4 -0.0050 -0.0107 -0.0148 21.7898 0.0045 0.1902
# 5 -13.5587 1.4551 -5.1823 0.0045 28.7239 -0.0032
# 6 -0.0023 0.0013 0.0056 0.1902 -0.0032 17.4850
#
#
#
# Elastic Compliance Matrix: (Units=1/GPa)
#
#
# Indices 1 2 3 4 5 6 
#
# 1 0.017675 -0.004954 0.000647 0.000000 0.008711 0.000004
# 2 -0.004954 0.016922 -0.001270 0.000007 -0.003425 -0.000002
# 3 0.000647 -0.001270 0.017778 0.000011 0.003577 -0.000005
# 4 0.000000 0.000007 0.000011 0.045897 -0.000006 -0.000499
# 5 0.008711 -0.003425 0.003577 -0.000006 0.039745 0.000008
# 6 0.000004 -0.000002 -0.000005 -0.000499 0.000008 0.057197
#
#
# Mechanical properties :
#
#
# Convention : Reuss Voigt Hill
#
# Bulk Modulus (GPa) = 24.26059 26.13873 25.19966
# Shear Modulus (GPa) = 22.71603 24.78658 23.75131
#
# Velocity S-wave (km/s) = 3.39484 3.54619 3.47134
# Velocity P-wave (km/s) = 5.26072 5.47985 5.37140
#
# Compressibility (1/GPa) = 0.04121911
#
# Stress axis : x y z
#
# Youngs Moduli (GPa) = 56.57795 59.09563 56.24977
#
# Poissons Ratio (x) = 0.29275 -0.03637
# Poissons Ratio (y) = 0.28028 0.07145
# Poissons Ratio (z) = -0.03658 0.07507
#
# Static dielectric constant tensor:
#      x y z
#    x 1.724800 0.000000 0.050840 
#    y 0.000000 1.711470 0.000010 
#    z 0.050840 0.000010 1.784540 
# 
# From -- ./inp_files/45013.got.cif
#   From: 2010.05.17/outbox.ucp.g08.bks.cvg/sg5_23_cif.got.tgz:45013.got - 2010.06.11 12:53:14.
