data_PCOD9130188
_publ_section_title
;
Structure prediction by ZEFSAII (Michael W. Deem and Ramdas Pophale) SiO2 
 PCOD9130188
Probable space group: C 2
;
_chemical_formula_sum "Si O2"
_cell_formula_units_Z 18
_cell_length_a 5.439548
_cell_length_b 24.313821
_cell_length_c 5.482294
_cell_angle_alpha 90.000000
_cell_angle_beta 91.124025
_cell_angle_gamma 90.000000
_cell_volume 724.927830
_symmetry_space_group_name_H-M "C 2"
_symmetry_group_IT_number 5
_symmetry_cell_setting 'monoclinic'
loop_
_space_group_symop_operation_xyz
x,y,z
-x,y,-z
1/2+x,1/2+y,z
1/2-x,1/2+y,-z
loop_
_atom_site_type_symbol
_atom_site_label
_atom_site_fract_x
_atom_site_fract_y
_atom_site_fract_z
Si Si1 0.500000 0.842170 0.500000
Si Si2 0.656106 0.260150 0.256933
Si Si3 0.745523 0.409706 0.869257
Si Si4 0.751116 0.517700 0.637867
Si Si5 0.253893 0.637055 0.154898
O O1 0.382454 0.801669 0.295248
O O2 0.287924 0.881429 0.607289
O O3 0.500000 0.269282 0.500000
O O4 0.749251 0.197072 0.273970
O O5 0.500000 0.265311 0.000000
O O6 0.745732 0.476117 0.862843
O O7 0.500000 0.391134 0.000000
O O8 0.000000 0.395078 0.000000
O O9 0.500000 0.502930 0.500000
O O10 0.746834 0.582631 0.682802
O O11 0.000000 0.504668 0.500000
O O12 0.500000 0.633835 0.000000
O O13 0.000000 0.633568 0.000000
#
# Coordination Sequence:
#
# PCOD9130188 Si02
#       5
#     2   4   4   4   4
#     4  12  32  50  82 116 168 216 292 338 414 502
#     4  11  30  52  82 120 166 218 282 344 420 494
#     4  12  29  51  79 115 161 218 272 342 418 493
#     4  12  24  45  78 115 160 206 265 338 416 496
#     4  11  25  47  77 116 160 206 264 338 416 494
#
# _framework density 24.830058999999999
#
# number of rings (size 3 to 8) (size 9 to 14) (size 15 to 20)
#    0.000    0.444    1.111    4.667   14.000    0.000 
#    0.000    0.000    0.000    0.000    0.000    0.000 
#    0.000    0.000    0.000    0.000    0.000    0.000 
#
# Total GULP energy -50398.481571 kJ/mol
# GULP energy per Si atom -5599.831286 kJ/mol
# Density = 2.477354 g / cm^3
# Si number density = 24.830059 Si / 1000 Ang^3
#
#
#
# Elastic Constant Matrix: (Units=GPa)
#
#
# Indices 1 2 3 4 5 6 
#
# 1 206.8090 40.9260 58.4194 0.0000 -16.6560 0.0000
# 2 40.9260 159.0225 32.0339 0.0000 0.3851 0.0000
# 3 58.4194 32.0339 86.2866 0.0000 -6.5089 0.0000
# 4 0.0000 0.0000 0.0000 22.2579 0.0000 -4.1558
# 5 -16.6560 0.3851 -6.5089 0.0000 55.5615 0.0000
# 6 0.0000 0.0000 0.0000 -4.1558 0.0000 43.0222
#
#
#
# Elastic Compliance Matrix: (Units=1/GPa)
#
#
# Indices 1 2 3 4 5 6 
#
# 1 0.006179 -0.000835 -0.003766 0.000000 0.001417 0.000000
# 2 -0.000835 0.006916 -0.002043 0.000000 -0.000538 0.000000
# 3 -0.003766 -0.002043 0.014946 0.000000 0.000636 0.000000
# 4 0.000000 0.000000 0.000000 0.045753 0.000000 0.004420
# 5 0.001417 -0.000538 0.000636 0.000000 0.018501 0.000000
# 6 0.000000 0.000000 0.000000 0.004420 0.000000 0.023671
#
#
# Mechanical properties :
#
#
# Convention : Reuss Voigt Hill
#
# Bulk Modulus (GPa) = 67.78683 79.43072 73.60878
# Shear Modulus (GPa) = 37.26596 45.55094 41.40845
#
# Velocity S-wave (km/s) = 3.87827 4.28776 4.08815
# Velocity P-wave (km/s) = 6.88580 7.52146 7.21064
#
# Compressibility (1/GPa) = 0.01475213
#
# Stress axis : x y z
#
# Youngs Moduli (GPa) = 161.84867 144.59000 66.90906
#
# Poissons Ratio (x) = 0.12071 0.25200
# Poissons Ratio (y) = 0.13512 0.13669
# Poissons Ratio (z) = 0.60958 0.29539
#
# Static dielectric constant tensor:
#      x y z
#    x 1.961350 0.000000 0.120900 
#    y 0.000000 1.959560 0.000000 
#    z 0.120900 0.000000 2.208460 
# 
# From -- ./inp_files/873.got.cif
#   From: 2010.05.17/outbox.cif.g08.bks.cpg/sg5_1_cif.got.tgz:873.got - 2010.06.03 18:56:24.
