data_PCOD9130985
_publ_section_title
;
Structure prediction by ZEFSAII (Michael W. Deem and Ramdas Pophale) SiO2 
 PCOD9130985
Probable space group: P M
;
_chemical_formula_sum "Si O2"
_cell_formula_units_Z 16
_cell_length_a 10.384900
_cell_length_b 8.711841
_cell_length_c 12.368437
_cell_angle_alpha 90.000000
_cell_angle_beta 127.528508
_cell_angle_gamma 90.000000
_cell_volume 887.417197
_symmetry_space_group_name_H-M "P M"
_symmetry_group_IT_number 6
_symmetry_cell_setting 'monoclinic'
loop_
_space_group_symop_operation_xyz
x,y,z
x,-y,z
loop_
_atom_site_type_symbol
_atom_site_label
_atom_site_fract_x
_atom_site_fract_y
_atom_site_fract_z
Si Si1 0.900410 0.316623 0.549460
Si Si2 0.177067 0.182607 0.539624
Si Si3 0.116371 0.681937 0.857412
Si Si4 0.693567 0.182810 0.110500
Si Si5 0.406890 0.682609 0.834899
Si Si6 0.212812 0.819127 0.130550
Si Si7 0.565062 0.682886 0.270780
Si Si8 0.050953 0.317657 0.258842
O O1 0.929907 0.500000 0.548576
O O2 0.712841 0.287030 0.429094
O O3 0.013944 0.228954 0.522188
O O4 0.965055 0.279378 0.702159
O O5 0.324125 0.251487 0.685009
O O6 0.160496 0.255536 0.413233
O O7 0.189295 0.000000 0.539348
O O8 0.111614 0.500000 0.879860
O O9 0.275270 0.708801 0.863834
O O10 0.130805 0.775188 0.974445
O O11 0.627509 0.260923 0.186195
O O12 0.874638 0.240745 0.181165
O O13 0.691204 0.000000 0.121633
O O14 0.571850 0.235276 0.953649
O O15 0.430231 0.500000 0.837610
O O16 0.399993 0.767501 0.216553
O O17 0.128615 0.729395 0.185030
O O18 0.201288 0.000000 0.143832
O O19 0.535384 0.500000 0.251036
O O20 0.034101 0.500000 0.259350
#
# Coordination Sequence:
#
# PCOD9130985 Si02
#       8
#     2   2   2   2   2   2   2   2
#     4   9  19  35  59  87 118 154 200 244 291 354
#     4  11  21  35  58  89 123 154 196 250 303 350
#     4   9  18  35  58  85 117 155 198 242 292 355
#     4  12  23  37  60  93 123 152 199 256 304 346
#     4  10  20  36  60  88 121 159 200 242 294 357
#     4  12  25  40  59  87 122 158 200 251 305 356
#     4  11  21  37  61  89 120 159 202 244 295 357
#     4  12  25  43  63  84 118 163 205 245 304 373
#
# _framework density 18.029851000000001
#
# number of rings (size 3 to 8) (size 9 to 14) (size 15 to 20)
#    0.000    1.250    2.500    6.000    0.000    2.500 
#    0.000    1.250    0.000    1.500    0.000    0.000 
#    0.000    0.000    0.000    0.000    0.000    0.000 
#
# Total GULP energy -89441.194921 kJ/mol
# GULP energy per Si atom -5590.074683 kJ/mol
# Density = 1.798881 g / cm^3
# Si number density = 18.029851 Si / 1000 Ang^3
#
#
#
# Elastic Constant Matrix: (Units=GPa)
#
#
# Indices 1 2 3 4 5 6 
#
# 1 40.1004 -7.8689 21.4512 0.0000 1.3204 0.0000
# 2 -7.8689 62.5165 29.8524 0.0000 -2.9460 0.0000
# 3 21.4512 29.8524 123.1052 0.0000 2.7323 0.0000
# 4 0.0000 0.0000 0.0000 44.8956 0.0000 -15.7480
# 5 1.3204 -2.9460 2.7323 0.0000 20.7330 0.0000
# 6 0.0000 0.0000 0.0000 -15.7480 0.0000 37.5207
#
#
#
# Elastic Compliance Matrix: (Units=1/GPa)
#
#
# Indices 1 2 3 4 5 6 
#
# 1 0.030055 0.007108 -0.006961 0.000000 0.000013 0.000000
# 2 0.007108 0.019980 -0.006155 0.000000 0.003197 0.000000
# 3 -0.006961 -0.006155 0.010870 0.000000 -0.001864 0.000000
# 4 0.000000 0.000000 0.000000 0.026119 0.000000 0.010963
# 5 0.000013 0.003197 -0.001864 0.000000 0.048931 0.000000
# 6 0.000000 0.000000 0.000000 0.010963 0.000000 0.031253
#
#
# Mechanical properties :
#
#
# Convention : Reuss Voigt Hill
#
# Bulk Modulus (GPa) = 20.45428 34.73239 27.59333
# Shear Modulus (GPa) = 25.57265 32.78235 29.17750
#
# Velocity S-wave (km/s) = 3.77019 4.26869 4.02716
# Velocity P-wave (km/s) = 5.50651 6.60313 6.07960
#
# Compressibility (1/GPa) = 0.04888952
#
# Stress axis : x y z
#
# Youngs Moduli (GPa) = 33.27180 50.05015 91.99707
#
# Poissons Ratio (x) = -0.35574 0.64040
# Poissons Ratio (y) = -0.23649 0.56620
# Poissons Ratio (z) = 0.23161 0.30803
#
# Static dielectric constant tensor:
#      x y z
#    x 1.578710 0.000000 0.009280 
#    y 0.000000 1.597610 0.000000 
#    z 0.009280 0.000000 1.630180 
# 
# From -- ./inp_files/4239.got.cif
#   From: 2010.05.17/outbox.cif.g08.bks.cpg/sg6_3_cif.got.tgz:4239.got - 2010.06.03 19:42:10.
