data_PCOD9130106
_publ_section_title
;
Structure prediction by ZEFSAII (Michael W. Deem and Ramdas Pophale) SiO2 
 PCOD9130106
Probable space group: C 2
;
_chemical_formula_sum "Si O2"
_cell_formula_units_Z 28
_cell_length_a 17.153194
_cell_length_b 4.902420
_cell_length_c 13.997954
_cell_angle_alpha 90.000000
_cell_angle_beta 62.980528
_cell_angle_gamma 90.000000
_cell_volume 1048.638324
_symmetry_space_group_name_H-M "C 2"
_symmetry_group_IT_number 5
_symmetry_cell_setting 'monoclinic'
loop_
_space_group_symop_operation_xyz
x,y,z
-x,y,-z
1/2+x,1/2+y,z
1/2-x,1/2+y,-z
loop_
_atom_site_type_symbol
_atom_site_label
_atom_site_fract_x
_atom_site_fract_y
_atom_site_fract_z
Si Si1 0.617968 0.530700 0.250126
Si Si2 0.036720 0.694651 0.740255
Si Si3 0.369118 0.700411 0.390360
Si Si4 0.254125 0.776034 0.289493
Si Si5 0.591144 0.909578 0.425818
Si Si6 0.805407 0.998714 0.977888
Si Si7 0.085611 0.985314 0.903906
O O1 0.556648 0.280206 0.250320
O O2 0.713351 0.515774 0.249257
O O3 0.565948 0.685727 0.361371
O O4 0.638293 0.652362 0.134789
O O5 0.058428 0.385632 0.704548
O O6 0.107425 0.888005 0.645774
O O7 0.050854 0.773222 0.843473
O O8 0.281929 0.801233 0.384321
O O9 0.372006 0.771486 0.499175
O O10 0.168506 0.587453 0.339879
O O11 0.341079 0.663982 0.190649
O O12 0.500000 0.061443 0.500000
O O13 0.739933 0.237959 0.046052
O O14 0.860892 0.880930 0.034165
O O15 0.000000 0.122491 0.000000
#
# Coordination Sequence:
#
# PCOD9130106 Si02
#       7
#     4   4   4   4   4   4   4
#     4  12  26  46  76 115 154 206 268 323 391 481
#     4  11  26  49  77 114 157 202 266 321 387 481
#     4  11  28  49  77 113 155 203 257 331 395 461
#     4  11  28  46  78 110 157 196 269 323 388 477
#     4  12  27  49  79 110 157 212 261 328 401 472
#     4  12  27  48  78 114 158 206 260 324 395 469
#     4  11  24  51  77 115 155 212 253 324 397 464
#
# _framework density 26.701294999999998
#
# number of rings (size 3 to 8) (size 9 to 14) (size 15 to 20)
#    0.000    0.571    4.286    1.714   10.000    0.571 
#    0.000    3.571    0.000    0.000    0.000    0.000 
#    0.000    0.000    0.000    0.000    0.000    0.000 
#
# Total GULP energy -78323.393107 kJ/mol
# GULP energy per Si atom -5594.528079 kJ/mol
# Density = 2.664052 g / cm^3
# Si number density = 26.701295 Si / 1000 Ang^3
#
#
#
# Elastic Constant Matrix: (Units=GPa)
#
#
# Indices 1 2 3 4 5 6 
#
# 1 187.7775 27.5780 52.4856 0.0007 32.9262 0.0015
# 2 27.5780 51.8617 21.5944 0.0040 -4.8617 0.0072
# 3 52.4856 21.5944 130.4138 0.0000 15.3274 0.0010
# 4 0.0007 0.0040 0.0000 22.1473 -0.0001 -3.5358
# 5 32.9262 -4.8617 15.3274 -0.0001 74.6352 0.0005
# 6 0.0015 0.0072 0.0010 -3.5358 0.0005 33.6040
#
#
#
# Elastic Compliance Matrix: (Units=1/GPa)
#
#
# Indices 1 2 3 4 5 6 
#
# 1 0.006803 -0.003092 -0.001895 0.000000 -0.002813 0.000000
# 2 -0.003092 0.022443 -0.002873 -0.000005 0.003416 -0.000005
# 3 -0.001895 -0.002873 0.009048 0.000001 -0.001209 0.000001
# 4 0.000000 -0.000005 0.000001 0.045924 -0.000001 0.004832
# 5 -0.002813 0.003416 -0.001209 -0.000001 0.015110 -0.000001
# 6 0.000000 -0.000005 0.000001 0.004832 -0.000001 0.030267
#
#
# Mechanical properties :
#
#
# Convention : Reuss Voigt Hill
#
# Bulk Modulus (GPa) = 44.30027 63.70766 54.00396
# Shear Modulus (GPa) = 32.71399 43.97032 38.34216
#
# Velocity S-wave (km/s) = 3.50406 4.06242 3.79353
# Velocity P-wave (km/s) = 5.74442 6.77610 6.28147
#
# Compressibility (1/GPa) = 0.02257323
#
# Stress axis : x y z
#
# Youngs Moduli (GPa) = 147.00383 44.55759 110.51561
#
# Poissons Ratio (x) = 0.13777 0.20944
# Poissons Ratio (y) = 0.45453 0.31754
# Poissons Ratio (z) = 0.27859 0.12803
#
# Static dielectric constant tensor:
#      x y z
#    x 2.139060 -0.000010 -0.064690 
#    y -0.000010 2.149890 0.000000 
#    z -0.064690 0.000000 2.124180 
# 
# From -- ./inp_files/55404.got.cif
#   From: 2010.05.17/outbox.cif.g08.bks.cpg/sg5_28_cif.got.tgz:55404.got - 2010.06.03 18:56:24.
