data_PCOD9130280
_publ_section_title
;
Structure prediction by ZEFSAII (Michael W. Deem and Ramdas Pophale) SiO2 
 PCOD9130280
Probable space group: C 2
;
_chemical_formula_sum "Si O2"
_cell_formula_units_Z 18
_cell_length_a 9.327696
_cell_length_b 11.164928
_cell_length_c 9.072113
_cell_angle_alpha 90.000000
_cell_angle_beta 47.853187
_cell_angle_gamma 90.000000
_cell_volume 700.499199
_symmetry_space_group_name_H-M "C 2"
_symmetry_group_IT_number 5
_symmetry_cell_setting 'monoclinic'
loop_
_space_group_symop_operation_xyz
x,y,z
-x,y,-z
1/2+x,1/2+y,z
1/2-x,1/2+y,-z
loop_
_atom_site_type_symbol
_atom_site_label
_atom_site_fract_x
_atom_site_fract_y
_atom_site_fract_z
Si Si1 0.000000 0.083720 0.000000
Si Si2 0.310551 0.193553 0.557205
Si Si3 0.779740 0.418379 0.257562
Si Si4 0.278915 0.886438 0.946115
Si Si5 0.207955 0.184541 0.302326
O O1 0.881616 0.152640 0.215611
O O2 0.842857 0.997232 0.031446
O O3 0.500000 0.139260 0.500000
O O4 0.318627 0.338641 0.551542
O O5 0.317189 0.167191 0.380671
O O6 0.704021 0.546523 0.258156
O O7 0.998811 0.424675 0.169019
O O8 0.735188 0.340971 0.141048
O O9 0.239469 0.777886 0.859946
O O10 0.000000 0.228058 0.500000
#
# Coordination Sequence:
#
# PCOD9130280 Si02
#       5
#     2   4   4   4   4
#     4  12  28  50  84 116 166 222 270 340 410 490
#     4  12  28  49  82 118 166 212 277 338 413 484
#     4  11  26  50  77 118 167 210 268 345 409 483
#     4  11  27  47  80 117 163 212 277 326 417 485
#     4  12  26  49  81 119 164 212 277 340 405 494
#
# _framework density 25.695961
#
# number of rings (size 3 to 8) (size 9 to 14) (size 15 to 20)
#    0.000    0.444    2.222    4.667    9.333    2.667 
#    0.000    0.000    0.000    0.000    0.000    0.000 
#    0.000    0.000    0.000    0.000    0.000    0.000 
#
# Total GULP energy -50213.379014 kJ/mol
# GULP energy per Si atom -5579.264335 kJ/mol
# Density = 2.563748 g / cm^3
# Si number density = 25.695961 Si / 1000 Ang^3
#
#
#
# Elastic Constant Matrix: (Units=GPa)
#
#
# Indices 1 2 3 4 5 6 
#
# 1 167.8017 26.0173 59.3854 0.0000 26.8265 0.0000
# 2 26.0173 134.3328 52.4423 0.0000 22.2522 0.0000
# 3 59.3854 52.4423 92.7635 0.0000 12.5792 0.0000
# 4 0.0000 0.0000 0.0000 32.9899 0.0000 18.8517
# 5 26.8265 22.2522 12.5792 0.0000 57.6612 0.0000
# 6 0.0000 0.0000 0.0000 18.8517 0.0000 2.2939
#
#
#
# Elastic Compliance Matrix: (Units=1/GPa)
#
#
# Indices 1 2 3 4 5 6 
#
# 1 0.008204 0.001030 -0.005423 0.000000 -0.003031 0.000000
# 2 0.001030 0.010071 -0.005937 0.000000 -0.003071 0.000000
# 3 -0.005423 -0.005937 0.017472 0.000000 0.001002 0.000000
# 4 0.000000 0.000000 0.000000 -0.008201 0.000000 0.067397
# 5 -0.003031 -0.003071 0.001002 0.000000 0.019719 0.000000
# 6 0.000000 0.000000 0.000000 0.067397 0.000000 -0.117942
#
#
# Mechanical properties :
#
#
# Convention : Reuss Voigt Hill
#
# Bulk Modulus (GPa) = 66.27907 74.50978 70.39443
# Shear Modulus (GPa) = -111.13995 35.72586 -37.70705
#
# Velocity S-wave (km/s) = -6.58375 3.73276 -3.83486
# Velocity P-wave (km/s) = 5.65198 6.90200 2.80114
#
# Compressibility (1/GPa) = 0.01508772
#
# Stress axis : x y z
#
# Youngs Moduli (GPa) = 121.89844 99.29575 57.23363
#
# Poissons Ratio (x) = -0.10232 0.31039
# Poissons Ratio (y) = -0.12561 0.33978
# Poissons Ratio (z) = 0.66109 0.58949
#
# Static dielectric constant tensor:
#      x y z
#    x 2.792810 0.000000 0.654710 
#    y 0.000000 2.005140 0.000000 
#    z 0.654710 0.000000 3.032140 
# 
# From -- ./inp_files/14183.got.cif
#   From: 2010.05.17/outbox.cif.g08.bks.cpg/sg5_8_cif.got.tgz:14183.got - 2010.06.03 18:56:24.
