data_PCOD9130778
_publ_section_title
;
Structure prediction by ZEFSAII (Michael W. Deem and Ramdas Pophale) SiO2 
 PCOD9130778
Probable space group: P M
;
_chemical_formula_sum "Si O2"
_cell_formula_units_Z 14
_cell_length_a 8.167611
_cell_length_b 12.329968
_cell_length_c 10.024160
_cell_angle_alpha 90.000000
_cell_angle_beta 133.784001
_cell_angle_gamma 90.000000
_cell_volume 728.809783
_symmetry_space_group_name_H-M "P M"
_symmetry_group_IT_number 6
_symmetry_cell_setting 'monoclinic'
loop_
_space_group_symop_operation_xyz
x,y,z
x,-y,z
loop_
_atom_site_type_symbol
_atom_site_label
_atom_site_fract_x
_atom_site_fract_y
_atom_site_fract_z
Si Si1 0.997000 0.123851 0.338870
Si Si2 0.467313 0.191992 0.665982
Si Si3 0.554610 0.790094 0.001470
Si Si4 0.120499 0.199318 0.114804
Si Si5 0.748801 0.627629 0.925489
Si Si6 0.078437 0.873820 0.801406
Si Si7 0.589277 0.876039 0.444423
O O1 0.194724 0.193606 0.518438
O O2 0.049179 0.137896 0.210052
O O3 0.025864 0.000000 0.396527
O O4 0.736910 0.160019 0.204523
O O5 0.557115 0.148363 0.858282
O O6 0.532271 0.127400 0.571060
O O7 0.583727 0.310754 0.726995
O O8 0.297075 0.800117 0.899598
O O9 0.642668 0.671712 0.005519
O O10 0.394059 0.197406 0.269670
O O11 0.993961 0.314929 0.050288
O O12 0.032702 0.140476 0.933070
O O13 0.753855 0.500000 0.916635
O O14 0.853970 0.845590 0.590560
O O15 0.133206 0.000000 0.805925
O O16 0.561291 0.000000 0.380893
#
# Coordination Sequence:
#
# PCOD9130778 Si02
#       7
#     2   2   2   2   2   2   2
#     4  10  18  31  52  79 108 142 175 214 265 316
#     4   9  18  34  52  74 105 132 184 228 255 307
#     4   9  21  34  51  76 112 138 182 215 257 317
#     4  10  19  34  53  78 109 133 183 220 257 316
#     4   9  19  39  60  74  98 139 187 237 271 290
#     4  11  20  32  51  81 119 151 165 199 265 332
#     4  10  19  32  53  82 113 145 170 207 266 324
#
# _framework density 19.209401
#
# number of rings (size 3 to 8) (size 9 to 14) (size 15 to 20)
#    0.857    1.429    1.429    3.000    0.000    4.571 
#    0.000    8.571    0.000    0.000    0.000    0.000 
#    0.000    0.000    0.000    0.000    0.000    0.000 
#
# Total GULP energy -77951.031593 kJ/mol
# GULP energy per Si atom -5567.930828 kJ/mol
# Density = 1.916568 g / cm^3
# Si number density = 19.209401 Si / 1000 Ang^3
#
#
#
# Elastic Constant Matrix: (Units=GPa)
#
#
# Indices 1 2 3 4 5 6 
#
# 1 54.2861 20.8855 29.8854 0.0000 26.2362 0.0000
# 2 20.8855 117.0556 49.6381 0.0000 25.5042 0.0000
# 3 29.8854 49.6381 152.5767 0.0000 41.3631 0.0000
# 4 0.0000 0.0000 0.0000 12.1191 0.0000 -1.0961
# 5 26.2362 25.5042 41.3631 0.0000 47.1821 0.0000
# 6 0.0000 0.0000 0.0000 -1.0961 0.0000 11.1401
#
#
#
# Elastic Compliance Matrix: (Units=1/GPa)
#
#
# Indices 1 2 3 4 5 6 
#
# 1 0.025626 -0.001346 -0.001201 0.000000 -0.012469 0.000000
# 2 -0.001346 0.010394 -0.002358 0.000000 -0.002803 0.000000
# 3 -0.001201 -0.002358 0.009221 0.000000 -0.006142 0.000000
# 4 0.000000 0.000000 0.000000 0.083256 0.000000 0.008192
# 5 -0.012469 -0.002803 -0.006142 0.000000 0.035027 0.000000
# 6 0.000000 0.000000 0.000000 0.008192 0.000000 0.090572
#
#
# Mechanical properties :
#
#
# Convention : Reuss Voigt Hill
#
# Bulk Modulus (GPa) = 28.22389 58.30403 43.26396
# Shear Modulus (GPa) = 18.13450 28.98887 23.56169
#
# Velocity S-wave (km/s) = 3.07586 3.88893 3.50604
# Velocity P-wave (km/s) = 5.22869 7.11215 6.24187
#
# Compressibility (1/GPa) = 0.03543098
#
# Stress axis : x y z
#
# Youngs Moduli (GPa) = 39.02224 96.21240 108.44270
#
# Poissons Ratio (x) = 0.12952 0.13026
# Poissons Ratio (y) = 0.05253 0.25570
# Poissons Ratio (z) = 0.04687 0.22686
#
# Static dielectric constant tensor:
#      x y z
#    x 1.797290 0.000000 0.017060 
#    y 0.000000 1.600170 0.000000 
#    z 0.017060 0.000000 1.726460 
# 
# From -- ./inp_files/4796.got.cif
#   From: 2010.05.17/outbox.cif.g08.bks.cpg/sg6_3_cif.got.tgz:4796.got - 2010.06.03 19:42:10.
