data_PCOD9130943
_publ_section_title
;
Structure prediction by ZEFSAII (Michael W. Deem and Ramdas Pophale) SiO2 
 PCOD9130943
Probable space group: P M
;
_chemical_formula_sum "Si O2"
_cell_formula_units_Z 16
_cell_length_a 16.822442
_cell_length_b 7.656885
_cell_length_c 7.522859
_cell_angle_alpha 90.000000
_cell_angle_beta 40.238297
_cell_angle_gamma 90.000000
_cell_volume 625.943507
_symmetry_space_group_name_H-M "P M"
_symmetry_group_IT_number 6
_symmetry_cell_setting 'monoclinic'
loop_
_space_group_symop_operation_xyz
x,y,z
x,-y,z
loop_
_atom_site_type_symbol
_atom_site_label
_atom_site_fract_x
_atom_site_fract_y
_atom_site_fract_z
Si Si1 0.831490 0.702764 0.185680
Si Si2 0.091931 0.200098 0.888814
Si Si3 0.484258 0.706421 0.228924
Si Si4 0.989505 0.211372 0.418110
Si Si5 0.734602 0.704980 0.973495
Si Si6 0.175843 0.213582 0.384836
Si Si7 0.575818 0.796888 0.708852
Si Si8 0.385933 0.789449 0.755866
O O1 0.866999 0.500000 0.105359
O O2 0.707580 0.710412 0.515993
O O3 0.782371 0.776822 0.080770
O O4 0.950747 0.799269 0.056702
O O5 0.172960 0.278928 0.591708
O O6 0.133949 0.000000 0.841478
O O7 0.074857 0.278800 0.112448
O O8 0.494948 0.500000 0.186723
O O9 0.383817 0.739520 0.553116
O O10 0.610716 0.780078 0.101124
O O11 0.482150 0.781306 0.034429
O O12 0.049163 0.262500 0.503229
O O13 0.850640 0.274078 0.645807
O O14 0.989167 0.000000 0.408893
O O15 0.711874 0.500000 0.041567
O O16 0.180415 0.000000 0.385382
O O17 0.279349 0.271308 0.070356
O O18 0.509834 0.726263 0.644144
O O19 0.600414 0.000000 0.641265
O O20 0.384603 0.000000 0.763397
#
# Coordination Sequence:
#
# PCOD9130943 Si02
#       8
#     2   2   2   2   2   2   2   2
#     4  11  21  36  58  84 116 154 190 232 288 347
#     4  10  20  35  57  86 114 146 187 233 286 342
#     4  11  23  40  61  86 119 156 191 236 291 349
#     4  10  20  34  58  86 112 145 185 231 282 338
#     4  10  21  36  56  82 114 151 187 228 284 345
#     4   9  19  37  58  82 112 147 189 238 287 331
#     4  11  23  38  60  90 119 151 193 241 288 343
#     4  10  22  40  62  86 114 152 198 245 288 337
#
# _framework density 25.561409999999999
#
# number of rings (size 3 to 8) (size 9 to 14) (size 15 to 20)
#    0.000    1.750    2.500    1.875    0.000    5.500 
#    0.000    5.000    0.000    1.500    0.000    0.000 
#    0.000    0.000    0.000    0.000    0.000    0.000 
#
# Total GULP energy -89491.307571 kJ/mol
# GULP energy per Si atom -5593.206723 kJ/mol
# Density = 2.550323 g / cm^3
# Si number density = 25.561410 Si / 1000 Ang^3
#
#
#
# Elastic Constant Matrix: (Units=GPa)
#
#
# Indices 1 2 3 4 5 6 
#
# 1 73.6592 -1.4140 10.2798 0.0000 26.6063 0.0000
# 2 -1.4140 70.6470 -4.8926 0.0000 1.6688 0.0000
# 3 10.2798 -4.8926 145.3673 0.0000 28.0770 0.0000
# 4 0.0000 0.0000 0.0000 42.7601 0.0000 2.4294
# 5 26.6063 1.6688 28.0770 0.0000 51.0679 0.0000
# 6 0.0000 0.0000 0.0000 2.4294 0.0000 8.1272
#
#
#
# Elastic Compliance Matrix: (Units=1/GPa)
#
#
# Indices 1 2 3 4 5 6 
#
# 1 0.016789 0.000591 0.000588 0.000000 -0.009090 0.000000
# 2 0.000591 0.014239 0.000657 0.000000 -0.001134 0.000000
# 3 0.000588 0.000657 0.007745 0.000000 -0.004586 0.000000
# 4 0.000000 0.000000 0.000000 0.023790 0.000000 -0.007111
# 5 -0.009090 -0.001134 -0.004586 0.000000 0.026876 0.000000
# 6 0.000000 0.000000 0.000000 -0.007111 0.000000 0.125170
#
#
# Mechanical properties :
#
#
# Convention : Reuss Voigt Hill
#
# Bulk Modulus (GPa) = 23.55959 33.06888 28.31424
# Shear Modulus (GPa) = 22.21385 39.43771 30.82578
#
# Velocity S-wave (km/s) = 2.95114 3.93219 3.47645
# Velocity P-wave (km/s) = 4.56609 5.79493 5.21682
#
# Compressibility (1/GPa) = 0.04244555
#
# Stress axis : x y z
#
# Youngs Moduli (GPa) = 59.56451 70.22975 129.10782
#
# Poissons Ratio (x) = -0.04154 -0.07595
# Poissons Ratio (y) = -0.03523 -0.08476
# Poissons Ratio (z) = -0.03504 -0.04611
#
# Static dielectric constant tensor:
#      x y z
#    x 2.015710 0.000000 0.004940 
#    y 0.000000 1.919790 0.000000 
#    z 0.004940 0.000000 2.083610 
# 
# From -- ./inp_files/4264.got.cif
#   From: 2010.05.17/outbox.cif.g08.bks.cpg/sg6_3_cif.got.tgz:4264.got - 2010.06.03 19:42:10.
