data_PCOD9130123
_publ_section_title
;
Structure prediction by ZEFSAII (Michael W. Deem and Ramdas Pophale) SiO2 
 PCOD9130123
Probable space group: C 2
;
_chemical_formula_sum "Si O2"
_cell_formula_units_Z 30
_cell_length_a 14.614251
_cell_length_b 5.165959
_cell_length_c 16.082153
_cell_angle_alpha 90.000000
_cell_angle_beta 76.028936
_cell_angle_gamma 90.000000
_cell_volume 1178.231018
_symmetry_space_group_name_H-M "C 2"
_symmetry_group_IT_number 5
_symmetry_cell_setting 'monoclinic'
loop_
_space_group_symop_operation_xyz
x,y,z
-x,y,-z
1/2+x,1/2+y,z
1/2-x,1/2+y,-z
loop_
_atom_site_type_symbol
_atom_site_label
_atom_site_fract_x
_atom_site_fract_y
_atom_site_fract_z
Si Si1 0.347603 0.508010 0.683005
Si Si2 0.731939 0.510520 0.750345
Si Si3 0.518362 0.046917 0.167890
Si Si4 0.189067 0.556655 0.032768
Si Si5 0.000000 0.305719 0.000000
Si Si6 0.602132 0.356063 0.920860
Si Si7 0.186359 0.847117 0.497833
Si Si8 0.054736 0.850432 0.679682
O O1 0.276646 0.296343 0.739856
O O2 0.347616 0.422751 0.586663
O O3 0.452790 0.488150 0.697184
O O4 0.305187 0.794328 0.701784
O O5 0.694167 0.408320 0.847247
O O6 0.639244 0.492018 0.711207
O O7 0.630306 0.045386 0.130785
O O8 0.486267 0.841382 0.107432
O O9 0.476476 0.298158 0.130251
O O10 0.471973 0.079772 0.267458
O O11 0.246263 0.819086 0.006319
O O12 0.103758 0.596225 0.980957
O O13 0.914823 0.087001 0.013946
O O14 0.248063 0.585156 0.485507
O O15 0.099077 0.809619 0.579428
#
# Coordination Sequence:
#
# PCOD9130123 Si02
#       8
#     4   4   4   4   2   4   4   4
#     4  12  26  51  78 114 152 202 255 314 390 464
#     4  11  28  47  76 111 152 198 255 321 379 459
#     4  11  25  46  69 106 139 200 257 307 380 457
#     4  12  26  42  66 101 142 182 237 309 371 442
#     4  12  20  46  78  96 144 202 266 304 394 458
#     4  11  25  44  68  97 142 197 247 310 383 441
#     4  12  24  50  80 113 157 204 254 312 394 466
#     4  11  27  49  77 114 156 202 256 326 381 462
#
# _framework density 25.461898000000001
#
# number of rings (size 3 to 8) (size 9 to 14) (size 15 to 20)
#    0.000    0.533    5.333    1.200    7.467    2.133 
#    2.400    2.667    0.000    0.000    0.000    0.000 
#    0.000    0.000    0.000    0.000    0.000    0.000 
#
# Total GULP energy -83757.836202 kJ/mol
# GULP energy per Si atom -5583.855747 kJ/mol
# Density = 2.540395 g / cm^3
# Si number density = 25.461898 Si / 1000 Ang^3
#
#
#
# Elastic Constant Matrix: (Units=GPa)
#
#
# Indices 1 2 3 4 5 6 
#
# 1 134.1009 -12.2486 -21.1609 0.0000 -9.5205 0.0000
# 2 -12.2486 96.7731 -18.4856 0.0000 -9.6179 0.0000
# 3 -21.1609 -18.4856 71.5131 0.0000 -21.0302 0.0000
# 4 0.0000 0.0000 0.0000 -4.1097 0.0000 14.5339
# 5 -9.5205 -9.6179 -21.0302 0.0000 42.1585 0.0000
# 6 0.0000 0.0000 0.0000 14.5339 0.0000 17.7076
#
#
#
# Elastic Compliance Matrix: (Units=1/GPa)
#
#
# Indices 1 2 3 4 5 6 
#
# 1 0.008768 0.002487 0.004672 0.000000 0.004878 0.000000
# 2 0.002487 0.012375 0.005778 0.000000 0.006267 0.000000
# 3 0.004672 0.005778 0.020575 0.000000 0.012637 0.000000
# 4 0.000000 0.000000 0.000000 -0.062349 0.000000 0.051175
# 5 0.004878 0.006267 0.012637 0.000000 0.032555 0.000000
# 6 0.000000 0.000000 0.000000 0.051175 0.000000 0.014470
#
#
# Mechanical properties :
#
#
# Convention : Reuss Voigt Hill
#
# Bulk Modulus (GPa) = 14.79515 22.06633 18.43074
# Shear Modulus (GPa) = 216.90618 34.77011 125.83814
#
# Velocity S-wave (km/s) = 9.23978 3.69938 7.03771
# Velocity P-wave (km/s) = 10.93867 5.18964 8.56116
#
# Compressibility (1/GPa) = 0.06758973
#
# Stress axis : x y z
#
# Youngs Moduli (GPa) = 114.05531 80.81026 48.60176
#
# Poissons Ratio (x) = -0.20096 -0.22705
# Poissons Ratio (y) = -0.28364 -0.28080
# Poissons Ratio (z) = -0.53282 -0.46688
#
# Static dielectric constant tensor:
#      x y z
#    x 2.642520 0.000000 0.019090 
#    y 0.000000 2.129620 0.000000 
#    z 0.019090 0.000000 1.986590 
# 
# From -- ./inp_files/61214.got.cif
#   From: 2010.05.17/outbox.cif.g08.bks.cpg/sg5_31_cif.got.tgz:61214.got - 2010.06.03 18:56:24.
