data_PCOD9130995
_publ_section_title
;
Structure prediction by ZEFSAII (Michael W. Deem and Ramdas Pophale) SiO2 
 PCOD9130995
Probable space group: P M
;
_chemical_formula_sum "Si O2"
_cell_formula_units_Z 14
_cell_length_a 17.145881
_cell_length_b 10.127934
_cell_length_c 5.264491
_cell_angle_alpha 90.000000
_cell_angle_beta 127.667306
_cell_angle_gamma 90.000000
_cell_volume 723.648510
_symmetry_space_group_name_H-M "P M"
_symmetry_group_IT_number 6
_symmetry_cell_setting 'monoclinic'
loop_
_space_group_symop_operation_xyz
x,y,z
x,-y,z
loop_
_atom_site_type_symbol
_atom_site_label
_atom_site_fract_x
_atom_site_fract_y
_atom_site_fract_z
Si Si1 0.119270 0.651957 0.744710
Si Si2 0.251216 0.348156 0.509878
Si Si3 0.589231 0.271837 0.127386
Si Si4 0.490255 0.641465 0.439969
Si Si5 0.804894 0.157043 0.600235
Si Si6 0.933195 0.157355 0.353205
Si Si7 0.404201 0.148764 0.590957
O O1 0.083185 0.500000 0.654556
O O2 0.194778 0.671555 0.661960
O O3 0.030909 0.755233 0.549109
O O4 0.175184 0.665651 0.123968
O O5 0.289328 0.500000 0.578004
O O6 0.334866 0.240435 0.624689
O O7 0.547386 0.342695 0.292371
O O8 0.701175 0.230989 0.381720
O O9 0.567645 0.352397 0.827422
O O10 0.513416 0.150209 0.931705
O O11 0.437617 0.500000 0.343717
O O12 0.419800 0.764749 0.365579
O O13 0.870112 0.183697 0.481134
O O14 0.784369 0.000000 0.564831
O O15 0.866998 0.188910 0.975470
O O16 0.955951 0.000000 0.391610
O O17 0.369223 0.000000 0.483847
#
# Coordination Sequence:
#
# PCOD9130995 Si02
#       7
#     2   2   2   2   2   2   2
#     4  10  22  41  61  84 115 153 194 244 302 356
#     4  10  22  39  61  85 115 159 198 235 299 364
#     4  10  22  38  61  87 122 160 204 240 283 357
#     4  10  22  39  59  82 119 163 201 243 290 346
#     4  10  20  37  59  87 120 157 192 235 300 359
#     4  10  21  37  62  88 113 150 196 243 297 354
#     4  10  24  39  61  93 124 158 201 250 295 346
#
# _framework density 19.346409999999999
#
# number of rings (size 3 to 8) (size 9 to 14) (size 15 to 20)
#    0.857    1.143    0.000    3.000    2.000    2.286 
#    0.000    4.286    0.000    0.000    0.000    0.000 
#    0.000    0.000    0.000    0.000    0.000    0.000 
#
# Total GULP energy -78099.408433 kJ/mol
# GULP energy per Si atom -5578.529174 kJ/mol
# Density = 1.930238 g / cm^3
# Si number density = 19.346410 Si / 1000 Ang^3
#
#
#
# Elastic Constant Matrix: (Units=GPa)
#
#
# Indices 1 2 3 4 5 6 
#
# 1 82.6554 49.2522 49.7060 0.0000 -4.6322 0.0000
# 2 49.2522 117.9569 39.5307 0.0000 16.7162 0.0000
# 3 49.7060 39.5307 113.5901 0.0000 -12.2299 0.0000
# 4 0.0000 0.0000 0.0000 -2.4378 0.0000 11.9023
# 5 -4.6322 16.7162 -12.2299 0.0000 41.9391 0.0000
# 6 0.0000 0.0000 0.0000 11.9023 0.0000 25.7571
#
#
#
# Elastic Compliance Matrix: (Units=1/GPa)
#
#
# Indices 1 2 3 4 5 6 
#
# 1 0.019917 -0.006737 -0.006034 0.000000 0.003125 0.000000
# 2 -0.006737 0.012988 -0.002281 0.000000 -0.006586 0.000000
# 3 -0.006034 -0.002281 0.012662 0.000000 0.003935 0.000000
# 4 0.000000 0.000000 0.000000 -0.125980 0.000000 0.058215
# 5 0.003125 -0.006586 0.003935 0.000000 0.027962 0.000000
# 6 0.000000 0.000000 0.000000 0.058215 0.000000 0.011923
#
#
# Mechanical properties :
#
#
# Convention : Reuss Voigt Hill
#
# Bulk Modulus (GPa) = 64.67457 65.68668 65.18062
# Shear Modulus (GPa) = -949.02171 24.76592 -462.12789
#
# Velocity S-wave (km/s) = -22.17220 3.58177 -15.47219
# Velocity P-wave (km/s) = 24.93938 7.15067 16.89439
#
# Compressibility (1/GPa) = 0.01546203
#
# Stress axis : x y z
#
# Youngs Moduli (GPa) = 50.20925 76.99150 78.97752
#
# Poissons Ratio (x) = 0.51866 0.47658
# Poissons Ratio (y) = 0.33824 0.18018
# Poissons Ratio (z) = 0.30298 0.17565
#
# Static dielectric constant tensor:
#      x y z
#    x 1.645460 0.000000 -0.015660 
#    y 0.000000 1.665130 0.000000 
#    z -0.015660 0.000000 1.684150 
# 
# From -- ./inp_files/1967.got.cif
#   From: 2010.05.17/outbox.cif.g08.bks.cpg/sg6_1_cif.got.tgz:1967.got - 2010.06.03 19:42:10.
