data_PCOD9130568
_publ_section_title
;
Structure prediction by ZEFSAII (Michael W. Deem and Ramdas Pophale) SiO2 
 PCOD9130568
Probable space group: C 2
;
_chemical_formula_sum "Si O2"
_cell_formula_units_Z 16
_cell_length_a 14.072603
_cell_length_b 5.149047
_cell_length_c 7.955914
_cell_angle_alpha 90.000000
_cell_angle_beta 69.247276
_cell_angle_gamma 90.000000
_cell_volume 539.085882
_symmetry_space_group_name_H-M "C 2"
_symmetry_group_IT_number 5
_symmetry_cell_setting 'monoclinic'
loop_
_space_group_symop_operation_xyz
x,y,z
-x,y,-z
1/2+x,1/2+y,z
1/2-x,1/2+y,-z
loop_
_atom_site_type_symbol
_atom_site_label
_atom_site_fract_x
_atom_site_fract_y
_atom_site_fract_z
Si Si1 0.500000 0.498920 0.500000
Si Si2 0.830315 0.594751 0.535762
Si Si3 0.603115 0.724025 0.728376
Si Si4 0.815202 0.521899 0.913060
Si Si5 0.500000 0.289467 0.000000
O O1 0.401796 0.321073 0.561521
O O2 0.513037 0.665708 0.655977
O O3 0.713508 0.658795 0.581356
O O4 0.881544 0.529732 0.321948
O O5 0.827693 0.430396 0.711300
O O6 0.579195 0.512468 0.881875
O O7 0.921827 0.603894 0.939630
O O8 0.756061 0.283432 0.041187
#
# Coordination Sequence:
#
# PCOD9130568 Si02
#       5
#     2   4   4   4   2
#     4  12  26  48  82 118 166 228 282 350 434 516
#     4  12  27  51  85 124 172 233 285 354 441 524
#     4  12  27  52  85 121 174 226 293 355 436 522
#     4  12  30  54  89 130 179 227 295 366 435 519
#     4  12  28  58  88 132 170 234 290 374 438 514
#
# _framework density 29.679872
#
# number of rings (size 3 to 8) (size 9 to 14) (size 15 to 20)
#    0.000    0.000    7.500    0.750    3.500    5.000 
#    4.500    0.000    0.000    0.000    0.000    0.000 
#    0.000    0.000    0.000    0.000    0.000    0.000 
#
# Total GULP energy -44626.201312 kJ/mol
# GULP energy per Si atom -5578.275164 kJ/mol
# Density = 2.961232 g / cm^3
# Si number density = 29.679872 Si / 1000 Ang^3
#
#
#
# Elastic Constant Matrix: (Units=GPa)
#
#
# Indices 1 2 3 4 5 6 
#
# 1 201.6969 43.0555 31.5148 0.0000 -20.6292 0.0000
# 2 43.0555 109.5260 36.0239 0.0000 -28.3140 0.0000
# 3 31.5148 36.0239 117.2886 0.0000 1.1923 0.0000
# 4 0.0000 0.0000 0.0000 52.1914 0.0000 -5.4962
# 5 -20.6292 -28.3140 1.1923 0.0000 59.4161 0.0000
# 6 0.0000 0.0000 0.0000 -5.4962 0.0000 46.6557
#
#
#
# Elastic Compliance Matrix: (Units=1/GPa)
#
#
# Indices 1 2 3 4 5 6 
#
# 1 0.005573 -0.001532 -0.001039 0.000000 0.001226 0.000000
# 2 -0.001532 0.012239 -0.003402 0.000000 0.005369 0.000000
# 3 -0.001039 -0.003402 0.009872 0.000000 -0.002180 0.000000
# 4 0.000000 0.000000 0.000000 0.019401 0.000000 0.002286
# 5 0.001226 0.005369 -0.002180 0.000000 0.019858 0.000000
# 6 0.000000 0.000000 0.000000 0.002286 0.000000 0.021703
#
#
# Mechanical properties :
#
#
# Convention : Reuss Voigt Hill
#
# Bulk Modulus (GPa) = 63.54208 72.18888 67.86548
# Shear Modulus (GPa) = 47.24150 52.84714 50.04432
#
# Velocity S-wave (km/s) = 3.99394 4.22426 4.11071
# Velocity P-wave (km/s) = 6.53639 6.94030 6.74137
#
# Compressibility (1/GPa) = 0.01573760
#
# Stress axis : x y z
#
# Youngs Moduli (GPa) = 179.44604 81.70324 101.29338
#
# Poissons Ratio (x) = 0.12517 0.10527
# Poissons Ratio (y) = 0.27491 0.34461
# Poissons Ratio (z) = 0.18649 0.27797
#
# Static dielectric constant tensor:
#      x y z
#    x 2.214000 0.000000 0.131510 
#    y 0.000000 2.890370 0.000000 
#    z 0.131510 0.000000 2.674780 
# 
# From -- ./inp_files/17771.got.cif
#   From: 2010.05.17/outbox.cif.g08.bks.cpg/sg5_9_cif.got.tgz:17771.got - 2010.06.03 18:56:24.
