data_PCOD9130039
_publ_section_title
;
Structure prediction by ZEFSAII (Michael W. Deem and Ramdas Pophale) SiO2 
 PCOD9130039
Probable space group: C 2
;
_chemical_formula_sum "Si O2"
_cell_formula_units_Z 28
_cell_length_a 17.302028
_cell_length_b 8.919421
_cell_length_c 10.693734
_cell_angle_alpha 90.000000
_cell_angle_beta 43.085649
_cell_angle_gamma 90.000000
_cell_volume 1127.305250
_symmetry_space_group_name_H-M "C 2"
_symmetry_group_IT_number 5
_symmetry_cell_setting 'monoclinic'
loop_
_space_group_symop_operation_xyz
x,y,z
-x,y,-z
1/2+x,1/2+y,z
1/2-x,1/2+y,-z
loop_
_atom_site_type_symbol
_atom_site_label
_atom_site_fract_x
_atom_site_fract_y
_atom_site_fract_z
Si Si1 0.855273 0.280840 0.300279
Si Si2 0.846593 0.624646 0.354111
Si Si3 0.500000 0.563367 0.000000
Si Si4 0.157594 0.794826 0.894949
Si Si5 0.873932 0.328738 0.792343
Si Si6 0.500000 0.584862 0.500000
Si Si7 0.204386 0.848385 0.236566
Si Si8 0.954478 0.651453 0.728196
O O1 0.868329 0.448565 0.332947
O O2 0.779748 0.174099 0.473632
O O3 0.787541 0.307216 0.250372
O O4 0.963791 0.180869 0.147841
O O5 0.871223 0.693165 0.190097
O O6 0.920959 0.698382 0.375996
O O7 0.596414 0.452933 0.939068
O O8 0.287650 0.824860 0.775958
O O9 0.111993 0.703140 0.067811
O O10 0.959552 0.190794 0.663693
O O11 0.947015 0.477509 0.710257
O O12 0.789704 0.350527 0.013419
O O13 0.617141 0.485760 0.374060
O O14 0.112320 0.726745 0.304490
#
# Coordination Sequence:
#
# PCOD9130039 Si02
#       8
#     4   4   2   4   4   2   4   4
#     4  12  29  47  75 111 157 205 266 318 399 478
#     4  12  26  48  74 111 153 201 258 330 382 482
#     4  12  26  46  76 104 150 218 254 318 394 472
#     4  11  24  50  77 108 162 199 262 320 400 475
#     4  11  26  47  78 121 153 205 264 333 395 486
#     4  12  26  48  82 118 158 208 260 328 416 474
#     4  11  25  51  77 115 160 207 263 330 396 481
#     4  11  24  45  79 105 152 202 247 325 396 453
#
# _framework density 24.837992
#
# number of rings (size 3 to 8) (size 9 to 14) (size 15 to 20)
#    0.000    0.571    1.429    6.000    4.000    6.286 
#    5.143    0.000    0.000    0.000    0.000    0.000 
#    0.000    0.000    0.000    0.000    0.000    0.000 
#
# Total GULP energy -78229.186174 kJ/mol
# GULP energy per Si atom -5587.799012 kJ/mol
# Density = 2.478146 g / cm^3
# Si number density = 24.837992 Si / 1000 Ang^3
#
#
#
# Elastic Constant Matrix: (Units=GPa)
#
#
# Indices 1 2 3 4 5 6 
#
# 1 125.1253 21.8950 15.9152 0.0000 5.3103 0.0000
# 2 21.8950 160.2759 44.8941 0.0000 1.8179 0.0000
# 3 15.9152 44.8941 115.2711 0.0000 -8.0251 0.0000
# 4 0.0000 0.0000 0.0000 43.8541 0.0000 -8.4043
# 5 5.3103 1.8179 -8.0251 0.0000 33.0451 0.0000
# 6 0.0000 0.0000 0.0000 -8.4043 0.0000 29.5510
#
#
#
# Elastic Compliance Matrix: (Units=1/GPa)
#
#
# Indices 1 2 3 4 5 6 
#
# 1 0.008324 -0.000863 -0.000919 0.000000 -0.001513 0.000000
# 2 -0.000863 0.007130 -0.002721 0.000000 -0.000914 0.000000
# 3 -0.000919 -0.002721 0.010053 0.000000 0.002739 0.000000
# 4 0.000000 0.000000 0.000000 0.024117 0.000000 0.006859
# 5 -0.001513 -0.000914 0.002739 0.000000 0.031220 0.000000
# 6 0.000000 0.000000 0.000000 0.006859 0.000000 0.035790
#
#
# Mechanical properties :
#
#
# Convention : Reuss Voigt Hill
#
# Bulk Modulus (GPa) = 60.60236 62.89788 61.75012
# Shear Modulus (GPa) = 38.12719 42.48791 40.30755
#
# Velocity S-wave (km/s) = 3.92220 4.14043 4.03279
# Velocity P-wave (km/s) = 6.70549 6.94520 6.82640
#
# Compressibility (1/GPa) = 0.01650101
#
# Stress axis : x y z
#
# Youngs Moduli (GPa) = 120.13442 140.25798 99.47702
#
# Poissons Ratio (x) = 0.12099 0.09139
# Poissons Ratio (y) = 0.10363 0.27071
# Poissons Ratio (z) = 0.11036 0.38169
#
# Static dielectric constant tensor:
#      x y z
#    x 1.971230 0.000000 -0.046000 
#    y 0.000000 1.928050 0.000000 
#    z -0.046000 0.000000 2.006700 
# 
# From -- ./inp_files/46113.got.cif
#   From: 2010.05.17/outbox.cif.g08.bks.cpg/sg5_24_cif.got.tgz:46113.got - 2010.06.03 18:56:24.
