data_PCOD9130752
_publ_section_title
;
Structure prediction by ZEFSAII (Michael W. Deem and Ramdas Pophale) SiO2 
 PCOD9130752
Probable space group: C 2
;
_chemical_formula_sum "Si O2"
_cell_formula_units_Z 10
_cell_length_a 15.000000
_cell_length_b 6.000000
_cell_length_c 21.000000
_cell_angle_alpha 90.000000
_cell_angle_beta 150.000000
_cell_angle_gamma 90.000000
_cell_volume 945.000000
_symmetry_space_group_name_H-M "C 2"
_symmetry_group_IT_number 5
_symmetry_cell_setting 'monoclinic'
loop_
_space_group_symop_operation_xyz
x,y,z
-x,y,-z
1/2+x,1/2+y,z
1/2-x,1/2+y,-z
loop_
_atom_site_type_symbol
_atom_site_label
_atom_site_fract_x
_atom_site_fract_y
_atom_site_fract_z
Si Si1 0.970093 0.200270 0.157191
Si Si2 0.322040 0.941900 0.936258
Si Si3 0.828993 0.427505 0.356881
Si Si4 0.014975 0.722585 0.654455
Si Si5 0.752312 0.523622 0.597767
O O1 0.093847 0.372795 0.273848
O O2 0.804846 0.118381 0.100928
O O3 0.896489 0.293106 0.042951
O O4 0.126084 0.018581 0.238291
O O5 0.176286 0.833560 0.796440
O O6 0.500000 0.998912 0.000000
O O7 0.896384 0.506920 0.327606
O O8 0.000000 0.531591 0.500000
O O9 0.810959 0.190274 0.384156
O O10 0.858598 0.653027 0.607183
O O11 0.910831 0.888969 0.539179
#
# Coordination Sequence:
#
# PCOD9130752 Si02
#       5
#     4   4   4   4   4
#     4  12  27  53  75 118 162 206 266 323 392 474
#     4  12  27  50  80 113 165 209 263 323 388 474
#     4  12  26  47  82 113 155 206 253 333 394 457
#     4  12  25  50  79 119 153 207 268 323 397 466
#     4  12  27  51  80 114 163 199 272 331 390 472
#
# _framework density 10.582011
#
# number of rings (size 3 to 8) (size 9 to 14) (size 15 to 20)
#    0.000    0.000    6.000    3.600    2.800    1.600 
#    0.000    0.000    0.000    0.000    0.000    0.000 
#    0.000    0.000    0.000    0.000    0.000    0.000 
#
# Total GULP energy -55679.644927 kJ/mol
# GULP energy per Si atom -5567.964493 kJ/mol
# Density = 1.055793 g / cm^3
# Si number density = 10.582011 Si / 1000 Ang^3
#
#
#
# Elastic Constant Matrix: (Units=GPa)
#
#
# Indices 1 2 3 4 5 6 
#
# 1 169.8239 60.6605 45.7352 0.0000 16.4901 0.0000
# 2 60.6605 90.1586 59.7064 0.0000 -3.5329 0.0002
# 3 45.7352 59.7064 197.4743 -0.0003 -6.0237 0.0000
# 4 0.0000 0.0000 -0.0003 50.3325 -0.0001 7.4586
# 5 16.4901 -3.5329 -6.0237 -0.0001 63.6176 0.0000
# 6 0.0000 0.0002 0.0000 7.4586 0.0000 61.0973
#
#
#
# Elastic Compliance Matrix: (Units=1/GPa)
#
#
# Indices 1 2 3 4 5 6 
#
# 1 0.008122 -0.005333 -0.000343 0.000000 -0.002434 0.000000
# 2 -0.005333 0.017379 -0.003959 0.000000 0.001973 0.000000
# 3 -0.000343 -0.003959 0.006355 0.000000 0.000471 0.000000
# 4 0.000000 0.000000 0.000000 0.020234 0.000000 -0.002470
# 5 -0.002434 0.001973 0.000471 0.000000 0.016504 0.000000
# 6 0.000000 0.000000 0.000000 -0.002470 0.000000 0.016669
#
#
# Mechanical properties :
#
#
# Convention : Reuss Voigt Hill
#
# Bulk Modulus (GPa) = 79.45593 87.74009 83.59801
# Shear Modulus (GPa) = 45.98636 54.43313 50.20975
#
# Velocity S-wave (km/s) = 4.66645 5.07696 4.87602
# Velocity P-wave (km/s) = 8.16448 8.71289 8.44314
#
# Compressibility (1/GPa) = 0.01258559
#
# Stress axis : x y z
#
# Youngs Moduli (GPa) = 123.12161 57.54094 157.36148
#
# Poissons Ratio (x) = 0.30686 0.05396
# Poissons Ratio (y) = 0.65660 0.62303
# Poissons Ratio (z) = 0.04222 0.22782
#
# Static dielectric constant tensor:
#      x y z
#    x 1.801860 0.000000 -0.000050 
#    y 0.000000 1.888330 0.000000 
#    z -0.000050 0.000000 1.750230 
# 
# From -- ./inp_files/56458.got.cif
#   From: 2010.05.17/outbox.ucp.g08.bks.cvg/sg5_29_cif.got.tgz:56458.got - 2010.06.11 12:53:14.
