data_PCOD9130514
_publ_section_title
;
Structure prediction by ZEFSAII (Michael W. Deem and Ramdas Pophale) SiO2 
 PCOD9130514
Probable space group: C 2
;
_chemical_formula_sum "Si O2"
_cell_formula_units_Z 18
_cell_length_a 16.896534
_cell_length_b 4.595096
_cell_length_c 14.008009
_cell_angle_alpha 90.000000
_cell_angle_beta 142.151802
_cell_angle_gamma 90.000000
_cell_volume 667.319514
_symmetry_space_group_name_H-M "C 2"
_symmetry_group_IT_number 5
_symmetry_cell_setting 'monoclinic'
loop_
_space_group_symop_operation_xyz
x,y,z
-x,y,-z
1/2+x,1/2+y,z
1/2-x,1/2+y,-z
loop_
_atom_site_type_symbol
_atom_site_label
_atom_site_fract_x
_atom_site_fract_y
_atom_site_fract_z
Si Si1 0.000000 0.221861 0.000000
Si Si2 0.935701 0.868346 0.126277
Si Si3 0.839385 0.509944 0.566401
Si Si4 0.752587 0.427704 0.838850
Si Si5 0.082080 0.349627 0.716379
O O1 0.973346 0.034587 0.067222
O O2 0.135800 0.387579 0.132614
O O3 0.917870 0.121013 0.190854
O O4 0.055022 0.671487 0.269569
O O5 0.826628 0.631112 0.989462
O O6 0.778979 0.227821 0.557443
O O7 0.933385 0.441196 0.567137
O O8 0.640424 0.634614 0.694167
O O9 0.820956 0.633161 0.193933
#
# Coordination Sequence:
#
# PCOD9130514 Si02
#       5
#     2   4   4   4   4
#     4  12  28  42  68 114 154 184 216 296 376 434
#     4  12  27  46  73 112 144 189 230 297 361 423
#     4  12  25  44  71 109 137 185 245 296 340 407
#     4  12  27  44  68 115 144 184 233 292 373 410
#     4  12  26  44  75 103 147 184 241 299 341 428
#
# _framework density 26.973582
#
# number of rings (size 3 to 8) (size 9 to 14) (size 15 to 20)
#    0.000    0.000    6.667    2.000    6.222    0.000 
#    0.000    0.000    0.000    1.333   23.111    0.000 
#    0.000    0.000    0.000    0.000    0.000    0.000 
#
# Total GULP energy -50214.685288 kJ/mol
# GULP energy per Si atom -5579.409476 kJ/mol
# Density = 2.691219 g / cm^3
# Si number density = 26.973582 Si / 1000 Ang^3
#
#
#
# Elastic Constant Matrix: (Units=GPa)
#
#
# Indices 1 2 3 4 5 6 
#
# 1 129.1947 58.1267 62.0138 0.0000 58.6021 -0.0003
# 2 58.1267 197.0065 55.0186 0.0024 42.0852 0.0008
# 3 62.0138 55.0186 117.8157 0.0002 62.2960 0.0001
# 4 0.0000 0.0024 0.0002 68.1927 0.0001 37.6015
# 5 58.6021 42.0852 62.2960 0.0001 76.3038 -0.0001
# 6 -0.0003 0.0008 0.0001 37.6015 -0.0001 61.6136
#
#
#
# Elastic Compliance Matrix: (Units=1/GPa)
#
#
# Indices 1 2 3 4 5 6 
#
# 1 0.012748 -0.001632 -0.002194 0.000000 -0.007099 0.000000
# 2 -0.001632 0.006182 -0.001562 0.000000 -0.000881 0.000000
# 3 -0.002194 -0.001562 0.015882 0.000000 -0.010419 0.000000
# 4 0.000000 0.000000 0.000000 0.022102 0.000000 -0.013488
# 5 -0.007099 -0.000881 -0.010419 0.000000 0.027550 0.000000
# 6 0.000000 0.000000 0.000000 -0.013488 0.000000 0.024462
#
#
# Mechanical properties :
#
#
# Convention : Reuss Voigt Hill
#
# Bulk Modulus (GPa) = 41.60653 88.25946 64.93300
# Shear Modulus (GPa) = 39.15035 59.14587 49.14811
#
# Velocity S-wave (km/s) = 3.81390 4.68774 4.27322
# Velocity P-wave (km/s) = 5.90363 7.87983 6.96220
#
# Compressibility (1/GPa) = 0.02403469
#
# Stress axis : x y z
#
# Youngs Moduli (GPa) = 78.44512 161.76205 62.96621
#
# Poissons Ratio (x) = 0.26399 0.13816
# Poissons Ratio (y) = 0.12802 0.09836
# Poissons Ratio (z) = 0.17213 0.25268
#
# Static dielectric constant tensor:
#      x y z
#    x 2.197730 0.000000 0.066890 
#    y 0.000000 2.257820 0.000000 
#    z 0.066890 0.000000 2.198640 
# 
# From -- ./inp_files/62068.got.cif
#   From: 2010.05.17/outbox.cif.g08.bks.cpg/sg5_32_cif.got.tgz:62068.got - 2010.06.03 18:56:24.
