data_PCOD9130683
_publ_section_title
;
Structure prediction by ZEFSAII (Michael W. Deem and Ramdas Pophale) SiO2 
 PCOD9130683
Probable space group: C 2
;
_chemical_formula_sum "Si O2"
_cell_formula_units_Z 16
_cell_length_a 24.000000
_cell_length_b 9.000000
_cell_length_c 15.000000
_cell_angle_alpha 90.000000
_cell_angle_beta 30.000000
_cell_angle_gamma 90.000000
_cell_volume 1620.000000
_symmetry_space_group_name_H-M "C 2"
_symmetry_group_IT_number 5
_symmetry_cell_setting 'monoclinic'
loop_
_space_group_symop_operation_xyz
x,y,z
-x,y,-z
1/2+x,1/2+y,z
1/2-x,1/2+y,-z
loop_
_atom_site_type_symbol
_atom_site_label
_atom_site_fract_x
_atom_site_fract_y
_atom_site_fract_z
Si Si1 0.172308 0.621630 0.632723
Si Si2 0.218003 0.692908 0.771063
Si Si3 0.896978 0.809149 0.804478
Si Si4 0.860819 0.975445 0.041280
Si Si5 0.386506 0.458575 0.324959
Si Si6 0.050766 0.544879 0.144210
Si Si7 0.775062 0.292345 0.111382
Si Si8 0.106683 0.973873 0.469892
O O1 0.182683 0.622148 0.725624
O O2 0.289206 0.568525 0.430863
O O3 0.147776 0.791406 0.646242
O O4 0.070500 0.529318 0.731815
O O5 0.343246 0.637482 0.619975
O O6 0.202528 0.868810 0.801704
O O7 0.129097 0.630702 0.964819
O O8 0.857886 0.901026 0.945982
O O9 0.951980 0.657293 0.767392
O O10 0.795862 0.770624 0.880064
O O11 0.982558 0.910758 0.628240
O O12 0.991701 0.985454 0.882874
O O13 0.811300 0.137273 0.101950
O O14 0.391793 0.466926 0.424849
O O15 0.117279 0.391852 0.063719
O O16 0.696183 0.373430 0.293470
#
# Coordination Sequence:
#
# PCOD9130683 Si02
#       8
#     4   4   4   4   4   4   4   4
#     4  11  20  37  60  82 115 151 192 228 300 340
#     4   9  19  36  61  81 109 155 188 235 285 348
#     4  10  19  40  60  80 116 155 193 235 287 340
#     4  10  21  39  56  89 120 143 200 238 284 349
#     4  10  22  36  58  81 115 151 187 238 283 353
#     4  10  20  36  60  83 116 151 193 233 284 345
#     4  11  22  34  61  88 115 151 189 244 289 336
#     4   9  19  38  56  83 109 151 195 231 284 341
#
# _framework density 9.8765429999999999
#
# number of rings (size 3 to 8) (size 9 to 14) (size 15 to 20)
#    0.000    2.000    3.750    1.500    1.750    1.000 
#    0.000    0.000    2.750    4.500    0.000    0.000 
#    0.000    0.000    0.000    0.000    0.000    0.000 
#
# Total GULP energy -89160.242540 kJ/mol
# GULP energy per Si atom -5572.515159 kJ/mol
# Density = 0.985406 g / cm^3
# Si number density = 9.876543 Si / 1000 Ang^3
#
#
#
# Elastic Constant Matrix: (Units=GPa)
#
#
# Indices 1 2 3 4 5 6 
#
# 1 49.4353 43.7568 18.0597 0.0000 -28.9154 0.0000
# 2 43.7568 68.1589 44.1125 -0.0002 -27.5238 0.0000
# 3 18.0597 44.1125 57.9147 0.0000 -14.7336 0.0000
# 4 0.0000 -0.0002 0.0000 27.1511 0.0000 -4.3667
# 5 -28.9154 -27.5238 -14.7336 0.0000 28.3542 0.0000
# 6 0.0000 0.0000 0.0000 -4.3667 0.0000 19.9702
#
#
#
# Elastic Compliance Matrix: (Units=1/GPa)
#
#
# Indices 1 2 3 4 5 6 
#
# 1 0.085866 -0.050192 0.024587 0.000000 0.051620 0.000000
# 2 -0.050192 0.071427 -0.039336 0.000000 -0.002290 0.000000
# 3 0.024587 -0.039336 0.041744 0.000000 0.008581 0.000000
# 4 0.000000 0.000000 0.000000 0.038173 0.000000 0.008347
# 5 0.051620 -0.002290 0.008581 0.000000 0.090145 0.000000
# 6 0.000000 0.000000 0.000000 0.008347 0.000000 0.051900
#
#
# Mechanical properties :
#
#
# Convention : Reuss Voigt Hill
#
# Bulk Modulus (GPa) = 14.46028 43.04076 28.75052
# Shear Modulus (GPa) = 9.39513 19.73377 14.56445
#
# Velocity S-wave (km/s) = 2.18326 3.16416 2.71832
# Velocity P-wave (km/s) = 3.70025 5.93177 4.94357
#
# Compressibility (1/GPa) = 0.06915496
#
# Stress axis : x y z
#
# Youngs Moduli (GPa) = 11.64603 14.00021 23.95537
#
# Poissons Ratio (x) = 0.70270 -0.58898
# Poissons Ratio (y) = 0.58454 0.94231
# Poissons Ratio (z) = -0.28634 0.55071
#
# Static dielectric constant tensor:
#      x y z
#    x 1.748260 0.000000 -0.016420 
#    y 0.000000 1.725740 0.000000 
#    z -0.016420 0.000000 1.696920 
# 
# From -- ./inp_files/57684.got.cif
#   From: 2010.05.17/outbox.ucp.g08.bks.cvg/sg5_29_cif.got.tgz:57684.got - 2010.06.11 12:53:14.
