data_PCOD9130027
_publ_section_title
;
Structure prediction by ZEFSAII (Michael W. Deem and Ramdas Pophale) SiO2 
 PCOD9130027
Probable space group: C 2
;
_chemical_formula_sum "Si O2"
_cell_formula_units_Z 16
_cell_length_a 17.855008
_cell_length_b 9.221186
_cell_length_c 5.741834
_cell_angle_alpha 90.000000
_cell_angle_beta 133.130745
_cell_angle_gamma 90.000000
_cell_volume 689.919882
_symmetry_space_group_name_H-M "C 2"
_symmetry_group_IT_number 5
_symmetry_cell_setting 'monoclinic'
loop_
_space_group_symop_operation_xyz
x,y,z
-x,y,-z
1/2+x,1/2+y,z
1/2-x,1/2+y,-z
loop_
_atom_site_type_symbol
_atom_site_label
_atom_site_fract_x
_atom_site_fract_y
_atom_site_fract_z
Si Si1 0.623364 0.098500 0.792013
Si Si2 0.554609 0.566342 0.859171
Si Si3 0.891889 0.360919 0.893279
Si Si4 0.256180 0.366754 0.801135
O O1 0.500000 0.118946 0.500000
O O2 0.673904 0.979389 0.731139
O O3 0.689949 0.244732 0.925850
O O4 0.639253 0.015384 0.070661
O O5 0.500000 0.519427 0.500000
O O6 0.500000 0.565820 0.000000
O O7 0.587646 0.732662 0.880537
O O8 0.650442 0.461888 0.092348
O O9 0.807004 0.296236 0.541812
O O10 0.000000 0.384240 0.000000
#
# Coordination Sequence:
#
# PCOD9130027 Si02
#       4
#     4   4   4   4
#     4  12  26  48  73 110 150 193 260 310 378 457
#     4  11  27  49  76 113 150 199 258 311 379 457
#     4  11  24  45  74 105 151 200 252 313 381 450
#     4  12  27  46  75 108 150 206 245 320 383 445
#
# _framework density 23.191098
#
# number of rings (size 3 to 8) (size 9 to 14) (size 15 to 20)
#    0.000    0.500    2.500    4.500   14.000    1.000 
#    4.500    0.000    0.000    0.000    0.000    0.000 
#    0.000    0.000    0.000    0.000    0.000    0.000 
#
# Total GULP energy -44656.439137 kJ/mol
# GULP energy per Si atom -5582.054892 kJ/mol
# Density = 2.313831 g / cm^3
# Si number density = 23.191098 Si / 1000 Ang^3
#
#
#
# Elastic Constant Matrix: (Units=GPa)
#
#
# Indices 1 2 3 4 5 6 
#
# 1 95.4662 29.6613 47.6821 0.0000 15.4326 0.0000
# 2 29.6613 86.4509 26.1874 0.0000 13.8756 0.0000
# 3 47.6821 26.1874 149.7478 0.0000 23.3684 0.0000
# 4 0.0000 0.0000 0.0000 34.5312 0.0000 4.4145
# 5 15.4326 13.8756 23.3684 0.0000 29.3271 0.0000
# 6 0.0000 0.0000 0.0000 4.4145 0.0000 33.5902
#
#
#
# Elastic Compliance Matrix: (Units=1/GPa)
#
#
# Indices 1 2 3 4 5 6 
#
# 1 0.013601 -0.003181 -0.003303 0.000000 -0.003020 0.000000
# 2 -0.003181 0.013542 -0.000704 0.000000 -0.004172 0.000000
# 3 -0.003303 -0.000704 0.008599 0.000000 -0.004780 0.000000
# 4 0.000000 0.000000 0.000000 0.029454 0.000000 -0.003871
# 5 -0.003020 -0.004172 -0.004780 0.000000 0.041470 0.000000
# 6 0.000000 0.000000 0.000000 -0.003871 0.000000 0.030279
#
#
# Mechanical properties :
#
#
# Convention : Reuss Voigt Hill
#
# Bulk Modulus (GPa) = 46.80663 59.85849 53.33256
# Shear Modulus (GPa) = 31.55679 34.69865 33.12772
#
# Velocity S-wave (km/s) = 3.69281 3.87228 3.78361
# Velocity P-wave (km/s) = 6.19752 6.77198 6.49111
#
# Compressibility (1/GPa) = 0.02136450
#
# Stress axis : x y z
#
# Youngs Moduli (GPa) = 73.52167 73.84631 116.29512
#
# Poissons Ratio (x) = 0.23493 0.38416
# Poissons Ratio (y) = 0.23389 0.08189
# Poissons Ratio (z) = 0.24286 0.05200
#
# Static dielectric constant tensor:
#      x y z
#    x 1.958150 0.000000 -0.085700 
#    y 0.000000 1.836670 0.000000 
#    z -0.085700 0.000000 1.896620 
# 
# From -- ./inp_files/4163.got.cif
#   From: 2010.05.17/outbox.cif.g08.bks.cpg/sg5_3_cif.got.tgz:4163.got - 2010.06.03 18:56:24.
