data_PCOD9130184
_publ_section_title
;
Structure prediction by ZEFSAII (Michael W. Deem and Ramdas Pophale) SiO2 
 PCOD9130184
Probable space group: C 2
;
_chemical_formula_sum "Si O2"
_cell_formula_units_Z 22
_cell_length_a 31.365159
_cell_length_b 5.131414
_cell_length_c 5.254342
_cell_angle_alpha 90.000000
_cell_angle_beta 89.964373
_cell_angle_gamma 90.000000
_cell_volume 845.673655
_symmetry_space_group_name_H-M "C 2"
_symmetry_group_IT_number 5
_symmetry_cell_setting 'monoclinic'
loop_
_space_group_symop_operation_xyz
x,y,z
-x,y,-z
1/2+x,1/2+y,z
1/2-x,1/2+y,-z
loop_
_atom_site_type_symbol
_atom_site_label
_atom_site_fract_x
_atom_site_fract_y
_atom_site_fract_z
Si Si1 0.340019 0.166850 0.139745
Si Si2 0.930415 0.180272 0.788487
Si Si3 0.162817 0.174496 0.136132
Si Si4 0.931120 0.858796 0.299404
Si Si5 0.000000 0.520336 0.500000
Si Si6 0.251308 0.352445 0.377233
O O1 0.385299 0.227728 0.263473
O O2 0.296248 0.267853 0.260865
O O3 0.341780 0.364826 0.896819
O O4 0.336467 0.856535 0.114291
O O5 0.881678 0.277872 0.747269
O O6 0.966651 0.362662 0.674809
O O7 0.933133 0.944908 0.591327
O O8 0.934537 0.081200 0.079920
O O9 0.207702 0.244375 0.258110
O O10 0.971758 0.674649 0.293219
O O11 0.248307 0.664611 0.373720
#
# Coordination Sequence:
#
# PCOD9130184 Si02
#       6
#     4   4   4   4   2   4
#     4  11  25  47  74 109 156 207 262 327 397 479
#     4  11  29  52  77 116 158 209 272 338 407 488
#     4  11  25  47  74 109 156 207 262 327 397 479
#     4  11  29  52  77 116 158 209 272 338 407 488
#     4  12  30  50  88 108 168 214 278 346 422 484
#     4  12  24  40  74 112 154 204 262 318 396 478
#
# _framework density 26.014759000000002
#
# number of rings (size 3 to 8) (size 9 to 14) (size 15 to 20)
#    0.000    0.727    0.000    4.909   12.727    4.364 
#    0.000    0.000    0.000    0.000    0.000    0.000 
#    0.000    0.000    0.000    0.000    0.000    0.000 
#
# Total GULP energy -61446.117459 kJ/mol
# GULP energy per Si atom -5586.010678 kJ/mol
# Density = 2.595555 g / cm^3
# Si number density = 26.014759 Si / 1000 Ang^3
#
#
#
# Elastic Constant Matrix: (Units=GPa)
#
#
# Indices 1 2 3 4 5 6 
#
# 1 255.3269 37.3271 17.2596 0.0000 -10.9850 0.0000
# 2 37.3271 75.0476 6.7042 0.0000 1.5073 0.0000
# 3 17.2596 6.7042 66.6835 0.0000 13.8804 0.0000
# 4 0.0000 0.0000 0.0000 30.4074 0.0000 4.9152
# 5 -10.9850 1.5073 13.8804 0.0000 76.8626 0.0000
# 6 0.0000 0.0000 0.0000 4.9152 0.0000 47.5499
#
#
#
# Elastic Compliance Matrix: (Units=1/GPa)
#
#
# Indices 1 2 3 4 5 6 
#
# 1 0.004330 -0.002074 -0.001091 0.000000 0.000856 0.000000
# 2 -0.002074 0.014439 -0.000825 0.000000 -0.000430 0.000000
# 3 -0.001091 -0.000825 0.015992 0.000000 -0.003028 0.000000
# 4 0.000000 0.000000 0.000000 0.033446 0.000000 -0.003457
# 5 0.000856 -0.000430 -0.003028 0.000000 0.013688 0.000000
# 6 0.000000 0.000000 0.000000 -0.003457 0.000000 0.021388
#
#
# Mechanical properties :
#
#
# Convention : Reuss Voigt Hill
#
# Bulk Modulus (GPa) = 37.33914 57.73775 47.53845
# Shear Modulus (GPa) = 41.60151 53.34845 47.47498
#
# Velocity S-wave (km/s) = 4.00328 4.53338 4.27655
# Velocity P-wave (km/s) = 5.97934 7.04588 6.53441
#
# Compressibility (1/GPa) = 0.02678155
#
# Stress axis : x y z
#
# Youngs Moduli (GPa) = 230.93301 69.25885 62.53260
#
# Poissons Ratio (x) = 0.14361 0.06820
# Poissons Ratio (y) = 0.47885 0.05161
# Poissons Ratio (z) = 0.25186 0.05716
#
# Static dielectric constant tensor:
#      x y z
#    x 2.064410 0.000000 -0.055860 
#    y 0.000000 2.203340 0.000000 
#    z -0.055860 0.000000 2.215340 
# 
# From -- ./inp_files/11018.got.cif
#   From: 2010.05.17/outbox.cif.g08.bks.cpg/sg5_6_cif.got.tgz:11018.got - 2010.06.03 18:56:24.
