data_PCOD9130368
_publ_section_title
;
Structure prediction by ZEFSAII (Michael W. Deem and Ramdas Pophale) SiO2 
 PCOD9130368
Probable space group: C 2
;
_chemical_formula_sum "Si O2"
_cell_formula_units_Z 20
_cell_length_a 8.999915
_cell_length_b 23.474295
_cell_length_c 8.654486
_cell_angle_alpha 90.000000
_cell_angle_beta 149.620114
_cell_angle_gamma 90.000000
_cell_volume 924.680655
_symmetry_space_group_name_H-M "C 2"
_symmetry_group_IT_number 5
_symmetry_cell_setting 'monoclinic'
loop_
_space_group_symop_operation_xyz
x,y,z
-x,y,-z
1/2+x,1/2+y,z
1/2-x,1/2+y,-z
loop_
_atom_site_type_symbol
_atom_site_label
_atom_site_fract_x
_atom_site_fract_y
_atom_site_fract_z
Si Si1 0.304341 0.917000 0.968587
Si Si2 0.860741 0.637882 0.205286
Si Si3 0.623631 0.583881 0.440849
Si Si4 0.293807 0.967172 0.462737
Si Si5 0.500000 0.740844 0.000000
Si Si6 0.500000 0.320485 0.500000
O O1 0.145945 0.861956 0.757863
O O2 0.053476 0.953729 0.830424
O O3 0.500000 0.941924 0.000000
O O4 0.556413 0.912804 0.320762
O O5 0.701373 0.698194 0.081373
O O6 0.000000 0.622949 0.500000
O O7 0.145144 0.635531 0.353234
O O8 0.618308 0.596844 0.908826
O O9 0.500000 0.576400 0.500000
O O10 0.805226 0.527317 0.561181
O O11 0.500000 0.975383 0.500000
O O12 0.727278 0.779855 0.298716
#
# Coordination Sequence:
#
# PCOD9130368 Si02
#       6
#     4   4   4   4   2   2
#     4  12  22  44  68 103 136 176 240 291 349 417
#     4  12  23  43  69 104 140 179 243 292 350 419
#     4  12  25  43  68 102 148 196 234 282 355 429
#     4  12  26  42  68 101 147 191 232 281 354 428
#     4  12  22  42  74 108 130 178 244 306 348 410
#     4  12  22  42  76 108 126 180 246 306 348 410
#
# _framework density 21.629087999999999
#
# number of rings (size 3 to 8) (size 9 to 14) (size 15 to 20)
#    0.000    0.000    6.000    4.200    0.000    1.600 
#    0.000    0.000    0.000   18.000    0.000    0.000 
#    0.000    0.000    0.000    0.000    0.000    0.000 
#
# Total GULP energy -55684.658854 kJ/mol
# GULP energy per Si atom -5568.465885 kJ/mol
# Density = 2.157986 g / cm^3
# Si number density = 21.629088 Si / 1000 Ang^3
#
#
#
# Elastic Constant Matrix: (Units=GPa)
#
#
# Indices 1 2 3 4 5 6 
#
# 1 181.5892 45.9714 44.8100 0.0000 29.7099 0.0000
# 2 45.9714 95.0034 59.4724 0.0000 0.0931 0.0000
# 3 44.8100 59.4724 148.5711 0.0000 19.7276 0.0000
# 4 0.0000 0.0000 0.0000 42.7513 0.0000 11.9567
# 5 29.7099 0.0931 19.7276 0.0000 41.8723 0.0000
# 6 0.0000 0.0000 0.0000 11.9567 0.0000 23.1339
#
#
#
# Elastic Compliance Matrix: (Units=1/GPa)
#
#
# Indices 1 2 3 4 5 6 
#
# 1 0.007231 -0.003401 -0.000149 0.000000 -0.005053 0.000000
# 2 -0.003401 0.015958 -0.006057 0.000000 0.005231 0.000000
# 3 -0.000149 -0.006057 0.009797 0.000000 -0.004497 0.000000
# 4 0.000000 0.000000 0.000000 0.027344 0.000000 -0.014133
# 5 -0.005053 0.005231 -0.004497 0.000000 0.029575 0.000000
# 6 0.000000 0.000000 0.000000 -0.014133 0.000000 0.050531
#
#
# Mechanical properties :
#
#
# Convention : Reuss Voigt Hill
#
# Bulk Modulus (GPa) = 72.60244 80.63014 76.61629
# Shear Modulus (GPa) = 30.44308 39.87885 35.16097
#
# Velocity S-wave (km/s) = 3.75575 4.29856 4.03629
# Velocity P-wave (km/s) = 7.24206 7.87377 7.56451
#
# Compressibility (1/GPa) = 0.01377364
#
# Stress axis : x y z
#
# Youngs Moduli (GPa) = 138.28458 62.66337 102.06981
#
# Poissons Ratio (x) = 0.21314 0.01516
# Poissons Ratio (y) = 0.47035 0.61822
# Poissons Ratio (z) = 0.02054 0.37954
#
# Static dielectric constant tensor:
#      x y z
#    x 1.850940 0.000000 0.019330 
#    y 0.000000 1.824020 0.000000 
#    z 0.019330 0.000000 1.878270 
# 
# From -- ./inp_files/17341.got.cif
#   From: 2010.05.17/outbox.cif.g08.bks.cpg/sg5_9_cif.got.tgz:17341.got - 2010.06.03 18:56:24.
