data_PCOD9130020
_publ_section_title
;
Structure prediction by ZEFSAII (Michael W. Deem and Ramdas Pophale) SiO2 
 PCOD9130020
Probable space group: C 2
;
_chemical_formula_sum "Si O2"
_cell_formula_units_Z 28
_cell_length_a 22.876792
_cell_length_b 4.829324
_cell_length_c 20.798407
_cell_angle_alpha 90.000000
_cell_angle_beta 151.591484
_cell_angle_gamma 90.000000
_cell_volume 1093.187993
_symmetry_space_group_name_H-M "C 2"
_symmetry_group_IT_number 5
_symmetry_cell_setting 'monoclinic'
loop_
_space_group_symop_operation_xyz
x,y,z
-x,y,-z
1/2+x,1/2+y,z
1/2-x,1/2+y,-z
loop_
_atom_site_type_symbol
_atom_site_label
_atom_site_fract_x
_atom_site_fract_y
_atom_site_fract_z
Si Si1 0.996349 0.314720 0.637525
Si Si2 0.670213 0.202088 0.610139
Si Si3 0.594056 0.203315 0.992346
Si Si4 0.775925 0.491350 0.065505
Si Si5 0.937005 0.172978 0.810225
Si Si6 0.181678 0.187673 0.708957
Si Si7 0.664374 0.487413 0.420442
O O1 0.085636 0.457123 0.776186
O O2 0.090436 0.164639 0.680386
O O3 0.817243 0.499665 0.316105
O O4 0.923392 0.545996 0.527035
O O5 0.638523 0.496903 0.608995
O O6 0.594938 0.603666 0.415406
O O7 0.787729 0.674621 0.532052
O O8 0.800073 0.236060 0.700834
O O9 0.683874 0.364503 0.029400
O O10 0.682115 0.110992 0.135371
O O11 0.494036 0.437409 0.910852
O O12 0.521141 0.943169 0.893651
O O13 0.746770 0.805469 0.019601
O O14 0.921323 0.044538 0.723902
#
# Coordination Sequence:
#
# PCOD9130020 Si02
#       7
#     4   4   4   4   4   4   4
#     4  11  27  49  76 107 152 192 245 313 369 446
#     4  12  27  48  71 109 147 199 249 302 371 433
#     4  11  24  45  72 106 143 195 247 304 365 432
#     4  11  24  45  73 109 146 193 246 300 374 446
#     4  12  25  46  75 106 151 189 246 305 369 448
#     4  11  28  48  74 105 146 197 255 302 363 434
#     4  12  26  45  71 107 148 188 238 298 382 447
#
# _framework density 25.613160000000001
#
# number of rings (size 3 to 8) (size 9 to 14) (size 15 to 20)
#    0.000    0.571    1.429    5.571    2.000   12.571 
#    0.000    0.000    0.000    0.000    0.000    0.000 
#    0.000    0.000    0.000    0.000    0.000    0.000 
#
# Total GULP energy -78634.091939 kJ/mol
# GULP energy per Si atom -5616.720853 kJ/mol
# Density = 2.555486 g / cm^3
# Si number density = 25.613160 Si / 1000 Ang^3
#
#
#
# Elastic Constant Matrix: (Units=GPa)
#
#
# Indices 1 2 3 4 5 6 
#
# 1 90.9711 -4.6687 13.2080 0.0001 1.4341 -0.0003
# 2 -4.6687 80.5061 3.4998 0.0110 6.0591 0.0003
# 3 13.2080 3.4998 145.7827 0.0045 9.5879 0.0006
# 4 0.0001 0.0110 0.0045 35.4698 -0.0010 -5.0614
# 5 1.4341 6.0591 9.5879 -0.0010 31.0003 -0.0003
# 6 -0.0003 0.0003 0.0006 -5.0614 -0.0003 32.5552
#
#
#
# Elastic Compliance Matrix: (Units=1/GPa)
#
#
# Indices 1 2 3 4 5 6 
#
# 1 0.011181 0.000718 -0.001007 0.000000 -0.000346 0.000000
# 2 0.000718 0.012656 -0.000208 -0.000004 -0.002442 -0.000001
# 3 -0.001007 -0.000208 0.007094 -0.000001 -0.002107 0.000000
# 4 0.000000 -0.000004 -0.000001 0.028833 0.000002 0.004483
# 5 -0.000346 -0.002442 -0.002107 0.000002 0.033403 0.000001
# 6 0.000000 -0.000001 0.000000 0.004483 0.000001 0.031414
#
#
# Mechanical properties :
#
#
# Convention : Reuss Voigt Hill
#
# Bulk Modulus (GPa) = 33.40418 37.92645 35.66532
# Shear Modulus (GPa) = 36.88550 40.15312 38.51931
#
# Velocity S-wave (km/s) = 3.79898 3.96368 3.88221
# Velocity P-wave (km/s) = 5.68446 5.98225 5.83525
#
# Compressibility (1/GPa) = 0.02993637
#
# Stress axis : x y z
#
# Youngs Moduli (GPa) = 89.43671 79.01422 140.95682
#
# Poissons Ratio (x) = -0.05675 0.14201
# Poissons Ratio (y) = -0.06424 0.02936
# Poissons Ratio (z) = 0.09011 0.01646
#
# Static dielectric constant tensor:
#      x y z
#    x 2.034290 0.000000 -0.016330 
#    y 0.000000 1.917210 0.000000 
#    z -0.016330 0.000000 1.981730 
# 
# From -- ./inp_files/67251.got.cif
#   From: 2010.05.17/outbox.cif.g08.bks.cpg/sg5_34_cif.got.tgz:67251.got - 2010.06.03 18:56:24.
