data_PCOD9130042
_publ_section_title
;
Structure prediction by ZEFSAII (Michael W. Deem and Ramdas Pophale) SiO2 
 PCOD9130042
Probable space group: C 2
;
_chemical_formula_sum "Si O2"
_cell_formula_units_Z 30
_cell_length_a 11.755199
_cell_length_b 7.744188
_cell_length_c 14.900596
_cell_angle_alpha 90.000000
_cell_angle_beta 76.088890
_cell_angle_gamma 90.000000
_cell_volume 1316.682512
_symmetry_space_group_name_H-M "C 2"
_symmetry_group_IT_number 5
_symmetry_cell_setting 'monoclinic'
loop_
_space_group_symop_operation_xyz
x,y,z
-x,y,-z
1/2+x,1/2+y,z
1/2-x,1/2+y,-z
loop_
_atom_site_type_symbol
_atom_site_label
_atom_site_fract_x
_atom_site_fract_y
_atom_site_fract_z
Si Si1 0.396831 0.036820 0.953123
Si Si2 0.000000 0.556896 0.500000
Si Si3 0.804752 0.187913 0.880280
Si Si4 0.595036 0.666888 0.401312
Si Si5 0.595014 0.871481 0.643111
Si Si6 0.672180 0.218976 0.715560
Si Si7 0.834513 0.776364 0.654942
Si Si8 0.439346 0.345485 0.812978
O O1 0.445756 0.200494 0.888145
O O2 0.356306 0.871240 0.902921
O O3 0.500000 0.978142 0.000000
O O4 0.287997 0.113339 0.029986
O O5 0.092252 0.453248 0.543728
O O6 0.073371 0.659373 0.413410
O O7 0.736814 0.210336 0.798782
O O8 0.898723 0.033134 0.851845
O O9 0.500000 0.658710 0.500000
O O10 0.525237 0.766227 0.335634
O O11 0.725565 0.750550 0.377426
O O12 0.627820 0.471834 0.373698
O O13 0.705066 0.750702 0.641641
O O14 0.611808 0.033438 0.705756
O O15 0.565357 0.351327 0.740169
O O16 0.845934 0.768057 0.759348
#
# Coordination Sequence:
#
# PCOD9130042 Si02
#       8
#     4   2   4   4   4   4   4   4
#     4  12  28  48  82 113 155 188 247 313 371 462
#     4  12  24  40  70 102 138 196 240 308 380 420
#     4  12  26  50  76 117 151 198 242 305 390 444
#     4  11  24  46  69 103 145 192 253 313 365 435
#     4  11  25  44  67 101 141 191 251 305 365 434
#     4  11  26  46  73 107 153 191 249 310 363 453
#     4  11  26  44  68 103 147 191 244 306 378 440
#     4  12  25  52  76 109 157 197 247 311 376 451
#
# _framework density 22.784535000000002
#
# number of rings (size 3 to 8) (size 9 to 14) (size 15 to 20)
#    0.000    0.533    8.000    0.000    5.600    1.600 
#    4.800    0.000    0.000    0.000    0.000    0.000 
#    0.000    0.000    0.000    0.000    0.000    0.000 
#
# Total GULP energy -83821.435959 kJ/mol
# GULP energy per Si atom -5588.095731 kJ/mol
# Density = 2.273268 g / cm^3
# Si number density = 22.784535 Si / 1000 Ang^3
#
#
#
# Elastic Constant Matrix: (Units=GPa)
#
#
# Indices 1 2 3 4 5 6 
#
# 1 118.7251 23.5759 15.0699 0.0000 -10.5325 0.0000
# 2 23.5759 71.6892 10.5894 0.0000 -1.1311 0.0000
# 3 15.0699 10.5894 66.7670 0.0000 -3.3463 0.0000
# 4 0.0000 0.0000 0.0000 38.9883 0.0000 5.5516
# 5 -10.5325 -1.1311 -3.3463 0.0000 52.9882 0.0000
# 6 0.0000 0.0000 0.0000 5.5516 0.0000 37.9508
#
#
#
# Elastic Compliance Matrix: (Units=1/GPa)
#
#
# Indices 1 2 3 4 5 6 
#
# 1 0.009331 -0.002809 -0.001576 0.000000 0.001695 0.000000
# 2 -0.002809 0.015131 -0.001783 0.000000 -0.000348 0.000000
# 3 -0.001576 -0.001783 0.015648 0.000000 0.000637 0.000000
# 4 0.000000 0.000000 0.000000 0.026194 0.000000 -0.003832
# 5 0.001695 -0.000348 0.000637 0.000000 0.019242 0.000000
# 6 0.000000 0.000000 0.000000 -0.003832 0.000000 0.026910
#
#
# Mechanical properties :
#
#
# Convention : Reuss Voigt Hill
#
# Bulk Modulus (GPa) = 36.00508 39.51685 37.76096
# Shear Modulus (GPa) = 37.29949 39.84854 38.57401
#
# Velocity S-wave (km/s) = 4.05044 4.18656 4.11906
# Velocity P-wave (km/s) = 6.14097 6.38365 6.26349
#
# Compressibility (1/GPa) = 0.02777386
#
# Stress axis : x y z
#
# Youngs Moduli (GPa) = 107.16933 66.09021 63.90666
#
# Poissons Ratio (x) = 0.18566 0.10069
# Poissons Ratio (y) = 0.30105 0.11396
# Poissons Ratio (z) = 0.16885 0.11785
#
# Static dielectric constant tensor:
#      x y z
#    x 1.921320 0.000000 -0.064520 
#    y 0.000000 1.854140 0.000000 
#    z -0.064520 0.000000 1.920080 
# 
# From -- ./inp_files/52264.got.cif
#   From: 2010.05.17/outbox.cif.g08.bks.cpg/sg5_27_cif.got.tgz:52264.got - 2010.06.03 18:56:24.
