data_PCOD9130294
_publ_section_title
;
Structure prediction by ZEFSAII (Michael W. Deem and Ramdas Pophale) SiO2 
 PCOD9130294
Probable space group: C 2
;
_chemical_formula_sum "Si O2"
_cell_formula_units_Z 24
_cell_length_a 10.037604
_cell_length_b 11.339609
_cell_length_c 16.359045
_cell_angle_alpha 90.000000
_cell_angle_beta 31.326097
_cell_angle_gamma 90.000000
_cell_volume 968.083438
_symmetry_space_group_name_H-M "C 2"
_symmetry_group_IT_number 5
_symmetry_cell_setting 'monoclinic'
loop_
_space_group_symop_operation_xyz
x,y,z
-x,y,-z
1/2+x,1/2+y,z
1/2-x,1/2+y,-z
loop_
_atom_site_type_symbol
_atom_site_label
_atom_site_fract_x
_atom_site_fract_y
_atom_site_fract_z
Si Si1 0.846272 0.219910 0.981693
Si Si2 0.705948 0.984502 0.138322
Si Si3 0.090845 0.316179 0.588839
Si Si4 0.360372 0.356477 0.286782
Si Si5 0.367455 0.935423 0.155885
Si Si6 0.506596 0.600043 0.735909
O O1 0.837956 0.162459 0.895613
O O2 0.114196 0.291608 0.849601
O O3 0.769599 0.120223 0.086762
O O4 0.629428 0.317828 0.110180
O O5 0.517602 0.931223 0.306345
O O6 0.532399 0.962122 0.149136
O O7 0.000000 0.933683 0.000000
O O8 0.847222 0.290323 0.658610
O O9 0.145823 0.209924 0.621253
O O10 0.314212 0.329545 0.406043
O O11 0.338371 0.498966 0.296355
O O12 0.130926 0.025189 0.265134
O O13 0.500000 0.961501 0.000000
#
# Coordination Sequence:
#
# PCOD9130294 Si02
#       6
#     4   4   4   4   4   4
#     4  12  23  44  76 108 143 189 254 314 358 444
#     4  12  25  42  74 109 146 195 247 306 375 433
#     4  11  27  48  71 103 153 203 237 304 384 431
#     4  11  27  48  70 109 146 198 251 297 375 449
#     4  12  23  43  70 116 143 187 248 308 367 424
#     4  12  26  48  77 107 152 188 253 319 353 446
#
# _framework density 24.791250999999999
#
# number of rings (size 3 to 8) (size 9 to 14) (size 15 to 20)
#    0.000    0.333    5.000    3.500    2.333    0.000 
#    0.000    0.000    0.000    0.000    0.000    0.000 
#    0.000    0.000    0.000    0.000    0.000    0.000 
#
# Total GULP energy -66804.498549 kJ/mol
# GULP energy per Si atom -5567.041546 kJ/mol
# Density = 2.473483 g / cm^3
# Si number density = 24.791251 Si / 1000 Ang^3
#
#
#
# Elastic Constant Matrix: (Units=GPa)
#
#
# Indices 1 2 3 4 5 6 
#
# 1 90.3994 -0.2344 1.3443 0.0007 -0.5364 0.0007
# 2 -0.2344 113.3435 10.0435 -0.0011 12.6153 0.0001
# 3 1.3443 10.0435 66.3145 -0.0055 17.3401 0.0038
# 4 0.0007 -0.0011 -0.0055 24.0137 0.0007 13.7816
# 5 -0.5364 12.6153 17.3401 0.0007 35.0105 -0.0014
# 6 0.0007 0.0001 0.0038 13.7816 -0.0014 37.2534
#
#
#
# Elastic Compliance Matrix: (Units=1/GPa)
#
#
# Indices 1 2 3 4 5 6 
#
# 1 0.011069 0.000015 -0.000310 0.000000 0.000318 0.000000
# 2 0.000015 0.009213 -0.000606 0.000001 -0.003019 0.000000
# 3 -0.000310 -0.000606 0.017372 0.000007 -0.008390 -0.000005
# 4 0.000000 0.000001 0.000007 0.052867 -0.000005 -0.019558
# 5 0.000318 -0.003019 -0.008390 -0.000005 0.033811 0.000004
# 6 0.000000 0.000000 -0.000005 -0.019558 0.000004 0.034078
#
#
# Mechanical properties :
#
#
# Convention : Reuss Voigt Hill
#
# Bulk Modulus (GPa) = 27.89319 32.48493 30.18906
# Shear Modulus (GPa) = 29.04247 36.51578 32.77912
#
# Velocity S-wave (km/s) = 3.42640 3.84204 3.64016
# Velocity P-wave (km/s) = 5.18934 5.72831 5.46547
#
# Compressibility (1/GPa) = 0.03585105
#
# Stress axis : x y z
#
# Youngs Moduli (GPa) = 90.34607 108.54810 57.56506
#
# Poissons Ratio (x) = -0.00163 0.01783
# Poissons Ratio (y) = -0.00135 0.03489
# Poissons Ratio (z) = 0.02798 0.06579
#
# Static dielectric constant tensor:
#      x y z
#    x 2.130840 0.000000 -0.074190 
#    y 0.000000 2.043860 0.000000 
#    z -0.074190 0.000000 2.010740 
# 
# From -- ./inp_files/60436.got.cif
#   From: 2010.05.17/outbox.cif.g08.bks.cpg/sg5_31_cif.got.tgz:60436.got - 2010.06.03 18:56:24.
