data_PCOD9130776
_publ_section_title
;
Structure prediction by ZEFSAII (Michael W. Deem and Ramdas Pophale) SiO2 
 PCOD9130776
Probable space group: P M
;
_chemical_formula_sum "Si O2"
_cell_formula_units_Z 16
_cell_length_a 11.793744
_cell_length_b 8.902262
_cell_length_c 9.793462
_cell_angle_alpha 90.000000
_cell_angle_beta 109.575658
_cell_angle_gamma 90.000000
_cell_volume 968.793814
_symmetry_space_group_name_H-M "P M"
_symmetry_group_IT_number 6
_symmetry_cell_setting 'monoclinic'
loop_
_space_group_symop_operation_xyz
x,y,z
x,-y,z
loop_
_atom_site_type_symbol
_atom_site_label
_atom_site_fract_x
_atom_site_fract_y
_atom_site_fract_z
Si Si1 0.640060 0.818926 0.602220
Si Si2 0.458807 0.679529 0.310973
Si Si3 0.201965 0.823124 0.255413
Si Si4 0.841335 0.823503 0.473357
Si Si5 0.975503 0.671353 0.070725
Si Si6 0.630711 0.178347 0.164120
Si Si7 0.043052 0.669906 0.399329
Si Si8 0.708098 0.681085 0.909691
O O1 0.535129 0.749872 0.466714
O O2 0.766076 0.779500 0.576945
O O3 0.641762 0.750901 0.753167
O O4 0.630003 0.000000 0.598628
O O5 0.466999 0.500000 0.316735
O O6 0.322088 0.733999 0.269039
O O7 0.520815 0.744569 0.199604
O O8 0.151373 0.771035 0.384012
O O9 0.093437 0.774486 0.109211
O O10 0.221556 0.000000 0.260027
O O11 0.745767 0.803831 0.311077
O O12 0.962005 0.734360 0.486923
O O13 0.869977 0.000000 0.492471
O O14 0.001814 0.500000 0.037629
O O15 0.958796 0.665643 0.229071
O O16 0.850202 0.723451 0.958153
O O17 0.610002 0.000000 0.140953
O O18 0.657143 0.253287 0.029910
O O19 0.083495 0.500000 0.442062
O O20 0.701737 0.500000 0.907735
#
# Coordination Sequence:
#
# PCOD9130776 Si02
#       8
#     2   2   2   2   2   2   2   2
#     4  10  22  36  50  73 107 141 172 209 255 308
#     4  11  21  35  53  75 102 134 173 215 257 303
#     4  10  18  30  50  75 101 130 168 210 254 300
#     4   9  17  30  48  72 100 130 167 208 252 299
#     4   8  17  30  47  74 102 128 162 205 248 295
#     4  10  19  31  50  74 101 133 170 212 255 300
#     4   9  16  27  46  73 100 126 158 203 249 292
#     4  11  20  33  52  78 107 138 172 208 256 307
#
# _framework density 16.515381999999999
#
# number of rings (size 3 to 8) (size 9 to 14) (size 15 to 20)
#    0.750    1.500    1.250    4.125    0.000    3.500 
#    0.000    0.000    0.000    1.500    0.000    7.000 
#    0.000    0.000    0.000    0.000    0.000    0.000 
#
# Total GULP energy -89083.765593 kJ/mol
# GULP energy per Si atom -5567.735350 kJ/mol
# Density = 1.647779 g / cm^3
# Si number density = 16.515382 Si / 1000 Ang^3
#
#
#
# Elastic Constant Matrix: (Units=GPa)
#
#
# Indices 1 2 3 4 5 6 
#
# 1 94.9171 51.5284 30.9781 0.0000 -4.6929 0.0000
# 2 51.5284 97.5351 33.9558 0.0000 -6.9186 0.0000
# 3 30.9781 33.9558 78.4212 0.0000 -9.5891 0.0000
# 4 0.0000 0.0000 0.0000 13.6736 0.0000 -2.7344
# 5 -4.6929 -6.9186 -9.5891 0.0000 14.1132 0.0000
# 6 0.0000 0.0000 0.0000 -2.7344 0.0000 30.1901
#
#
#
# Elastic Compliance Matrix: (Units=1/GPa)
#
#
# Indices 1 2 3 4 5 6 
#
# 1 0.015354 -0.007080 -0.003053 0.000000 -0.000440 0.000000
# 2 -0.007080 0.015424 -0.003539 0.000000 0.002802 0.000000
# 3 -0.003053 -0.003539 0.016527 0.000000 0.008479 0.000000
# 4 0.000000 0.000000 0.000000 0.074483 0.000000 0.006746
# 5 -0.000440 0.002802 0.008479 0.000000 0.077844 0.000000
# 6 0.000000 0.000000 0.000000 0.006746 0.000000 0.033734
#
#
# Mechanical properties :
#
#
# Convention : Reuss Voigt Hill
#
# Bulk Modulus (GPa) = 50.09967 55.97755 53.03861
# Shear Modulus (GPa) = 18.70112 21.88944 20.29528
#
# Velocity S-wave (km/s) = 3.36868 3.64455 3.50933
# Velocity P-wave (km/s) = 6.74772 7.18875 6.97172
#
# Compressibility (1/GPa) = 0.01996021
#
# Stress axis : x y z
#
# Youngs Moduli (GPa) = 65.13093 64.83472 60.50695
#
# Poissons Ratio (x) = 0.45901 0.18475
# Poissons Ratio (y) = 0.46110 0.21414
# Poissons Ratio (z) = 0.19887 0.22946
#
# Static dielectric constant tensor:
#      x y z
#    x 1.552540 0.000000 -0.005180 
#    y 0.000000 1.553280 0.000000 
#    z -0.005180 0.000000 1.543220 
# 
# From -- ./inp_files/3638.got.cif
#   From: 2010.05.17/outbox.cif.g08.bks.cpg/sg6_2_cif.got.tgz:3638.got - 2010.06.03 19:42:10.
