data_PCOD9130671
_publ_section_title
;
Structure prediction by ZEFSAII (Michael W. Deem and Ramdas Pophale) SiO2 
 PCOD9130671
Probable space group: C 2
;
_chemical_formula_sum "Si O2"
_cell_formula_units_Z 16
_cell_length_a 12.000000
_cell_length_b 24.000000
_cell_length_c 18.000000
_cell_angle_alpha 90.000000
_cell_angle_beta 20.000000
_cell_angle_gamma 90.000000
_cell_volume 1773.032423
_symmetry_space_group_name_H-M "C 2"
_symmetry_group_IT_number 5
_symmetry_cell_setting 'monoclinic'
loop_
_space_group_symop_operation_xyz
x,y,z
-x,y,-z
1/2+x,1/2+y,z
1/2-x,1/2+y,-z
loop_
_atom_site_type_symbol
_atom_site_label
_atom_site_fract_x
_atom_site_fract_y
_atom_site_fract_z
Si Si1 0.861669 0.190600 0.509851
Si Si2 0.870091 0.284174 0.745380
Si Si3 0.576146 0.593703 0.082872
Si Si4 0.243011 0.871779 0.593083
Si Si5 0.030960 0.588473 0.651702
Si Si6 0.887547 0.211661 0.267199
Si Si7 0.692422 0.503035 0.636896
Si Si8 0.249227 0.273113 0.911886
O O1 0.777321 0.140579 0.506305
O O2 0.525696 0.225681 0.726824
O O3 0.000000 0.166344 0.500000
O O4 0.124345 0.238341 0.324093
O O5 0.072286 0.338751 0.590958
O O6 0.041249 0.245816 0.701463
O O7 0.500000 0.298196 0.000000
O O8 0.257248 0.598633 0.228311
O O9 0.563851 0.651776 0.138204
O O10 0.546069 0.542499 0.161732
O O11 0.861310 0.584504 0.841001
O O12 0.500000 0.869807 0.500000
O O13 0.133363 0.937108 0.654581
O O14 0.939239 0.831403 0.801623
O O15 0.217067 0.536363 0.495959
O O16 0.500000 0.203120 0.500000
O O17 0.032605 0.253939 0.116009
O O18 0.000000 0.501031 0.500000
O O19 0.000000 0.275830 0.000000
#
# Coordination Sequence:
#
# PCOD9130671 Si02
#       8
#     4   4   4   4   4   4   4   4
#     4  11  21  36  57  84 121 154 186 232 298 364
#     4  11  22  35  53  85 116 150 189 241 292 349
#     4  10  19  34  60  91 118 146 197 246 296 350
#     4  10  21  41  60  80 117 157 200 245 293 346
#     4  10  19  35  59  88 117 154 191 244 296 352
#     4  12  21  33  57  89 117 142 189 243 294 357
#     4   9  19  37  59  87 114 152 204 249 288 348
#     4  11  21  37  61  83 114 158 190 232 299 353
#
# _framework density 9.0240880000000008
#
# number of rings (size 3 to 8) (size 9 to 14) (size 15 to 20)
#    0.000    1.500    1.250    7.875    0.000    0.000 
#    9.000    0.000    2.750    0.750    0.000    0.000 
#    0.000    0.000    0.000    0.000    0.000    0.000 
#
# Total GULP energy -89127.194392 kJ/mol
# GULP energy per Si atom -5570.449650 kJ/mol
# Density = 0.900355 g / cm^3
# Si number density = 9.024088 Si / 1000 Ang^3
#
#
#
# Elastic Constant Matrix: (Units=GPa)
#
#
# Indices 1 2 3 4 5 6 
#
# 1 73.5390 45.7295 14.1538 0.2568 9.4688 -0.1508
# 2 45.7295 165.6786 47.2864 -0.0281 17.8725 -0.1084
# 3 14.1538 47.2864 88.9488 -0.0866 21.3138 -0.3605
# 4 0.2568 -0.0281 -0.0866 25.2374 -0.1339 2.5366
# 5 9.4688 17.8725 21.3138 -0.1339 33.6167 0.1476
# 6 -0.1508 -0.1084 -0.3605 2.5366 0.1476 34.6820
#
#
#
# Elastic Compliance Matrix: (Units=1/GPa)
#
#
# Indices 1 2 3 4 5 6 
#
# 1 0.016600 -0.004395 0.000302 -0.000195 -0.002532 0.000087
# 2 -0.004395 0.008356 -0.003508 0.000040 -0.000980 -0.000028
# 3 0.000302 -0.003508 0.014897 -0.000014 -0.007666 0.000179
# 4 -0.000195 0.000040 -0.000014 0.039920 0.000215 -0.002922
# 5 -0.002532 -0.000980 -0.007666 0.000215 0.035844 -0.000262
# 6 0.000087 -0.000028 0.000179 -0.002922 -0.000262 0.029050
#
#
# Mechanical properties :
#
#
# Convention : Reuss Voigt Hill
#
# Bulk Modulus (GPa) = 40.56736 60.27841 50.42288
# Shear Modulus (GPa) = 29.74677 33.44035 31.59356
#
# Velocity S-wave (km/s) = 4.06419 4.30913 4.18845
# Velocity P-wave (km/s) = 6.67455 7.63081 7.16864
#
# Compressibility (1/GPa) = 0.02465036
#
# Stress axis : x y z
#
# Youngs Moduli (GPa) = 60.24160 119.67878 67.12831
#
# Poissons Ratio (x) = 0.52596 -0.02025
# Poissons Ratio (y) = 0.26475 0.23548
# Poissons Ratio (z) = -0.01817 0.41982
#
# Static dielectric constant tensor:
#      x y z
#    x 1.681140 -0.000020 0.049150 
#    y -0.000020 1.621120 0.000260 
#    z 0.049150 0.000260 1.671490 
# 
# From -- ./inp_files/60869.got.cif
#   From: 2010.05.17/outbox.ucp.g08.bks.cvg/sg5_31_cif.got.tgz:60869.got - 2010.06.11 12:53:14.
