data_PCOD9130559
_publ_section_title
;
Structure prediction by ZEFSAII (Michael W. Deem and Ramdas Pophale) SiO2 
 PCOD9130559
Probable space group: C 2
;
_chemical_formula_sum "Si O2"
_cell_formula_units_Z 20
_cell_length_a 13.792299
_cell_length_b 4.605481
_cell_length_c 16.225788
_cell_angle_alpha 90.000000
_cell_angle_beta 48.527686
_cell_angle_gamma 90.000000
_cell_volume 772.252233
_symmetry_space_group_name_H-M "C 2"
_symmetry_group_IT_number 5
_symmetry_cell_setting 'monoclinic'
loop_
_space_group_symop_operation_xyz
x,y,z
-x,y,-z
1/2+x,1/2+y,z
1/2-x,1/2+y,-z
loop_
_atom_site_type_symbol
_atom_site_label
_atom_site_fract_x
_atom_site_fract_y
_atom_site_fract_z
Si Si1 0.945094 0.635680 0.618740
Si Si2 0.998527 0.115378 0.299817
Si Si3 0.114392 0.941186 0.883375
Si Si4 0.162387 0.401377 0.746585
Si Si5 0.279499 0.280680 0.926937
O O1 0.037604 0.868268 0.613246
O O2 0.807542 0.787628 0.679443
O O3 0.931794 0.361499 0.685663
O O4 0.000000 0.543323 0.500000
O O5 0.096949 0.941419 0.183706
O O6 0.198277 0.541199 0.014513
O O7 0.888937 0.295813 0.312973
O O8 0.157858 0.723660 0.786032
O O9 0.210244 0.091627 0.895292
O O10 0.067699 0.220758 0.859608
O O11 0.000000 0.805225 0.000000
#
# Coordination Sequence:
#
# PCOD9130559 Si02
#       5
#     4   4   4   4   4
#     4  12  28  52  82 116 159 213 270 343 413 469
#     4  12  27  51  78 118 160 209 270 338 396 488
#     4  12  26  48  72 113 164 214 264 326 392 481
#     4  12  27  50  77 113 161 207 268 334 396 479
#     4  12  26  47  75 118 162 219 272 322 398 489
#
# _framework density 25.898274000000001
#
# number of rings (size 3 to 8) (size 9 to 14) (size 15 to 20)
#    0.000    0.000    2.000    7.200    0.000    4.800 
#    0.000    0.000    0.000    0.000    0.000    0.000 
#    0.000    0.000    0.000    0.000    0.000    0.000 
#
# Total GULP energy -55930.972450 kJ/mol
# GULP energy per Si atom -5593.097245 kJ/mol
# Density = 2.583933 g / cm^3
# Si number density = 25.898274 Si / 1000 Ang^3
#
#
#
# Elastic Constant Matrix: (Units=GPa)
#
#
# Indices 1 2 3 4 5 6 
#
# 1 157.6590 59.5519 24.2366 -0.0083 22.3542 -0.0246
# 2 59.5519 172.0604 18.1241 -0.0142 10.1908 -0.0527
# 3 24.2366 18.1241 67.9928 -0.0041 13.9312 -0.0196
# 4 -0.0083 -0.0142 -0.0041 30.0456 0.0013 14.5930
# 5 22.3542 10.1908 13.9312 0.0013 25.5813 -0.0020
# 6 -0.0246 -0.0527 -0.0196 14.5930 -0.0020 51.0972
#
#
#
# Elastic Compliance Matrix: (Units=1/GPa)
#
#
# Indices 1 2 3 4 5 6 
#
# 1 0.008217 -0.002391 -0.001143 0.000001 -0.005605 0.000001
# 2 -0.002391 0.006743 -0.000926 0.000000 -0.000092 0.000006
# 3 -0.001143 -0.000926 0.016976 0.000000 -0.007877 0.000005
# 4 0.000001 0.000000 0.000000 0.038643 -0.000003 -0.011036
# 5 -0.005605 -0.000092 -0.007877 -0.000003 0.048315 -0.000003
# 6 0.000001 0.000006 0.000005 -0.011036 -0.000003 0.022722
#
#
# Mechanical properties :
#
#
# Convention : Reuss Voigt Hill
#
# Bulk Modulus (GPa) = 43.45209 66.83748 55.14479
# Shear Modulus (GPa) = 31.60408 41.06481 36.33445
#
# Velocity S-wave (km/s) = 3.49709 3.98630 3.74968
# Velocity P-wave (km/s) = 5.75505 6.85939 6.33134
#
# Compressibility (1/GPa) = 0.02301385
#
# Stress axis : x y z
#
# Youngs Moduli (GPa) = 121.70575 148.31037 58.90802
#
# Poissons Ratio (x) = 0.35468 0.06733
# Poissons Ratio (y) = 0.29106 0.05455
# Poissons Ratio (z) = 0.13911 0.13733
#
# Static dielectric constant tensor:
#      x y z
#    x 2.133270 -0.000010 0.013460 
#    y -0.000010 2.003710 0.000000 
#    z 0.013460 0.000000 2.069080 
# 
# From -- ./inp_files/47732.got.cif
#   From: 2010.05.17/outbox.cif.g08.bks.cpg/sg5_24_cif.got.tgz:47732.got - 2010.06.03 18:56:24.
