data_PCOD9130166
_publ_section_title
;
Structure prediction by ZEFSAII (Michael W. Deem and Ramdas Pophale) SiO2 
 PCOD9130166
Probable space group: C 2
;
_chemical_formula_sum "Si O2"
_cell_formula_units_Z 16
_cell_length_a 5.214465
_cell_length_b 13.847934
_cell_length_c 9.156923
_cell_angle_alpha 90.000000
_cell_angle_beta 91.172368
_cell_angle_gamma 90.000000
_cell_volume 661.079032
_symmetry_space_group_name_H-M "C 2"
_symmetry_group_IT_number 5
_symmetry_cell_setting 'monoclinic'
loop_
_space_group_symop_operation_xyz
x,y,z
-x,y,-z
1/2+x,1/2+y,z
1/2-x,1/2+y,-z
loop_
_atom_site_type_symbol
_atom_site_label
_atom_site_fract_x
_atom_site_fract_y
_atom_site_fract_z
Si Si1 0.440972 0.448780 0.334819
Si Si2 0.112541 0.785518 0.150848
Si Si3 0.759574 0.640498 0.598637
Si Si4 0.764933 0.487515 0.091504
O O1 0.500000 0.418732 0.500000
O O2 0.407289 0.352641 0.238607
O O3 0.225674 0.529672 0.345031
O O4 0.673236 0.507888 0.256549
O O5 0.232677 0.709782 0.261647
O O6 0.301116 0.871802 0.106250
O O7 0.000000 0.744455 0.000000
O O8 0.500000 0.649940 0.500000
O O9 0.000000 0.663267 0.500000
O O10 0.500000 0.505347 0.000000
O O11 0.000000 0.526592 0.000000
#
# Coordination Sequence:
#
# PCOD9130166 Si02
#       4
#     4   4   4   4
#     4   9  20  43  71 106 144 192 244 304 369 441
#     4   9  21  46  74 105 150 194 250 300 381 436
#     4  11  25  46  72 112 151 192 252 312 370 448
#     4   9  20  39  64  98 136 182 239 285 359 431
#
# _framework density 24.202857000000002
#
# number of rings (size 3 to 8) (size 9 to 14) (size 15 to 20)
#    1.500    1.000    0.000    0.750    0.000    8.000 
#    0.000   16.250    0.000    1.500    0.000    0.000 
#    0.000    0.000    0.000    0.000    0.000    0.000 
#
# Total GULP energy -44568.523809 kJ/mol
# GULP energy per Si atom -5571.065476 kJ/mol
# Density = 2.414777 g / cm^3
# Si number density = 24.202857 Si / 1000 Ang^3
#
#
#
# Elastic Constant Matrix: (Units=GPa)
#
#
# Indices 1 2 3 4 5 6 
#
# 1 121.1048 22.2716 65.0224 0.0000 -1.9791 0.0000
# 2 22.2716 102.6701 31.9752 0.0000 29.4457 0.0000
# 3 65.0224 31.9752 200.0838 0.0000 8.1060 0.0000
# 4 0.0000 0.0000 0.0000 -0.6865 0.0000 -3.9360
# 5 -1.9791 29.4457 8.1060 0.0000 39.8205 0.0000
# 6 0.0000 0.0000 0.0000 -3.9360 0.0000 11.1909
#
#
#
# Elastic Compliance Matrix: (Units=1/GPa)
#
#
# Indices 1 2 3 4 5 6 
#
# 1 0.010366 -0.002029 -0.003152 0.000000 0.002657 0.000000
# 2 -0.002029 0.013301 -0.001073 0.000000 -0.009718 0.000000
# 3 -0.003152 -0.001073 0.006219 0.000000 -0.000630 0.000000
# 4 0.000000 0.000000 0.000000 -0.482891 0.000000 -0.169838
# 5 0.002657 -0.009718 -0.000630 0.000000 0.032559 0.000000
# 6 0.000000 0.000000 0.000000 -0.169838 0.000000 0.029625
#
#
# Mechanical properties :
#
#
# Convention : Reuss Voigt Hill
#
# Bulk Modulus (GPa) = 57.54014 73.59969 65.56992
# Shear Modulus (GPa) = -13.42210 30.37093 8.47441
#
# Velocity S-wave (km/s) = -2.35748 3.54623 1.87324
# Velocity P-wave (km/s) = 4.05160 6.87337 5.64175
#
# Compressibility (1/GPa) = 0.01737917
#
# Stress axis : x y z
#
# Youngs Moduli (GPa) = 96.46595 75.18035 160.79237
#
# Poissons Ratio (x) = 0.15255 0.50685
# Poissons Ratio (y) = 0.19574 0.17246
# Poissons Ratio (z) = 0.30408 0.08063
#
# Static dielectric constant tensor:
#      x y z
#    x 1.955550 0.000000 0.002480 
#    y 0.000000 1.910510 0.000000 
#    z 0.002480 0.000000 1.998180 
# 
# From -- ./inp_files/11684.got.cif
#   From: 2010.05.17/outbox.cif.g08.bks.cpg/sg5_6_cif.got.tgz:11684.got - 2010.06.03 18:56:24.
