data_PCOD9130296
_publ_section_title
;
Structure prediction by ZEFSAII (Michael W. Deem and Ramdas Pophale) SiO2 
 PCOD9130296
Probable space group: C 2
;
_chemical_formula_sum "Si O2"
_cell_formula_units_Z 16
_cell_length_a 5.239065
_cell_length_b 24.959152
_cell_length_c 5.209590
_cell_angle_alpha 90.000000
_cell_angle_beta 97.906506
_cell_angle_gamma 90.000000
_cell_volume 674.743860
_symmetry_space_group_name_H-M "C 2"
_symmetry_group_IT_number 5
_symmetry_cell_setting 'monoclinic'
loop_
_space_group_symop_operation_xyz
x,y,z
-x,y,-z
1/2+x,1/2+y,z
1/2-x,1/2+y,-z
loop_
_atom_site_type_symbol
_atom_site_label
_atom_site_fract_x
_atom_site_fract_y
_atom_site_fract_z
Si Si1 0.777193 0.779970 0.661300
Si Si2 0.000000 0.877780 0.000000
Si Si3 0.500000 0.193689 0.000000
Si Si4 0.500000 0.950217 0.000000
Si Si5 0.000000 0.524221 0.500000
Si Si6 0.660459 0.620308 0.285016
O O1 0.500000 0.785872 0.500000
O O2 0.000000 0.761244 0.500000
O O3 0.880628 0.836821 0.776624
O O4 0.778061 0.734935 0.881619
O O5 0.242278 0.914133 0.956776
O O6 0.394785 0.156008 0.210372
O O7 0.516326 0.987317 0.252873
O O8 0.765729 0.564727 0.412524
O O9 0.500000 0.645328 0.500000
O O10 0.500000 0.611371 0.000000
#
# Coordination Sequence:
#
# PCOD9130296 Si02
#       6
#     4   2   2   2   2   4
#     4  11  27  49  81 116 161 209 263 334 399 494
#     4  11  28  52  77 122 151 210 264 337 404 484
#     4  11  29  46  74 126 160 212 273 319 412 478
#     4  12  29  50  89 114 161 210 267 338 406 478
#     4  12  30  52  74 122 152 212 272 332 400 482
#     4  12  28  50  80 112 166 219 267 336 398 483
#
# _framework density 23.712703000000001
#
# number of rings (size 3 to 8) (size 9 to 14) (size 15 to 20)
#    0.000    0.500    0.000    5.250   19.250    2.000 
#    0.000    0.000    0.000    0.000    0.000    0.000 
#    0.000    0.000    0.000    0.000    0.000    0.000 
#
# Total GULP energy -44823.893810 kJ/mol
# GULP energy per Si atom -5602.986726 kJ/mol
# Density = 2.365873 g / cm^3
# Si number density = 23.712703 Si / 1000 Ang^3
#
#
#
# Elastic Constant Matrix: (Units=GPa)
#
#
# Indices 1 2 3 4 5 6 
#
# 1 185.0093 78.3908 79.2679 0.0000 12.5761 0.0000
# 2 78.3908 166.1730 79.5345 0.0000 1.4986 0.0000
# 3 79.2679 79.5345 181.6820 0.0000 7.5459 0.0000
# 4 0.0000 0.0000 0.0000 49.2060 0.0000 30.3173
# 5 12.5761 1.4986 7.5459 0.0000 62.5342 0.0000
# 6 0.0000 0.0000 0.0000 30.3173 0.0000 91.9703
#
#
#
# Elastic Compliance Matrix: (Units=1/GPa)
#
#
# Indices 1 2 3 4 5 6 
#
# 1 0.007445 -0.002492 -0.002108 0.000000 -0.001183 0.000000
# 2 -0.002492 0.008450 -0.002637 0.000000 0.000617 0.000000
# 3 -0.002108 -0.002637 0.007596 0.000000 -0.000430 0.000000
# 4 0.000000 0.000000 0.000000 0.025502 0.000000 -0.008407
# 5 -0.001183 0.000617 -0.000430 0.000000 0.016266 0.000000
# 6 0.000000 0.000000 0.000000 -0.008407 0.000000 0.013644
#
#
# Mechanical properties :
#
#
# Convention : Reuss Voigt Hill
#
# Bulk Modulus (GPa) = 110.91693 111.91676 111.41684
# Shear Modulus (GPa) = 51.87520 60.45351 56.16435
#
# Velocity S-wave (km/s) = 4.68231 5.05465 4.87204
# Velocity P-wave (km/s) = 8.72404 9.02028 8.87340
#
# Compressibility (1/GPa) = 0.00901576
#
# Stress axis : x y z
#
# Youngs Moduli (GPa) = 134.32233 118.33729 131.64394
#
# Poissons Ratio (x) = 0.29495 0.27749
# Poissons Ratio (y) = 0.33479 0.34721
# Poissons Ratio (z) = 0.28314 0.31211
#
# Static dielectric constant tensor:
#      x y z
#    x 1.928740 0.000000 -0.029160 
#    y 0.000000 1.863340 0.000000 
#    z -0.029160 0.000000 1.954880 
# 
# From -- ./inp_files/705.got.cif
#   From: 2010.05.17/outbox.cif.g08.bks.cpg/sg5_1_cif.got.tgz:705.got - 2010.06.03 18:56:24.
