data_PCOD9130107
_publ_section_title
;
Structure prediction by ZEFSAII (Michael W. Deem and Ramdas Pophale) SiO2 
 PCOD9130107
Probable space group: C 2
;
_chemical_formula_sum "Si O2"
_cell_formula_units_Z 20
_cell_length_a 11.858426
_cell_length_b 8.249348
_cell_length_c 7.656603
_cell_angle_alpha 90.000000
_cell_angle_beta 104.448044
_cell_angle_gamma 90.000000
_cell_volume 725.313985
_symmetry_space_group_name_H-M "C 2"
_symmetry_group_IT_number 5
_symmetry_cell_setting 'monoclinic'
loop_
_space_group_symop_operation_xyz
x,y,z
-x,y,-z
1/2+x,1/2+y,z
1/2-x,1/2+y,-z
loop_
_atom_site_type_symbol
_atom_site_label
_atom_site_fract_x
_atom_site_fract_y
_atom_site_fract_z
Si Si1 0.238512 0.386070 0.843711
Si Si2 0.338518 0.463798 0.527661
Si Si3 0.498679 0.700726 0.197355
Si Si4 0.623285 0.241450 0.795035
Si Si5 0.579103 0.033898 0.350476
O O1 0.300021 0.369620 0.684670
O O2 0.194987 0.572675 0.829370
O O3 0.131273 0.259624 0.808612
O O4 0.323368 0.352679 0.036186
O O5 0.437910 0.584450 0.639914
O O6 0.493163 0.175520 0.769277
O O7 0.215798 0.549903 0.433937
O O8 0.370513 0.342881 0.382622
O O9 0.568903 0.870314 0.232716
O O10 0.500000 0.637055 0.000000
O O11 0.500000 0.008002 0.500000
#
# Coordination Sequence:
#
# PCOD9130107 Si02
#       5
#     4   4   4   4   4
#     4  11  25  54  83 120 162 208 273 329 398 482
#     4  12  25  53  85 116 161 214 266 326 407 473
#     4  11  25  50  83 119 157 216 264 329 408 467
#     4  11  27  53  84 122 162 211 269 332 401 476
#     4  11  24  51  78 116 164 201 269 330 390 477
#
# _framework density 27.574265
#
# number of rings (size 3 to 8) (size 9 to 14) (size 15 to 20)
#    0.000    0.800    4.000    3.600    0.000    3.200 
#   18.000    0.000    0.000    0.000    0.000    0.000 
#    0.000    0.000    0.000    0.000    0.000    0.000 
#
# Total GULP energy -56144.797979 kJ/mol
# GULP energy per Si atom -5614.479798 kJ/mol
# Density = 2.751150 g / cm^3
# Si number density = 27.574265 Si / 1000 Ang^3
#
#
#
# Elastic Constant Matrix: (Units=GPa)
#
#
# Indices 1 2 3 4 5 6 
#
# 1 115.9468 112.4459 101.9824 0.0000 10.9997 0.0000
# 2 112.4459 208.0820 132.2046 0.0000 14.5660 0.0000
# 3 101.9824 132.2046 262.3926 0.0000 14.8334 0.0000
# 4 0.0000 0.0000 0.0000 69.9947 0.0000 15.5412
# 5 10.9997 14.5660 14.8334 0.0000 23.6446 0.0000
# 6 0.0000 0.0000 0.0000 15.5412 0.0000 49.4474
#
#
#
# Elastic Compliance Matrix: (Units=1/GPa)
#
#
# Indices 1 2 3 4 5 6 
#
# 1 0.020103 -0.008579 -0.003381 0.000000 -0.001946 0.000000
# 2 -0.008579 0.010842 -0.002049 0.000000 -0.001402 0.000000
# 3 -0.003381 -0.002049 0.006218 0.000000 -0.001066 0.000000
# 4 0.000000 0.000000 0.000000 0.015359 0.000000 -0.004827
# 5 -0.001946 -0.001402 -0.001066 0.000000 0.044731 0.000000
# 6 0.000000 0.000000 0.000000 -0.004827 0.000000 0.021741
#
#
# Mechanical properties :
#
#
# Convention : Reuss Voigt Hill
#
# Bulk Modulus (GPa) = 109.35197 142.18747 125.76972
# Shear Modulus (GPa) = 33.32021 44.60324 38.96172
#
# Velocity S-wave (km/s) = 3.47995 4.02626 3.76303
# Velocity P-wave (km/s) = 7.47597 8.56105 8.03684
#
# Compressibility (1/GPa) = 0.00914478
#
# Stress axis : x y z
#
# Youngs Moduli (GPa) = 49.74330 92.23393 160.83483
#
# Poissons Ratio (x) = 0.79132 0.54373
# Poissons Ratio (y) = 0.42677 0.32952
# Poissons Ratio (z) = 0.16816 0.18897
#
# Static dielectric constant tensor:
#      x y z
#    x 2.171390 0.000000 0.064790 
#    y 0.000000 2.204350 0.000000 
#    z 0.064790 0.000000 2.252470 
# 
# From -- ./inp_files/41366.got.cif
#   From: 2010.05.17/outbox.cif.g08.bks.cpg/sg5_21_cif.got.tgz:41366.got - 2010.06.03 18:56:24.
