data_PCOD9130288
_publ_section_title
;
Structure prediction by ZEFSAII (Michael W. Deem and Ramdas Pophale) SiO2 
 PCOD9130288
Probable space group: C 2
;
_chemical_formula_sum "Si O2"
_cell_formula_units_Z 24
_cell_length_a 12.761828
_cell_length_b 5.414525
_cell_length_c 19.268858
_cell_angle_alpha 90.000000
_cell_angle_beta 45.300436
_cell_angle_gamma 90.000000
_cell_volume 946.410597
_symmetry_space_group_name_H-M "C 2"
_symmetry_group_IT_number 5
_symmetry_cell_setting 'monoclinic'
loop_
_space_group_symop_operation_xyz
x,y,z
-x,y,-z
1/2+x,1/2+y,z
1/2-x,1/2+y,-z
loop_
_atom_site_type_symbol
_atom_site_label
_atom_site_fract_x
_atom_site_fract_y
_atom_site_fract_z
Si Si1 0.500000 0.857090 0.000000
Si Si2 0.994050 0.442420 0.854441
Si Si3 0.777631 0.268000 0.699166
Si Si4 0.966018 0.046463 0.265068
Si Si5 0.000000 0.024150 0.500000
Si Si6 0.309051 0.146727 0.812126
Si Si7 0.733272 0.819533 0.550188
O O1 0.640490 0.706928 0.908242
O O2 0.447530 0.995309 0.954907
O O3 0.161513 0.548241 0.771869
O O4 0.989251 0.157535 0.830672
O O5 0.886584 0.560325 0.847611
O O6 0.681755 0.394071 0.682049
O O7 0.802062 0.455763 0.751522
O O8 0.931498 0.184944 0.593990
O O9 0.911997 0.271999 0.337357
O O10 0.090376 0.891349 0.246651
O O11 0.132193 0.852723 0.460801
O O12 0.766940 0.578042 0.489598
#
# Coordination Sequence:
#
# PCOD9130288 Si02
#       7
#     2   4   4   4   2   4   4
#     4  12  28  52  80 120 152 218 278 348 430 512
#     4  11  27  50  78 114 164 208 275 349 425 506
#     4  11  26  53  80 118 169 225 280 347 420 508
#     4  11  26  53  73 120 167 212 276 353 418 501
#     4  12  28  52  82 120 164 226 286 336 416 502
#     4  11  29  48  85 116 166 218 279 352 427 506
#     4  12  30  51  83 122 169 225 288 347 421 506
#
# _framework density 25.358972999999999
#
# number of rings (size 3 to 8) (size 9 to 14) (size 15 to 20)
#    0.000    0.667    3.333    1.000    9.333    6.000 
#    0.000    0.000    0.000    0.000    0.000    0.000 
#    0.000    0.000    0.000    0.000    0.000    0.000 
#
# Total GULP energy -67200.152402 kJ/mol
# GULP energy per Si atom -5600.012700 kJ/mol
# Density = 2.530125 g / cm^3
# Si number density = 25.358973 Si / 1000 Ang^3
#
#
#
# Elastic Constant Matrix: (Units=GPa)
#
#
# Indices 1 2 3 4 5 6 
#
# 1 181.3939 50.4882 60.4900 -0.0008 -2.4817 0.0034
# 2 50.4882 103.3617 47.9187 0.0002 2.3642 0.0061
# 3 60.4900 47.9187 131.9397 -0.0007 1.9142 0.0021
# 4 -0.0008 0.0002 -0.0007 15.0967 -0.0001 -13.7656
# 5 -2.4817 2.3642 1.9142 -0.0001 49.0032 -0.0009
# 6 0.0034 0.0061 0.0021 -13.7656 -0.0009 29.1008
#
#
#
# Elastic Compliance Matrix: (Units=1/GPa)
#
#
# Indices 1 2 3 4 5 6 
#
# 1 0.006950 -0.002317 -0.002353 0.000000 0.000556 0.000000
# 2 -0.002317 0.012413 -0.003438 -0.000004 -0.000582 -0.000004
# 3 -0.002353 -0.003438 0.009912 0.000001 -0.000340 0.000001
# 4 0.000000 -0.000004 0.000001 0.116480 0.000001 0.055099
# 5 0.000556 -0.000582 -0.000340 0.000001 0.020476 0.000001
# 6 0.000000 -0.000004 0.000001 0.055099 0.000001 0.060427
#
#
# Mechanical properties :
#
#
# Convention : Reuss Voigt Hill
#
# Bulk Modulus (GPa) = 76.57014 81.60990 79.09002
# Shear Modulus (GPa) = 20.22436 35.82670 28.02553
#
# Velocity S-wave (km/s) = 2.82711 3.76278 3.32799
# Velocity P-wave (km/s) = 6.39662 7.15050 6.78404
#
# Compressibility (1/GPa) = 0.01305992
#
# Stress axis : x y z
#
# Youngs Moduli (GPa) = 143.88637 80.55780 100.89275
#
# Poissons Ratio (x) = 0.18662 0.23740
# Poissons Ratio (y) = 0.33333 0.34685
# Poissons Ratio (z) = 0.33857 0.27695
#
# Static dielectric constant tensor:
#      x y z
#    x 2.005390 0.000000 0.057030 
#    y 0.000000 2.125550 0.000000 
#    z 0.057030 0.000000 1.968110 
# 
# From -- ./inp_files/65641.got.cif
#   From: 2010.05.17/outbox.cif.g08.bks.cpg/sg5_33_cif.got.tgz:65641.got - 2010.06.03 18:56:24.
