data_PCOD9130461
_publ_section_title
;
Structure prediction by ZEFSAII (Michael W. Deem and Ramdas Pophale) SiO2 
 PCOD9130461
Probable space group: C 2
;
_chemical_formula_sum "Si O2"
_cell_formula_units_Z 18
_cell_length_a 10.625219
_cell_length_b 8.819684
_cell_length_c 9.530153
_cell_angle_alpha 90.000000
_cell_angle_beta 120.973769
_cell_angle_gamma 90.000000
_cell_volume 765.730224
_symmetry_space_group_name_H-M "C 2"
_symmetry_group_IT_number 5
_symmetry_cell_setting 'monoclinic'
loop_
_space_group_symop_operation_xyz
x,y,z
-x,y,-z
1/2+x,1/2+y,z
1/2-x,1/2+y,-z
loop_
_atom_site_type_symbol
_atom_site_label
_atom_site_fract_x
_atom_site_fract_y
_atom_site_fract_z
Si Si1 0.837993 0.802140 0.632657
Si Si2 0.000000 0.601814 0.500000
Si Si3 0.832783 0.324618 0.949861
Si Si4 0.233130 0.980692 0.173343
Si Si5 0.326148 0.508196 0.378703
O O1 0.951441 0.707159 0.603146
O O2 0.735345 0.675825 0.642134
O O3 0.888321 0.905463 0.792602
O O4 0.765282 0.906759 0.471884
O O5 0.867731 0.507998 0.358172
O O6 0.810409 0.145702 0.909560
O O7 0.726846 0.423979 0.790072
O O8 0.790708 0.373665 0.082519
O O9 0.000000 0.362180 0.000000
O O10 0.500000 0.513615 0.500000
#
# Coordination Sequence:
#
# PCOD9130461 Si02
#       5
#     4   2   4   4   4
#     4  12  24  44  77 108 147 201 256 302 367 453
#     4  12  24  48  76 110 154 198 254 304 380 446
#     4  12  28  50  74 116 154 197 251 318 382 442
#     4  12  28  47  76 111 151 198 254 312 377 449
#     4  12  25  46  75 111 154 201 252 306 379 457
#
# _framework density 23.506972999999999
#
# number of rings (size 3 to 8) (size 9 to 14) (size 15 to 20)
#    0.000    0.000    5.556    2.667    1.556    7.111 
#    0.000    1.111    0.000    0.000    0.000    0.000 
#    0.000    0.000    0.000    0.000    0.000    0.000 
#
# Total GULP energy -50367.432031 kJ/mol
# GULP energy per Si atom -5596.381337 kJ/mol
# Density = 2.345347 g / cm^3
# Si number density = 23.506973 Si / 1000 Ang^3
#
#
#
# Elastic Constant Matrix: (Units=GPa)
#
#
# Indices 1 2 3 4 5 6 
#
# 1 117.5744 40.3789 74.9442 0.0000 -25.0560 0.0000
# 2 40.3789 136.5044 40.4580 0.0000 -18.4606 0.0000
# 3 74.9442 40.4580 115.8790 0.0000 -32.2962 0.0000
# 4 0.0000 0.0000 0.0000 28.9378 0.0000 -12.5472
# 5 -25.0560 -18.4606 -32.2962 0.0000 52.1192 0.0000
# 6 0.0000 0.0000 0.0000 -12.5472 0.0000 37.1979
#
#
#
# Elastic Compliance Matrix: (Units=1/GPa)
#
#
# Indices 1 2 3 4 5 6 
#
# 1 0.014882 -0.001660 -0.008722 0.000000 0.001162 0.000000
# 2 -0.001660 0.008437 -0.001525 0.000000 0.001245 0.000000
# 3 -0.008722 -0.001525 0.016298 0.000000 0.005366 0.000000
# 4 0.000000 0.000000 0.000000 0.040477 0.000000 0.013653
# 5 0.001162 0.001245 0.005366 0.000000 0.023512 0.000000
# 6 0.000000 0.000000 0.000000 0.013653 0.000000 0.031489
#
#
# Mechanical properties :
#
#
# Convention : Reuss Voigt Hill
#
# Bulk Modulus (GPa) = 63.27263 75.72444 69.49853
# Shear Modulus (GPa) = 30.45492 37.92943 34.19218
#
# Velocity S-wave (km/s) = 3.60331 4.02125 3.81800
# Velocity P-wave (km/s) = 6.65483 7.33785 7.00467
#
# Compressibility (1/GPa) = 0.01580462
#
# Stress axis : x y z
#
# Youngs Moduli (GPa) = 67.19357 118.52180 61.35566
#
# Poissons Ratio (x) = 0.19677 0.53512
# Poissons Ratio (y) = 0.11155 0.09357
# Poissons Ratio (z) = 0.58603 0.18074
#
# Static dielectric constant tensor:
#      x y z
#    x 1.969450 0.000000 0.020350 
#    y 0.000000 1.923120 0.000000 
#    z 0.020350 0.000000 1.839440 
# 
# From -- ./inp_files/18404.got.cif
#   From: 2010.05.17/outbox.cif.g08.bks.cpg/sg5_10_cif.got.tgz:18404.got - 2010.06.03 18:56:24.
