data_PCOD9130605
_publ_section_title
;
Structure prediction by ZEFSAII (Michael W. Deem and Ramdas Pophale) SiO2 
 PCOD9130605
Probable space group: C 2
;
_chemical_formula_sum "Si O2"
_cell_formula_units_Z 20
_cell_length_a 8.765299
_cell_length_b 4.870604
_cell_length_c 22.676114
_cell_angle_alpha 90.000000
_cell_angle_beta 126.803453
_cell_angle_gamma 90.000000
_cell_volume 775.149462
_symmetry_space_group_name_H-M "C 2"
_symmetry_group_IT_number 5
_symmetry_cell_setting 'monoclinic'
loop_
_space_group_symop_operation_xyz
x,y,z
-x,y,-z
1/2+x,1/2+y,z
1/2-x,1/2+y,-z
loop_
_atom_site_type_symbol
_atom_site_label
_atom_site_fract_x
_atom_site_fract_y
_atom_site_fract_z
Si Si1 0.223629 0.481340 0.148929
Si Si2 0.662041 0.293993 0.949504
Si Si3 0.357097 0.526593 0.548651
Si Si4 0.756042 0.799033 0.649269
Si Si5 0.882488 0.278480 0.749556
O O1 0.286757 0.302643 0.107562
O O2 0.157489 0.316475 0.190856
O O3 0.407364 0.657188 0.209515
O O4 0.048418 0.676412 0.090238
O O5 0.692746 0.595378 0.982657
O O6 0.298800 0.266948 0.495686
O O7 0.442355 0.669127 0.417410
O O8 0.359168 0.417022 0.615803
O O9 0.862201 0.562280 0.709998
O O10 0.737851 0.057325 0.688408
#
# Coordination Sequence:
#
# PCOD9130605 Si02
#       5
#     4   4   4   4   4
#     4  12  30  52  80 115 156 204 256 318 384 456
#     4  12  30  52  80 115 156 203 257 318 383 457
#     4  12  27  50  78 113 154 202 255 316 381 454
#     4  12  28  50  78 114 154 202 255 316 381 454
#     4  12  29  52  79 115 156 203 257 318 383 457
#
# _framework density 25.801473999999999
#
# number of rings (size 3 to 8) (size 9 to 14) (size 15 to 20)
#    0.000    0.000    0.000    7.200    0.000   27.200 
#    0.000    0.000    0.000    0.000    0.000    0.000 
#    0.000    0.000    0.000    0.000    0.000    0.000 
#
# Total GULP energy -56262.141698 kJ/mol
# GULP energy per Si atom -5626.214170 kJ/mol
# Density = 2.574275 g / cm^3
# Si number density = 25.801474 Si / 1000 Ang^3
#
#
#
# Elastic Constant Matrix: (Units=GPa)
#
#
# Indices 1 2 3 4 5 6 
#
# 1 85.4499 18.6630 16.8549 0.0000 6.0564 0.0000
# 2 18.6630 134.8444 37.1891 0.0000 -10.5185 0.0000
# 3 16.8549 37.1891 107.3605 0.0000 -7.5252 0.0000
# 4 0.0000 0.0000 0.0000 58.2565 0.0000 -15.7483
# 5 6.0564 -10.5185 -7.5252 0.0000 29.2353 0.0000
# 6 0.0000 0.0000 0.0000 -15.7483 0.0000 25.7425
#
#
#
# Elastic Compliance Matrix: (Units=1/GPa)
#
#
# Indices 1 2 3 4 5 6 
#
# 1 0.012635 -0.001563 -0.001696 0.000000 -0.003616 0.000000
# 2 -0.001563 0.008542 -0.002521 0.000000 0.002748 0.000000
# 3 -0.001696 -0.002521 0.010606 0.000000 0.002174 0.000000
# 4 0.000000 0.000000 0.000000 0.020567 0.000000 0.012582
# 5 -0.003616 0.002748 0.002174 0.000000 0.036503 0.000000
# 6 0.000000 0.000000 0.000000 0.012582 0.000000 0.046543
#
#
# Mechanical properties :
#
#
# Convention : Reuss Voigt Hill
#
# Bulk Modulus (GPa) = 49.44661 52.56322 51.00491
# Shear Modulus (GPa) = 32.53163 39.64338 36.08751
#
# Velocity S-wave (km/s) = 3.55469 3.92404 3.74392
# Velocity P-wave (km/s) = 6.00447 6.39900 6.20487
#
# Compressibility (1/GPa) = 0.02022383
#
# Stress axis : x y z
#
# Youngs Moduli (GPa) = 79.14560 117.06988 94.28430
#
# Poissons Ratio (x) = 0.18300 0.15987
# Poissons Ratio (y) = 0.12372 0.23768
# Poissons Ratio (z) = 0.13420 0.29511
#
# Static dielectric constant tensor:
#      x y z
#    x 1.965040 0.000000 0.025300 
#    y 0.000000 1.956320 0.000000 
#    z 0.025300 0.000000 1.997310 
# 
# From -- ./inp_files/64209.got.cif
#   From: 2010.05.17/outbox.cif.g08.bks.cpg/sg5_33_cif.got.tgz:64209.got - 2010.06.03 18:56:24.
