data_PCOD9130067
_publ_section_title
;
Structure prediction by ZEFSAII (Michael W. Deem and Ramdas Pophale) SiO2 
 PCOD9130067
Probable space group: C 2
;
_chemical_formula_sum "Si O2"
_cell_formula_units_Z 24
_cell_length_a 10.118603
_cell_length_b 17.388921
_cell_length_c 9.630798
_cell_angle_alpha 90.000000
_cell_angle_beta 40.998742
_cell_angle_gamma 90.000000
_cell_volume 1111.699505
_symmetry_space_group_name_H-M "C 2"
_symmetry_group_IT_number 5
_symmetry_cell_setting 'monoclinic'
loop_
_space_group_symop_operation_xyz
x,y,z
-x,y,-z
1/2+x,1/2+y,z
1/2-x,1/2+y,-z
loop_
_atom_site_type_symbol
_atom_site_label
_atom_site_fract_x
_atom_site_fract_y
_atom_site_fract_z
Si Si1 0.588986 0.629020 0.581458
Si Si2 0.959213 0.997120 0.886270
Si Si3 0.551605 0.919618 0.117588
Si Si4 0.792222 0.370201 0.574644
Si Si5 0.379570 0.741069 0.956698
Si Si6 0.448040 0.209368 0.205594
O O1 0.500000 0.630404 0.500000
O O2 0.524682 0.553451 0.712521
O O3 0.824207 0.639027 0.367465
O O4 0.499363 0.700971 0.737353
O O5 0.115463 0.925994 0.768187
O O6 0.729690 0.970758 0.041916
O O7 0.000000 0.038637 0.000000
O O8 0.361528 0.905303 0.370477
O O9 0.500000 0.944000 0.000000
O O10 0.636126 0.832782 0.042585
O O11 0.688426 0.286004 0.663152
O O12 0.000000 0.369564 0.500000
O O13 0.153519 0.712640 0.126876
O O14 0.500000 0.723936 0.000000
O O15 0.500000 0.202922 0.000000
#
# Coordination Sequence:
#
# PCOD9130067 Si02
#       6
#     4   4   4   4   4   4
#     4  12  27  47  72 106 143 189 244 291 360 433
#     4  12  27  49  72 104 144 188 236 301 357 426
#     4  11  25  45  75 109 143 180 237 299 355 421
#     4  12  23  44  79 109 133 187 246 293 357 427
#     4  11  24  47  73 109 143 182 240 301 353 423
#     4  12  23  45  80 106 139 191 242 298 353 425
#
# _framework density 21.588567000000001
#
# number of rings (size 3 to 8) (size 9 to 14) (size 15 to 20)
#    0.000    0.333    6.667    2.500    2.333    2.000 
#    3.000    0.000    0.000    0.000    0.000    0.000 
#    0.000    0.000    0.000    0.000    0.000    0.000 
#
# Total GULP energy -67090.879184 kJ/mol
# GULP energy per Si atom -5590.906599 kJ/mol
# Density = 2.153943 g / cm^3
# Si number density = 21.588567 Si / 1000 Ang^3
#
#
#
# Elastic Constant Matrix: (Units=GPa)
#
#
# Indices 1 2 3 4 5 6 
#
# 1 132.4700 23.2283 47.7991 0.0000 6.7242 0.0000
# 2 23.2283 43.1472 26.1660 0.0000 9.0222 0.0000
# 3 47.7991 26.1660 128.7604 0.0000 3.5984 0.0000
# 4 0.0000 0.0000 0.0000 45.2435 0.0000 5.5556
# 5 6.7242 9.0222 3.5984 0.0000 47.0058 0.0000
# 6 0.0000 0.0000 0.0000 5.5556 0.0000 16.6507
#
#
#
# Elastic Compliance Matrix: (Units=1/GPa)
#
#
# Indices 1 2 3 4 5 6 
#
# 1 0.009110 -0.003147 -0.002729 0.000000 -0.000490 0.000000
# 2 -0.003147 0.028587 -0.004510 0.000000 -0.004691 0.000000
# 3 -0.002729 -0.004510 0.009681 0.000000 0.000515 0.000000
# 4 0.000000 0.000000 0.000000 0.023047 0.000000 -0.007690
# 5 -0.000490 -0.004691 0.000515 0.000000 0.022205 0.000000
# 6 0.000000 0.000000 0.000000 -0.007690 0.000000 0.062623
#
#
# Mechanical properties :
#
#
# Convention : Reuss Voigt Hill
#
# Bulk Modulus (GPa) = 37.58425 55.41824 46.50125
# Shear Modulus (GPa) = 27.04255 35.59229 31.31742
#
# Velocity S-wave (km/s) = 3.54310 4.06478 3.81287
# Velocity P-wave (km/s) = 5.84681 6.91056 6.40082
#
# Compressibility (1/GPa) = 0.02660689
#
# Stress axis : x y z
#
# Youngs Moduli (GPa) = 109.76698 34.98141 103.29099
#
# Poissons Ratio (x) = 0.11009 0.28185
# Poissons Ratio (y) = 0.34546 0.46582
# Poissons Ratio (z) = 0.29952 0.15776
#
# Static dielectric constant tensor:
#      x y z
#    x 1.756130 0.000000 0.004300 
#    y 0.000000 1.792650 0.000000 
#    z 0.004300 0.000000 1.821010 
# 
# From -- ./inp_files/16671.got.cif
#   From: 2010.05.17/outbox.cif.g08.bks.cpg/sg5_9_cif.got.tgz:16671.got - 2010.06.03 18:56:24.
