data_PCOD9130421
_publ_section_title
;
Structure prediction by ZEFSAII (Michael W. Deem and Ramdas Pophale) SiO2 
 PCOD9130421
Probable space group: C 2
;
_chemical_formula_sum "Si O2"
_cell_formula_units_Z 16
_cell_length_a 8.313621
_cell_length_b 12.874692
_cell_length_c 8.025248
_cell_angle_alpha 90.000000
_cell_angle_beta 54.443078
_cell_angle_gamma 90.000000
_cell_volume 698.817036
_symmetry_space_group_name_H-M "C 2"
_symmetry_group_IT_number 5
_symmetry_cell_setting 'monoclinic'
loop_
_space_group_symop_operation_xyz
x,y,z
-x,y,-z
1/2+x,1/2+y,z
1/2-x,1/2+y,-z
loop_
_atom_site_type_symbol
_atom_site_label
_atom_site_fract_x
_atom_site_fract_y
_atom_site_fract_z
Si Si1 0.857212 0.851320 0.930259
Si Si2 0.221592 0.001599 0.300691
Si Si3 0.049391 0.313863 0.662118
Si Si4 0.900748 0.672613 0.396333
O O1 0.800931 0.958240 0.871791
O O2 0.969670 0.771705 0.739279
O O3 0.653285 0.801966 0.116269
O O4 0.000000 0.869918 0.000000
O O5 0.323245 0.906926 0.338360
O O6 0.000000 0.019517 0.500000
O O7 0.357401 0.099191 0.265432
O O8 0.187657 0.213802 0.582514
O O9 0.000000 0.336043 0.500000
O O10 0.000000 0.622327 0.500000
#
# Coordination Sequence:
#
# PCOD9130421 Si02
#       4
#     4   4   4   4
#     4  12  25  47  79 111 156 203 252 314 384 451
#     4  12  25  48  78 115 156 201 253 316 382 454
#     4  12  23  48  77 106 161 199 245 326 372 446
#     4  12  26  49  78 117 152 200 259 312 384 454
#
# _framework density 22.895837
#
# number of rings (size 3 to 8) (size 9 to 14) (size 15 to 20)
#    0.000    0.000    7.500    2.250    0.000    2.000 
#    0.000    0.000    5.500    0.000    0.000    0.000 
#    0.000    0.000    0.000    0.000    0.000    0.000 
#
# Total GULP energy -44804.143520 kJ/mol
# GULP energy per Si atom -5600.517940 kJ/mol
# Density = 2.284373 g / cm^3
# Si number density = 22.895837 Si / 1000 Ang^3
#
#
#
# Elastic Constant Matrix: (Units=GPa)
#
#
# Indices 1 2 3 4 5 6 
#
# 1 162.4548 44.8545 42.3328 0.0000 3.8361 0.0000
# 2 44.8545 75.9669 13.3953 0.0000 -5.1720 0.0000
# 3 42.3328 13.3953 121.5696 0.0000 -23.2757 0.0000
# 4 0.0000 0.0000 0.0000 6.1858 0.0000 4.0739
# 5 3.8361 -5.1720 -23.2757 0.0000 41.1844 0.0000
# 6 0.0000 0.0000 0.0000 4.0739 0.0000 32.9076
#
#
#
# Elastic Compliance Matrix: (Units=1/GPa)
#
#
# Indices 1 2 3 4 5 6 
#
# 1 0.008253 -0.004558 -0.002947 0.000000 -0.003007 0.000000
# 2 -0.004558 0.015975 0.000328 0.000000 0.002616 0.000000
# 3 -0.002947 0.000328 0.010402 0.000000 0.006194 0.000000
# 4 0.000000 0.000000 0.000000 0.176012 0.000000 -0.021790
# 5 -0.003007 0.002616 0.006194 0.000000 0.028390 0.000000
# 6 0.000000 0.000000 0.000000 -0.021790 0.000000 0.033086
#
#
# Mechanical properties :
#
#
# Convention : Reuss Voigt Hill
#
# Bulk Modulus (GPa) = 49.32157 62.35070 55.83613
# Shear Modulus (GPa) = 17.05138 33.34946 25.20042
#
# Velocity S-wave (km/s) = 2.73195 3.82065 3.32121
# Velocity P-wave (km/s) = 5.61604 6.83773 6.25677
#
# Compressibility (1/GPa) = 0.02027510
#
# Stress axis : x y z
#
# Youngs Moduli (GPa) = 121.16703 62.59699 96.13601
#
# Poissons Ratio (x) = 0.28532 0.28334
# Poissons Ratio (y) = 0.55228 -0.03151
# Poissons Ratio (z) = 0.35712 -0.02052
#
# Static dielectric constant tensor:
#      x y z
#    x 1.847330 0.000000 0.020110 
#    y 0.000000 1.854490 0.000000 
#    z 0.020110 0.000000 1.829410 
# 
# From -- ./inp_files/13892.got.cif
#   From: 2010.05.17/outbox.cif.g08.bks.cpg/sg5_7_cif.got.tgz:13892.got - 2010.06.03 18:56:24.
