data_PCOD9130338
_publ_section_title
;
Structure prediction by ZEFSAII (Michael W. Deem and Ramdas Pophale) SiO2 
 PCOD9130338
Probable space group: C 2
;
_chemical_formula_sum "Si O2"
_cell_formula_units_Z 28
_cell_length_a 13.197886
_cell_length_b 6.556626
_cell_length_c 16.710518
_cell_angle_alpha 90.000000
_cell_angle_beta 57.260937
_cell_angle_gamma 90.000000
_cell_volume 1216.309646
_symmetry_space_group_name_H-M "C 2"
_symmetry_group_IT_number 5
_symmetry_cell_setting 'monoclinic'
loop_
_space_group_symop_operation_xyz
x,y,z
-x,y,-z
1/2+x,1/2+y,z
1/2-x,1/2+y,-z
loop_
_atom_site_type_symbol
_atom_site_label
_atom_site_fract_x
_atom_site_fract_y
_atom_site_fract_z
Si Si1 0.885082 0.224170 0.864645
Si Si2 0.328134 0.481659 0.048817
Si Si3 0.621802 0.779968 0.830536
Si Si4 0.500000 0.111996 0.000000
Si Si5 0.212446 0.326989 0.394525
Si Si6 0.000000 0.624779 0.500000
Si Si7 0.598975 0.486010 0.561697
Si Si8 0.825867 0.052404 0.724560
O O1 0.813498 0.435280 0.890016
O O2 0.831652 0.092564 0.816003
O O3 0.028255 0.242095 0.799606
O O4 0.858545 0.124845 0.961579
O O5 0.367527 0.592064 0.113252
O O6 0.398844 0.267784 0.010121
O O7 0.752695 0.844805 0.744266
O O8 0.561935 0.965583 0.907730
O O9 0.318426 0.440332 0.396793
O O10 0.246060 0.218711 0.296932
O O11 0.102648 0.477826 0.421824
O O12 0.163165 0.147783 0.475217
O O13 0.928129 0.772058 0.470701
O O14 0.463764 0.559062 0.638285
#
# Coordination Sequence:
#
# PCOD9130338 Si02
#       8
#     4   4   4   2   4   2   4   4
#     4  12  25  44  74 103 145 194 240 299 361 415
#     4  12  24  47  75 101 144 200 252 290 358 430
#     4  12  26  47  71 105 146 194 246 302 354 420
#     4  12  20  48  76  96 142 194 250 300 340 426
#     4  12  26  48  78 108 141 189 236 290 371 440
#     4  12  22  46  84 100 138 190 232 286 356 454
#     4  12  26  48  78 107 142 190 235 292 369 439
#     4  12  28  45  68 118 147 175 250 303 354 429
#
# _framework density 23.020451999999999
#
# number of rings (size 3 to 8) (size 9 to 14) (size 15 to 20)
#    0.000    0.000    8.571    1.714    0.000    8.000 
#    0.000    0.000    0.000    0.000    0.000    0.000 
#    0.000    0.000    0.000    0.000    0.000    0.000 
#
# Total GULP energy -78350.673517 kJ/mol
# GULP energy per Si atom -5596.476680 kJ/mol
# Density = 2.296806 g / cm^3
# Si number density = 23.020452 Si / 1000 Ang^3
#
#
#
# Elastic Constant Matrix: (Units=GPa)
#
#
# Indices 1 2 3 4 5 6 
#
# 1 155.7453 32.7653 30.5245 0.0000 -2.1979 0.0001
# 2 32.7653 85.2067 7.2909 0.0000 -2.5146 0.0002
# 3 30.5245 7.2909 23.7418 0.0000 -3.7711 0.0000
# 4 0.0000 0.0000 0.0000 29.4015 0.0000 -6.1483
# 5 -2.1979 -2.5146 -3.7711 0.0000 18.2228 0.0000
# 6 0.0001 0.0002 0.0000 -6.1483 0.0000 47.3616
#
#
#
# Elastic Compliance Matrix: (Units=1/GPa)
#
#
# Indices 1 2 3 4 5 6 
#
# 1 0.009142 -0.002603 -0.011205 0.000000 -0.001575 0.000000
# 2 -0.002603 0.012809 -0.000368 0.000000 0.001377 0.000000
# 3 -0.011205 -0.000368 0.058333 0.000000 0.010669 0.000000
# 4 0.000000 0.000000 0.000000 0.034961 0.000000 0.004538
# 5 -0.001575 0.001377 0.010669 0.000000 0.057084 0.000000
# 6 0.000000 0.000000 0.000000 0.004538 0.000000 0.021703
#
#
# Mechanical properties :
#
#
# Convention : Reuss Voigt Hill
#
# Bulk Modulus (GPa) = 19.25559 45.09502 32.17531
# Shear Modulus (GPa) = 20.85976 31.93807 26.39892
#
# Velocity S-wave (km/s) = 3.01348 3.72879 3.39006
# Velocity P-wave (km/s) = 4.52668 6.17820 5.41576
#
# Compressibility (1/GPa) = 0.05193297
#
# Stress axis : x y z
#
# Youngs Moduli (GPa) = 109.38296 78.06802 17.14291
#
# Poissons Ratio (x) = 0.20323 0.19208
# Poissons Ratio (y) = 0.28475 0.00631
# Poissons Ratio (z) = 1.22561 0.02872
#
# Static dielectric constant tensor:
#      x y z
#    x 1.860910 0.000000 -0.050710 
#    y 0.000000 1.866310 0.000000 
#    z -0.050710 0.000000 1.879620 
# 
# From -- ./inp_files/61196.got.cif
#   From: 2010.05.17/outbox.cif.g08.bks.cpg/sg5_31_cif.got.tgz:61196.got - 2010.06.03 18:56:24.
