data_PCOD9130822
_publ_section_title
;
Structure prediction by ZEFSAII (Michael W. Deem and Ramdas Pophale) SiO2 
 PCOD9130822
Probable space group: P M
;
_chemical_formula_sum "Si O2"
_cell_formula_units_Z 16
_cell_length_a 12.022519
_cell_length_b 7.554463
_cell_length_c 11.902892
_cell_angle_alpha 90.000000
_cell_angle_beta 144.199168
_cell_angle_gamma 90.000000
_cell_volume 632.389647
_symmetry_space_group_name_H-M "P M"
_symmetry_group_IT_number 6
_symmetry_cell_setting 'monoclinic'
loop_
_space_group_symop_operation_xyz
x,y,z
x,-y,z
loop_
_atom_site_type_symbol
_atom_site_label
_atom_site_fract_x
_atom_site_fract_y
_atom_site_fract_z
Si Si1 0.968540 0.782502 0.185810
Si Si2 0.046957 0.204104 0.013505
Si Si3 0.620608 0.798728 0.340370
Si Si4 0.399710 0.703076 0.619595
Si Si5 0.466915 0.709850 0.440833
Si Si6 0.202388 0.293717 0.661139
Si Si7 0.188448 0.203819 0.904679
Si Si8 0.795778 0.197866 0.261603
O O1 0.812403 0.724423 0.149845
O O2 0.938373 0.721146 0.032887
O O3 0.177638 0.716426 0.395600
O O4 0.971925 0.000000 0.189515
O O5 0.267483 0.205759 0.237269
O O6 0.988904 0.000000 0.952153
O O7 0.058516 0.283758 0.897743
O O8 0.621200 0.733376 0.468862
O O9 0.713386 0.710756 0.306054
O O10 0.693361 0.000000 0.403476
O O11 0.399694 0.797282 0.127380
O O12 0.461515 0.500000 0.679910
O O13 0.508951 0.780461 0.600835
O O14 0.378444 0.774038 0.729346
O O15 0.431179 0.500000 0.419994
O O16 0.174943 0.500000 0.608445
O O17 0.209657 0.286983 0.800559
O O18 0.017579 0.187148 0.474250
O O19 0.130506 0.000000 0.839381
O O20 0.709600 0.000000 0.183547
#
# Coordination Sequence:
#
# PCOD9130822 Si02
#       8
#     2   2   2   2   2   2   2   2
#     4   8  13  23  42  65  84 107 141 178 216 257
#     4   8  14  25  41  62  87 112 141 180 220 255
#     4   9  18  31  46  66  92 118 144 179 221 261
#     4   8  15  26  39  59  86 112 140 179 220 252
#     4   9  15  24  41  63  85 111 144 181 219 257
#     4  10  19  30  45  66  91 118 148 181 217 259
#     4   9  17  29  44  63  89 120 149 179 217 258
#     4   9  17  30  48  68  90 116 145 179 220 263
#
# _framework density 25.300856
#
# number of rings (size 3 to 8) (size 9 to 14) (size 15 to 20)
#    0.000    3.250    0.000    1.500    0.000    3.500 
#    0.000    0.000    0.000    1.500    0.000    3.500 
#    0.000    0.000    0.000    0.000    0.000    0.000 
#
# Total GULP energy -89095.731750 kJ/mol
# GULP energy per Si atom -5568.483234 kJ/mol
# Density = 2.524327 g / cm^3
# Si number density = 25.300856 Si / 1000 Ang^3
#
#
#
# Elastic Constant Matrix: (Units=GPa)
#
#
# Indices 1 2 3 4 5 6 
#
# 1 257.5407 14.9026 51.6695 0.0000 -90.9713 0.0000
# 2 14.9026 81.9653 -0.9759 0.0000 -9.6701 0.0000
# 3 51.6695 -0.9759 59.9218 0.0000 -10.0573 0.0000
# 4 0.0000 0.0000 0.0000 1.1453 0.0000 -11.1778
# 5 -90.9713 -9.6701 -10.0573 0.0000 63.9086 0.0000
# 6 0.0000 0.0000 0.0000 -11.1778 0.0000 15.9585
#
#
#
# Elastic Compliance Matrix: (Units=1/GPa)
#
#
# Indices 1 2 3 4 5 6 
#
# 1 0.009612 -0.000327 -0.006168 0.000000 0.012662 0.000000
# 2 -0.000327 0.012450 0.000743 0.000000 0.001535 0.000000
# 3 -0.006168 0.000743 0.021122 0.000000 -0.005344 0.000000
# 4 0.000000 0.000000 0.000000 -0.149612 0.000000 -0.104793
# 5 0.012662 0.001535 -0.005344 0.000000 0.033062 0.000000
# 6 0.000000 0.000000 0.000000 -0.104793 0.000000 -0.010738
#
#
# Mechanical properties :
#
#
# Convention : Reuss Voigt Hill
#
# Bulk Modulus (GPa) = 31.56768 58.95781 45.26274
# Shear Modulus (GPa) = -80.59643 38.45793 -21.06925
#
# Velocity S-wave (km/s) = -5.65017 3.90298 -2.88887
# Velocity P-wave (km/s) = 5.48287 6.60789 2.60792
#
# Compressibility (1/GPa) = 0.03167797
#
# Stress axis : x y z
#
# Youngs Moduli (GPa) = 104.03714 80.32324 47.34309
#
# Poissons Ratio (x) = 0.02628 0.29203
# Poissons Ratio (y) = 0.03404 -0.03515
# Poissons Ratio (z) = 0.64174 -0.05964
#
# Static dielectric constant tensor:
#      x y z
#    x 2.152320 0.000000 -0.077560 
#    y 0.000000 1.998810 0.000000 
#    z -0.077560 0.000000 2.041150 
# 
# From -- ./inp_files/3559.got.cif
#   From: 2010.05.17/outbox.cif.g08.bks.cpg/sg6_2_cif.got.tgz:3559.got - 2010.06.03 19:42:10.
