data_PCOD9130452
_publ_section_title
;
Structure prediction by ZEFSAII (Michael W. Deem and Ramdas Pophale) SiO2 
 PCOD9130452
Probable space group: C 2
;
_chemical_formula_sum "Si O2"
_cell_formula_units_Z 14
_cell_length_a 8.158588
_cell_length_b 5.250954
_cell_length_c 12.473487
_cell_angle_alpha 90.000000
_cell_angle_beta 106.459153
_cell_angle_gamma 90.000000
_cell_volume 512.471421
_symmetry_space_group_name_H-M "C 2"
_symmetry_group_IT_number 5
_symmetry_cell_setting 'monoclinic'
loop_
_space_group_symop_operation_xyz
x,y,z
-x,y,-z
1/2+x,1/2+y,z
1/2-x,1/2+y,-z
loop_
_atom_site_type_symbol
_atom_site_label
_atom_site_fract_x
_atom_site_fract_y
_atom_site_fract_z
Si Si1 0.441847 0.575200 0.111795
Si Si2 0.000000 0.344320 0.500000
Si Si3 0.664768 0.335450 0.586071
Si Si4 0.135376 0.574929 0.190677
O O1 0.240687 0.558245 0.098311
O O2 0.541923 0.341854 0.185554
O O3 0.503299 0.844143 0.168550
O O4 0.500000 0.561261 0.000000
O O5 0.179108 0.302493 0.464228
O O6 0.087427 0.561726 0.600745
O O7 0.500000 0.480107 0.500000
O O8 0.724074 0.510834 0.693726
#
# Coordination Sequence:
#
# PCOD9130452 Si02
#       4
#     4   2   4   4
#     4  12  26  45  69  99 133 173 226 277 330 390
#     4   6  14  28  56  78 132 148 214 240 320 352
#     4   8  16  34  60  91 129 164 214 258 322 386
#     4  12  24  44  71  98 134 177 218 272 336 392
#
# _framework density 27.318597
#
# number of rings (size 3 to 8) (size 9 to 14) (size 15 to 20)
#    1.714    0.000    0.000    6.000    0.000    0.000 
#    0.000    2.857    0.000    0.000    0.000    0.000 
#    0.000    0.000    0.000    0.000    0.000    0.000 
#
# Total GULP energy -39210.238215 kJ/mol
# GULP energy per Si atom -5601.462602 kJ/mol
# Density = 2.725642 g / cm^3
# Si number density = 27.318597 Si / 1000 Ang^3
#
#
#
# Elastic Constant Matrix: (Units=GPa)
#
#
# Indices 1 2 3 4 5 6 
#
# 1 187.7111 86.8340 3.2049 0.0000 -26.6972 0.0000
# 2 86.8340 132.6946 26.9412 0.0000 -0.4529 0.0000
# 3 3.2049 26.9412 70.5271 0.0000 -0.8251 0.0000
# 4 0.0000 0.0000 0.0000 15.2986 0.0000 -28.8000
# 5 -26.6972 -0.4529 -0.8251 0.0000 45.9368 0.0000
# 6 0.0000 0.0000 0.0000 -28.8000 0.0000 -2.4567
#
#
#
# Elastic Compliance Matrix: (Units=1/GPa)
#
#
# Indices 1 2 3 4 5 6 
#
# 1 0.008903 -0.006221 0.002032 0.000000 0.005149 0.000000
# 2 -0.006221 0.012517 -0.004540 0.000000 -0.003574 0.000000
# 3 0.002032 -0.004540 0.015838 0.000000 0.001421 0.000000
# 4 0.000000 0.000000 0.000000 0.002834 0.000000 -0.033217
# 5 0.005149 -0.003574 0.001421 0.000000 0.024752 0.000000
# 6 0.000000 0.000000 0.000000 -0.033217 0.000000 -0.017645
#
#
# Mechanical properties :
#
#
# Convention : Reuss Voigt Hill
#
# Bulk Modulus (GPa) = 50.50891 69.43255 59.97073
# Shear Modulus (GPa) = 70.17015 30.01923 50.09469
#
# Velocity S-wave (km/s) = 5.07362 3.31850 4.28684
# Velocity P-wave (km/s) = 7.26988 6.33674 6.81929
#
# Compressibility (1/GPa) = 0.01979849
#
# Stress axis : x y z
#
# Youngs Moduli (GPa) = 112.32547 79.89388 63.14066
#
# Poissons Ratio (x) = 0.49701 -0.12830
# Poissons Ratio (y) = 0.69876 0.28669
# Poissons Ratio (z) = -0.22825 0.36275
#
# Static dielectric constant tensor:
#      x y z
#    x 2.079840 0.000000 0.049440 
#    y 0.000000 2.288160 0.000000 
#    z 0.049440 0.000000 2.254850 
# 
# From -- ./inp_files/34483.got.cif
#   From: 2010.05.17/outbox.cif.g08.bks.cpg/sg5_18_cif.got.tgz:34483.got - 2010.06.03 18:56:24.
