data_PCOD9130676
_publ_section_title
;
Structure prediction by ZEFSAII (Michael W. Deem and Ramdas Pophale) SiO2 
 PCOD9130676
Probable space group: C 2
;
_chemical_formula_sum "Si O2"
_cell_formula_units_Z 16
_cell_length_a 30.000000
_cell_length_b 12.000000
_cell_length_c 9.000000
_cell_angle_alpha 90.000000
_cell_angle_beta 150.000000
_cell_angle_gamma 90.000000
_cell_volume 1620.000000
_symmetry_space_group_name_H-M "C 2"
_symmetry_group_IT_number 5
_symmetry_cell_setting 'monoclinic'
loop_
_space_group_symop_operation_xyz
x,y,z
-x,y,-z
1/2+x,1/2+y,z
1/2-x,1/2+y,-z
loop_
_atom_site_type_symbol
_atom_site_label
_atom_site_fract_x
_atom_site_fract_y
_atom_site_fract_z
Si Si1 0.665914 0.830360 0.071073
Si Si2 0.680785 0.409844 0.248127
Si Si3 0.395625 0.577007 0.738042
Si Si4 0.225345 0.539680 0.052553
Si Si5 0.913240 0.577771 0.846641
Si Si6 0.258536 0.600402 0.805277
Si Si7 0.420299 0.820655 0.891014
Si Si8 0.592369 0.191103 0.854603
O O1 0.740133 0.863246 0.413998
O O2 0.679301 0.709488 0.033937
O O3 0.680152 0.925163 0.985512
O O4 0.576877 0.827154 0.919198
O O5 0.621407 0.486921 0.183514
O O6 0.707443 0.495586 0.193325
O O7 0.630226 0.306038 0.029707
O O8 0.325895 0.547079 0.407154
O O9 0.500000 0.573398 0.000000
O O10 0.370563 0.702960 0.718889
O O11 0.233832 0.560803 0.900609
O O12 0.165254 0.634953 0.956812
O O13 0.831399 0.640708 0.536332
O O14 0.891427 0.446410 0.768935
O O15 0.922196 0.611311 0.043957
O O16 0.000000 0.600888 0.000000
O O17 0.500000 0.808571 0.000000
O O18 0.500000 0.205185 0.500000
#
# Coordination Sequence:
#
# PCOD9130676 Si02
#       8
#     4   4   4   4   4   4   4   4
#     4  11  21  44  69  96 129 178 231 275 338 400
#     4  11  23  40  66  94 129 179 225 270 332 413
#     4  10  22  43  69  94 133 176 228 278 337 405
#     4  11  26  42  64 101 136 175 228 279 336 402
#     4  11  22  40  65  97 129 176 227 269 341 405
#     4  12  24  41  69  95 136 181 222 279 342 403
#     4  10  19  36  70  94 122 170 226 276 335 399
#     4  12  25  44  65  96 140 174 222 283 332 401
#
# _framework density 9.8765429999999999
#
# number of rings (size 3 to 8) (size 9 to 14) (size 15 to 20)
#    0.000    1.000    5.000    2.250    1.750    1.500 
#    2.250    1.250    0.000    0.000    0.000    0.000 
#    0.000    0.000    0.000    0.000    0.000    0.000 
#
# Total GULP energy -89165.000408 kJ/mol
# GULP energy per Si atom -5572.812526 kJ/mol
# Density = 0.985406 g / cm^3
# Si number density = 9.876543 Si / 1000 Ang^3
#
#
#
# Elastic Constant Matrix: (Units=GPa)
#
#
# Indices 1 2 3 4 5 6 
#
# 1 170.2843 47.9860 34.6555 0.0000 -13.3132 0.0000
# 2 47.9860 127.1592 14.6593 0.0000 -4.0429 0.0000
# 3 34.6555 14.6593 67.0012 0.0000 -5.1971 0.0000
# 4 0.0000 0.0000 0.0000 21.3485 0.0000 -4.7084
# 5 -13.3132 -4.0429 -5.1971 0.0000 34.3718 0.0000
# 6 0.0000 0.0000 0.0000 -4.7084 0.0000 34.7903
#
#
#
# Elastic Compliance Matrix: (Units=1/GPa)
#
#
# Indices 1 2 3 4 5 6 
#
# 1 0.007330 -0.002340 -0.003117 0.000000 0.002093 0.000000
# 2 -0.002340 0.008831 -0.000720 0.000000 0.000023 0.000000
# 3 -0.003117 -0.000720 0.016792 0.000000 0.001247 0.000000
# 4 0.000000 0.000000 0.000000 0.048283 0.000000 0.006534
# 5 0.002093 0.000023 0.001247 0.000000 0.030095 0.000000
# 6 0.000000 0.000000 0.000000 0.006534 0.000000 0.029628
#
#
# Mechanical properties :
#
#
# Convention : Reuss Voigt Hill
#
# Bulk Modulus (GPa) = 48.54761 62.11625 55.33193
# Shear Modulus (GPa) = 31.21504 35.91170 33.56337
#
# Velocity S-wave (km/s) = 3.97956 4.26846 4.12654
# Velocity P-wave (km/s) = 6.76361 7.47045 7.12580
#
# Compressibility (1/GPa) = 0.02059834
#
# Stress axis : x y z
#
# Youngs Moduli (GPa) = 136.42628 113.23706 59.55372
#
# Poissons Ratio (x) = 0.26500 0.18563
# Poissons Ratio (y) = 0.31927 0.04287
# Poissons Ratio (z) = 0.42524 0.08152
#
# Static dielectric constant tensor:
#      x y z
#    x 1.725570 0.000000 0.054920 
#    y 0.000000 1.696080 0.000000 
#    z 0.054920 0.000000 1.725550 
# 
# From -- ./inp_files/32645.got.cif
#   From: 2010.05.17/outbox.ucp.g08.bks.cvg/sg5_17_cif.got.tgz:32645.got - 2010.06.11 12:53:14.
