data_PCOD9130186
_publ_section_title
;
Structure prediction by ZEFSAII (Michael W. Deem and Ramdas Pophale) SiO2 
 PCOD9130186
Probable space group: C 2
;
_chemical_formula_sum "Si O2"
_cell_formula_units_Z 16
_cell_length_a 5.659892
_cell_length_b 27.311813
_cell_length_c 5.150018
_cell_angle_alpha 90.000000
_cell_angle_beta 55.778229
_cell_angle_gamma 90.000000
_cell_volume 658.268461
_symmetry_space_group_name_H-M "C 2"
_symmetry_group_IT_number 5
_symmetry_cell_setting 'monoclinic'
loop_
_space_group_symop_operation_xyz
x,y,z
-x,y,-z
1/2+x,1/2+y,z
1/2-x,1/2+y,-z
loop_
_atom_site_type_symbol
_atom_site_label
_atom_site_fract_x
_atom_site_fract_y
_atom_site_fract_z
Si Si1 0.500000 0.750000 0.500000
Si Si2 0.000000 0.425747 0.500000
Si Si3 0.312287 0.835512 0.338462
Si Si4 0.500000 0.682375 0.000000
Si Si5 0.500000 0.557837 0.500000
Si Si6 0.000000 0.994891 0.000000
Si Si7 0.500000 0.115424 0.500000
O O1 0.262727 0.791353 0.576573
O O2 0.536644 0.714981 0.233676
O O3 0.989087 0.384570 0.284951
O O4 0.739843 0.460752 0.725542
O O5 0.000000 0.855677 0.500000
O O6 0.500000 0.811020 0.000000
O O7 0.218205 0.649170 0.203515
O O8 0.397310 0.527276 0.817674
O O9 0.222651 0.586131 0.550377
#
# Coordination Sequence:
#
# PCOD9130186 Si02
#       7
#     2   2   4   2   2   2   2
#     4  11  27  50  75 120 154 210 257 320 385 463
#     4  11  27  46  75 120 154 210 257 320 385 463
#     4  11  25  47  76 108 168 201 255 314 387 458
#     4  12  29  50  86 114 158 204 274 322 395 490
#     4  12  31  58  83 119 162 211 265 344 421 476
#     4  12  29  50  86 114 158 204 274 322 395 490
#     4  12  31  58  83 119 162 211 265 344 421 476
#
# _framework density 24.306194999999999
#
# number of rings (size 3 to 8) (size 9 to 14) (size 15 to 20)
#    0.000    0.500    1.250    3.750    7.000   18.000 
#    0.000    0.000    0.000    0.000    0.000    0.000 
#    0.000    0.000    0.000    0.000    0.000    0.000 
#
# Total GULP energy -44625.572505 kJ/mol
# GULP energy per Si atom -5578.196563 kJ/mol
# Density = 2.425087 g / cm^3
# Si number density = 24.306195 Si / 1000 Ang^3
#
#
#
# Elastic Constant Matrix: (Units=GPa)
#
#
# Indices 1 2 3 4 5 6 
#
# 1 105.6023 82.1541 55.0730 0.0000 18.1230 0.0000
# 2 82.1541 173.4699 69.9253 0.0000 11.8064 0.0000
# 3 55.0730 69.9253 128.5465 0.0000 13.2151 0.0000
# 4 0.0000 0.0000 0.0000 42.0666 0.0000 -13.2938
# 5 18.1230 11.8064 13.2151 0.0000 57.1613 0.0000
# 6 0.0000 0.0000 0.0000 -13.2938 0.0000 11.7173
#
#
#
# Elastic Compliance Matrix: (Units=1/GPa)
#
#
# Indices 1 2 3 4 5 6 
#
# 1 0.016711 -0.006331 -0.003386 0.000000 -0.003208 0.000000
# 2 -0.006331 0.009803 -0.002682 0.000000 0.000603 0.000000
# 3 -0.003386 -0.002682 0.010778 0.000000 -0.000864 0.000000
# 4 0.000000 0.000000 0.000000 0.037059 0.000000 0.042045
# 5 -0.003208 0.000603 -0.000864 0.000000 0.018587 0.000000
# 6 0.000000 0.000000 0.000000 0.042045 0.000000 0.133046
#
#
# Mechanical properties :
#
#
# Convention : Reuss Voigt Hill
#
# Bulk Modulus (GPa) = 80.03922 91.32481 85.68202
# Shear Modulus (GPa) = 19.61201 35.55346 27.58274
#
# Velocity S-wave (km/s) = 2.84363 3.82872 3.37234
# Velocity P-wave (km/s) = 6.61685 7.56305 7.10571
#
# Compressibility (1/GPa) = 0.01249387
#
# Stress axis : x y z
#
# Youngs Moduli (GPa) = 59.84052 102.00728 92.78401
#
# Poissons Ratio (x) = 0.64582 0.31415
# Poissons Ratio (y) = 0.37886 0.24886
# Poissons Ratio (z) = 0.20261 0.27360
#
# Static dielectric constant tensor:
#      x y z
#    x 2.227870 0.000000 0.122400 
#    y 0.000000 1.883030 0.000000 
#    z 0.122400 0.000000 1.759910 
# 
# From -- ./inp_files/821.got.cif
#   From: 2010.05.17/outbox.cif.g08.bks.cpg/sg5_1_cif.got.tgz:821.got - 2010.06.03 18:56:24.
