data_PCOD9130722
_publ_section_title
;
Structure prediction by ZEFSAII (Michael W. Deem and Ramdas Pophale) SiO2 
 PCOD9130722
Probable space group: C 2
;
_chemical_formula_sum "Si O2"
_cell_formula_units_Z 14
_cell_length_a 27.000000
_cell_length_b 9.000000
_cell_length_c 9.000000
_cell_angle_alpha 90.000000
_cell_angle_beta 40.000000
_cell_angle_gamma 90.000000
_cell_volume 1405.776502
_symmetry_space_group_name_H-M "C 2"
_symmetry_group_IT_number 5
_symmetry_cell_setting 'monoclinic'
loop_
_space_group_symop_operation_xyz
x,y,z
-x,y,-z
1/2+x,1/2+y,z
1/2-x,1/2+y,-z
loop_
_atom_site_type_symbol
_atom_site_label
_atom_site_fract_x
_atom_site_fract_y
_atom_site_fract_z
Si Si1 0.084932 0.045590 0.364681
Si Si2 0.688298 0.915640 0.467363
Si Si3 0.888168 0.271797 0.949450
Si Si4 0.262775 0.655233 0.463538
Si Si5 0.725628 0.007725 0.846890
Si Si6 0.781929 0.822466 0.975050
Si Si7 0.043809 0.204614 0.750580
O O1 0.082554 0.088085 0.545225
O O2 0.000000 0.016835 0.500000
O O3 0.136778 0.906181 0.199858
O O4 0.113692 0.189232 0.205335
O O5 0.745247 0.816898 0.441939
O O6 0.606936 0.828712 0.652583
O O7 0.695325 0.078853 0.521998
O O8 0.722816 0.904079 0.223480
O O9 0.834810 0.176815 0.186547
O O10 0.855497 0.438408 0.017714
O O11 0.974863 0.272196 0.810175
O O12 0.270888 0.557757 0.595454
O O13 0.759691 0.868132 0.858853
O O14 0.719192 0.151348 0.969445
O O15 0.000000 0.146827 0.000000
#
# Coordination Sequence:
#
# PCOD9130722 Si02
#       7
#     4   4   4   4   4   4   4
#     4  10  22  40  63  91 131 179 215 270 335 399
#     4  11  22  37  63  95 125 173 214 275 317 383
#     4  11  21  40  62  93 132 176 218 265 334 397
#     4  11  20  37  61  95 129 162 218 266 325 384
#     4  11  23  38  64  96 125 174 214 279 327 383
#     4  11  23  39  63  92 132 161 231 266 328 391
#     4  11  21  38  65  97 131 174 223 267 324 405
#
# _framework density 9.9589090000000002
#
# number of rings (size 3 to 8) (size 9 to 14) (size 15 to 20)
#    0.000    1.143    4.286    3.429    0.000    0.000 
#    0.000    3.571    0.000    0.000    3.714    0.000 
#    0.000    0.000    0.000    0.000    0.000    0.000 
#
# Total GULP energy -78043.191794 kJ/mol
# GULP energy per Si atom -5574.513700 kJ/mol
# Density = 0.993624 g / cm^3
# Si number density = 9.958909 Si / 1000 Ang^3
#
#
#
# Elastic Constant Matrix: (Units=GPa)
#
#
# Indices 1 2 3 4 5 6 
#
# 1 68.3551 40.1352 24.6651 0.0000 4.6850 0.0000
# 2 40.1352 76.7161 28.6019 0.0000 3.9313 0.0000
# 3 24.6651 28.6019 117.1970 0.0000 21.5320 0.0000
# 4 0.0000 0.0000 0.0000 36.2316 0.0000 10.0776
# 5 4.6850 3.9313 21.5320 0.0000 36.6933 0.0000
# 6 0.0000 0.0000 0.0000 10.0776 0.0000 37.8729
#
#
#
# Elastic Compliance Matrix: (Units=1/GPa)
#
#
# Indices 1 2 3 4 5 6 
#
# 1 0.021526 -0.010541 -0.001861 0.000000 -0.000527 0.000000
# 2 -0.010541 0.019513 -0.002698 0.000000 0.000838 0.000000
# 3 -0.001861 -0.002698 0.010632 0.000000 -0.005712 0.000000
# 4 0.000000 0.000000 0.000000 0.029806 0.000000 -0.007931
# 5 -0.000527 0.000838 -0.005712 0.000000 0.030583 0.000000
# 6 0.000000 0.000000 0.000000 -0.007931 0.000000 0.028514
#
#
# Mechanical properties :
#
#
# Convention : Reuss Voigt Hill
#
# Bulk Modulus (GPa) = 46.57271 49.89695 48.23483
# Shear Modulus (GPa) = 28.10081 33.41731 30.75906
#
# Velocity S-wave (km/s) = 3.76019 4.10049 3.93402
# Velocity P-wave (km/s) = 6.50271 6.89380 6.70111
#
# Compressibility (1/GPa) = 0.02147180
#
# Stress axis : x y z
#
# Youngs Moduli (GPa) = 46.45464 51.24914 94.05409
#
# Poissons Ratio (x) = 0.54022 0.17504
# Poissons Ratio (y) = 0.48968 0.25372
# Poissons Ratio (z) = 0.08645 0.13825
#
# Static dielectric constant tensor:
#      x y z
#    x 1.802940 0.000000 -0.000020 
#    y 0.000000 1.710690 0.000000 
#    z -0.000020 0.000000 1.717220 
# 
# From -- ./inp_files/31686.got.cif
#   From: 2010.05.17/outbox.ucp.g08.bks.cvg/sg5_16_cif.got.tgz:31686.got - 2010.06.11 12:53:14.
