data_PCOD9130670
_publ_section_title
;
Structure prediction by ZEFSAII (Michael W. Deem and Ramdas Pophale) SiO2 
 PCOD9130670
Probable space group: C 2
;
_chemical_formula_sum "Si O2"
_cell_formula_units_Z 16
_cell_length_a 15.000000
_cell_length_b 24.000000
_cell_length_c 9.000000
_cell_angle_alpha 90.000000
_cell_angle_beta 150.000000
_cell_angle_gamma 90.000000
_cell_volume 1620.000000
_symmetry_space_group_name_H-M "C 2"
_symmetry_group_IT_number 5
_symmetry_cell_setting 'monoclinic'
loop_
_space_group_symop_operation_xyz
x,y,z
-x,y,-z
1/2+x,1/2+y,z
1/2-x,1/2+y,-z
loop_
_atom_site_type_symbol
_atom_site_label
_atom_site_fract_x
_atom_site_fract_y
_atom_site_fract_z
Si Si1 0.324838 0.668510 0.161972
Si Si2 0.773064 0.790790 0.010495
Si Si3 0.801083 0.790506 0.392374
Si Si4 0.748662 0.414527 0.076722
Si Si5 0.184385 0.169554 0.209911
Si Si6 0.437976 0.962245 0.639579
Si Si7 0.498505 0.088181 0.317794
Si Si8 0.620246 0.400443 0.326448
O O1 0.500000 0.650068 0.500000
O O2 0.295696 0.733697 0.159282
O O3 0.324453 0.671485 0.981729
O O4 0.172512 0.623732 0.976803
O O5 0.726470 0.800003 0.117721
O O6 0.986306 0.782743 0.316669
O O7 0.723097 0.848189 0.857759
O O8 0.718245 0.731733 0.320963
O O9 0.793062 0.842570 0.491386
O O10 0.831388 0.449931 0.331061
O O11 0.869324 0.432130 0.108883
O O12 0.532306 0.419842 0.774036
O O13 0.338355 0.128569 0.481066
O O14 0.000000 0.146869 0.000000
O O15 0.291341 0.939686 0.544676
O O16 0.478669 0.027237 0.716539
O O17 0.500000 0.081139 0.500000
O O18 0.500000 0.394149 0.000000
#
# Coordination Sequence:
#
# PCOD9130670 Si02
#       8
#     4   4   4   4   4   4   4   4
#     4  10  21  37  63  91 118 162 207 261 309 369
#     4   9  17  33  60  82 122 155 200 248 308 376
#     4   9  17  35  54  83 122 161 192 247 315 377
#     4   9  18  32  52  87 113 149 198 244 302 352
#     4  10  21  37  58  92 119 162 209 248 315 373
#     4  10  19  34  57  86 114 155 204 250 296 365
#     4  10  19  39  63  83 120 165 210 250 297 375
#     4   9  19  33  54  86 122 151 199 257 308 358
#
# _framework density 9.8765429999999999
#
# number of rings (size 3 to 8) (size 9 to 14) (size 15 to 20)
#    0.000    2.500    2.500    0.000    1.750    3.500 
#    4.500    0.625    5.500    1.500    0.000    0.000 
#    0.000    0.000    0.000    0.000    0.000    0.000 
#
# Total GULP energy -89106.911788 kJ/mol
# GULP energy per Si atom -5569.181987 kJ/mol
# Density = 0.985406 g / cm^3
# Si number density = 9.876543 Si / 1000 Ang^3
#
#
#
# Elastic Constant Matrix: (Units=GPa)
#
#
# Indices 1 2 3 4 5 6 
#
# 1 56.7276 47.1506 29.6411 0.0000 40.0766 0.0000
# 2 47.1506 152.5042 69.0837 0.0000 28.8983 0.0000
# 3 29.6411 69.0837 91.4730 0.0000 30.1379 0.0000
# 4 0.0000 0.0000 0.0000 -27.3795 0.0000 -19.3650
# 5 40.0766 28.8983 30.1379 0.0000 29.9409 0.0000
# 6 0.0000 0.0000 0.0000 -19.3650 0.0000 12.0125
#
#
#
# Elastic Compliance Matrix: (Units=1/GPa)
#
#
# Indices 1 2 3 4 5 6 
#
# 1 -0.820494 0.128923 -0.227930 0.000000 1.203245 0.000000
# 2 0.128923 -0.010100 0.029169 0.000000 -0.192179 0.000000
# 3 -0.227930 0.029169 -0.042614 0.000000 0.319831 0.000000
# 4 0.000000 0.000000 0.000000 -0.017066 0.000000 -0.027511
# 5 1.203245 -0.192179 0.319831 0.000000 -1.713620 0.000000
# 6 0.000000 0.000000 0.000000 -0.027511 0.000000 0.038897
#
#
# Mechanical properties :
#
#
# Convention : Reuss Voigt Hill
#
# Bulk Modulus (GPa) = -0.98728 65.82840 32.42056
# Shear Modulus (GPa) = -1.80966 13.23675 5.71355
#
# Velocity S-wave (km/s) = -0.95819 2.59146 1.70257
# Velocity P-wave (km/s) = 1.31342 6.50785 4.50706
#
# Compressibility (1/GPa) = -1.01288472
#
# Stress axis : x y z
#
# Youngs Moduli (GPa) = -1.21878 -99.01285 -23.46627
#
# Poissons Ratio (x) = 12.76500 -5.34868
# Poissons Ratio (y) = 0.15713 0.68449
# Poissons Ratio (z) = -0.27780 2.88813
#
# Static dielectric constant tensor:
#      x y z
#    x 1.766110 0.000000 0.010540 
#    y 0.000000 1.687690 0.000000 
#    z 0.010540 0.000000 1.668540 
# 
# From -- ./inp_files/25657.got.cif
#   From: 2010.05.17/outbox.ucp.g08.bks.cvg/sg5_13_cif.got.tgz:25657.got - 2010.06.11 12:53:14.
