data_PCOD9130298
_publ_section_title
;
Structure prediction by ZEFSAII (Michael W. Deem and Ramdas Pophale) SiO2 
 PCOD9130298
Probable space group: C 2
;
_chemical_formula_sum "Si O2"
_cell_formula_units_Z 24
_cell_length_a 23.234382
_cell_length_b 4.979643
_cell_length_c 7.710812
_cell_angle_alpha 90.000000
_cell_angle_beta 84.712244
_cell_angle_gamma 90.000000
_cell_volume 888.336133
_symmetry_space_group_name_H-M "C 2"
_symmetry_group_IT_number 5
_symmetry_cell_setting 'monoclinic'
loop_
_space_group_symop_operation_xyz
x,y,z
-x,y,-z
1/2+x,1/2+y,z
1/2-x,1/2+y,-z
loop_
_atom_site_type_symbol
_atom_site_label
_atom_site_fract_x
_atom_site_fract_y
_atom_site_fract_z
Si Si1 0.500000 0.122571 0.500000
Si Si2 0.935306 0.365238 0.241113
Si Si3 0.105061 0.994925 0.067274
Si Si4 0.217596 0.690970 0.457941
Si Si5 0.609572 0.524247 0.459971
Si Si6 0.000000 0.764166 0.000000
Si Si7 0.785324 0.635863 0.936787
O O1 0.554790 0.323233 0.491613
O O2 0.495717 0.923221 0.334873
O O3 0.898803 0.285261 0.419871
O O4 0.907997 0.164020 0.103706
O O5 0.948882 0.607749 0.107318
O O6 0.123259 0.095619 0.255398
O O7 0.155421 0.775764 0.017377
O O8 0.037238 0.925839 0.126263
O O9 0.235971 0.433288 0.560881
O O10 0.161015 0.850601 0.528913
O O11 0.208414 0.586128 0.267822
O O12 0.765367 0.356220 0.023585
#
# Coordination Sequence:
#
# PCOD9130298 Si02
#       7
#     2   4   4   4   4   2   4
#     4  12  26  48  74 110 152 200 250 318 384 456
#     4  12  28  44  80 104 156 198 252 316 380 468
#     4  11  28  51  72 112 154 196 260 316 383 461
#     4  11  27  50  81 112 153 204 258 322 387 460
#     4  11  28  51  72 112 154 196 260 316 383 461
#     4  12  26  48  74 110 152 200 250 318 384 456
#     4  11  27  50  81 112 153 204 258 322 387 460
#
# _framework density 27.016798000000001
#
# number of rings (size 3 to 8) (size 9 to 14) (size 15 to 20)
#    0.000    0.667    1.667    3.000   16.333    0.000 
#    0.000    0.000    0.000    0.000    0.000    0.000 
#    0.000    0.000    0.000    0.000    0.000    0.000 
#
# Total GULP energy -66902.603236 kJ/mol
# GULP energy per Si atom -5575.216936 kJ/mol
# Density = 2.695531 g / cm^3
# Si number density = 27.016798 Si / 1000 Ang^3
#
#
#
# Elastic Constant Matrix: (Units=GPa)
#
#
# Indices 1 2 3 4 5 6 
#
# 1 126.9071 22.8333 6.4298 0.0000 16.3339 0.0000
# 2 22.8333 79.3036 10.5201 0.0000 4.3925 0.0000
# 3 6.4298 10.5201 95.3478 0.0000 11.6690 0.0000
# 4 0.0000 0.0000 0.0000 52.8040 0.0000 37.5276
# 5 16.3339 4.3925 11.6690 0.0000 40.7665 0.0000
# 6 0.0000 0.0000 0.0000 37.5276 0.0000 93.6643
#
#
#
# Elastic Compliance Matrix: (Units=1/GPa)
#
#
# Indices 1 2 3 4 5 6 
#
# 1 0.008717 -0.002338 0.000069 0.000000 -0.003260 0.000000
# 2 -0.002338 0.013465 -0.001311 0.000000 -0.000139 0.000000
# 3 0.000069 -0.001311 0.010999 0.000000 -0.003035 0.000000
# 4 0.000000 0.000000 0.000000 0.026477 0.000000 -0.010608
# 5 -0.003260 -0.000139 -0.003035 0.000000 0.026720 0.000000
# 6 0.000000 0.000000 0.000000 -0.010608 0.000000 0.014927
#
#
# Mechanical properties :
#
#
# Convention : Reuss Voigt Hill
#
# Bulk Modulus (GPa) = 38.43136 42.34723 40.38930
# Shear Modulus (GPa) = 42.68462 54.89865 48.79164
#
# Velocity S-wave (km/s) = 3.97914 4.51268 4.25429
# Velocity P-wave (km/s) = 5.94704 6.54682 6.25413
#
# Compressibility (1/GPa) = 0.02602041
#
# Stress axis : x y z
#
# Youngs Moduli (GPa) = 114.72341 74.26885 90.91473
#
# Poissons Ratio (x) = 0.17366 -0.00629
# Poissons Ratio (y) = 0.26826 0.11918
# Poissons Ratio (z) = -0.00794 0.09736
#
# Static dielectric constant tensor:
#      x y z
#    x 2.059910 0.000000 -0.198200 
#    y 0.000000 2.243490 0.000000 
#    z -0.198200 0.000000 1.670800 
# 
# From -- ./inp_files/30314.got.cif
#   From: 2010.05.17/outbox.cif.g08.bks.cpg/sg5_16_cif.got.tgz:30314.got - 2010.06.03 18:56:24.
