data_PCOD9130507
_publ_section_title
;
Structure prediction by ZEFSAII (Michael W. Deem and Ramdas Pophale) SiO2 
 PCOD9130507
Probable space group: C 2
;
_chemical_formula_sum "Si O2"
_cell_formula_units_Z 20
_cell_length_a 16.138057
_cell_length_b 6.967876
_cell_length_c 11.428529
_cell_angle_alpha 90.000000
_cell_angle_beta 35.177938
_cell_angle_gamma 90.000000
_cell_volume 740.377406
_symmetry_space_group_name_H-M "C 2"
_symmetry_group_IT_number 5
_symmetry_cell_setting 'monoclinic'
loop_
_space_group_symop_operation_xyz
x,y,z
-x,y,-z
1/2+x,1/2+y,z
1/2-x,1/2+y,-z
loop_
_atom_site_type_symbol
_atom_site_label
_atom_site_fract_x
_atom_site_fract_y
_atom_site_fract_z
Si Si1 0.126649 0.388100 0.764926
Si Si2 0.196838 0.938122 0.040394
Si Si3 0.669653 0.618146 0.323472
Si Si4 0.504445 0.066531 0.312365
Si Si5 0.773566 0.036454 0.235824
O O1 0.277647 0.474453 0.636155
O O2 0.087378 0.470844 0.685279
O O3 0.141607 0.159212 0.766489
O O4 0.000000 0.450838 0.000000
O O5 0.084609 0.763991 0.182452
O O6 0.288080 0.523298 0.848145
O O7 0.366922 0.914627 0.811915
O O8 0.500000 0.644671 0.500000
O O9 0.609103 0.094713 0.452783
O O10 0.836376 0.076075 0.032770
O O11 0.237259 0.806769 0.751156
#
# Coordination Sequence:
#
# PCOD9130507 Si02
#       5
#     4   4   4   4   4
#     4  12  28  53  80 124 175 223 287 357 434 511
#     4  12  24  54  89 122 170 226 298 353 426 521
#     4  12  27  52  87 119 169 230 288 356 431 516
#     4  12  28  52  87 129 171 233 291 361 437 516
#     4  12  29  50  83 126 171 222 286 353 433 510
#
# _framework density 27.013248999999998
#
# number of rings (size 3 to 8) (size 9 to 14) (size 15 to 20)
#    0.000    0.000    4.000    4.200    2.800    3.200 
#    0.000    0.000    0.000    0.000    0.000    0.000 
#    0.000    0.000    0.000    0.000    0.000    0.000 
#
# Total GULP energy -55890.862139 kJ/mol
# GULP energy per Si atom -5589.086214 kJ/mol
# Density = 2.695177 g / cm^3
# Si number density = 27.013249 Si / 1000 Ang^3
#
#
#
# Elastic Constant Matrix: (Units=GPa)
#
#
# Indices 1 2 3 4 5 6 
#
# 1 158.7297 75.1149 25.9155 -0.0002 -15.6339 -0.0002
# 2 75.1149 167.7700 34.9536 -0.0016 -2.9796 0.0007
# 3 25.9155 34.9536 104.6942 -0.0001 -3.8934 0.0001
# 4 -0.0002 -0.0016 -0.0001 49.1870 0.0001 -9.3982
# 5 -15.6339 -2.9796 -3.8934 0.0001 40.2151 0.0001
# 6 -0.0002 0.0007 0.0001 -9.3982 0.0001 55.2186
#
#
#
# Elastic Compliance Matrix: (Units=1/GPa)
#
#
# Indices 1 2 3 4 5 6 
#
# 1 0.008392 -0.003542 -0.000786 0.000000 0.002924 0.000000
# 2 -0.003542 0.007904 -0.001798 0.000000 -0.000965 0.000000
# 3 -0.000786 -0.001798 0.010368 0.000000 0.000565 0.000000
# 4 0.000000 0.000000 0.000000 0.021014 0.000000 0.003577
# 5 0.002924 -0.000965 0.000565 0.000000 0.025986 0.000000
# 6 0.000000 0.000000 0.000000 0.003577 0.000000 0.018719
#
#
# Mechanical properties :
#
#
# Convention : Reuss Voigt Hill
#
# Bulk Modulus (GPa) = 69.38756 78.12910 73.75833
# Shear Modulus (GPa) = 45.68787 48.60481 47.14634
#
# Velocity S-wave (km/s) = 4.11702 4.24641 4.18222
# Velocity P-wave (km/s) = 6.95284 7.28203 7.11934
#
# Compressibility (1/GPa) = 0.01441181
#
# Stress axis : x y z
#
# Youngs Moduli (GPa) = 119.15479 126.52258 96.45506
#
# Poissons Ratio (x) = 0.44811 0.07583
# Poissons Ratio (y) = 0.42202 0.17342
# Poissons Ratio (z) = 0.09368 0.22748
#
# Static dielectric constant tensor:
#      x y z
#    x 2.142980 0.000000 0.002490 
#    y 0.000000 2.239290 0.000000 
#    z 0.002490 0.000000 2.134500 
# 
# From -- ./inp_files/56454.got.cif
#   From: 2010.05.17/outbox.cif.g08.bks.cpg/sg5_29_cif.got.tgz:56454.got - 2010.06.03 18:56:24.
