data_PCOD9130327
_publ_section_title
;
Structure prediction by ZEFSAII (Michael W. Deem and Ramdas Pophale) SiO2 
 PCOD9130327
Probable space group: C 2
;
_chemical_formula_sum "Si O2"
_cell_formula_units_Z 22
_cell_length_a 23.732047
_cell_length_b 5.203843
_cell_length_c 8.652681
_cell_angle_alpha 90.000000
_cell_angle_beta 68.058118
_cell_angle_gamma 90.000000
_cell_volume 991.182585
_symmetry_space_group_name_H-M "C 2"
_symmetry_group_IT_number 5
_symmetry_cell_setting 'monoclinic'
loop_
_space_group_symop_operation_xyz
x,y,z
-x,y,-z
1/2+x,1/2+y,z
1/2-x,1/2+y,-z
loop_
_atom_site_type_symbol
_atom_site_label
_atom_site_fract_x
_atom_site_fract_y
_atom_site_fract_z
Si Si1 0.383458 0.968490 0.626680
Si Si2 0.405271 0.459413 0.793983
Si Si3 0.211674 0.304555 0.536309
Si Si4 0.886541 0.022915 0.164466
Si Si5 0.000000 0.385669 0.000000
Si Si6 0.529697 0.213867 0.697250
O O1 0.391931 0.739061 0.738860
O O2 0.331175 0.882694 0.562498
O O3 0.374078 0.238773 0.722730
O O4 0.442636 0.032482 0.461465
O O5 0.478872 0.421087 0.702404
O O6 0.381807 0.425870 0.993821
O O7 0.243280 0.570675 0.555300
O O8 0.170895 0.173700 0.711366
O O9 0.942092 0.218576 0.093106
O O10 0.912507 0.825085 0.266476
O O11 0.009317 0.556465 0.139454
#
# Coordination Sequence:
#
# PCOD9130327 Si02
#       6
#     4   4   4   4   2   4
#     4  12  28  45  71 108 150 187 243 299 366 426
#     4  12  26  44  70 116 153 185 224 306 376 427
#     4  12  28  52  78  99 135 201 260 298 343 427
#     4  12  25  44  76 108 148 195 244 287 353 445
#     4  12  20  40  74 110 146 184 242 286 346 434
#     4  12  24  41  71 110 156 197 227 281 364 461
#
# _framework density 22.195710999999999
#
# number of rings (size 3 to 8) (size 9 to 14) (size 15 to 20)
#    0.000    0.000    5.455    4.909    0.000    4.364 
#    0.000    3.636    0.000    2.182    0.000    0.000 
#    0.000    0.000    0.000    0.000    0.000    0.000 
#
# Total GULP energy -61544.421315 kJ/mol
# GULP energy per Si atom -5594.947392 kJ/mol
# Density = 2.214519 g / cm^3
# Si number density = 22.195711 Si / 1000 Ang^3
#
#
#
# Elastic Constant Matrix: (Units=GPa)
#
#
# Indices 1 2 3 4 5 6 
#
# 1 95.3771 32.1914 40.9822 0.0000 6.3739 0.0000
# 2 32.1914 111.1447 25.6921 0.0000 7.9520 0.0000
# 3 40.9822 25.6921 80.7721 0.0000 13.3340 0.0000
# 4 0.0000 0.0000 0.0000 49.0883 0.0000 12.7709
# 5 6.3739 7.9520 13.3340 0.0000 23.7055 0.0000
# 6 0.0000 0.0000 0.0000 12.7709 0.0000 34.5110
#
#
#
# Elastic Compliance Matrix: (Units=1/GPa)
#
#
# Indices 1 2 3 4 5 6 
#
# 1 0.014091 -0.002647 -0.006425 0.000000 0.000713 0.000000
# 2 -0.002647 0.010269 -0.001623 0.000000 -0.001820 0.000000
# 3 -0.006425 -0.001623 0.017397 0.000000 -0.007514 0.000000
# 4 0.000000 0.000000 0.000000 0.022542 0.000000 -0.008342
# 5 0.000713 -0.001820 -0.007514 0.000000 0.046829 0.000000
# 6 0.000000 0.000000 0.000000 -0.008342 0.000000 0.032063
#
#
# Mechanical properties :
#
#
# Convention : Reuss Voigt Hill
#
# Bulk Modulus (GPa) = 49.09894 53.89171 51.49532
# Shear Modulus (GPa) = 29.17628 34.02284 31.59956
#
# Velocity S-wave (km/s) = 3.62954 3.91942 3.77726
# Velocity P-wave (km/s) = 6.30346 6.69443 6.50189
#
# Compressibility (1/GPa) = 0.02036704
#
# Stress axis : x y z
#
# Youngs Moduli (GPa) = 70.96529 97.37712 57.48030
#
# Poissons Ratio (x) = 0.25777 0.36934
# Poissons Ratio (y) = 0.18785 0.09329
# Poissons Ratio (z) = 0.45599 0.15804
#
# Static dielectric constant tensor:
#      x y z
#    x 1.857480 0.000000 0.040410 
#    y 0.000000 1.840840 0.000000 
#    z 0.040410 0.000000 1.804950 
# 
# From -- ./inp_files/28299.got.cif
#   From: 2010.05.17/outbox.cif.g08.bks.cpg/sg5_15_cif.got.tgz:28299.got - 2010.06.03 18:56:24.
