data_PCOD9130570
_publ_section_title
;
Structure prediction by ZEFSAII (Michael W. Deem and Ramdas Pophale) SiO2 
 PCOD9130570
Probable space group: C 2
;
_chemical_formula_sum "Si O2"
_cell_formula_units_Z 14
_cell_length_a 9.837512
_cell_length_b 10.359051
_cell_length_c 8.173172
_cell_angle_alpha 90.000000
_cell_angle_beta 134.707205
_cell_angle_gamma 90.000000
_cell_volume 591.955325
_symmetry_space_group_name_H-M "C 2"
_symmetry_group_IT_number 5
_symmetry_cell_setting 'monoclinic'
loop_
_space_group_symop_operation_xyz
x,y,z
-x,y,-z
1/2+x,1/2+y,z
1/2-x,1/2+y,-z
loop_
_atom_site_type_symbol
_atom_site_label
_atom_site_fract_x
_atom_site_fract_y
_atom_site_fract_z
Si Si1 0.818024 0.219150 0.600604
Si Si2 0.032795 0.937643 0.339664
Si Si3 0.591978 0.940310 0.901701
Si Si4 0.000000 0.597632 0.500000
O O1 0.674686 0.324451 0.392158
O O2 0.695485 0.177134 0.653877
O O3 0.006322 0.298393 0.801449
O O4 0.877947 0.081268 0.580090
O O5 0.000000 0.906313 0.500000
O O6 0.820945 0.941507 0.086567
O O7 0.516415 0.020949 0.683129
O O8 0.500000 0.983408 0.000000
#
# Coordination Sequence:
#
# PCOD9130570 Si02
#       4
#     4   4   4   2
#     4  12  26  49  75 115 153 197 257 309 380 454
#     4  12  27  47  78 109 155 199 250 317 374 449
#     4  12  27  51  76 113 155 197 253 316 375 451
#     4  12  26  50  78 112 154 204 248 312 388 444
#
# _framework density 23.650431000000001
#
# number of rings (size 3 to 8) (size 9 to 14) (size 15 to 20)
#    0.000    0.000    7.143    0.000   10.000    0.000 
#    0.000    0.000    0.000    0.000    0.000    0.000 
#    0.000    0.000    0.000    0.000    0.000    0.000 
#
# Total GULP energy -39059.673414 kJ/mol
# GULP energy per Si atom -5579.953345 kJ/mol
# Density = 2.359660 g / cm^3
# Si number density = 23.650431 Si / 1000 Ang^3
#
#
#
# Elastic Constant Matrix: (Units=GPa)
#
#
# Indices 1 2 3 4 5 6 
#
# 1 81.4261 69.0366 42.6355 0.0000 21.2297 0.0000
# 2 69.0366 174.5762 57.1965 0.0000 13.6071 0.0000
# 3 42.6355 57.1965 135.6005 0.0000 36.4586 0.0000
# 4 0.0000 0.0000 0.0000 27.0351 0.0000 8.3682
# 5 21.2297 13.6071 36.4586 0.0000 54.8490 0.0000
# 6 0.0000 0.0000 0.0000 8.3682 0.0000 63.6011
#
#
#
# Elastic Compliance Matrix: (Units=1/GPa)
#
#
# Indices 1 2 3 4 5 6 
#
# 1 0.020700 -0.007080 -0.002240 0.000000 -0.004766 0.000000
# 2 -0.007080 0.009072 -0.002109 0.000000 0.001892 0.000000
# 3 -0.002240 -0.002109 0.010465 0.000000 -0.005566 0.000000
# 4 0.000000 0.000000 0.000000 0.038559 0.000000 -0.005073
# 5 -0.004766 0.001892 -0.005566 0.000000 0.023307 0.000000
# 6 0.000000 0.000000 0.000000 -0.005073 0.000000 0.016391
#
#
# Mechanical properties :
#
#
# Convention : Reuss Voigt Hill
#
# Bulk Modulus (GPa) = 57.54649 81.03779 69.29214
# Shear Modulus (GPa) = 33.98011 43.94598 38.96305
#
# Velocity S-wave (km/s) = 3.79458 4.31530 4.06329
# Velocity P-wave (km/s) = 6.60177 7.69209 7.16769
#
# Compressibility (1/GPa) = 0.01737725
#
# Stress axis : x y z
#
# Youngs Moduli (GPa) = 48.30956 110.23490 95.55630
#
# Poissons Ratio (x) = 0.78049 0.21409
# Poissons Ratio (y) = 0.34204 0.20151
# Poissons Ratio (z) = 0.10824 0.23247
#
# Static dielectric constant tensor:
#      x y z
#    x 2.379150 0.000000 0.288210 
#    y 0.000000 2.002530 0.000000 
#    z 0.288210 0.000000 2.099430 
# 
# From -- ./inp_files/18149.got.cif
#   From: 2010.05.17/outbox.cif.g08.bks.cpg/sg5_10_cif.got.tgz:18149.got - 2010.06.03 18:56:24.
