data_PCOD9130041
_publ_section_title
;
Structure prediction by ZEFSAII (Michael W. Deem and Ramdas Pophale) SiO2 
 PCOD9130041
Probable space group: C 2
;
_chemical_formula_sum "Si O2"
_cell_formula_units_Z 28
_cell_length_a 8.772521
_cell_length_b 10.519208
_cell_length_c 14.670220
_cell_angle_alpha 90.000000
_cell_angle_beta 64.662222
_cell_angle_gamma 90.000000
_cell_volume 1223.535850
_symmetry_space_group_name_H-M "C 2"
_symmetry_group_IT_number 5
_symmetry_cell_setting 'monoclinic'
loop_
_space_group_symop_operation_xyz
x,y,z
-x,y,-z
1/2+x,1/2+y,z
1/2-x,1/2+y,-z
loop_
_atom_site_type_symbol
_atom_site_label
_atom_site_fract_x
_atom_site_fract_y
_atom_site_fract_z
Si Si1 0.300132 0.353880 0.544296
Si Si2 0.800403 0.565182 0.573292
Si Si3 0.178567 0.234413 0.184284
Si Si4 0.192855 0.989064 0.272418
Si Si5 0.971921 0.429538 0.900315
Si Si6 0.147062 0.080981 0.026180
Si Si7 0.909869 0.931075 0.227414
O O1 0.500000 0.342082 0.500000
O O2 0.258558 0.442989 0.469911
O O3 0.236552 0.207664 0.562856
O O4 0.256014 0.441680 0.642361
O O5 0.729740 0.525683 0.691732
O O6 0.000000 0.567886 0.500000
O O7 0.033763 0.320515 0.175508
O O8 0.240147 0.177368 0.070837
O O9 0.312161 0.317129 0.204836
O O10 0.114315 0.127896 0.271848
O O11 0.362109 0.004058 0.170762
O O12 0.051322 0.894913 0.267125
O O13 0.793922 0.503233 0.938802
O O14 0.000000 0.399147 0.000000
O O15 0.032054 0.994060 0.121161
O O16 0.000000 0.136547 0.000000
#
# Coordination Sequence:
#
# PCOD9130041 Si02
#       7
#     4   4   4   4   4   4   4
#     4  11  26  50  74 106 146 186 238 301 366 432
#     4  11  28  46  75 110 141 188 240 299 366 432
#     4  11  26  44  71 102 142 192 237 300 360 420
#     4  11  27  45  71 106 142 188 240 295 362 433
#     4  12  24  45  67 105 141 188 243 293 359 433
#     4  11  24  46  69 102 145 192 237 299 362 431
#     4  11  24  47  71 102 145 186 238 297 362 423
#
# _framework density 22.884495999999999
#
# number of rings (size 3 to 8) (size 9 to 14) (size 15 to 20)
#    0.000    0.857    5.714    0.429    8.000    2.857 
#    2.571    0.000    0.000    0.000    0.000    0.000 
#    0.000    0.000    0.000    0.000    0.000    0.000 
#
# Total GULP energy -77973.975261 kJ/mol
# GULP energy per Si atom -5569.569661 kJ/mol
# Density = 2.283241 g / cm^3
# Si number density = 22.884496 Si / 1000 Ang^3
#
#
#
# Elastic Constant Matrix: (Units=GPa)
#
#
# Indices 1 2 3 4 5 6 
#
# 1 92.1033 39.8074 31.7444 0.0000 -8.9422 0.0000
# 2 39.8074 119.8389 32.7124 0.0000 4.2755 0.0000
# 3 31.7444 32.7124 103.2664 0.0000 -22.6424 0.0000
# 4 0.0000 0.0000 0.0000 24.0297 0.0000 15.8627
# 5 -8.9422 4.2755 -22.6424 0.0000 32.9876 0.0000
# 6 0.0000 0.0000 0.0000 15.8627 0.0000 36.3861
#
#
#
# Elastic Compliance Matrix: (Units=1/GPa)
#
#
# Indices 1 2 3 4 5 6 
#
# 1 0.013644 -0.003979 -0.002366 0.000000 0.002590 0.000000
# 2 -0.003979 0.010702 -0.003187 0.000000 -0.004654 0.000000
# 3 -0.002366 -0.003187 0.013385 0.000000 0.008959 0.000000
# 4 0.000000 0.000000 0.000000 0.058431 0.000000 -0.025473
# 5 0.002590 -0.004654 0.008959 0.000000 0.037769 0.000000
# 6 0.000000 0.000000 0.000000 -0.025473 0.000000 0.038588
#
#
# Mechanical properties :
#
#
# Convention : Reuss Voigt Hill
#
# Bulk Modulus (GPa) = 53.57020 58.19301 55.88160
# Shear Modulus (GPa) = 25.27730 32.74365 29.01048
#
# Velocity S-wave (km/s) = 3.32710 3.78673 3.56433
# Velocity P-wave (km/s) = 6.18217 6.67857 6.43516
#
# Compressibility (1/GPa) = 0.01866710
#
# Stress axis : x y z
#
# Youngs Moduli (GPa) = 73.29278 93.43792 74.70996
#
# Poissons Ratio (x) = 0.37177 0.17675
# Poissons Ratio (y) = 0.29161 0.23814
# Poissons Ratio (z) = 0.17340 0.29783
#
# Static dielectric constant tensor:
#      x y z
#    x 1.877970 0.000000 0.018710 
#    y 0.000000 1.958740 0.000000 
#    z 0.018710 0.000000 1.934800 
# 
# From -- ./inp_files/50433.got.cif
#   From: 2010.05.17/outbox.cif.g08.bks.cpg/sg5_26_cif.got.tgz:50433.got - 2010.06.03 18:56:24.
