data_PCOD9131906
_publ_section_title
;
Structure prediction by ZEFSAII (Michael W. Deem and Ramdas Pophale) SiO2 
 PCOD9131906
Probable space group: C M
;
_chemical_formula_sum "Si O2"
_cell_formula_units_Z 32
_cell_length_a 14.622334
_cell_length_b 8.428877
_cell_length_c 20.373872
_cell_angle_alpha 90.000000
_cell_angle_beta 134.289441
_cell_angle_gamma 90.000000
_cell_volume 1797.482565
_symmetry_space_group_name_H-M "C M"
_symmetry_group_IT_number 8
_symmetry_cell_setting 'monoclinic'
loop_
_space_group_symop_operation_xyz
x,y,z
x,-y,z
1/2+x,1/2+y,z
1/2+x,1/2-y,z
loop_
_atom_site_type_symbol
_atom_site_label
_atom_site_fract_x
_atom_site_fract_y
_atom_site_fract_z
Si Si1 0.258730 0.308372 0.794320
Si Si2 0.260923 0.691731 0.946306
Si Si3 0.545156 0.193117 0.437143
Si Si4 0.539896 0.808319 0.933996
Si Si5 0.040521 0.692005 0.584959
Si Si6 0.755127 0.309957 0.292199
Si Si7 0.042124 0.689805 0.085969
Si Si8 0.256608 0.309643 0.439920
O O1 0.259263 0.500000 0.793879
O O2 0.237137 0.256867 0.859012
O O3 0.399001 0.250048 0.844252
O O4 0.147357 0.253488 0.689813
O O5 0.261829 0.500000 0.947594
O O6 0.150456 0.746846 0.940204
O O7 0.401777 0.750227 0.035931
O O8 0.571243 0.241550 0.525458
O O9 0.400146 0.242716 0.347971
O O10 0.650791 0.248321 0.438628
O O11 0.546954 0.000000 0.437049
O O12 0.539275 0.000000 0.932972
O O13 0.563287 0.756415 0.021057
O O14 0.037474 0.500000 0.584404
O O15 0.898523 0.751955 0.529316
O O16 0.754095 0.500000 0.292542
O O17 0.651637 0.250121 0.188886
O O18 0.728076 0.250261 0.352239
O O19 0.041716 0.500000 0.086321
O O20 0.255547 0.500000 0.438927
#
# Coordination Sequence:
#
# PCOD9131906 Si02
#       8
#     4   4   4   4   4   4   4   4
#     4   9  18  32  52  74 100 133 169 203 241 292
#     4   9  18  34  52  73 101 134 166 201 246 294
#     4   8  17  33  51  70  98 131 162 197 243 292
#     4   9  19  34  51  72 102 132 164 206 248 287
#     4   9  18  34  51  72 102 135 166 200 244 295
#     4  10  20  36  54  72  98 132 162 198 248 301
#     4  10  20  34  51  74 100 128 164 207 245 288
#     4  10  19  33  52  75  99 127 165 208 245 287
#
# _framework density 17.802676000000002
#
# number of rings (size 3 to 8) (size 9 to 14) (size 15 to 20)
#    0.000    2.750    0.000    1.875    0.000    3.500 
#    0.000    8.750    0.000    0.000    0.000    0.000 
#    0.000    0.000    0.000    0.000    0.000    0.000 
#
# Total GULP energy -89227.510293 kJ/mol
# GULP energy per Si atom -5576.719393 kJ/mol
# Density = 1.776216 g / cm^3
# Si number density = 17.802676 Si / 1000 Ang^3
#
#
#
# Elastic Constant Matrix: (Units=GPa)
#
#
# Indices 1 2 3 4 5 6 
#
# 1 188.4855 22.5736 99.0489 0.0000 19.5280 0.0000
# 2 22.5736 15.2207 22.9143 0.0000 1.8709 0.0000
# 3 99.0489 22.9143 190.3046 0.0000 13.7732 0.0000
# 4 0.0000 0.0000 0.0000 17.6634 0.0000 8.9714
# 5 19.5280 1.8709 13.7732 0.0000 8.2786 0.0000
# 6 0.0000 0.0000 0.0000 8.9714 0.0000 20.8643
#
#
#
# Elastic Compliance Matrix: (Units=1/GPa)
#
#
# Indices 1 2 3 4 5 6 
#
# 1 0.009306 -0.007685 -0.002791 0.000000 -0.015571 0.000000
# 2 -0.007685 0.086633 -0.007192 0.000000 0.010517 0.000000
# 3 -0.002791 -0.007192 0.007935 0.000000 -0.004992 0.000000
# 4 0.000000 0.000000 0.000000 0.072433 0.000000 -0.031145
# 5 -0.015571 0.010517 -0.004992 0.000000 0.163450 0.000000
# 6 0.000000 0.000000 0.000000 -0.031145 0.000000 0.061321
#
#
# Mechanical properties :
#
#
# Convention : Reuss Voigt Hill
#
# Bulk Modulus (GPa) = 14.59091 75.89828 45.24460
# Shear Modulus (GPa) = 10.88705 25.99288 18.43997
#
# Velocity S-wave (km/s) = 2.47562 3.82521 3.22187
# Velocity P-wave (km/s) = 4.04787 7.88893 6.26979
#
# Compressibility (1/GPa) = 0.06853582
#
# Stress axis : x y z
#
# Youngs Moduli (GPa) = 107.45974 11.54291 126.02762
#
# Poissons Ratio (x) = 0.08871 0.35176
# Poissons Ratio (y) = 0.82587 0.90645
# Poissons Ratio (z) = 0.29994 0.08302
#
# Static dielectric constant tensor:
#      x y z
#    x 1.601270 0.000000 -0.009820 
#    y 0.000000 1.608210 0.000000 
#    z -0.009820 0.000000 1.586270 
# 
# From -- ./inp_files/26404.got.cif
#   From: 2010.05.17/outbox.cif.g08.bks.cpg/sg8_14_cif.got.tgz:26404.got - 2010.06.03 19:46:02.
