data_PCOD9131321
_publ_section_title
;
Structure prediction by ZEFSAII (Michael W. Deem and Ramdas Pophale) SiO2 
 PCOD9131321
Probable space group: P C
;
_chemical_formula_sum "Si O2"
_cell_formula_units_Z 12
_cell_length_a 7.270879
_cell_length_b 13.959396
_cell_length_c 4.833380
_cell_angle_alpha 90.000000
_cell_angle_beta 109.598666
_cell_angle_gamma 90.000000
_cell_volume 462.152680
_symmetry_space_group_name_H-M "P C"
_symmetry_group_IT_number 7
_symmetry_cell_setting 'monoclinic'
loop_
_space_group_symop_operation_xyz
x,y,z
x,-y,1/2+z
loop_
_atom_site_type_symbol
_atom_site_label
_atom_site_fract_x
_atom_site_fract_y
_atom_site_fract_z
Si Si1 0.408580 0.937426 0.206430
Si Si2 0.726450 0.170596 0.085695
Si Si3 0.959536 0.766240 0.201698
Si Si4 0.340743 0.225202 0.237109
Si Si5 0.425892 0.562029 0.748026
Si Si6 0.895048 0.438323 0.444370
O O1 0.641815 0.922370 0.384658
O O2 0.347126 0.977303 0.471625
O O3 0.350453 0.158529 0.512486
O O4 0.885956 0.167274 0.410495
O O5 0.535783 0.209121 0.151812
O O6 0.801650 0.236255 0.872408
O O7 0.153755 0.796865 0.455983
O O8 0.983196 0.661456 0.083608
O O9 0.337784 0.337971 0.298729
O O10 0.374420 0.527128 0.417009
O O11 0.661142 0.574298 0.864534
O O12 0.943385 0.528983 0.661295
#
# Coordination Sequence:
#
# PCOD9131321 Si02
#       6
#     2   2   2   2   2   2
#     4  12  25  49  81 108 143 195 240 304 376 436
#     4  12  25  49  73 104 146 187 242 298 367 437
#     4  12  27  43  75 109 141 199 245 293 375 433
#     4  12  28  47  80 105 155 193 241 308 368 430
#     4  10  23  38  69 102 143 196 243 289 357 424
#     4  10  20  38  62  96 144 190 243 304 345 416
#
# _framework density 25.965444999999999
#
# number of rings (size 3 to 8) (size 9 to 14) (size 15 to 20)
#    0.000    0.667    5.000    1.000    9.333    1.333 
#    0.000    5.000    0.000    0.000    0.000    0.000 
#    0.000    0.000    0.000    0.000    0.000    0.000 
#
# Total GULP energy -67178.636651 kJ/mol
# GULP energy per Si atom -5598.219721 kJ/mol
# Density = 2.590635 g / cm^3
# Si number density = 25.965445 Si / 1000 Ang^3
#
#
#
# Elastic Constant Matrix: (Units=GPa)
#
#
# Indices 1 2 3 4 5 6 
#
# 1 82.9525 17.9565 34.1302 0.0000 5.1912 0.0000
# 2 17.9565 118.7628 38.6792 0.0000 7.8834 0.0000
# 3 34.1302 38.6792 183.4137 0.0000 6.1243 0.0000
# 4 0.0000 0.0000 0.0000 54.6665 0.0000 2.4100
# 5 5.1912 7.8834 6.1243 0.0000 48.4885 0.0000
# 6 0.0000 0.0000 0.0000 2.4100 0.0000 19.9391
#
#
#
# Elastic Compliance Matrix: (Units=1/GPa)
#
#
# Indices 1 2 3 4 5 6 
#
# 1 0.013278 -0.001235 -0.002179 0.000000 -0.000946 0.000000
# 2 -0.001235 0.009230 -0.001678 0.000000 -0.001156 0.000000
# 3 -0.002179 -0.001678 0.006221 0.000000 -0.000280 0.000000
# 4 0.000000 0.000000 0.000000 0.018391 0.000000 -0.002223
# 5 -0.000946 -0.001156 -0.000280 0.000000 0.020948 0.000000
# 6 0.000000 0.000000 0.000000 -0.002223 0.000000 0.050421
#
#
# Mechanical properties :
#
#
# Convention : Reuss Voigt Hill
#
# Bulk Modulus (GPa) = 53.92292 62.96232 58.44262
# Shear Modulus (GPa) = 37.07688 44.24302 40.65995
#
# Velocity S-wave (km/s) = 3.78290 4.13233 3.96147
# Velocity P-wave (km/s) = 6.31607 6.86071 6.59402
#
# Compressibility (1/GPa) = 0.01854499
#
# Stress axis : x y z
#
# Youngs Moduli (GPa) = 75.31207 108.34018 160.75117
#
# Poissons Ratio (x) = 0.13383 0.35024
# Poissons Ratio (y) = 0.09303 0.26975
# Poissons Ratio (z) = 0.16409 0.18180
#
# Static dielectric constant tensor:
#      x y z
#    x 2.080120 0.000000 0.042620 
#    y 0.000000 2.041930 0.000000 
#    z 0.042620 0.000000 2.005140 
# 
# From -- ./inp_files/813.got.cif
#   From: 2010.05.17/outbox.cif.g08.bks.cpg/sg7_cif.got.tgz:813.got - 2010.06.03 19:44:50.
