data_PCOD9131830
_publ_section_title
;
Structure prediction by ZEFSAII (Michael W. Deem and Ramdas Pophale) SiO2 
 PCOD9131830
Probable space group: C M
;
_chemical_formula_sum "Si O2"
_cell_formula_units_Z 32
_cell_length_a 25.581138
_cell_length_b 7.590427
_cell_length_c 21.079313
_cell_angle_alpha 90.000000
_cell_angle_beta 156.780502
_cell_angle_gamma 90.000000
_cell_volume 1613.687259
_symmetry_space_group_name_H-M "C M"
_symmetry_group_IT_number 8
_symmetry_cell_setting 'monoclinic'
loop_
_space_group_symop_operation_xyz
x,y,z
x,-y,z
1/2+x,1/2+y,z
1/2+x,1/2-y,z
loop_
_atom_site_type_symbol
_atom_site_label
_atom_site_fract_x
_atom_site_fract_y
_atom_site_fract_z
Si Si1 0.638270 0.286172 0.481190
Si Si2 0.998102 0.708870 0.192580
Si Si3 0.958068 0.795696 0.392462
Si Si4 0.761887 0.212655 0.425735
Si Si5 0.406550 0.791148 0.718861
Si Si6 0.702063 0.704160 0.030359
Si Si7 0.949507 0.783931 0.525652
Si Si8 0.208625 0.215836 0.892372
O O1 0.640402 0.500000 0.484796
O O2 0.548543 0.234414 0.320847
O O3 0.567428 0.220448 0.465880
O O4 0.787751 0.225632 0.631956
O O5 0.990928 0.500000 0.172632
O O6 0.115471 0.781361 0.279328
O O7 0.849255 0.777328 0.021602
O O8 0.815780 0.790182 0.199322
O O9 0.948119 0.720070 0.451916
O O10 0.995879 0.000000 0.443032
O O11 0.855641 0.254950 0.590452
O O12 0.827902 0.274662 0.434427
O O13 0.755200 0.000000 0.415883
O O14 0.416464 0.000000 0.738126
O O15 0.553330 0.717173 0.891263
O O16 0.740273 0.500000 0.069060
O O17 0.698335 0.774445 0.954075
O O18 0.083639 0.730703 0.711315
O O19 0.945274 0.000000 0.520454
O O20 0.207650 0.000000 0.892304
#
# Coordination Sequence:
#
# PCOD9131830 Si02
#       8
#     4   4   4   4   4   4   4   4
#     4   9  18  31  47  72 103 133 164 200 249 300
#     4   9  16  27  48  75  98 124 163 209 249 288
#     4  10  20  34  52  74 104 138 167 202 251 302
#     4   9  16  29  49  74 101 130 166 204 249 297
#     4  10  19  31  49  75 104 131 166 210 252 295
#     4  11  20  33  53  76 102 131 169 213 251 294
#     4   9  17  31  50  72 101 133 165 203 247 298
#     4   9  16  28  48  74  97 122 162 207 244 284
#
# _framework density 19.830362000000001
#
# number of rings (size 3 to 8) (size 9 to 14) (size 15 to 20)
#    0.000    2.500    2.500    0.750    0.000    0.500 
#    0.000    1.875    0.000    6.000    0.000    0.000 
#    0.000    0.000    0.000    0.000    0.000    0.000 
#
# Total GULP energy -89253.243423 kJ/mol
# GULP energy per Si atom -5578.327714 kJ/mol
# Density = 1.978523 g / cm^3
# Si number density = 19.830362 Si / 1000 Ang^3
#
#
#
# Elastic Constant Matrix: (Units=GPa)
#
#
# Indices 1 2 3 4 5 6 
#
# 1 180.1428 -2.2825 83.7164 0.0000 15.1855 0.0000
# 2 -2.2825 43.4205 -5.4343 0.0000 0.4561 0.0000
# 3 83.7164 -5.4343 94.8482 0.0000 12.0565 0.0000
# 4 0.0000 0.0000 0.0000 14.0250 0.0000 -2.1461
# 5 15.1855 0.4561 12.0565 0.0000 32.4539 0.0000
# 6 0.0000 0.0000 0.0000 -2.1461 0.0000 9.7126
#
#
#
# Elastic Compliance Matrix: (Units=1/GPa)
#
#
# Indices 1 2 3 4 5 6 
#
# 1 0.009483 -0.000516 -0.008225 0.000000 -0.001374 0.000000
# 2 -0.000516 0.023248 0.001888 0.000000 -0.000786 0.000000
# 3 -0.008225 0.001888 0.018288 0.000000 -0.002972 0.000000
# 4 0.000000 0.000000 0.000000 0.073796 0.000000 0.016306
# 5 -0.001374 -0.000786 -0.002972 0.000000 0.032571 0.000000
# 6 0.000000 0.000000 0.000000 0.016306 0.000000 0.106562
#
#
# Mechanical properties :
#
#
# Convention : Reuss Voigt Hill
#
# Bulk Modulus (GPa) = 26.80066 52.26786 39.53426
# Shear Modulus (GPa) = 17.23590 27.39911 22.31750
#
# Velocity S-wave (km/s) = 2.95136 3.72112 3.35837
# Velocity P-wave (km/s) = 5.01581 6.69903 5.91757
#
# Compressibility (1/GPa) = 0.03731252
#
# Stress axis : x y z
#
# Youngs Moduli (GPa) = 105.45620 43.01455 54.67935
#
# Poissons Ratio (x) = 0.02221 0.44971
# Poissons Ratio (y) = 0.05446 -0.10322
# Poissons Ratio (z) = 0.86733 -0.08120
#
# Static dielectric constant tensor:
#      x y z
#    x 1.722290 0.000000 0.039240 
#    y 0.000000 1.758270 0.000000 
#    z 0.039240 0.000000 1.663180 
# 
# From -- ./inp_files/31323.got.cif
#   From: 2010.05.17/outbox.cif.g08.bks.cpg/sg8_16_cif.got.tgz:31323.got - 2010.06.03 19:46:02.
