data_PCOD9131650
_publ_section_title
;
Structure prediction by ZEFSAII (Michael W. Deem and Ramdas Pophale) SiO2 
 PCOD9131650
Probable space group: C M
;
_chemical_formula_sum "Si O2"
_cell_formula_units_Z 26
_cell_length_a 14.609971
_cell_length_b 7.291468
_cell_length_c 9.499008
_cell_angle_alpha 90.000000
_cell_angle_beta 108.179262
_cell_angle_gamma 90.000000
_cell_volume 961.402086
_symmetry_space_group_name_H-M "C M"
_symmetry_group_IT_number 8
_symmetry_cell_setting 'monoclinic'
loop_
_space_group_symop_operation_xyz
x,y,z
x,-y,z
1/2+x,1/2+y,z
1/2+x,1/2-y,z
loop_
_atom_site_type_symbol
_atom_site_label
_atom_site_fract_x
_atom_site_fract_y
_atom_site_fract_z
Si Si1 0.926230 0.208759 0.550000
Si Si2 0.817814 0.279393 0.233434
Si Si3 0.201918 0.223961 0.760175
Si Si4 0.529166 0.000000 0.756839
Si Si5 0.897837 0.714343 0.991218
Si Si6 0.106899 0.219759 0.121060
Si Si7 0.104522 0.779920 0.438893
O O1 0.835949 0.214732 0.400620
O O2 0.943020 0.343241 0.685969
O O3 0.009378 0.276504 0.478978
O O4 0.944350 0.000000 0.599348
O O5 0.820885 0.500000 0.246130
O O6 0.891584 0.212613 0.149291
O O7 0.712996 0.227242 0.123189
O O8 0.114840 0.337921 0.788852
O O9 0.190041 0.264065 0.587611
O O10 0.189081 0.000000 0.773316
O O11 0.306885 0.285889 0.862222
O O12 0.876878 0.500000 0.991771
O O13 0.009140 0.719693 0.999748
O O14 0.105198 0.289337 0.281452
O O15 0.103578 0.000000 0.116555
O O16 0.102217 0.000000 0.426354
#
# Coordination Sequence:
#
# PCOD9131650 Si02
#       7
#     4   4   4   2   4   4   4
#     4  10  18  31  56  86 113 145 190 243 290 344
#     4  10  20  35  56  87 122 152 194 241 295 349
#     4   9  19  34  56  85 115 153 197 239 290 351
#     4  10  18  32  58  84 112 148 194 240 292 352
#     4  10  21  36  57  82 119 158 195 239 292 350
#     4  10  20  34  59  85 112 153 197 243 291 347
#     4   8  15  31  54  81 107 144 187 237 288 334
#
# _framework density 27.043838000000001
#
# number of rings (size 3 to 8) (size 9 to 14) (size 15 to 20)
#    0.000    2.462    2.308    1.385    1.077    0.615 
#    0.000    0.000    6.769    0.000    0.000    0.000 
#    0.000    0.000    0.000    0.000    0.000    0.000 
#
# Total GULP energy -72450.110275 kJ/mol
# GULP energy per Si atom -5573.085406 kJ/mol
# Density = 2.698228 g / cm^3
# Si number density = 27.043838 Si / 1000 Ang^3
#
#
#
# Elastic Constant Matrix: (Units=GPa)
#
#
# Indices 1 2 3 4 5 6 
#
# 1 91.5996 -0.8625 44.7972 0.0000 17.7707 0.0000
# 2 -0.8625 160.4697 13.4007 0.0000 11.1617 0.0000
# 3 44.7972 13.4007 162.8601 0.0000 37.8682 0.0000
# 4 0.0000 0.0000 0.0000 -9.8040 0.0000 31.5732
# 5 17.7707 11.1617 37.8682 0.0000 54.2750 0.0000
# 6 0.0000 0.0000 0.0000 31.5732 0.0000 2.7023
#
#
#
# Elastic Compliance Matrix: (Units=1/GPa)
#
#
# Indices 1 2 3 4 5 6 
#
# 1 0.012842 0.000476 -0.003069 0.000000 -0.002161 0.000000
# 2 0.000476 0.006349 -0.000374 0.000000 -0.001200 0.000000
# 3 -0.003069 -0.000374 0.008073 0.000000 -0.004551 0.000000
# 4 0.000000 0.000000 0.000000 -0.002641 0.000000 0.030853
# 5 -0.002161 -0.001200 -0.004551 0.000000 0.022555 0.000000
# 6 0.000000 0.000000 0.000000 0.030853 0.000000 0.009580
#
#
# Mechanical properties :
#
#
# Convention : Reuss Voigt Hill
#
# Bulk Modulus (GPa) = 46.88393 58.84448 52.86420
# Shear Modulus (GPa) = 71.63029 33.27426 52.45227
#
# Velocity S-wave (km/s) = 5.15211 3.51149 4.40878
# Velocity P-wave (km/s) = 7.26404 6.18441 6.74585
#
# Compressibility (1/GPa) = 0.02132927
#
# Stress axis : x y z
#
# Youngs Moduli (GPa) = 77.87122 157.50514 123.86347
#
# Poissons Ratio (x) = -0.07491 0.38013
# Poissons Ratio (y) = -0.03704 0.04634
# Poissons Ratio (z) = 0.23898 0.05893
#
# Static dielectric constant tensor:
#      x y z
#    x 2.122950 0.000000 -0.036380 
#    y 0.000000 2.153950 0.000000 
#    z -0.036380 0.000000 2.234300 
# 
# From -- ./inp_files/21427.got.cif
#   From: 2010.05.17/outbox.cif.g08.bks.cpg/sg8_11_cif.got.tgz:21427.got - 2010.06.03 19:46:02.
