data_PCOD9131822
_publ_section_title
;
Structure prediction by ZEFSAII (Michael W. Deem and Ramdas Pophale) SiO2 
 PCOD9131822
Probable space group: C M
;
_chemical_formula_sum "Si O2"
_cell_formula_units_Z 32
_cell_length_a 20.538297
_cell_length_b 9.153148
_cell_length_c 25.485783
_cell_angle_alpha 90.000000
_cell_angle_beta 23.372257
_cell_angle_gamma 90.000000
_cell_volume 1900.635711
_symmetry_space_group_name_H-M "C M"
_symmetry_group_IT_number 8
_symmetry_cell_setting 'monoclinic'
loop_
_space_group_symop_operation_xyz
x,y,z
x,-y,z
1/2+x,1/2+y,z
1/2+x,1/2-y,z
loop_
_atom_site_type_symbol
_atom_site_label
_atom_site_fract_x
_atom_site_fract_y
_atom_site_fract_z
Si Si1 0.394410 0.825374 0.605060
Si Si2 0.713312 0.324825 0.569551
Si Si3 0.044035 0.675078 0.380994
Si Si4 0.505365 0.673047 0.624919
Si Si5 0.040356 0.325003 0.876083
Si Si6 0.386049 0.824030 0.101783
Si Si7 0.707600 0.825637 0.926076
Si Si8 0.924316 0.326018 0.848069
O O1 0.477603 0.786561 0.488106
O O2 0.496654 0.764422 0.578542
O O3 0.214327 0.754565 0.742026
O O4 0.380489 0.000000 0.617946
O O5 0.691893 0.500000 0.593267
O O6 0.655610 0.293237 0.552984
O O7 0.586458 0.243256 0.701543
O O8 0.898122 0.286715 0.448350
O O9 0.066317 0.500000 0.362739
O O10 0.213411 0.752831 0.242820
O O11 0.506977 0.500000 0.611704
O O12 0.341348 0.701780 0.780954
O O13 0.070852 0.500000 0.855796
O O14 0.934156 0.294652 0.902647
O O15 0.949667 0.282655 0.996719
O O16 0.372106 0.000000 0.113330
O O17 0.529566 0.782451 0.036558
O O18 0.772199 0.743406 0.929517
O O19 0.710191 0.000000 0.933461
O O20 0.925691 0.500000 0.839653
#
# Coordination Sequence:
#
# PCOD9131822 Si02
#       8
#     4   4   4   4   4   4   4   4
#     4  11  21  33  54  82 110 138 175 225 270 313
#     4   9  18  35  54  74 108 146 176 214 267 319
#     4  10  22  38  54  78 110 143 179 222 270 317
#     4   9  17  32  55  78 105 140 176 221 265 312
#     4  10  20  36  55  79 109 139 179 223 265 316
#     4  10  21  38  57  77 105 146 185 217 263 323
#     4   9  18  34  54  76 108 144 175 215 266 319
#     4  10  19  30  53  84 109 134 173 225 268 311
#
# _framework density 16.836473000000002
#
# number of rings (size 3 to 8) (size 9 to 14) (size 15 to 20)
#    0.000    2.250    2.500    1.500    0.000    5.000 
#    0.000    1.250    0.000    6.000    0.000    0.000 
#    0.000    0.000    0.000    0.000    0.000    0.000 
#
# Total GULP energy -89259.582820 kJ/mol
# GULP energy per Si atom -5578.723926 kJ/mol
# Density = 1.679815 g / cm^3
# Si number density = 16.836473 Si / 1000 Ang^3
#
#
#
# Elastic Constant Matrix: (Units=GPa)
#
#
# Indices 1 2 3 4 5 6 
#
# 1 158.4474 58.8340 90.3788 0.0001 -19.7674 0.0000
# 2 58.8340 33.2434 46.8898 0.0003 -4.4760 -0.0001
# 3 90.3788 46.8898 131.2706 -0.0001 -15.3549 0.0001
# 4 0.0001 0.0003 -0.0001 30.5688 -0.0003 -2.9406
# 5 -19.7674 -4.4760 -15.3549 -0.0003 26.9413 0.0000
# 6 0.0000 -0.0001 0.0001 -2.9406 0.0000 30.0455
#
#
#
# Elastic Compliance Matrix: (Units=1/GPa)
#
#
# Indices 1 2 3 4 5 6 
#
# 1 0.020485 -0.033514 -0.001099 0.000000 0.008836 0.000000
# 2 -0.033514 0.115606 -0.020196 -0.000001 -0.016894 0.000000
# 3 -0.001099 -0.020196 0.016180 0.000000 0.005060 0.000000
# 4 0.000000 -0.000001 0.000000 0.033024 0.000001 0.003232
# 5 0.008836 -0.016894 0.005060 0.000001 0.043678 0.000000
# 6 0.000000 0.000000 0.000000 0.003232 0.000000 0.033599
#
#
# Mechanical properties :
#
#
# Convention : Reuss Voigt Hill
#
# Bulk Modulus (GPa) = 23.44507 79.46293 51.45400
# Shear Modulus (GPa) = 12.93968 25.96839 19.45404
#
# Velocity S-wave (km/s) = 2.77528 3.93159 3.40291
# Velocity P-wave (km/s) = 4.92189 8.24070 6.78727
#
# Compressibility (1/GPa) = 0.04265288
#
# Stress axis : x y z
#
# Youngs Moduli (GPa) = 48.81734 8.65005 61.80308
#
# Poissons Ratio (x) = 0.28990 0.06791
# Poissons Ratio (y) = 1.63606 1.24821
# Poissons Ratio (z) = 0.05364 0.17470
#
# Static dielectric constant tensor:
#      x y z
#    x 1.585040 0.000000 -0.014390 
#    y 0.000000 1.560940 0.000000 
#    z -0.014390 0.000000 1.533380 
# 
# From -- ./inp_files/15820.got.cif
#   From: 2010.05.17/outbox.cif.g08.bks.cpg/sg8_8_cif.got.tgz:15820.got - 2010.06.03 19:46:02.
