data_PCOD9131284
_publ_section_title
;
Structure prediction by ZEFSAII (Michael W. Deem and Ramdas Pophale) SiO2 
 PCOD9131284
Probable space group: P C
;
_chemical_formula_sum "Si O2"
_cell_formula_units_Z 16
_cell_length_a 14.797380
_cell_length_b 7.629359
_cell_length_c 5.456231
_cell_angle_alpha 90.000000
_cell_angle_beta 114.327672
_cell_angle_gamma 90.000000
_cell_volume 561.282427
_symmetry_space_group_name_H-M "P C"
_symmetry_group_IT_number 7
_symmetry_cell_setting 'monoclinic'
loop_
_space_group_symop_operation_xyz
x,y,z
x,-y,1/2+z
loop_
_atom_site_type_symbol
_atom_site_label
_atom_site_fract_x
_atom_site_fract_y
_atom_site_fract_z
Si Si1 0.115040 0.944600 0.707890
Si Si2 0.337861 0.923458 0.459691
Si Si3 0.607802 0.906011 0.937059
Si Si4 0.459383 0.395860 0.278921
Si Si5 0.811219 0.056996 0.202787
Si Si6 0.962069 0.407100 0.540907
Si Si7 0.178601 0.460107 0.274378
Si Si8 0.765901 0.606107 0.652660
O O1 0.139848 0.738812 0.726959
O O2 0.063844 0.003251 0.402256
O O3 0.218231 0.054833 0.821775
O O4 0.375893 0.747834 0.624247
O O5 0.367253 0.061543 0.707517
O O6 0.561951 0.711513 0.872639
O O7 0.570974 0.006966 0.651146
O O8 0.726695 0.896097 0.072522
O O9 0.454573 0.468673 0.548521
O O10 0.718494 0.206817 0.084197
O O11 0.863349 0.972030 0.498243
O O12 0.940406 0.444471 0.802835
O O13 0.875490 0.282802 0.334093
O O14 0.080817 0.409929 0.664048
O O15 0.232606 0.489480 0.588158
O O16 0.757233 0.507723 0.386403
#
# Coordination Sequence:
#
# PCOD9131284 Si02
#       8
#     2   2   2   2   2   2   2   2
#     4  10  21  38  58  85 120 158 193 234 297 354
#     4  10  21  41  62  84 120 159 190 236 298 351
#     4  10  21  41  62  84 120 159 190 236 298 351
#     4  12  24  40  64  92 116 150 202 248 288 342
#     4  10  21  38  58  85 120 158 193 234 297 354
#     4   8  16  30  54  80 110 142 184 236 288 328
#     4  10  19  35  60  86 113 150 196 243 288 342
#     4  10  19  35  60  86 113 150 196 243 288 342
#
# _framework density 28.506148
#
# number of rings (size 3 to 8) (size 9 to 14) (size 15 to 20)
#    0.000    2.000    0.000    3.750    0.000    0.000 
#    0.000   30.000    0.000   40.500    0.000    0.000 
#    0.000    0.000    0.000    0.000    0.000    0.000 
#
# Total GULP energy -89323.036939 kJ/mol
# GULP energy per Si atom -5582.689809 kJ/mol
# Density = 2.844127 g / cm^3
# Si number density = 28.506148 Si / 1000 Ang^3
#
#
#
# Elastic Constant Matrix: (Units=GPa)
#
#
# Indices 1 2 3 4 5 6 
#
# 1 69.4789 10.1297 37.9914 0.0000 13.4188 0.0000
# 2 10.1297 136.7655 70.5129 0.0000 -27.9767 0.0000
# 3 37.9914 70.5129 260.5640 0.0000 -56.1179 0.0000
# 4 0.0000 0.0000 0.0000 65.7262 0.0000 -16.3147
# 5 13.4188 -27.9767 -56.1179 0.0000 63.6267 0.0000
# 6 0.0000 0.0000 0.0000 -16.3147 0.0000 -32.3203
#
#
#
# Elastic Compliance Matrix: (Units=1/GPa)
#
#
# Indices 1 2 3 4 5 6 
#
# 1 0.018298 -0.000832 -0.004139 0.000000 -0.007876 0.000000
# 2 -0.000832 0.008771 -0.001708 0.000000 0.002525 0.000000
# 3 -0.004139 -0.001708 0.006086 0.000000 0.005489 0.000000
# 4 0.000000 0.000000 0.000000 0.013521 0.000000 -0.006825
# 5 -0.007876 0.002525 0.005489 0.000000 0.023330 0.000000
# 6 0.000000 0.000000 0.000000 -0.006825 0.000000 -0.027495
#
#
# Mechanical properties :
#
#
# Convention : Reuss Voigt Hill
#
# Bulk Modulus (GPa) = 50.51539 78.23068 64.37304
# Shear Modulus (GPa) = 80.04110 42.61813 61.32962
#
# Velocity S-wave (km/s) = 5.30467 3.87078 4.64341
# Velocity P-wave (km/s) = 7.43496 6.89060 7.16795
#
# Compressibility (1/GPa) = 0.01979595
#
# Stress axis : x y z
#
# Youngs Moduli (GPa) = 54.64935 114.01514 164.31576
#
# Poissons Ratio (x) = 0.09491 0.68009
# Poissons Ratio (y) = 0.04549 0.28069
# Poissons Ratio (z) = 0.22619 0.19477
#
# Static dielectric constant tensor:
#      x y z
#    x 2.448200 0.000000 -0.051090 
#    y 0.000000 2.328480 0.000000 
#    z -0.051090 0.000000 2.450320 
# 
# From -- ./inp_files/1441.got.cif
#   From: 2010.05.17/outbox.cif.g08.bks.cpg/sg7_cif.got.tgz:1441.got - 2010.06.03 19:44:50.
