data_PCOD9131433
_publ_section_title
;
Structure prediction by ZEFSAII (Michael W. Deem and Ramdas Pophale) SiO2 
 PCOD9131433
Probable space group: P C
;
_chemical_formula_sum "Si O2"
_cell_formula_units_Z 16
_cell_length_a 6.837628
_cell_length_b 17.753919
_cell_length_c 4.760462
_cell_angle_alpha 90.000000
_cell_angle_beta 105.859029
_cell_angle_gamma 90.000000
_cell_volume 555.898396
_symmetry_space_group_name_H-M "P C"
_symmetry_group_IT_number 7
_symmetry_cell_setting 'monoclinic'
loop_
_space_group_symop_operation_xyz
x,y,z
x,-y,1/2+z
loop_
_atom_site_type_symbol
_atom_site_label
_atom_site_fract_x
_atom_site_fract_y
_atom_site_fract_z
Si Si1 0.451620 0.873913 0.381840
Si Si2 0.394616 0.745227 0.990787
Si Si3 0.141205 0.841851 0.716104
Si Si4 0.904770 0.601880 0.569942
Si Si5 0.828814 0.048196 0.804145
Si Si6 0.762912 0.757819 0.771964
Si Si7 0.549982 0.500658 0.638256
Si Si8 0.200340 0.601155 0.172823
O O1 0.317855 0.894087 0.596101
O O2 0.594809 0.934757 0.291620
O O3 0.602405 0.807365 0.533868
O O4 0.329424 0.832336 0.077363
O O5 0.242328 0.758845 0.668101
O O6 0.627354 0.744178 0.996570
O O7 0.313639 0.677665 0.138010
O O8 0.961792 0.883966 0.467782
O O9 0.967637 0.804954 0.876004
O O10 0.814184 0.679060 0.647704
O O11 0.724598 0.540549 0.459760
O O12 0.033458 0.611541 0.342933
O O13 0.067560 0.572367 0.859496
O O14 0.874300 0.972961 0.003030
O O15 0.548065 0.432934 0.388661
O O16 0.376712 0.458805 0.819823
#
# Coordination Sequence:
#
# PCOD9131433 Si02
#       8
#     2   2   2   2   2   2   2   2
#     4  10  25  42  76 106 152 192 256 309 376 445
#     4  11  24  43  77 111 150 190 258 329 378 448
#     4  10  23  46  72 110 144 202 254 309 375 445
#     4  12  27  49  78 108 150 203 255 315 400 464
#     4  11  28  48  73 110 159 205 251 307 377 455
#     4  10  23  43  71 111 145 195 244 323 374 450
#     4  12  28  49  74 108 152 195 255 313 383 473
#     4  12  28  48  79 112 148 202 257 323 393 466
#
# _framework density 28.782236000000001
#
# number of rings (size 3 to 8) (size 9 to 14) (size 15 to 20)
#    0.000    1.000    1.250    3.000   12.250    5.000 
#    0.000    0.000    0.000    0.000    0.000    0.000 
#    0.000    0.000    0.000    0.000    0.000    0.000 
#
# Total GULP energy -89271.347835 kJ/mol
# GULP energy per Si atom -5579.459240 kJ/mol
# Density = 2.871673 g / cm^3
# Si number density = 28.782236 Si / 1000 Ang^3
#
#
#
# Elastic Constant Matrix: (Units=GPa)
#
#
# Indices 1 2 3 4 5 6 
#
# 1 234.8521 40.0463 55.8683 0.0000 -0.4362 0.0000
# 2 40.0463 73.2072 14.2688 0.0000 11.8306 0.0000
# 3 55.8683 14.2688 194.5536 0.0000 -7.1255 0.0000
# 4 0.0000 0.0000 0.0000 39.3365 0.0000 -1.0547
# 5 -0.4362 11.8306 -7.1255 0.0000 53.7891 0.0000
# 6 0.0000 0.0000 0.0000 -1.0547 0.0000 49.6869
#
#
#
# Elastic Compliance Matrix: (Units=1/GPa)
#
#
# Indices 1 2 3 4 5 6 
#
# 1 0.004988 -0.002560 -0.001228 0.000000 0.000441 0.000000
# 2 -0.002560 0.015742 -0.000550 0.000000 -0.003556 0.000000
# 3 -0.001228 -0.000550 0.005564 0.000000 0.000848 0.000000
# 4 0.000000 0.000000 0.000000 0.025436 0.000000 0.000540
# 5 0.000441 -0.003556 0.000848 0.000000 0.019489 0.000000
# 6 0.000000 0.000000 0.000000 0.000540 0.000000 0.020138
#
#
# Mechanical properties :
#
#
# Convention : Reuss Voigt Hill
#
# Bulk Modulus (GPa) = 56.76149 80.33108 68.54628
# Shear Modulus (GPa) = 47.21197 54.72444 50.96821
#
# Velocity S-wave (km/s) = 4.05448 4.36515 4.21268
# Velocity P-wave (km/s) = 6.45617 7.30593 6.89416
#
# Compressibility (1/GPa) = 0.01761758
#
# Stress axis : x y z
#
# Youngs Moduli (GPa) = 200.49827 63.52380 179.72466
#
# Poissons Ratio (x) = 0.16263 0.22076
# Poissons Ratio (y) = 0.51331 0.09878
# Poissons Ratio (z) = 0.24628 0.03491
#
# Static dielectric constant tensor:
#      x y z
#    x 2.312370 0.000000 -0.018520 
#    y 0.000000 2.199040 0.000000 
#    z -0.018520 0.000000 2.491580 
# 
# From -- ./inp_files/265.got.cif
#   From: 2010.05.17/outbox.cif.g08.bks.cpg/sg7_cif.got.tgz:265.got - 2010.06.03 19:44:50.
