data_PCOD9131278
_publ_section_title
;
Structure prediction by ZEFSAII (Michael W. Deem and Ramdas Pophale) SiO2 
 PCOD9131278
Probable space group: P C
;
_chemical_formula_sum "Si O2"
_cell_formula_units_Z 16
_cell_length_a 8.695974
_cell_length_b 13.538626
_cell_length_c 5.324300
_cell_angle_alpha 90.000000
_cell_angle_beta 83.926410
_cell_angle_gamma 90.000000
_cell_volume 623.319482
_symmetry_space_group_name_H-M "P C"
_symmetry_group_IT_number 7
_symmetry_cell_setting 'monoclinic'
loop_
_space_group_symop_operation_xyz
x,y,z
x,-y,1/2+z
loop_
_atom_site_type_symbol
_atom_site_label
_atom_site_fract_x
_atom_site_fract_y
_atom_site_fract_z
Si Si1 0.260240 0.992828 0.113900
Si Si2 0.004114 0.271566 0.094504
Si Si3 0.181731 0.559990 0.299102
Si Si4 0.620544 0.962954 0.817437
Si Si5 0.310768 0.210045 0.298357
Si Si6 0.741919 0.760534 0.949229
Si Si7 0.449951 0.699201 0.279112
Si Si8 0.929079 0.907353 0.262178
O O1 0.295540 0.090623 0.343250
O O2 0.286111 0.928536 0.372919
O O3 0.070816 0.970872 0.138917
O O4 0.071405 0.347365 0.880383
O O5 0.966945 0.165193 0.983360
O O6 0.143995 0.254393 0.263037
O O7 0.844315 0.305898 0.249552
O O8 0.153894 0.482345 0.528237
O O9 0.359889 0.595432 0.302218
O O10 0.646632 0.847045 0.818123
O O11 0.534993 0.005904 0.589009
O O12 0.778128 0.024405 0.835153
O O13 0.366418 0.249804 0.555330
O O14 0.417597 0.249751 0.052561
O O15 0.628307 0.707044 0.163113
O O16 0.865146 0.828602 0.071959
#
# Coordination Sequence:
#
# PCOD9131278 Si02
#       8
#     2   2   2   2   2   2   2   2
#     4  12  22  36  62  98 141 189 256 297 337 398
#     4  11  23  42  77 106 136 180 246 303 368 438
#     4  11  26  51  79 107 140 182 238 315 393 458
#     4  10  19  35  55  91 138 190 231 262 323 396
#     4  11  24  44  69 104 142 202 250 302 341 437
#     4  11  25  42  71 107 149 198 243 295 357 432
#     4  11  27  49  74 103 150 195 247 295 386 449
#     4  11  22  37  67 104 144 196 235 301 345 420
#
# _framework density 25.669021999999998
#
# number of rings (size 3 to 8) (size 9 to 14) (size 15 to 20)
#    0.000    1.000    2.500    5.250    8.750    0.000 
#    0.000    8.750    0.000    0.000    0.000    0.000 
#    0.000    0.000    0.000    0.000    0.000    0.000 
#
# Total GULP energy -89450.879555 kJ/mol
# GULP energy per Si atom -5590.679972 kJ/mol
# Density = 2.561060 g / cm^3
# Si number density = 25.669022 Si / 1000 Ang^3
#
#
#
# Elastic Constant Matrix: (Units=GPa)
#
#
# Indices 1 2 3 4 5 6 
#
# 1 68.1822 19.1758 76.9901 0.0000 -15.8654 0.0000
# 2 19.1758 58.8345 27.4029 0.0000 -15.1172 0.0000
# 3 76.9901 27.4029 200.7106 0.0000 -6.5524 0.0000
# 4 0.0000 0.0000 0.0000 46.3816 0.0000 -5.1073
# 5 -15.8654 -15.1172 -6.5524 0.0000 69.3094 0.0000
# 6 0.0000 0.0000 0.0000 -5.1073 0.0000 32.7878
#
#
#
# Elastic Compliance Matrix: (Units=1/GPa)
#
#
# Indices 1 2 3 4 5 6 
#
# 1 0.028250 -0.003204 -0.010242 0.000000 0.004799 0.000000
# 2 -0.003204 0.019533 -0.001327 0.000000 0.003402 0.000000
# 3 -0.010242 -0.001327 0.009034 0.000000 -0.001780 0.000000
# 4 0.000000 0.000000 0.000000 0.021937 0.000000 0.003417
# 5 0.004799 0.003402 -0.001780 0.000000 0.016100 0.000000
# 6 0.000000 0.000000 0.000000 0.003417 0.000000 0.031031
#
#
# Mechanical properties :
#
#
# Convention : Reuss Voigt Hill
#
# Bulk Modulus (GPa) = 36.66859 63.87387 50.27123
# Shear Modulus (GPa) = 30.39125 43.30634 36.84880
#
# Velocity S-wave (km/s) = 3.44461 4.11189 3.79296
# Velocity P-wave (km/s) = 5.48969 6.89066 6.22968
#
# Compressibility (1/GPa) = 0.02727130
#
# Stress axis : x y z
#
# Youngs Moduli (GPa) = 35.39866 51.19526 110.69168
#
# Poissons Ratio (x) = 0.16402 1.13372
# Poissons Ratio (y) = 0.11341 0.14687
# Poissons Ratio (z) = 0.36256 0.06793
#
# Static dielectric constant tensor:
#      x y z
#    x 2.145750 0.000000 -0.004830 
#    y 0.000000 1.981390 0.000000 
#    z -0.004830 0.000000 2.356810 
# 
# From -- ./inp_files/708.got.cif
#   From: 2010.05.17/outbox.cif.g08.bks.cpg/sg7_cif.got.tgz:708.got - 2010.06.03 19:44:50.
