data_PCOD9131000
_publ_section_title
;
Structure prediction by ZEFSAII (Michael W. Deem and Ramdas Pophale) SiO2 
 PCOD9131000
Probable space group: P M
;
_chemical_formula_sum "Si O2"
_cell_formula_units_Z 16
_cell_length_a 17.538157
_cell_length_b 8.681023
_cell_length_c 11.372761
_cell_angle_alpha 90.000000
_cell_angle_beta 150.639035
_cell_angle_gamma 90.000000
_cell_volume 848.968555
_symmetry_space_group_name_H-M "P M"
_symmetry_group_IT_number 6
_symmetry_cell_setting 'monoclinic'
loop_
_space_group_symop_operation_xyz
x,y,z
x,-y,z
loop_
_atom_site_type_symbol
_atom_site_label
_atom_site_fract_x
_atom_site_fract_y
_atom_site_fract_z
Si Si1 0.587420 0.683261 0.150750
Si Si2 0.901200 0.184693 0.462843
Si Si3 0.527816 0.815167 0.327491
Si Si4 0.973566 0.683907 0.305859
Si Si5 0.144351 0.316443 0.194373
Si Si6 0.835128 0.184391 0.886779
Si Si7 0.286863 0.184298 0.619131
Si Si8 0.207504 0.814739 0.025231
O O1 0.591781 0.500000 0.145124
O O2 0.749329 0.754259 0.324659
O O3 0.556740 0.730984 0.243944
O O4 0.446804 0.751018 0.884578
O O5 0.915630 0.257882 0.353485
O O6 0.893602 0.000000 0.442013
O O7 0.055234 0.223957 0.744543
O O8 0.668615 0.782080 0.606184
O O9 0.363102 0.773429 0.163510
O O10 0.527447 0.000000 0.305072
O O11 0.984073 0.500000 0.317160
O O12 0.142863 0.754981 0.504229
O O13 0.862950 0.741924 0.051722
O O14 0.141471 0.500000 0.202753
O O15 0.251610 0.244927 0.440759
O O16 0.198878 0.266339 0.139306
O O17 0.972130 0.249951 0.988390
O O18 0.853932 0.000000 0.921139
O O19 0.287245 0.000000 0.621144
O O20 0.208712 0.000000 0.045094
#
# Coordination Sequence:
#
# PCOD9131000 Si02
#       8
#     2   2   2   2   2   2   2   2
#     4  12  25  40  60  88 121 153 193 248 304 351
#     4  11  23  40  62  86 117 160 205 243 289 352
#     4  10  22  40  62  87 116 154 199 243 290 351
#     4  11  22  38  61  90 123 155 195 246 299 347
#     4  11  22  37  59  88 121 154 193 241 295 348
#     4  10  20  37  61  87 118 157 200 240 287 350
#     4  11  22  40  64  87 117 157 200 240 289 357
#     4  10  22  40  61  85 115 154 199 243 289 348
#
# _framework density 18.846398000000001
#
# number of rings (size 3 to 8) (size 9 to 14) (size 15 to 20)
#    0.000    1.250    0.000    8.250    0.000    7.500 
#    0.000    3.750    0.000    0.000    0.000    0.000 
#    0.000    0.000    0.000    0.000    0.000    0.000 
#
# Total GULP energy -89510.891703 kJ/mol
# GULP energy per Si atom -5594.430731 kJ/mol
# Density = 1.880350 g / cm^3
# Si number density = 18.846398 Si / 1000 Ang^3
#
#
#
# Elastic Constant Matrix: (Units=GPa)
#
#
# Indices 1 2 3 4 5 6 
#
# 1 148.6455 62.2505 78.8563 0.0000 -0.0433 0.0000
# 2 62.2505 113.8089 71.2583 0.0000 2.6738 0.0000
# 3 78.8563 71.2583 158.4034 0.0000 18.4138 0.0000
# 4 0.0000 0.0000 0.0000 10.6479 0.0000 -7.0398
# 5 -0.0433 2.6738 18.4138 0.0000 13.7832 0.0000
# 6 0.0000 0.0000 0.0000 -7.0398 0.0000 57.7219
#
#
#
# Elastic Compliance Matrix: (Units=1/GPa)
#
#
# Indices 1 2 3 4 5 6 
#
# 1 0.010439 -0.002950 -0.004665 0.000000 0.006837 0.000000
# 2 -0.002950 0.013484 -0.005081 0.000000 0.004163 0.000000
# 3 -0.004665 -0.005081 0.012795 0.000000 -0.016123 0.000000
# 4 0.000000 0.000000 0.000000 0.102152 0.000000 0.012459
# 5 0.006837 0.004163 -0.016123 0.000000 0.093305 0.000000
# 6 0.000000 0.000000 0.000000 0.012459 0.000000 0.018844
#
#
# Mechanical properties :
#
#
# Convention : Reuss Voigt Hill
#
# Bulk Modulus (GPa) = 88.28633 93.95424 91.12029
# Shear Modulus (GPa) = 17.84527 30.33011 24.08769
#
# Velocity S-wave (km/s) = 3.08048 4.01600 3.57894
# Velocity P-wave (km/s) = 7.72006 8.45371 8.09520
#
# Compressibility (1/GPa) = 0.01132678
#
# Stress axis : x y z
#
# Youngs Moduli (GPa) = 95.79057 74.16270 78.15521
#
# Poissons Ratio (x) = 0.21879 0.36456
# Poissons Ratio (y) = 0.28259 0.39711
# Poissons Ratio (z) = 0.44682 0.37683
#
# Static dielectric constant tensor:
#      x y z
#    x 1.616800 0.000000 -0.000650 
#    y 0.000000 1.629370 0.000000 
#    z -0.000650 0.000000 1.632640 
# 
# From -- ./inp_files/5346.got.cif
#   From: 2010.05.17/outbox.cif.g08.bks.cpg/sg6_3_cif.got.tgz:5346.got - 2010.06.03 19:42:10.
