data_PCOD9131158
_publ_section_title
;
Structure prediction by ZEFSAII (Michael W. Deem and Ramdas Pophale) SiO2 
 PCOD9131158
Probable space group: P M
;
_chemical_formula_sum "Si O2"
_cell_formula_units_Z 14
_cell_length_a 7.839055
_cell_length_b 8.487225
_cell_length_c 15.895772
_cell_angle_alpha 90.000000
_cell_angle_beta 145.509442
_cell_angle_gamma 90.000000
_cell_volume 598.873267
_symmetry_space_group_name_H-M "P M"
_symmetry_group_IT_number 6
_symmetry_cell_setting 'monoclinic'
loop_
_space_group_symop_operation_xyz
x,y,z
x,-y,z
loop_
_atom_site_type_symbol
_atom_site_label
_atom_site_fract_x
_atom_site_fract_y
_atom_site_fract_z
Si Si1 0.388040 0.184519 0.314220
Si Si2 0.182829 0.330109 0.929259
Si Si3 0.816434 0.816472 0.202430
Si Si4 0.359003 0.682458 0.739738
Si Si5 0.294456 0.178807 0.532777
Si Si6 0.984476 0.818504 0.007876
Si Si7 0.829760 0.250034 0.623626
O O1 0.619193 0.294918 0.458087
O O2 0.070630 0.189565 0.234065
O O3 0.496271 0.000000 0.362142
O O4 0.291593 0.226524 0.180858
O O5 0.145373 0.500000 0.956472
O O6 0.041266 0.199795 0.932123
O O7 0.008774 0.336095 0.770924
O O8 0.532060 0.287776 0.063423
O O9 0.997129 0.770198 0.360506
O O10 0.722946 0.000000 0.173564
O O11 0.272793 0.500000 0.719713
O O12 0.357792 0.715258 0.639259
O O13 0.692645 0.716099 0.909126
O O14 0.124710 0.800455 0.690080
O O15 0.567142 0.173669 0.575267
O O16 0.249467 0.000000 0.544069
O O17 0.922982 0.000000 0.004295
#
# Coordination Sequence:
#
# PCOD9131158 Si02
#       7
#     2   2   2   2   2   2   2
#     4   9  21  42  68 100 131 168 226 288 336 397
#     4  12  25  42  64  97 140 183 226 277 340 413
#     4   9  20  41  68  96 129 171 224 280 338 400
#     4  12  26  43  67 101 141 183 228 281 346 418
#     4  10  23  44  70 102 136 178 232 290 341 402
#     4  11  24  43  68  99 134 178 231 287 342 403
#     4  11  24  43  69  99 137 183 227 279 341 411
#
# _framework density 23.377231999999999
#
# number of rings (size 3 to 8) (size 9 to 14) (size 15 to 20)
#    0.000    1.429    1.429    3.857    2.000    5.143 
#    0.000    7.143    0.000    0.000    0.000    0.000 
#    0.000    0.000    0.000    0.000    0.000    0.000 
#
# Total GULP energy -78020.782314 kJ/mol
# GULP energy per Si atom -5572.913022 kJ/mol
# Density = 2.332402 g / cm^3
# Si number density = 23.377232 Si / 1000 Ang^3
#
#
#
# Elastic Constant Matrix: (Units=GPa)
#
#
# Indices 1 2 3 4 5 6 
#
# 1 80.0087 7.0801 31.1726 0.0000 -3.1546 0.0000
# 2 7.0801 53.6146 51.8384 0.0000 -4.8430 0.0000
# 3 31.1726 51.8384 173.7519 0.0000 -9.2670 0.0000
# 4 0.0000 0.0000 0.0000 2.8402 0.0000 -1.3238
# 5 -3.1546 -4.8430 -9.2670 0.0000 47.6921 0.0000
# 6 0.0000 0.0000 0.0000 -1.3238 0.0000 10.0562
#
#
#
# Elastic Compliance Matrix: (Units=1/GPa)
#
#
# Indices 1 2 3 4 5 6 
#
# 1 0.013471 0.000809 -0.002634 0.000000 0.000461 0.000000
# 2 0.000809 0.026325 -0.007936 0.000000 0.001185 0.000000
# 3 -0.002634 -0.007936 0.008633 0.000000 0.000697 0.000000
# 4 0.000000 0.000000 0.000000 0.375102 0.000000 0.049379
# 5 0.000461 0.001185 0.000697 0.000000 0.021254 0.000000
# 6 0.000000 0.000000 0.000000 0.049379 0.000000 0.105941
#
#
# Mechanical properties :
#
#
# Convention : Reuss Voigt Hill
#
# Bulk Modulus (GPa) = 34.59258 54.17304 44.38281
# Shear Modulus (GPa) = 8.62243 26.60332 17.61287
#
# Velocity S-wave (km/s) = 1.92260 3.37709 2.74783
# Velocity P-wave (km/s) = 4.44502 6.19920 5.39390
#
# Compressibility (1/GPa) = 0.02890794
#
# Stress axis : x y z
#
# Youngs Moduli (GPa) = 74.23165 37.98700 115.83878
#
# Poissons Ratio (x) = -0.03074 0.30508
# Poissons Ratio (y) = -0.06006 0.91929
# Poissons Ratio (z) = 0.19550 0.30146
#
# Static dielectric constant tensor:
#      x y z
#    x 1.878060 0.000000 -0.007170 
#    y 0.000000 1.819960 0.000000 
#    z -0.007170 0.000000 1.886570 
# 
# From -- ./inp_files/5765.got.cif
#   From: 2010.05.17/outbox.cif.g08.bks.cpg/sg6_3_cif.got.tgz:5765.got - 2010.06.03 19:42:10.
