data_PCOD9131900
_publ_section_title
;
Structure prediction by ZEFSAII (Michael W. Deem and Ramdas Pophale) SiO2 
 PCOD9131900
Probable space group: C M
;
_chemical_formula_sum "Si O2"
_cell_formula_units_Z 24
_cell_length_a 24.818255
_cell_length_b 8.924480
_cell_length_c 7.923952
_cell_angle_alpha 90.000000
_cell_angle_beta 49.531262
_cell_angle_gamma 90.000000
_cell_volume 1335.192202
_symmetry_space_group_name_H-M "C M"
_symmetry_group_IT_number 8
_symmetry_cell_setting 'monoclinic'
loop_
_space_group_symop_operation_xyz
x,y,z
x,-y,z
1/2+x,1/2+y,z
1/2+x,1/2-y,z
loop_
_atom_site_type_symbol
_atom_site_label
_atom_site_fract_x
_atom_site_fract_y
_atom_site_fract_z
Si Si1 0.400430 0.322122 0.429690
Si Si2 0.656901 0.678323 0.232399
Si Si3 0.019616 0.329319 0.378784
Si Si4 0.746125 0.320442 0.712681
Si Si5 0.164337 0.680124 0.562847
Si Si6 0.516605 0.170327 0.999975
O O1 0.396568 0.500000 0.449052
O O2 0.445085 0.253614 0.496851
O O3 0.324199 0.247677 0.572469
O O4 0.448237 0.272921 0.170023
O O5 0.655776 0.500000 0.258117
O O6 0.577550 0.740027 0.364625
O O7 0.687980 0.758127 0.334154
O O8 0.701687 0.712160 0.972913
O O9 0.010679 0.500000 0.457651
O O10 0.047825 0.336841 0.127641
O O11 0.749807 0.500000 0.686518
O O12 0.708082 0.250191 0.627256
O O13 0.167920 0.500000 0.562133
O O14 0.081228 0.723291 0.755247
O O15 0.495815 0.000000 0.996185
#
# Coordination Sequence:
#
# PCOD9131900 Si02
#       6
#     4   4   4   4   4   4
#     4  10  19  32  57  85 111 148 188 231 284 336
#     4  11  23  37  58  87 116 150 190 233 281 335
#     4   9  17  34  57  81 110 143 184 228 275 330
#     4  11  22  38  58  81 117 155 188 231 282 338
#     4  11  22  37  60  87 115 149 189 234 282 335
#     4   8  17  34  56  81 109 143 183 225 276 330
#
# _framework density 17.974941000000001
#
# number of rings (size 3 to 8) (size 9 to 14) (size 15 to 20)
#    1.000    1.000    1.667    3.000    0.000    3.333 
#    0.000    1.667    0.000   10.000    0.000    0.000 
#    0.000    0.000    0.000    0.000    0.000    0.000 
#
# Total GULP energy -66834.979243 kJ/mol
# GULP energy per Si atom -5569.581604 kJ/mol
# Density = 1.793403 g / cm^3
# Si number density = 17.974941 Si / 1000 Ang^3
#
#
#
# Elastic Constant Matrix: (Units=GPa)
#
#
# Indices 1 2 3 4 5 6 
#
# 1 113.2164 71.1555 80.6026 0.0000 -9.0943 0.0000
# 2 71.1555 109.4592 66.2339 0.0000 -8.2129 0.0000
# 3 80.6026 66.2339 73.1548 0.0000 -5.8577 0.0000
# 4 0.0000 0.0000 0.0000 18.5293 0.0000 -3.2548
# 5 -9.0943 -8.2129 -5.8577 0.0000 30.9938 0.0000
# 6 0.0000 0.0000 0.0000 -3.2548 0.0000 33.1389
#
#
#
# Elastic Compliance Matrix: (Units=1/GPa)
#
#
# Indices 1 2 3 4 5 6 
#
# 1 0.041507 0.001749 -0.047015 0.000000 0.003757 0.000000
# 2 0.001749 0.020393 -0.020223 0.000000 0.002095 0.000000
# 3 -0.047015 -0.020223 0.083511 0.000000 -0.003371 0.000000
# 4 0.000000 0.000000 0.000000 0.054916 0.000000 0.005394
# 5 0.003757 0.002095 -0.003371 0.000000 0.033285 0.000000
# 6 0.000000 0.000000 0.000000 0.005394 0.000000 0.030706
#
#
# Mechanical properties :
#
#
# Convention : Reuss Voigt Hill
#
# Bulk Modulus (GPa) = 69.28755 81.31269 75.30012
# Shear Modulus (GPa) = 12.49662 21.72161 17.10912
#
# Velocity S-wave (km/s) = 2.63957 3.48003 3.08852
# Velocity P-wave (km/s) = 6.92244 7.84107 7.39603
#
# Compressibility (1/GPa) = 0.01443261
#
# Stress axis : x y z
#
# Youngs Moduli (GPa) = 24.09211 49.03636 11.97446
#
# Poissons Ratio (x) = -0.08574 0.56298
# Poissons Ratio (y) = -0.04213 0.24215
# Poissons Ratio (z) = 1.13270 0.99164
#
# Static dielectric constant tensor:
#      x y z
#    x 1.606010 0.000000 0.016740 
#    y 0.000000 1.604100 0.000000 
#    z 0.016740 0.000000 1.627810 
# 
# From -- ./inp_files/15497.got.cif
#   From: 2010.05.17/outbox.cif.g08.bks.cpg/sg8_8_cif.got.tgz:15497.got - 2010.06.03 19:46:02.
