data_PCOD9131767
_publ_section_title
;
Structure prediction by ZEFSAII (Michael W. Deem and Ramdas Pophale) SiO2 
 PCOD9131767
Probable space group: C M
;
_chemical_formula_sum "Si O2"
_cell_formula_units_Z 32
_cell_length_a 23.784436
_cell_length_b 13.707363
_cell_length_c 8.543087
_cell_angle_alpha 90.000000
_cell_angle_beta 34.827868
_cell_angle_gamma 90.000000
_cell_volume 1590.682740
_symmetry_space_group_name_H-M "C M"
_symmetry_group_IT_number 8
_symmetry_cell_setting 'monoclinic'
loop_
_space_group_symop_operation_xyz
x,y,z
x,-y,z
1/2+x,1/2+y,z
1/2+x,1/2-y,z
loop_
_atom_site_type_symbol
_atom_site_label
_atom_site_fract_x
_atom_site_fract_y
_atom_site_fract_z
Si Si1 0.289850 0.694252 0.240220
Si Si2 0.037524 0.610668 0.420964
Si Si3 0.587464 0.884440 0.641608
Si Si4 0.307380 0.891478 0.028990
Si Si5 0.049961 0.203322 0.182751
Si Si6 0.768413 0.299724 0.787267
Si Si7 0.856019 0.113540 0.756160
Si Si8 0.929514 0.738608 0.177720
O O1 0.183986 0.648122 0.513778
O O2 0.276490 0.806777 0.217756
O O3 0.362413 0.694054 0.220993
O O4 0.334148 0.640466 0.986486
O O5 0.063498 0.500000 0.316705
O O6 0.100467 0.643262 0.428410
O O7 0.041838 0.687402 0.272706
O O8 0.925791 0.610377 0.740583
O O9 0.576523 0.000000 0.669508
O O10 0.491840 0.833636 0.928501
O O11 0.276390 0.000000 0.145375
O O12 0.271714 0.863846 0.936456
O O13 0.970686 0.138643 0.459242
O O14 0.008117 0.203860 0.103624
O O15 0.164240 0.181598 0.943845
O O16 0.792856 0.188896 0.792763
O O17 0.856443 0.317218 0.463726
O O18 0.834670 0.000000 0.775578
#
# Coordination Sequence:
#
# PCOD9131767 Si02
#       8
#     4   4   4   4   4   4   4   4
#     4  11  21  38  60  90 122 157 193 246 298 356
#     4  10  18  35  61  89 116 146 194 251 297 344
#     4  11  23  38  63  92 119 154 202 248 294 352
#     4  10  19  36  61  87 114 151 196 249 295 344
#     4  11  21  39  60  89 117 158 196 243 298 356
#     4  10  22  39  62  84 118 156 201 244 296 351
#     4  10  21  40  64  88 116 153 198 249 302 350
#     4  11  22  39  56  83 124 161 189 240 297 351
#
# _framework density 20.117146999999999
#
# number of rings (size 3 to 8) (size 9 to 14) (size 15 to 20)
#    0.000    1.500    5.000    2.625    0.000    3.000 
#    0.000    7.500    0.000    6.750    0.000    0.000 
#    0.000    0.000    0.000    0.000    0.000    0.000 
#
# Total GULP energy -89351.321120 kJ/mol
# GULP energy per Si atom -5584.457570 kJ/mol
# Density = 2.007136 g / cm^3
# Si number density = 20.117147 Si / 1000 Ang^3
#
#
#
# Elastic Constant Matrix: (Units=GPa)
#
#
# Indices 1 2 3 4 5 6 
#
# 1 145.0241 6.8946 21.2040 0.0000 -20.0356 0.0000
# 2 6.8946 66.5069 -0.5031 0.0000 1.5747 0.0000
# 3 21.2040 -0.5031 50.4639 0.0000 -13.3237 0.0000
# 4 0.0000 0.0000 0.0000 6.7851 0.0000 -0.9830
# 5 -20.0356 1.5747 -13.3237 0.0000 33.7526 0.0000
# 6 0.0000 0.0000 0.0000 -0.9830 0.0000 12.1259
#
#
#
# Elastic Compliance Matrix: (Units=1/GPa)
#
#
# Indices 1 2 3 4 5 6 
#
# 1 0.007794 -0.000914 -0.002290 0.000000 0.003765 0.000000
# 2 -0.000914 0.015160 0.000229 0.000000 -0.001160 0.000000
# 3 -0.002290 0.000229 0.022795 0.000000 0.007628 0.000000
# 4 0.000000 0.000000 0.000000 0.149133 0.000000 0.012090
# 5 0.003765 -0.001160 0.007628 0.000000 0.034928 0.000000
# 6 0.000000 0.000000 0.000000 0.012090 0.000000 0.083448
#
#
# Mechanical properties :
#
#
# Convention : Reuss Voigt Hill
#
# Bulk Modulus (GPa) = 25.12668 35.24284 30.18476
# Shear Modulus (GPa) = 15.03877 26.15933 20.59905
#
# Velocity S-wave (km/s) = 2.73712 3.60995 3.20340
# Velocity P-wave (km/s) = 4.74409 5.91037 5.35905
#
# Compressibility (1/GPa) = 0.03979833
#
# Stress axis : x y z
#
# Youngs Moduli (GPa) = 128.30621 65.96292 43.87006
#
# Poissons Ratio (x) = 0.06032 0.10046
# Poissons Ratio (y) = 0.11733 -0.01006
# Poissons Ratio (z) = 0.29380 -0.01512
#
# Static dielectric constant tensor:
#      x y z
#    x 1.746290 0.000000 -0.004580 
#    y 0.000000 1.688340 0.000000 
#    z -0.004580 0.000000 1.726670 
# 
# From -- ./inp_files/17597.got.cif
#   From: 2010.05.17/outbox.cif.g08.bks.cpg/sg8_9_cif.got.tgz:17597.got - 2010.06.03 19:46:02.
