data_PCOD9131571
_publ_section_title
;
Structure prediction by ZEFSAII (Michael W. Deem and Ramdas Pophale) SiO2 
 PCOD9131571
Probable space group: C M
;
_chemical_formula_sum "Si O2"
_cell_formula_units_Z 18
_cell_length_a 13.376026
_cell_length_b 7.366689
_cell_length_c 7.332698
_cell_angle_alpha 90.000000
_cell_angle_beta 120.195424
_cell_angle_gamma 90.000000
_cell_volume 624.504073
_symmetry_space_group_name_H-M "C M"
_symmetry_group_IT_number 8
_symmetry_cell_setting 'monoclinic'
loop_
_space_group_symop_operation_xyz
x,y,z
x,-y,z
1/2+x,1/2+y,z
1/2+x,1/2-y,z
loop_
_atom_site_type_symbol
_atom_site_label
_atom_site_fract_x
_atom_site_fract_y
_atom_site_fract_z
Si Si1 0.511930 0.719668 0.014840
Si Si2 0.767191 0.712898 0.111350
Si Si3 0.680122 0.000000 0.793252
Si Si4 0.819942 0.782862 0.554162
Si Si5 0.067734 0.795680 0.454122
O O1 0.516684 0.500000 0.020357
O O2 0.638838 0.780720 0.063669
O O3 0.498389 0.777245 0.213214
O O4 0.419162 0.779686 0.781487
O O5 0.763217 0.500000 0.066612
O O6 0.843539 0.749096 0.362042
O O7 0.774321 0.842772 0.945845
O O8 0.591719 0.842428 0.635962
O O9 0.698340 0.692212 0.488477
O O10 0.800990 0.000000 0.568468
O O11 0.034641 0.000000 0.479186
#
# Coordination Sequence:
#
# PCOD9131571 Si02
#       5
#     4   4   2   4   4
#     4   8  18  36  64  85 113 147 198 248 280 323
#     4  10  21  39  59  87 115 156 190 239 290 333
#     4  12  22  38  60  82 128 152 190 224 296 368
#     4  10  17  37  65  87 112 148 202 245 277 329
#     4  10  21  39  59  87 115 156 190 239 290 333
#
# _framework density 28.822870000000002
#
# number of rings (size 3 to 8) (size 9 to 14) (size 15 to 20)
#    0.000    2.222    2.222    2.667    0.000    0.000 
#    8.000    2.222    0.000    0.000    0.000    0.000 
#    0.000    0.000    0.000    0.000    0.000    0.000 
#
# Total GULP energy -50268.690536 kJ/mol
# GULP energy per Si atom -5585.410060 kJ/mol
# Density = 2.875727 g / cm^3
# Si number density = 28.822870 Si / 1000 Ang^3
#
#
#
# Elastic Constant Matrix: (Units=GPa)
#
#
# Indices 1 2 3 4 5 6 
#
# 1 72.1263 12.3560 25.9228 0.0000 -14.5063 0.0000
# 2 12.3560 232.1619 71.9859 0.0000 -3.1072 0.0000
# 3 25.9228 71.9859 290.8075 0.0000 18.0465 0.0000
# 4 0.0000 0.0000 0.0000 42.8255 0.0000 12.9027
# 5 -14.5063 -3.1072 18.0465 0.0000 48.9214 0.0000
# 6 0.0000 0.0000 0.0000 12.9027 0.0000 0.4680
#
#
#
# Elastic Compliance Matrix: (Units=1/GPa)
#
#
# Indices 1 2 3 4 5 6 
#
# 1 0.015545 -0.000247 -0.001647 0.000000 0.005201 0.000000
# 2 -0.000247 0.004696 -0.001181 0.000000 0.000661 0.000000
# 3 -0.001647 -0.001181 0.004005 0.000000 -0.002041 0.000000
# 4 0.000000 0.000000 0.000000 -0.003196 0.000000 0.088110
# 5 0.005201 0.000661 -0.002041 0.000000 0.022778 0.000000
# 6 0.000000 0.000000 0.000000 0.088110 0.000000 -0.292448
#
#
# Mechanical properties :
#
#
# Convention : Reuss Voigt Hill
#
# Bulk Modulus (GPa) = 55.26675 90.62500 72.94588
# Shear Modulus (GPa) = -21.14724 50.76505 14.80891
#
# Velocity S-wave (km/s) = -2.71162 4.20131 2.26915
# Velocity P-wave (km/s) = 3.06796 7.41923 5.67703
#
# Compressibility (1/GPa) = 0.01809406
#
# Stress axis : x y z
#
# Youngs Moduli (GPa) = 64.32907 212.96444 249.71182
#
# Poissons Ratio (x) = 0.05259 0.41137
# Poissons Ratio (y) = 0.01588 0.29499
# Poissons Ratio (z) = 0.10597 0.25158
#
# Static dielectric constant tensor:
#      x y z
#    x 2.711190 0.000000 -0.156060 
#    y 0.000000 2.067500 0.000000 
#    z -0.156060 0.000000 2.345060 
# 
# From -- ./inp_files/9562.got.cif
#   From: 2010.05.17/outbox.cif.g08.bks.cpg/sg8_5_cif.got.tgz:9562.got - 2010.06.03 19:46:02.
