data_PCOD9131533
_publ_section_title
;
Structure prediction by ZEFSAII (Michael W. Deem and Ramdas Pophale) SiO2 
 PCOD9131533
Probable space group: C M
;
_chemical_formula_sum "Si O2"
_cell_formula_units_Z 32
_cell_length_a 19.060831
_cell_length_b 19.035807
_cell_length_c 8.785288
_cell_angle_alpha 90.000000
_cell_angle_beta 157.193151
_cell_angle_gamma 90.000000
_cell_volume 1235.611043
_symmetry_space_group_name_H-M "C M"
_symmetry_group_IT_number 8
_symmetry_cell_setting 'monoclinic'
loop_
_space_group_symop_operation_xyz
x,y,z
x,-y,z
1/2+x,1/2+y,z
1/2+x,1/2-y,z
loop_
_atom_site_type_symbol
_atom_site_label
_atom_site_fract_x
_atom_site_fract_y
_atom_site_fract_z
Si Si1 0.458440 0.611569 0.520280
Si Si2 0.016020 0.633920 0.460682
Si Si3 0.858383 0.575935 0.872548
Si Si4 0.785404 0.691108 0.499450
Si Si5 0.358380 0.924065 0.418262
Si Si6 0.958442 0.888431 0.170768
Si Si7 0.638476 0.279286 0.705595
Si Si8 0.867640 0.147407 0.663922
O O1 0.402455 0.588616 0.233552
O O2 0.524488 0.692586 0.622430
O O3 0.344478 0.609874 0.450961
O O4 0.652194 0.575424 0.942138
O O5 0.004775 0.584450 0.580730
O O6 0.157284 0.696632 0.743212
O O7 0.004777 0.584451 0.295659
O O8 0.826789 0.679067 0.082221
O O9 0.883485 0.500000 0.849045
O O10 0.876619 0.649291 0.820192
O O11 0.652196 0.575425 0.523926
O O12 0.876618 0.649291 0.543564
O O13 0.782715 0.774649 0.494071
O O14 0.581697 0.662902 0.092034
O O15 0.383482 0.000000 0.542174
O O16 0.024490 0.807413 0.332810
O O17 0.844480 0.890126 0.784237
#
# Coordination Sequence:
#
# PCOD9131533 Si02
#       8
#     4   4   4   4   4   4   4   4
#     4   8  17  30  47  70 102 132 165 209 254 308
#     4  10  17  28  48  70  97 130 160 206 252 304
#     4  10  18  30  48  74 103 132 170 212 255 305
#     4  10  21  32  52  76 105 132 172 216 268 310
#     4  10  18  30  48  74 103 132 170 212 255 305
#     4   8  17  30  47  70 102 132 165 209 254 308
#     4   8  16  28  42  70  94 122 166 200 252 294
#     4  10  18  34  48  76 102 136 168 216 264 308
#
# _framework density 25.898118
#
# number of rings (size 3 to 8) (size 9 to 14) (size 15 to 20)
#    0.750    2.000    1.250    2.250    0.000    0.000 
#    0.000    0.000    0.000    0.000    0.000   42.000 
#    0.000    0.000    0.000    0.000    0.000    0.000 
#
# Total GULP energy -89099.044883 kJ/mol
# GULP energy per Si atom -5568.690305 kJ/mol
# Density = 2.583917 g / cm^3
# Si number density = 25.898118 Si / 1000 Ang^3
#
#
#
# Elastic Constant Matrix: (Units=GPa)
#
#
# Indices 1 2 3 4 5 6 
#
# 1 147.3738 31.0254 57.2364 0.0000 -43.7058 0.0000
# 2 31.0254 116.5818 19.2677 0.0000 -10.6870 0.0000
# 3 57.2364 19.2677 77.7062 0.0000 -19.6156 0.0000
# 4 0.0000 0.0000 0.0000 -16.7095 0.0000 43.0607
# 5 -43.7058 -10.6870 -19.6156 0.0000 42.9192 0.0000
# 6 0.0000 0.0000 0.0000 43.0607 0.0000 -64.0978
#
#
#
# Elastic Compliance Matrix: (Units=1/GPa)
#
#
# Indices 1 2 3 4 5 6 
#
# 1 0.012301 -0.001369 -0.006381 0.000000 0.009269 0.000000
# 2 -0.001369 0.009169 -0.001176 0.000000 0.000351 0.000000
# 3 -0.006381 -0.001176 0.018252 0.000000 0.001551 0.000000
# 4 0.000000 0.000000 0.000000 0.081843 0.000000 0.054982
# 5 0.009269 0.000351 0.001551 0.000000 0.033535 0.000000
# 6 0.000000 0.000000 0.000000 0.054982 0.000000 0.021335
#
#
# Mechanical properties :
#
#
# Convention : Reuss Voigt Hill
#
# Bulk Modulus (GPa) = 45.72792 61.85785 53.79288
# Shear Modulus (GPa) = 24.80434 8.03121 16.41777
#
# Velocity S-wave (km/s) = 3.09814 1.76290 2.52054
# Velocity P-wave (km/s) = 5.52206 5.29912 5.41174
#
# Compressibility (1/GPa) = 0.02186848
#
# Stress axis : x y z
#
# Youngs Moduli (GPa) = 81.29520 109.06738 54.78742
#
# Poissons Ratio (x) = 0.14934 0.34961
# Poissons Ratio (y) = 0.11131 0.06444
# Poissons Ratio (z) = 0.51876 0.12829
#
# Static dielectric constant tensor:
#      x y z
#    x 2.188430 0.000000 -0.053650 
#    y 0.000000 1.954970 0.000000 
#    z -0.053650 0.000000 2.129400 
# 
# From -- ./inp_files/16564.got.cif
#   From: 2010.05.17/outbox.cif.g08.bks.cpg/sg8_9_cif.got.tgz:16564.got - 2010.06.03 19:46:02.
