data_PCOD9131926
_publ_section_title
;
Structure prediction by ZEFSAII (Michael W. Deem and Ramdas Pophale) SiO2 
 PCOD9131926
Probable space group: C M
;
_chemical_formula_sum "Si O2"
_cell_formula_units_Z 32
_cell_length_a 15.046310
_cell_length_b 8.766625
_cell_length_c 25.932247
_cell_angle_alpha 90.000000
_cell_angle_beta 29.458221
_cell_angle_gamma 90.000000
_cell_volume 1682.213844
_symmetry_space_group_name_H-M "C M"
_symmetry_group_IT_number 8
_symmetry_cell_setting 'monoclinic'
loop_
_space_group_symop_operation_xyz
x,y,z
x,-y,z
1/2+x,1/2+y,z
1/2+x,1/2-y,z
loop_
_atom_site_type_symbol
_atom_site_label
_atom_site_fract_x
_atom_site_fract_y
_atom_site_fract_z
Si Si1 0.058380 0.174888 0.125000
Si Si2 0.593269 0.682968 0.913867
Si Si3 0.720610 0.185371 0.354624
Si Si4 0.897316 0.817389 0.907779
Si Si5 0.260466 0.175618 0.134685
Si Si6 0.473724 0.314978 0.754637
Si Si7 0.829041 0.685603 0.514339
Si Si8 0.417204 0.817011 0.354760
O O1 0.157221 0.177168 0.131216
O O2 0.858424 0.233774 0.239259
O O3 0.046914 0.000000 0.113242
O O4 0.191479 0.264530 0.020440
O O5 0.599916 0.500000 0.911860
O O6 0.514512 0.733372 0.897882
O O7 0.789249 0.752111 0.824048
O O8 0.449199 0.741263 0.028936
O O9 0.516203 0.232060 0.446756
O O10 0.796527 0.250917 0.369501
O O11 0.731148 0.000000 0.351234
O O12 0.975076 0.765754 0.813823
O O13 0.898920 0.000000 0.907485
O O14 0.121290 0.257855 0.243029
O O15 0.288864 0.000000 0.134929
O O16 0.469204 0.500000 0.755636
O O17 0.650432 0.262748 0.634330
O O18 0.827277 0.500000 0.515912
O O19 0.840565 0.731794 0.448836
O O20 0.418736 0.000000 0.351282
#
# Coordination Sequence:
#
# PCOD9131926 Si02
#       8
#     4   4   4   4   4   4   4   4
#     4   8  15  28  50  78 105 130 164 208 259 315
#     4  10  20  35  55  82 110 136 170 220 269 309
#     4   9  18  35  56  77 102 139 178 213 260 322
#     4   9  19  34  53  76 104 136 172 212 258 308
#     4   9  17  32  54  81 109 140 173 208 258 324
#     4  10  21  38  55  74 103 143 184 219 258 315
#     4   9  20  37  55  74 103 143 185 219 258 314
#     4  10  19  33  54  82 110 137 172 221 268 307
#
# _framework density 19.022552999999998
#
# number of rings (size 3 to 8) (size 9 to 14) (size 15 to 20)
#    0.000    2.750    0.000    1.875    0.000    6.000 
#    0.000    5.625    0.000    0.000    0.000    0.000 
#    0.000    0.000    0.000    0.000    0.000    0.000 
#
# Total GULP energy -89268.637951 kJ/mol
# GULP energy per Si atom -5579.289872 kJ/mol
# Density = 1.897926 g / cm^3
# Si number density = 19.022553 Si / 1000 Ang^3
#
#
#
# Elastic Constant Matrix: (Units=GPa)
#
#
# Indices 1 2 3 4 5 6 
#
# 1 110.4697 30.6311 106.4019 0.0000 -4.0922 0.0000
# 2 30.6311 29.9323 47.0172 0.0000 0.4160 0.0000
# 3 106.4019 47.0172 243.2818 -0.0001 -4.8011 0.0001
# 4 0.0000 0.0000 -0.0001 26.1644 0.0000 -5.5840
# 5 -4.0922 0.4160 -4.8011 0.0000 33.7619 0.0000
# 6 0.0000 0.0000 0.0001 -5.5840 0.0000 3.3785
#
#
#
# Elastic Compliance Matrix: (Units=1/GPa)
#
#
# Indices 1 2 3 4 5 6 
#
# 1 0.016988 -0.008291 -0.005801 0.000000 0.001336 0.000000
# 2 -0.008291 0.052142 -0.006502 0.000000 -0.002572 0.000000
# 3 -0.005801 -0.006502 0.007914 0.000000 0.000502 0.000000
# 4 0.000000 0.000000 0.000000 0.059049 0.000000 0.097595
# 5 0.001336 -0.002572 0.000502 0.000000 0.029884 0.000000
# 6 0.000000 0.000000 0.000000 0.097595 0.000000 0.457290
#
#
# Mechanical properties :
#
#
# Convention : Reuss Voigt Hill
#
# Bulk Modulus (GPa) = 27.88907 83.53158 55.71033
# Shear Modulus (GPa) = 7.39200 25.96989 16.68095
#
# Velocity S-wave (km/s) = 1.97341 3.69889 2.96447
# Velocity P-wave (km/s) = 4.45930 7.88984 6.40839
#
# Compressibility (1/GPa) = 0.03585634
#
# Stress axis : x y z
#
# Youngs Moduli (GPa) = 58.86369 19.17858 126.35529
#
# Poissons Ratio (x) = 0.15901 0.73303
# Poissons Ratio (y) = 0.48803 0.82152
# Poissons Ratio (z) = 0.34149 0.12469
#
# Static dielectric constant tensor:
#      x y z
#    x 1.679510 0.000000 0.011320 
#    y 0.000000 1.645630 0.000000 
#    z 0.011320 0.000000 1.650720 
# 
# From -- ./inp_files/26523.got.cif
#   From: 2010.05.17/outbox.cif.g08.bks.cpg/sg8_14_cif.got.tgz:26523.got - 2010.06.03 19:46:02.
