data_PCOD9131362
_publ_section_title
;
Structure prediction by ZEFSAII (Michael W. Deem and Ramdas Pophale) SiO2 
 PCOD9131362
Probable space group: P C
;
_chemical_formula_sum "Si O2"
_cell_formula_units_Z 16
_cell_length_a 15.660209
_cell_length_b 7.321428
_cell_length_c 5.527499
_cell_angle_alpha 90.000000
_cell_angle_beta 79.623669
_cell_angle_gamma 90.000000
_cell_volume 623.391440
_symmetry_space_group_name_H-M "P C"
_symmetry_group_IT_number 7
_symmetry_cell_setting 'monoclinic'
loop_
_space_group_symop_operation_xyz
x,y,z
x,-y,1/2+z
loop_
_atom_site_type_symbol
_atom_site_label
_atom_site_fract_x
_atom_site_fract_y
_atom_site_fract_z
Si Si1 0.811770 0.719470 0.516900
Si Si2 0.032329 0.095321 0.544694
Si Si3 0.541972 0.199040 0.654919
Si Si4 0.242523 0.090622 0.423843
Si Si5 0.879221 0.301528 0.483976
Si Si6 0.609430 0.219032 0.118871
Si Si7 0.380382 0.392541 0.846173
Si Si8 0.200067 0.513547 0.939747
O O1 0.842827 0.507163 0.483614
O O2 0.860254 0.786538 0.733348
O O3 0.710517 0.749220 0.613919
O O4 0.831790 0.791469 0.237231
O O5 0.980124 0.278130 0.501726
O O6 0.136560 0.098951 0.481911
O O7 0.009597 0.038017 0.830489
O O8 0.559968 0.285842 0.383764
O O9 0.440921 0.216646 0.774778
O O10 0.579633 0.993965 0.616269
O O11 0.589034 0.291881 0.860535
O O12 0.258971 0.305561 0.414337
O O13 0.270975 0.997884 0.657864
O O14 0.400463 0.516941 0.597617
O O15 0.275978 0.362716 0.899716
O O16 0.150030 0.500778 0.715191
#
# Coordination Sequence:
#
# PCOD9131362 Si02
#       8
#     2   2   2   2   2   2   2   2
#     4  10  21  40  59  83 121 159 209 270 314 376
#     4  10  21  40  61  92 128 171 209 261 317 390
#     4  10  21  40  62  88 115 159 206 262 319 384
#     4  10  21  40  69  98 136 176 224 269 327 392
#     4  10  21  40  58  84 119 163 208 256 329 369
#     4  10  21  40  62  85 119 154 217 265 315 378
#     4  10  21  40  65  87 129 163 204 256 325 385
#     4  10  21  40  68  99 135 173 215 271 332 394
#
# _framework density 25.666060000000002
#
# number of rings (size 3 to 8) (size 9 to 14) (size 15 to 20)
#    0.000    2.000    0.000    3.000    0.000    0.000 
#   31.500    0.000   66.000    0.000    0.000    0.000 
#    0.000    0.000    0.000    0.000    0.000    0.000 
#
# Total GULP energy -89310.363047 kJ/mol
# GULP energy per Si atom -5581.897690 kJ/mol
# Density = 2.560764 g / cm^3
# Si number density = 25.666060 Si / 1000 Ang^3
#
#
#
# Elastic Constant Matrix: (Units=GPa)
#
#
# Indices 1 2 3 4 5 6 
#
# 1 73.3032 -0.0921 26.0729 0.0000 5.1222 0.0000
# 2 -0.0921 92.4702 19.5596 0.0000 6.6601 0.0000
# 3 26.0729 19.5596 253.8289 0.0000 39.9731 0.0000
# 4 0.0000 0.0000 0.0000 16.5576 0.0000 -6.9199
# 5 5.1222 6.6601 39.9731 0.0000 40.2160 0.0000
# 6 0.0000 0.0000 0.0000 -6.9199 0.0000 38.1384
#
#
#
# Elastic Compliance Matrix: (Units=1/GPa)
#
#
# Indices 1 2 3 4 5 6 
#
# 1 0.014176 0.000346 -0.001410 0.000000 -0.000461 0.000000
# 2 0.000346 0.011048 -0.000702 0.000000 -0.001176 0.000000
# 3 -0.001410 -0.000702 0.004851 0.000000 -0.004526 0.000000
# 4 0.000000 0.000000 0.000000 0.065351 0.000000 0.011857
# 5 -0.000461 -0.001176 -0.004526 0.000000 0.029618 0.000000
# 6 0.000000 0.000000 0.000000 0.011857 0.000000 0.028372
#
#
# Mechanical properties :
#
#
# Convention : Reuss Voigt Hill
#
# Bulk Modulus (GPa) = 37.67459 56.74257 47.20858
# Shear Modulus (GPa) = 30.15753 43.91985 37.03869
#
# Velocity S-wave (km/s) = 3.43154 4.14116 3.80294
# Velocity P-wave (km/s) = 5.51464 6.70981 6.14137
#
# Compressibility (1/GPa) = 0.02654309
#
# Stress axis : x y z
#
# Youngs Moduli (GPa) = 70.54069 90.51609 206.12717
#
# Poissons Ratio (x) = -0.03128 0.29067
# Poissons Ratio (y) = -0.02438 0.14461
# Poissons Ratio (z) = 0.09947 0.06350
#
# Static dielectric constant tensor:
#      x y z
#    x 2.000900 0.000000 0.029240 
#    y 0.000000 2.001000 0.000000 
#    z 0.029240 0.000000 2.066980 
# 
# From -- ./inp_files/1290.got.cif
#   From: 2010.05.17/outbox.cif.g08.bks.cpg/sg7_cif.got.tgz:1290.got - 2010.06.03 19:44:50.
