data_PCOD9131418
_publ_section_title
;
Structure prediction by ZEFSAII (Michael W. Deem and Ramdas Pophale) SiO2 
 PCOD9131418
Probable space group: P C
;
_chemical_formula_sum "Si O2"
_cell_formula_units_Z 10
_cell_length_a 4.654431
_cell_length_b 13.557380
_cell_length_c 5.635893
_cell_angle_alpha 90.000000
_cell_angle_beta 83.949084
_cell_angle_gamma 90.000000
_cell_volume 353.654116
_symmetry_space_group_name_H-M "P C"
_symmetry_group_IT_number 7
_symmetry_cell_setting 'monoclinic'
loop_
_space_group_symop_operation_xyz
x,y,z
x,-y,1/2+z
loop_
_atom_site_type_symbol
_atom_site_label
_atom_site_fract_x
_atom_site_fract_y
_atom_site_fract_z
Si Si1 0.692270 0.706179 0.379570
Si Si2 0.698031 0.494310 0.507520
Si Si3 0.768326 0.018281 0.567110
Si Si4 0.028209 0.166634 0.230025
Si Si5 0.278769 0.695075 0.050531
O O1 0.561576 0.602716 0.481283
O O2 0.834083 0.766557 0.577469
O O3 0.438779 0.754025 0.248110
O O4 0.952533 0.680033 0.170209
O O5 0.862968 0.485542 0.241565
O O6 0.458286 0.407278 0.517463
O O7 0.024639 0.937399 0.589063
O O8 0.615423 0.986758 0.334670
O O9 0.891731 0.124095 0.487803
O O10 0.270443 0.238260 0.315142
#
# Coordination Sequence:
#
# PCOD9131418 Si02
#       5
#     2   2   2   2   2
#     4  11  27  48  77 113 160 207 264 320 394 467
#     4  10  26  48  70 110 152 202 258 314 376 464
#     4   8  18  40  72 108 148 194 258 316 388 454
#     4  10  22  44  80 110 160 202 260 330 388 470
#     4  11  27  48  77 113 160 207 264 320 394 467
#
# _framework density 28.276215000000001
#
# number of rings (size 3 to 8) (size 9 to 14) (size 15 to 20)
#    1.200    0.800    0.000    1.200   11.200    6.400 
#    3.600    2.000    0.000    0.000    0.000    0.000 
#    0.000    0.000    0.000    0.000    0.000    0.000 
#
# Total GULP energy -55726.569390 kJ/mol
# GULP energy per Si atom -5572.656939 kJ/mol
# Density = 2.821186 g / cm^3
# Si number density = 28.276215 Si / 1000 Ang^3
#
#
#
# Elastic Constant Matrix: (Units=GPa)
#
#
# Indices 1 2 3 4 5 6 
#
# 1 116.9403 20.6572 33.4898 0.0000 3.0837 0.0000
# 2 20.6572 154.9182 19.8233 0.0000 7.2974 0.0000
# 3 33.4898 19.8233 234.2283 0.0000 17.6704 0.0000
# 4 0.0000 0.0000 0.0000 43.2622 0.0000 7.6093
# 5 3.0837 7.2974 17.6704 0.0000 38.0087 0.0000
# 6 0.0000 0.0000 0.0000 7.6093 0.0000 -5.3755
#
#
#
# Elastic Compliance Matrix: (Units=1/GPa)
#
#
# Indices 1 2 3 4 5 6 
#
# 1 0.009084 -0.001058 -0.001212 0.000000 0.000029 0.000000
# 2 -0.001058 0.006688 -0.000336 0.000000 -0.001042 0.000000
# 3 -0.001212 -0.000336 0.004621 0.000000 -0.001985 0.000000
# 4 0.000000 0.000000 0.000000 0.018507 0.000000 0.026198
# 5 0.000029 -0.001042 -0.001985 0.000000 0.027430 0.000000
# 6 0.000000 0.000000 0.000000 0.026198 0.000000 -0.148944
#
#
# Mechanical properties :
#
#
# Convention : Reuss Voigt Hill
#
# Bulk Modulus (GPa) = 65.86557 72.66971 69.26764
# Shear Modulus (GPa) = -69.11691 43.98683 -12.56504
#
# Velocity S-wave (km/s) = -4.94940 3.94840 -2.11029
# Velocity P-wave (km/s) = 3.05252 6.82219 4.31419
#
# Compressibility (1/GPa) = 0.01518244
#
# Stress axis : x y z
#
# Youngs Moduli (GPa) = 110.07864 149.51804 216.41262
#
# Poissons Ratio (x) = 0.15814 0.26220
# Poissons Ratio (y) = 0.11643 0.07276
# Poissons Ratio (z) = 0.13337 0.05027
#
# Static dielectric constant tensor:
#      x y z
#    x 2.177000 0.000000 -0.103260 
#    y 0.000000 2.260400 0.000000 
#    z -0.103260 0.000000 2.307070 
# 
# From -- ./inp_files/155.got.cif
#   From: 2010.05.17/outbox.cif.g08.bks.cpg/sg7_cif.got.tgz:155.got - 2010.06.03 19:44:50.
