data_PCOD9131437
_publ_section_title
;
Structure prediction by ZEFSAII (Michael W. Deem and Ramdas Pophale) SiO2 
 PCOD9131437
Probable space group: P C
;
_chemical_formula_sum "Si O2"
_cell_formula_units_Z 16
_cell_length_a 6.670708
_cell_length_b 16.791701
_cell_length_c 5.481247
_cell_angle_alpha 90.000000
_cell_angle_beta 77.522752
_cell_angle_gamma 90.000000
_cell_volume 599.467587
_symmetry_space_group_name_H-M "P C"
_symmetry_group_IT_number 7
_symmetry_cell_setting 'monoclinic'
loop_
_space_group_symop_operation_xyz
x,y,z
x,-y,1/2+z
loop_
_atom_site_type_symbol
_atom_site_label
_atom_site_fract_x
_atom_site_fract_y
_atom_site_fract_z
Si Si1 0.521820 0.871026 0.813980
Si Si2 0.110161 0.094554 0.673502
Si Si3 0.826502 0.544407 0.519465
Si Si4 0.451807 0.385644 0.314613
Si Si5 0.940432 0.082282 0.215480
Si Si6 0.399615 0.241735 0.965897
Si Si7 0.105161 0.664969 0.199009
Si Si8 0.740849 0.727475 0.014217
O O1 0.698354 0.936626 0.743633
O O2 0.399482 0.842164 0.607539
O O3 0.349593 0.890297 0.058636
O O4 0.666446 0.795702 0.847960
O O5 0.986030 0.121807 0.465566
O O6 0.066680 0.999946 0.697554
O O7 0.015233 0.125616 0.950697
O O8 0.879565 0.494520 0.263567
O O9 0.578502 0.556795 0.602965
O O10 0.950770 0.625540 0.434062
O O11 0.378745 0.311532 0.169366
O O12 0.257777 0.400653 0.538801
O O13 0.629752 0.352315 0.446182
O O14 0.246536 0.268667 0.791013
O O15 0.625040 0.248118 0.791408
O O16 0.969010 0.704500 0.024114
#
# Coordination Sequence:
#
# PCOD9131437 Si02
#       8
#     2   2   2   2   2   2   2   2
#     4  11  26  45  73 112 154 195 263 319 391 465
#     4  10  25  47  72 110 147 201 252 313 380 467
#     4  12  28  48  77 112 152 203 263 308 373 473
#     4  10  24  47  71 103 148 197 246 315 386 438
#     4  10  25  46  75 106 151 202 255 308 388 457
#     4  10  24  44  72 108 145 198 247 325 380 455
#     4  11  25  47  78 103 154 202 253 316 402 430
#     4  10  23  46  70 108 149 198 247 326 388 455
#
# _framework density 26.690349999999999
#
# number of rings (size 3 to 8) (size 9 to 14) (size 15 to 20)
#    0.000    1.500    1.250    0.750    8.750    9.000 
#    0.000    0.000    0.000    0.000    0.000    0.000 
#    0.000    0.000    0.000    0.000    0.000    0.000 
#
# Total GULP energy -89522.707556 kJ/mol
# GULP energy per Si atom -5595.169222 kJ/mol
# Density = 2.662960 g / cm^3
# Si number density = 26.690350 Si / 1000 Ang^3
#
#
#
# Elastic Constant Matrix: (Units=GPa)
#
#
# Indices 1 2 3 4 5 6 
#
# 1 168.2139 30.0025 57.1195 0.0000 1.1649 0.0000
# 2 30.0025 63.2323 15.2705 0.0000 -5.7626 0.0000
# 3 57.1195 15.2705 177.1096 0.0000 -4.3495 0.0000
# 4 0.0000 0.0000 0.0000 36.9509 0.0000 -1.8355
# 5 1.1649 -5.7626 -4.3495 0.0000 54.0965 0.0000
# 6 0.0000 0.0000 0.0000 -1.8355 0.0000 21.8721
#
#
#
# Elastic Compliance Matrix: (Units=1/GPa)
#
#
# Indices 1 2 3 4 5 6 
#
# 1 0.007183 -0.002965 -0.002077 0.000000 -0.000637 0.000000
# 2 -0.002965 0.017516 -0.000508 0.000000 0.001889 0.000000
# 3 -0.002077 -0.000508 0.006372 0.000000 0.000503 0.000000
# 4 0.000000 0.000000 0.000000 0.027176 0.000000 0.002281
# 5 -0.000637 0.001889 0.000503 0.000000 0.018741 0.000000
# 6 0.000000 0.000000 0.000000 0.002281 0.000000 0.045912
#
#
# Mechanical properties :
#
#
# Convention : Reuss Voigt Hill
#
# Bulk Modulus (GPa) = 50.06740 68.14900 59.10820
# Shear Modulus (GPa) = 35.54757 42.99477 39.27117
#
# Velocity S-wave (km/s) = 3.65341 4.01792 3.84000
# Velocity P-wave (km/s) = 6.04945 6.86393 6.46952
#
# Compressibility (1/GPa) = 0.01997308
#
# Stress axis : x y z
#
# Youngs Moduli (GPa) = 139.21356 57.08991 156.93432
#
# Poissons Ratio (x) = 0.16926 0.32590
# Poissons Ratio (y) = 0.41275 0.07967
# Poissons Ratio (z) = 0.28910 0.02898
#
# Static dielectric constant tensor:
#      x y z
#    x 2.109200 0.000000 0.018370 
#    y 0.000000 2.298370 0.000000 
#    z 0.018370 0.000000 2.102980 
# 
# From -- ./inp_files/392.got.cif
#   From: 2010.05.17/outbox.cif.g08.bks.cpg/sg7_cif.got.tgz:392.got - 2010.06.03 19:44:50.
