data_PCOD9131298
_publ_section_title
;
Structure prediction by ZEFSAII (Michael W. Deem and Ramdas Pophale) SiO2 
 PCOD9131298
Probable space group: P C
;
_chemical_formula_sum "Si O2"
_cell_formula_units_Z 16
_cell_length_a 9.305373
_cell_length_b 14.995644
_cell_length_c 5.553382
_cell_angle_alpha 90.000000
_cell_angle_beta 53.332765
_cell_angle_gamma 90.000000
_cell_volume 621.576122
_symmetry_space_group_name_H-M "P C"
_symmetry_group_IT_number 7
_symmetry_cell_setting 'monoclinic'
loop_
_space_group_symop_operation_xyz
x,y,z
x,-y,1/2+z
loop_
_atom_site_type_symbol
_atom_site_label
_atom_site_fract_x
_atom_site_fract_y
_atom_site_fract_z
Si Si1 0.427010 0.214503 0.951410
Si Si2 0.293880 0.548284 0.586100
Si Si3 0.683599 0.952299 0.194436
Si Si4 0.553715 0.720677 0.824612
Si Si5 0.072797 0.730821 0.804758
Si Si6 0.085666 0.014822 0.791926
Si Si7 0.920993 0.788151 0.456558
Si Si8 0.696551 0.519944 0.682258
O O1 0.579734 0.140453 0.798602
O O2 0.449175 0.266492 0.676698
O O3 0.448888 0.266438 0.182216
O O4 0.218703 0.188735 0.159357
O O5 0.246417 0.499319 0.384528
O O6 0.514441 0.541412 0.364959
O O7 0.187235 0.640429 0.690790
O O8 0.635245 0.000047 0.492759
O O9 0.902995 0.953785 0.974820
O O10 0.708042 0.794911 0.670126
O O11 0.637415 0.622495 0.740964
O O12 0.967974 0.738349 0.658927
O O13 0.967286 0.738395 0.160557
O O14 0.014726 0.116432 0.862800
O O15 0.185408 0.999953 0.442146
O O16 0.793927 0.499840 0.334922
#
# Coordination Sequence:
#
# PCOD9131298 Si02
#       8
#     2   2   2   2   2   2   2   2
#     4  12  23  42  71 100 129 173 229 280 324 396
#     4  10  19  38  64  90 123 173 221 262 322 398
#     4  10  20  36  61  94 123 160 219 278 321 374
#     4  12  23  42  71 100 129 173 229 280 324 396
#     4  12  26  44  66 102 143 180 217 274 349 410
#     4  10  19  38  64  90 123 173 221 262 322 398
#     4  12  26  44  66 102 143 180 217 274 349 410
#     4  10  20  36  61  94 123 160 219 278 321 374
#
# _framework density 25.741015000000001
#
# number of rings (size 3 to 8) (size 9 to 14) (size 15 to 20)
#    0.000    1.000    0.000   10.500    0.000    0.000 
#    0.000    7.500    0.000    0.000    0.000    0.000 
#    0.000    0.000    0.000    0.000    0.000    0.000 
#
# Total GULP energy -89598.478718 kJ/mol
# GULP energy per Si atom -5599.904920 kJ/mol
# Density = 2.568243 g / cm^3
# Si number density = 25.741015 Si / 1000 Ang^3
#
#
#
# Elastic Constant Matrix: (Units=GPa)
#
#
# Indices 1 2 3 4 5 6 
#
# 1 114.5412 19.8359 98.7623 0.0000 53.9649 0.0000
# 2 19.8359 60.9812 25.9036 0.0000 24.3945 0.0000
# 3 98.7623 25.9036 143.6077 0.0000 70.9512 0.0000
# 4 0.0000 0.0000 0.0000 34.7482 0.0000 4.6218
# 5 53.9649 24.3945 70.9512 0.0000 77.4735 0.0000
# 6 0.0000 0.0000 0.0000 4.6218 0.0000 33.4750
#
#
#
# Elastic Compliance Matrix: (Units=1/GPa)
#
#
# Indices 1 2 3 4 5 6 
#
# 1 0.021747 -0.000249 -0.013635 0.000000 -0.002583 0.000000
# 2 -0.000249 0.018822 -0.000697 0.000000 -0.005115 0.000000
# 3 -0.013635 -0.000697 0.021306 0.000000 -0.009795 0.000000
# 4 0.000000 0.000000 0.000000 0.029317 0.000000 -0.004048
# 5 -0.002583 -0.005115 -0.009795 0.000000 0.025287 0.000000
# 6 0.000000 0.000000 0.000000 -0.004048 0.000000 0.030432
#
#
# Mechanical properties :
#
#
# Convention : Reuss Voigt Hill
#
# Bulk Modulus (GPa) = 30.56901 67.57044 49.06973
# Shear Modulus (GPa) = 26.74139 40.78122 33.76131
#
# Velocity S-wave (km/s) = 3.22664 3.98463 3.62550
# Velocity P-wave (km/s) = 5.07769 6.89034 6.05226
#
# Compressibility (1/GPa) = 0.03271287
#
# Stress axis : x y z
#
# Youngs Moduli (GPa) = 45.98305 53.13050 46.93613
#
# Poissons Ratio (x) = 0.01322 0.63998
# Poissons Ratio (y) = 0.01144 0.03270
# Poissons Ratio (z) = 0.62699 0.03702
#
# Static dielectric constant tensor:
#      x y z
#    x 2.023390 0.000000 0.064670 
#    y 0.000000 2.100680 0.000000 
#    z 0.064670 0.000000 2.039440 
# 
# From -- ./inp_files/653.got.cif
#   From: 2010.05.17/outbox.cif.g08.bks.cpg/sg7_cif.got.tgz:653.got - 2010.06.03 19:44:50.
