data_PCOD9131403
_publ_section_title
;
Structure prediction by ZEFSAII (Michael W. Deem and Ramdas Pophale) SiO2 
 PCOD9131403
Probable space group: P C
;
_chemical_formula_sum "Si O2"
_cell_formula_units_Z 14
_cell_length_a 5.698517
_cell_length_b 16.800538
_cell_length_c 5.874492
_cell_angle_alpha 90.000000
_cell_angle_beta 110.303557
_cell_angle_gamma 90.000000
_cell_volume 527.468819
_symmetry_space_group_name_H-M "P C"
_symmetry_group_IT_number 7
_symmetry_cell_setting 'monoclinic'
loop_
_space_group_symop_operation_xyz
x,y,z
x,-y,1/2+z
loop_
_atom_site_type_symbol
_atom_site_label
_atom_site_fract_x
_atom_site_fract_y
_atom_site_fract_z
Si Si1 0.538440 0.755138 0.681260
Si Si2 0.129206 0.533120 0.641437
Si Si3 0.635394 0.086599 0.598255
Si Si4 0.003365 0.763906 0.258996
Si Si5 0.696046 0.626518 0.420736
Si Si6 0.285017 0.681410 0.968828
Si Si7 0.596506 0.911398 0.582000
O O1 0.273128 0.774543 0.470407
O O2 0.634098 0.670175 0.633629
O O3 0.719141 0.824219 0.647024
O O4 0.468632 0.746270 0.920193
O O5 0.198347 0.512913 0.401337
O O6 0.827749 0.542876 0.509269
O O7 0.196337 0.622751 0.741815
O O8 0.485596 0.090174 0.305913
O O9 0.853385 0.152871 0.689175
O O10 0.739528 0.995397 0.630540
O O11 0.484625 0.091177 0.787249
O O12 0.074657 0.726606 0.038144
O O13 0.860082 0.691931 0.337463
O O14 0.442214 0.626717 0.192550
#
# Coordination Sequence:
#
# PCOD9131403 Si02
#       7
#     2   2   2   2   2   2   2
#     4  11  24  42  75 107 142 193 260 310 362 454
#     4  12  29  51  75 112 157 193 247 311 384 466
#     4  10  22  41  69  96 146 195 238 306 374 430
#     4  11  23  44  73 108 145 196 262 306 369 449
#     4  11  25  47  77 103 148 198 250 307 378 443
#     4  11  27  45  77 113 146 201 256 312 371 458
#     4  10  22  42  66 101 142 192 243 304 374 428
#
# _framework density 26.541855999999999
#
# number of rings (size 3 to 8) (size 9 to 14) (size 15 to 20)
#    0.000    1.143    2.857    1.714   12.000    1.143 
#    0.000    5.714    0.000    0.000    0.000    0.000 
#    0.000    0.000    0.000    0.000    0.000    0.000 
#
# Total GULP energy -77941.958407 kJ/mol
# GULP energy per Si atom -5567.282743 kJ/mol
# Density = 2.648145 g / cm^3
# Si number density = 26.541856 Si / 1000 Ang^3
#
#
#
# Elastic Constant Matrix: (Units=GPa)
#
#
# Indices 1 2 3 4 5 6 
#
# 1 57.9582 26.3377 42.4835 0.0000 -24.4408 0.0000
# 2 26.3377 104.9417 57.0983 0.0000 -14.9043 0.0000
# 3 42.4835 57.0983 224.8852 0.0000 -22.7308 0.0000
# 4 0.0000 0.0000 0.0000 48.1678 0.0000 -11.0728
# 5 -24.4408 -14.9043 -22.7308 0.0000 57.9124 0.0000
# 6 0.0000 0.0000 0.0000 -11.0728 0.0000 25.0777
#
#
#
# Elastic Compliance Matrix: (Units=1/GPa)
#
#
# Indices 1 2 3 4 5 6 
#
# 1 0.024420 -0.003361 -0.002921 0.000000 0.008294 0.000000
# 2 -0.003361 0.011706 -0.002266 0.000000 0.000705 0.000000
# 3 -0.002921 -0.002266 0.005613 0.000000 0.000387 0.000000
# 4 0.000000 0.000000 0.000000 0.023106 0.000000 0.010202
# 5 0.008294 0.000705 0.000387 0.000000 0.021101 0.000000
# 6 0.000000 0.000000 0.000000 0.010202 0.000000 0.044381
#
#
# Mechanical properties :
#
#
# Convention : Reuss Voigt Hill
#
# Bulk Modulus (GPa) = 40.58145 71.06934 55.82540
# Shear Modulus (GPa) = 32.12574 43.68928 37.90751
#
# Velocity S-wave (km/s) = 3.48283 4.06156 3.78327
# Velocity P-wave (km/s) = 5.61215 6.98781 6.33742
#
# Compressibility (1/GPa) = 0.02464180
#
# Stress axis : x y z
#
# Youngs Moduli (GPa) = 40.94924 85.42905 178.15671
#
# Poissons Ratio (x) = 0.28716 0.52048
# Poissons Ratio (y) = 0.13764 0.40367
# Poissons Ratio (z) = 0.11963 0.19357
#
# Static dielectric constant tensor:
#      x y z
#    x 2.157270 0.000000 0.062680 
#    y 0.000000 2.160680 0.000000 
#    z 0.062680 0.000000 2.171110 
# 
# From -- ./inp_files/216.got.cif
#   From: 2010.05.17/outbox.cif.g08.bks.cpg/sg7_cif.got.tgz:216.got - 2010.06.03 19:44:50.
