data_PCOD9131431
_publ_section_title
;
Structure prediction by ZEFSAII (Michael W. Deem and Ramdas Pophale) SiO2 
 PCOD9131431
Probable space group: P C
;
_chemical_formula_sum "Si O2"
_cell_formula_units_Z 16
_cell_length_a 7.439953
_cell_length_b 17.610199
_cell_length_c 5.251549
_cell_angle_alpha 90.000000
_cell_angle_beta 62.499979
_cell_angle_gamma 90.000000
_cell_volume 610.310327
_symmetry_space_group_name_H-M "P C"
_symmetry_group_IT_number 7
_symmetry_cell_setting 'monoclinic'
loop_
_space_group_symop_operation_xyz
x,y,z
x,-y,1/2+z
loop_
_atom_site_type_symbol
_atom_site_label
_atom_site_fract_x
_atom_site_fract_y
_atom_site_fract_z
Si Si1 0.685180 0.474117 0.557980
Si Si2 0.924563 0.045916 0.368726
Si Si3 0.334172 0.213194 0.748894
Si Si4 0.061357 0.785197 0.882888
Si Si5 0.133608 0.465268 0.693698
Si Si6 0.640314 0.299534 0.727648
Si Si7 0.436883 0.045638 0.686074
Si Si8 0.369529 0.321686 0.381406
O O1 0.573793 0.485394 0.363653
O O2 0.718217 0.386059 0.573961
O O3 0.891513 0.521950 0.372022
O O4 0.020753 0.126331 0.383288
O O5 0.680710 0.055934 0.520349
O O6 0.974857 0.984795 0.554578
O O7 0.513957 0.211987 0.851850
O O8 0.333897 0.125038 0.680772
O O9 0.474678 0.293169 0.573492
O O10 0.145633 0.240083 0.049514
O O11 0.235215 0.758605 0.978784
O O12 0.863574 0.739519 0.084383
O O13 0.197115 0.528506 0.445129
O O14 0.209776 0.386899 0.526586
O O15 0.524279 0.332932 0.059959
O O16 0.386992 0.984338 0.500240
#
# Coordination Sequence:
#
# PCOD9131431 Si02
#       8
#     2   2   2   2   2   2   2   2
#     4  10  23  42  71 103 136 189 246 292 369 433
#     4  10  23  43  71 107 143 194 250 304 366 444
#     4  11  27  45  71 111 145 199 246 309 375 443
#     4  11  25  46  72 104 147 195 247 306 372 447
#     4  10  23  45  73 101 146 189 244 302 370 433
#     4  11  26  47  72 104 148 193 247 306 374 446
#     4  10  23  45  75 103 149 197 247 307 369 441
#     4  11  28  45  73 109 150 194 247 314 377 447
#
# _framework density 26.216175
#
# number of rings (size 3 to 8) (size 9 to 14) (size 15 to 20)
#    0.000    1.500    1.250    1.500   14.000    4.000 
#    0.000    0.000    0.000    0.000    0.000    0.000 
#    0.000    0.000    0.000    0.000    0.000    0.000 
#
# Total GULP energy -89286.623098 kJ/mol
# GULP energy per Si atom -5580.413944 kJ/mol
# Density = 2.615651 g / cm^3
# Si number density = 26.216175 Si / 1000 Ang^3
#
#
#
# Elastic Constant Matrix: (Units=GPa)
#
#
# Indices 1 2 3 4 5 6 
#
# 1 135.3105 51.4648 65.7849 0.0000 -11.7462 0.0000
# 2 51.4648 172.8814 46.6378 0.0000 -7.6940 0.0000
# 3 65.7849 46.6378 148.0081 0.0000 11.5737 0.0000
# 4 0.0000 0.0000 0.0000 40.2003 0.0000 -0.8310
# 5 -11.7462 -7.6940 11.5737 0.0000 44.2626 0.0000
# 6 0.0000 0.0000 0.0000 -0.8310 0.0000 55.5018
#
#
#
# Elastic Compliance Matrix: (Units=1/GPa)
#
#
# Indices 1 2 3 4 5 6 
#
# 1 0.010523 -0.001784 -0.004399 0.000000 0.003633 0.000000
# 2 -0.001784 0.006745 -0.001416 0.000000 0.001069 0.000000
# 3 -0.004399 -0.001416 0.009462 0.000000 -0.003888 0.000000
# 4 0.000000 0.000000 0.000000 0.024883 0.000000 0.000373
# 5 0.003633 0.001069 -0.003888 0.000000 0.024759 0.000000
# 6 0.000000 0.000000 0.000000 0.000373 0.000000 0.018023
#
#
# Mechanical properties :
#
#
# Convention : Reuss Voigt Hill
#
# Bulk Modulus (GPa) = 86.71910 87.10833 86.91372
# Shear Modulus (GPa) = 44.07727 47.48043 45.77885
#
# Velocity S-wave (km/s) = 4.10481 4.26033 4.18330
# Velocity P-wave (km/s) = 7.45763 7.58285 7.52050
#
# Compressibility (1/GPa) = 0.01153148
#
# Stress axis : x y z
#
# Youngs Moduli (GPa) = 95.02911 148.25764 105.68825
#
# Poissons Ratio (x) = 0.26452 0.46493
# Poissons Ratio (y) = 0.16955 0.14965
# Poissons Ratio (z) = 0.41804 0.20993
#
# Static dielectric constant tensor:
#      x y z
#    x 2.304010 0.000000 0.109450 
#    y 0.000000 2.155160 0.000000 
#    z 0.109450 0.000000 2.136320 
# 
# From -- ./inp_files/801.got.cif
#   From: 2010.05.17/outbox.cif.g08.bks.cpg/sg7_cif.got.tgz:801.got - 2010.06.03 19:44:50.
