data_PCOD9131182
_publ_section_title
;
Structure prediction by ZEFSAII (Michael W. Deem and Ramdas Pophale) SiO2 
 PCOD9131182
Probable space group: P M
;
_chemical_formula_sum "Si O2"
_cell_formula_units_Z 10
_cell_length_a 4.985212
_cell_length_b 16.119243
_cell_length_c 5.334003
_cell_angle_alpha 90.000000
_cell_angle_beta 85.202831
_cell_angle_gamma 90.000000
_cell_volume 427.127489
_symmetry_space_group_name_H-M "P M"
_symmetry_group_IT_number 6
_symmetry_cell_setting 'monoclinic'
loop_
_space_group_symop_operation_xyz
x,y,z
x,-y,z
loop_
_atom_site_type_symbol
_atom_site_label
_atom_site_fract_x
_atom_site_fract_y
_atom_site_fract_z
Si Si1 0.413660 0.856212 0.468520
Si Si2 0.135736 0.500000 0.667967
Si Si3 0.661393 0.000000 0.158700
Si Si4 0.145912 0.500000 0.168902
Si Si5 0.861971 0.641523 0.943474
Si Si6 0.360782 0.752511 0.964009
Si Si7 0.180442 0.000000 0.781853
O O1 0.633171 0.919824 0.338477
O O2 0.474364 0.801624 0.711101
O O3 0.196193 0.920226 0.600838
O O4 0.343180 0.802356 0.227845
O O5 0.947325 0.580627 0.710167
O O6 0.304751 0.500000 0.408014
O O7 0.315583 0.500000 0.902507
O O8 0.427207 0.000000 0.963224
O O9 0.927107 0.000000 0.978223
O O10 0.957991 0.580742 0.159330
O O11 0.563720 0.675559 0.984301
O O12 0.064947 0.719125 0.923170
#
# Coordination Sequence:
#
# PCOD9131182 Si02
#       7
#     2   1   1   1   2   2   1
#     4  11  28  46  72 103 138 180 230 279 346 406
#     4   8  20  40  66  92 132 180 227 263 331 406
#     4  11  26  50  71  99 135 186 226 278 335 421
#     4   8  20  40  66  92 132 180 227 263 331 406
#     4   9  26  42  68  97 138 178 224 277 338 398
#     4  12  26  42  70 102 140 172 226 286 342 390
#     4  11  26  50  71  99 135 186 226 278 335 421
#
# _framework density 23.412216000000001
#
# number of rings (size 3 to 8) (size 9 to 14) (size 15 to 20)
#    1.200    0.400    2.000    0.000    8.400    9.600 
#    0.000    2.000    0.000    0.000    0.000    0.000 
#    0.000    0.000    0.000    0.000    0.000    0.000 
#
# Total GULP energy -55752.541773 kJ/mol
# GULP energy per Si atom -5575.254177 kJ/mol
# Density = 2.335893 g / cm^3
# Si number density = 23.412216 Si / 1000 Ang^3
#
#
#
# Elastic Constant Matrix: (Units=GPa)
#
#
# Indices 1 2 3 4 5 6 
#
# 1 152.3068 23.9118 81.4884 0.0000 -44.6489 0.0000
# 2 23.9118 116.2780 62.0494 0.0000 -1.5283 0.0000
# 3 81.4884 62.0494 263.9898 0.0000 -12.9135 0.0000
# 4 0.0000 0.0000 0.0000 -565.1250 0.0000 56.0394
# 5 -44.6489 -1.5283 -12.9135 0.0000 50.5246 0.0000
# 6 0.0000 0.0000 0.0000 56.0394 0.0000 -38.3611
#
#
#
# Elastic Compliance Matrix: (Units=1/GPa)
#
#
# Indices 1 2 3 4 5 6 
#
# 1 0.010677 -0.000629 -0.002721 0.000000 0.008721 0.000000
# 2 -0.000629 0.009875 -0.002167 0.000000 -0.000811 0.000000
# 3 -0.002721 -0.002167 0.005080 0.000000 -0.001172 0.000000
# 4 0.000000 0.000000 0.000000 -0.002069 0.000000 -0.003023
# 5 0.008721 -0.000811 -0.001172 0.000000 0.027175 0.000000
# 6 0.000000 0.000000 0.000000 -0.003023 0.000000 -0.030484
#
#
# Mechanical properties :
#
#
# Convention : Reuss Voigt Hill
#
# Bulk Modulus (GPa) = 68.50150 96.38598 82.44374
# Shear Modulus (GPa) = 138.30162 -86.25065 26.02549
#
# Velocity S-wave (km/s) = 7.69420 -6.07618 3.33771
# Velocity P-wave (km/s) = 10.40464 2.82280 7.08126
#
# Compressibility (1/GPa) = 0.01459822
#
# Stress axis : x y z
#
# Youngs Moduli (GPa) = 93.66020 101.26691 196.85152
#
# Poissons Ratio (x) = 0.06368 0.53570
# Poissons Ratio (y) = 0.05889 0.42650
# Poissons Ratio (z) = 0.25488 0.21940
#
# Static dielectric constant tensor:
#      x y z
#    x 1.791670 0.000000 -0.017020 
#    y 0.000000 1.955380 0.000000 
#    z -0.017020 0.000000 1.805330 
# 
# From -- ./inp_files/351.got.cif
#   From: 2010.05.17/outbox.cif.g08.bks.cpg/sg6_1_cif.got.tgz:351.got - 2010.06.03 19:42:10.
