data_PCOD9131587
_publ_section_title
;
Structure prediction by ZEFSAII (Michael W. Deem and Ramdas Pophale) SiO2 
 PCOD9131587
Probable space group: C M
;
_chemical_formula_sum "Si O2"
_cell_formula_units_Z 24
_cell_length_a 18.980887
_cell_length_b 8.306416
_cell_length_c 16.498333
_cell_angle_alpha 90.000000
_cell_angle_beta 149.977705
_cell_angle_gamma 90.000000
_cell_volume 1301.465991
_symmetry_space_group_name_H-M "C M"
_symmetry_group_IT_number 8
_symmetry_cell_setting 'monoclinic'
loop_
_space_group_symop_operation_xyz
x,y,z
x,-y,z
1/2+x,1/2+y,z
1/2+x,1/2-y,z
loop_
_atom_site_type_symbol
_atom_site_label
_atom_site_fract_x
_atom_site_fract_y
_atom_site_fract_z
Si Si1 0.209680 0.191151 0.559090
Si Si2 0.478325 0.311832 0.755816
Si Si3 0.888560 0.196584 0.231459
Si Si4 0.722386 0.805400 0.903640
Si Si5 0.627408 0.811916 0.064249
Si Si6 0.357404 0.691007 0.868947
O O1 0.313911 0.270846 0.597330
O O2 0.276131 0.227667 0.713237
O O3 0.049198 0.250240 0.397067
O O4 0.210240 0.000000 0.546057
O O5 0.497629 0.500000 0.792977
O O6 0.567285 0.265070 0.765550
O O7 0.549209 0.210223 0.899419
O O8 0.784327 0.249744 0.200310
O O9 0.887380 0.000000 0.232498
O O10 0.818655 0.244338 0.076257
O O11 0.793605 0.754780 0.890759
O O12 0.713614 0.000000 0.895572
O O13 0.633534 0.000000 0.090539
O O14 0.523448 0.726943 0.023524
O O15 0.337389 0.500000 0.841547
#
# Coordination Sequence:
#
# PCOD9131587 Si02
#       6
#     4   4   4   4   4   4
#     4  10  18  31  51  71  96 127 157 191 233 281
#     4  10  18  29  47  71  96 122 158 196 231 278
#     4   8  16  31  51  71  90 122 163 195 228 276
#     4   9  18  34  52  69  93 125 160 196 234 277
#     4   9  16  30  50  69  93 125 160 192 228 279
#     4  10  19  31  49  73  98 123 156 196 234 277
#
# _framework density 18.440743999999999
#
# number of rings (size 3 to 8) (size 9 to 14) (size 15 to 20)
#    0.000    2.667    0.000    6.000    0.000    1.333 
#    0.000   10.000    0.000    6.000    0.000    0.000 
#    0.000    0.000    0.000    0.000    0.000    0.000 
#
# Total GULP energy -66854.873256 kJ/mol
# GULP energy per Si atom -5571.239438 kJ/mol
# Density = 1.839877 g / cm^3
# Si number density = 18.440744 Si / 1000 Ang^3
#
#
#
# Elastic Constant Matrix: (Units=GPa)
#
#
# Indices 1 2 3 4 5 6 
#
# 1 148.0714 11.3367 54.3084 0.0000 43.6070 0.0000
# 2 11.3367 21.5345 5.8872 0.0000 2.9674 0.0000
# 3 54.3084 5.8872 98.2425 0.0000 43.2489 0.0000
# 4 0.0000 0.0000 0.0000 7.0161 0.0000 7.9826
# 5 43.6070 2.9674 43.2489 0.0000 33.8994 0.0000
# 6 0.0000 0.0000 0.0000 7.9826 0.0000 25.9774
#
#
#
# Elastic Compliance Matrix: (Units=1/GPa)
#
#
# Indices 1 2 3 4 5 6 
#
# 1 0.011208 -0.004015 0.000541 0.000000 -0.014757 0.000000
# 2 -0.004015 0.048670 -0.002498 0.000000 0.004092 0.000000
# 3 0.000541 -0.002498 0.023359 0.000000 -0.030278 0.000000
# 4 0.000000 0.000000 0.000000 0.219149 0.000000 -0.067342
# 5 -0.014757 0.004092 -0.030278 0.000000 0.086752 0.000000
# 6 0.000000 0.000000 0.000000 -0.067342 0.000000 0.059189
#
#
# Mechanical properties :
#
#
# Convention : Reuss Voigt Hill
#
# Bulk Modulus (GPa) = 14.02680 45.65700 29.84190
# Shear Modulus (GPa) = 10.32979 26.46633 18.39806
#
# Velocity S-wave (km/s) = 2.36934 3.79253 3.16204
# Velocity P-wave (km/s) = 3.88690 6.63251 5.43591
#
# Compressibility (1/GPa) = 0.07129208
#
# Stress axis : x y z
#
# Youngs Moduli (GPa) = 89.21927 20.54654 42.81013
#
# Poissons Ratio (x) = 0.08249 -0.02316
# Poissons Ratio (y) = 0.35822 0.10696
# Poissons Ratio (z) = -0.04826 0.05133
#
# Static dielectric constant tensor:
#      x y z
#    x 1.660760 0.000000 0.043520 
#    y 0.000000 1.633790 0.000000 
#    z 0.043520 0.000000 1.649280 
# 
# From -- ./inp_files/14202.got.cif
#   From: 2010.05.17/outbox.cif.g08.bks.cpg/sg8_8_cif.got.tgz:14202.got - 2010.06.03 19:46:02.
