data_PCOD9131605
_publ_section_title
;
Structure prediction by ZEFSAII (Michael W. Deem and Ramdas Pophale) SiO2 
 PCOD9131605
Probable space group: C M
;
_chemical_formula_sum "Si O2"
_cell_formula_units_Z 24
_cell_length_a 16.158200
_cell_length_b 11.454612
_cell_length_c 5.350565
_cell_angle_alpha 90.000000
_cell_angle_beta 78.337969
_cell_angle_gamma 90.000000
_cell_volume 969.871124
_symmetry_space_group_name_H-M "C M"
_symmetry_group_IT_number 8
_symmetry_cell_setting 'monoclinic'
loop_
_space_group_symop_operation_xyz
x,y,z
x,-y,z
1/2+x,1/2+y,z
1/2+x,1/2-y,z
loop_
_atom_site_type_symbol
_atom_site_label
_atom_site_fract_x
_atom_site_fract_y
_atom_site_fract_z
Si Si1 0.265380 0.137232 0.860490
Si Si2 0.658764 0.000000 0.508839
Si Si3 0.245760 0.255539 0.370945
Si Si4 0.464397 0.864722 0.772052
Si Si5 0.914978 0.126497 0.191965
Si Si6 0.523492 0.369350 0.620359
Si Si7 0.049759 0.500000 0.078893
O O1 0.227518 0.172016 0.615923
O O2 0.366079 0.167830 0.794006
O O3 0.258842 0.000000 0.910181
O O4 0.220356 0.203519 0.117833
O O5 0.710140 0.881075 0.455163
O O6 0.616399 0.000000 0.808378
O O7 0.600051 0.000000 0.299217
O O8 0.345931 0.276139 0.284725
O O9 0.535253 0.773913 0.626565
O O10 0.465657 0.000000 0.670907
O O11 0.490205 0.889207 0.047137
O O12 0.981089 0.124496 0.375671
O O13 0.870855 0.000000 0.222386
O O14 0.960564 0.130904 0.897705
O O15 0.567420 0.500000 0.618378
#
# Coordination Sequence:
#
# PCOD9131605 Si02
#       7
#     4   2   4   4   4   4   2
#     4  11  23  38  61  99 128 165 209 270 357 383
#     4  12  26  44  64 100 126 186 224 264 320 380
#     4  12  21  37  63  87 134 159 212 279 313 401
#     4   9  20  39  60  91 128 170 201 271 315 395
#     4  10  18  30  48  84 118 154 184 250 327 377
#     4  10  19  32  54  84 124 151 203 251 329 388
#     4  10  26  42  62  88 138 178 224 256 310 406
#
# _framework density 24.745555
#
# number of rings (size 3 to 8) (size 9 to 14) (size 15 to 20)
#    0.500    1.000    4.167    1.500    0.000    2.667 
#    0.000    0.000    0.000    6.000    0.000    0.000 
#    0.000    0.000    0.000    0.000    0.000    0.000 
#
# Total GULP energy -66830.942992 kJ/mol
# GULP energy per Si atom -5569.245249 kJ/mol
# Density = 2.468923 g / cm^3
# Si number density = 24.745555 Si / 1000 Ang^3
#
#
#
# Elastic Constant Matrix: (Units=GPa)
#
#
# Indices 1 2 3 4 5 6 
#
# 1 40.1221 16.7621 17.7175 0.0000 -10.7004 0.0000
# 2 16.7621 136.1741 29.4207 0.0000 -18.8473 0.0000
# 3 17.7175 29.4207 125.9625 0.0000 -19.7839 0.0000
# 4 0.0000 0.0000 0.0000 58.8039 0.0000 9.2275
# 5 -10.7004 -18.8473 -19.7839 0.0000 16.0662 0.0000
# 6 0.0000 0.0000 0.0000 9.2275 0.0000 29.7053
#
#
#
# Elastic Compliance Matrix: (Units=1/GPa)
#
#
# Indices 1 2 3 4 5 6 
#
# 1 0.030622 -0.001059 -0.001304 0.000000 0.017547 0.000000
# 2 -0.001059 0.008833 -0.000493 0.000000 0.009050 0.000000
# 3 -0.001304 -0.000493 0.009931 0.000000 0.010782 0.000000
# 4 0.000000 0.000000 0.000000 0.017877 0.000000 -0.005553
# 5 0.017547 0.009050 0.010782 0.000000 0.097822 0.000000
# 6 0.000000 0.000000 0.000000 -0.005553 0.000000 0.035389
#
#
# Mechanical properties :
#
#
# Convention : Reuss Voigt Hill
#
# Bulk Modulus (GPa) = 22.89683 47.78436 35.34060
# Shear Modulus (GPa) = 22.65072 36.80566 29.72819
#
# Velocity S-wave (km/s) = 3.02875 3.86082 3.46982
# Velocity P-wave (km/s) = 4.63725 6.26313 5.51048
#
# Compressibility (1/GPa) = 0.04367417
#
# Stress axis : x y z
#
# Youngs Moduli (GPa) = 32.65652 113.21298 100.69621
#
# Poissons Ratio (x) = 0.11990 0.13130
# Poissons Ratio (y) = 0.03459 0.04962
# Poissons Ratio (z) = 0.04258 0.05578
#
# Static dielectric constant tensor:
#      x y z
#    x 2.038890 0.000000 -0.003930 
#    y 0.000000 2.145700 0.000000 
#    z -0.003930 0.000000 1.928010 
# 
# From -- ./inp_files/5340.got.cif
#   From: 2010.05.17/outbox.cif.g08.bks.cpg/sg8_3_cif.got.tgz:5340.got - 2010.06.03 19:46:02.
