data_PCOD9131124
_publ_section_title
;
Structure prediction by ZEFSAII (Michael W. Deem and Ramdas Pophale) SiO2 
 PCOD9131124
Probable space group: P M
;
_chemical_formula_sum "Si O2"
_cell_formula_units_Z 12
_cell_length_a 5.517334
_cell_length_b 14.205887
_cell_length_c 6.350393
_cell_angle_alpha 90.000000
_cell_angle_beta 67.788605
_cell_angle_gamma 90.000000
_cell_volume 460.800841
_symmetry_space_group_name_H-M "P M"
_symmetry_group_IT_number 6
_symmetry_cell_setting 'monoclinic'
loop_
_space_group_symop_operation_xyz
x,y,z
x,-y,z
loop_
_atom_site_type_symbol
_atom_site_label
_atom_site_fract_x
_atom_site_fract_y
_atom_site_fract_z
Si Si1 0.154930 0.810128 0.817060
Si Si2 0.559051 0.256466 0.370392
Si Si3 0.016438 0.500000 0.531365
Si Si4 0.870118 0.104524 0.536470
Si Si5 0.412958 0.898057 0.101675
Si Si6 0.025406 0.356690 0.162439
Si Si7 0.390022 0.500000 0.802257
O O1 0.292083 0.745571 0.592630
O O2 0.945222 0.869552 0.752374
O O3 0.348747 0.880436 0.878047
O O4 0.067183 0.744450 0.038837
O O5 0.731923 0.193813 0.475393
O O6 0.533180 0.193577 0.170912
O O7 0.704358 0.353039 0.261926
O O8 0.052804 0.405461 0.380304
O O9 0.707323 0.500000 0.707391
O O10 0.246309 0.500000 0.624948
O O11 0.141694 0.096365 0.319883
O O12 0.750955 0.000000 0.552964
O O13 0.543008 0.000000 0.094240
O O14 0.247224 0.413342 0.964517
#
# Coordination Sequence:
#
# PCOD9131124 Si02
#       7
#     2   2   1   2   2   2   1
#     4  11  24  41  66 100 139 189 243 296 364 433
#     4  11  24  41  66 100 139 187 245 300 355 437
#     4  11  28  53  80 114 152 187 240 315 380 466
#     4  10  22  41  61  94 140 187 242 300 349 418
#     4  10  22  41  65  97 141 192 250 308 361 419
#     4  11  26  46  75 108 142 188 243 304 374 457
#     4  11  28  53  80 112 150 193 236 311 390 460
#
# _framework density 26.041620999999999
#
# number of rings (size 3 to 8) (size 9 to 14) (size 15 to 20)
#    0.000    1.333    1.667    2.000    4.667    7.333 
#    0.000    0.000    0.000    0.000    0.000    0.000 
#    0.000    0.000    0.000    0.000    0.000    0.000 
#
# Total GULP energy -66887.839778 kJ/mol
# GULP energy per Si atom -5573.986648 kJ/mol
# Density = 2.598235 g / cm^3
# Si number density = 26.041621 Si / 1000 Ang^3
#
#
#
# Elastic Constant Matrix: (Units=GPa)
#
#
# Indices 1 2 3 4 5 6 
#
# 1 77.0924 18.3924 22.7022 0.0000 18.7434 0.0000
# 2 18.3924 50.4019 25.9841 0.0000 -4.0226 0.0000
# 3 22.7022 25.9841 134.3761 0.0000 -10.6176 0.0000
# 4 0.0000 0.0000 0.0000 37.0489 0.0000 -17.1144
# 5 18.7434 -4.0226 -10.6176 0.0000 55.5839 0.0000
# 6 0.0000 0.0000 0.0000 -17.1144 0.0000 36.8183
#
#
#
# Elastic Compliance Matrix: (Units=1/GPa)
#
#
# Indices 1 2 3 4 5 6 
#
# 1 0.016459 -0.005355 -0.002248 0.000000 -0.006367 0.000000
# 2 -0.005355 0.023814 -0.003474 0.000000 0.002866 0.000000
# 3 -0.002248 -0.003474 0.008664 0.000000 0.002162 0.000000
# 4 0.000000 0.000000 0.000000 0.034372 0.000000 0.015977
# 5 -0.006367 0.002866 0.002162 0.000000 0.020758 0.000000
# 6 0.000000 0.000000 0.000000 0.015977 0.000000 0.034587
#
#
# Mechanical properties :
#
#
# Convention : Reuss Voigt Hill
#
# Bulk Modulus (GPa) = 37.33703 44.00309 40.67006
# Shear Modulus (GPa) = 29.45732 38.87636 34.16684
#
# Velocity S-wave (km/s) = 3.36693 3.86794 3.62610
# Velocity P-wave (km/s) = 5.42987 6.07304 5.76044
#
# Compressibility (1/GPa) = 0.02678306
#
# Stress axis : x y z
#
# Youngs Moduli (GPa) = 60.75627 41.99150 115.41809
#
# Poissons Ratio (x) = 0.22488 0.25949
# Poissons Ratio (y) = 0.32537 0.40093
# Poissons Ratio (z) = 0.13660 0.14587
#
# Static dielectric constant tensor:
#      x y z
#    x 2.183330 0.000000 -0.121380 
#    y 0.000000 2.055970 0.000000 
#    z -0.121380 0.000000 2.087260 
# 
# From -- ./inp_files/276.got.cif
#   From: 2010.05.17/outbox.cif.g08.bks.cpg/sg6_1_cif.got.tgz:276.got - 2010.06.03 19:42:10.
