data_PCOD9131122
_publ_section_title
;
Structure prediction by ZEFSAII (Michael W. Deem and Ramdas Pophale) SiO2 
 PCOD9131122
Probable space group: P M
;
_chemical_formula_sum "Si O2"
_cell_formula_units_Z 16
_cell_length_a 13.026654
_cell_length_b 11.325711
_cell_length_c 9.842860
_cell_angle_alpha 90.000000
_cell_angle_beta 145.322875
_cell_angle_gamma 90.000000
_cell_volume 826.218112
_symmetry_space_group_name_H-M "P M"
_symmetry_group_IT_number 6
_symmetry_cell_setting 'monoclinic'
loop_
_space_group_symop_operation_xyz
x,y,z
x,-y,z
loop_
_atom_site_type_symbol
_atom_site_label
_atom_site_fract_x
_atom_site_fract_y
_atom_site_fract_z
Si Si1 0.801790 0.863379 0.934990
Si Si2 0.193800 0.638652 0.756899
Si Si3 0.884717 0.212605 0.564424
Si Si4 0.107255 0.863549 0.064430
Si Si5 0.672910 0.131633 0.084462
Si Si6 0.427201 0.635818 0.762989
Si Si7 0.555485 0.632547 0.309007
Si Si8 0.454430 0.292157 0.487813
O O1 0.625962 0.790792 0.703310
O O2 0.775670 0.000000 0.866418
O O3 0.810175 0.858581 0.106877
O O4 0.976592 0.822075 0.044256
O O5 0.165439 0.500000 0.755150
O O6 0.245473 0.650188 0.654278
O O7 0.025171 0.709941 0.629581
O O8 0.376981 0.675972 0.035437
O O9 0.777568 0.134390 0.339598
O O10 0.730347 0.290419 0.468531
O O11 0.997073 0.149061 0.804623
O O12 0.284396 0.785269 0.258144
O O13 0.155245 0.000000 0.139628
O O14 0.583527 0.000000 0.971593
O O15 0.550565 0.250587 0.939815
O O16 0.493166 0.500000 0.865542
O O17 0.409020 0.645054 0.580773
O O18 0.590802 0.500000 0.299005
O O19 0.509097 0.631681 0.417545
#
# Coordination Sequence:
#
# PCOD9131122 Si02
#       8
#     2   2   2   2   2   2   2   2
#     4   9  20  39  59  84 122 163 203 252 305 366
#     4  10  22  40  60  88 122 164 208 256 311 369
#     4  12  22  39  62  90 124 163 208 252 308 370
#     4  11  23  38  60  90 124 163 207 253 309 370
#     4  10  22  40  65  94 128 164 209 257 310 369
#     4  10  22  42  67  93 126 163 209 260 311 368
#     4  11  22  39  60  86 121 163 207 258 311 364
#     4  11  21  39  63  89 121 159 205 256 309 364
#
# _framework density 19.365345999999999
#
# number of rings (size 3 to 8) (size 9 to 14) (size 15 to 20)
#    0.000    1.500    3.750    1.500    1.750    1.000 
#    0.000    2.500    0.000    0.000    0.000    0.000 
#    0.000    0.000    0.000    0.000    0.000    0.000 
#
# Total GULP energy -89220.896384 kJ/mol
# GULP energy per Si atom -5576.306024 kJ/mol
# Density = 1.932127 g / cm^3
# Si number density = 19.365346 Si / 1000 Ang^3
#
#
#
# Elastic Constant Matrix: (Units=GPa)
#
#
# Indices 1 2 3 4 5 6 
#
# 1 122.7900 39.5916 21.6273 0.0000 -7.3411 0.0000
# 2 39.5916 92.9475 28.8377 0.0000 10.4748 0.0000
# 3 21.6273 28.8377 56.1443 0.0000 -7.4766 0.0000
# 4 0.0000 0.0000 0.0000 16.7590 0.0000 -4.2520
# 5 -7.3411 10.4748 -7.4766 0.0000 35.5315 0.0000
# 6 0.0000 0.0000 0.0000 -4.2520 0.0000 23.4197
#
#
#
# Elastic Compliance Matrix: (Units=1/GPa)
#
#
# Indices 1 2 3 4 5 6 
#
# 1 0.009887 -0.004154 -0.001276 0.000000 0.002999 0.000000
# 2 -0.004154 0.015595 -0.007342 0.000000 -0.007001 0.000000
# 3 -0.001276 -0.007342 0.022971 0.000000 0.006734 0.000000
# 4 0.000000 0.000000 0.000000 0.062551 0.000000 0.011357
# 5 0.002999 -0.007001 0.006734 0.000000 0.032244 0.000000
# 6 0.000000 0.000000 0.000000 0.011357 0.000000 0.044761
#
#
# Mechanical properties :
#
#
# Convention : Reuss Voigt Hill
#
# Bulk Modulus (GPa) = 43.65031 50.22165 46.93598
# Shear Modulus (GPa) = 22.60505 27.26372 24.93439
#
# Velocity S-wave (km/s) = 3.42027 3.75622 3.59218
# Velocity P-wave (km/s) = 6.17957 6.69345 6.44164
#
# Compressibility (1/GPa) = 0.02290935
#
# Stress axis : x y z
#
# Youngs Moduli (GPa) = 101.14016 64.12320 43.53351
#
# Poissons Ratio (x) = 0.26635 0.05554
# Poissons Ratio (y) = 0.42010 0.31964
# Poissons Ratio (z) = 0.12904 0.47081
#
# Static dielectric constant tensor:
#      x y z
#    x 1.678060 0.000000 -0.031810 
#    y 0.000000 1.647220 0.000000 
#    z -0.031810 0.000000 1.667620 
# 
# From -- ./inp_files/3988.got.cif
#   From: 2010.05.17/outbox.cif.g08.bks.cpg/sg6_2_cif.got.tgz:3988.got - 2010.06.03 19:42:10.
