data_PCOD9131261
_publ_section_title
;
Structure prediction by ZEFSAII (Michael W. Deem and Ramdas Pophale) SiO2 
 PCOD9131261
Probable space group: P C
;
_chemical_formula_sum "Si O2"
_cell_formula_units_Z 14
_cell_length_a 12.677538
_cell_length_b 9.243774
_cell_length_c 5.543897
_cell_angle_alpha 90.000000
_cell_angle_beta 91.773497
_cell_angle_gamma 90.000000
_cell_volume 649.368636
_symmetry_space_group_name_H-M "P C"
_symmetry_group_IT_number 7
_symmetry_cell_setting 'monoclinic'
loop_
_space_group_symop_operation_xyz
x,y,z
x,-y,1/2+z
loop_
_atom_site_type_symbol
_atom_site_label
_atom_site_fract_x
_atom_site_fract_y
_atom_site_fract_z
Si Si1 0.896430 0.579352 0.461940
Si Si2 0.409443 0.080917 0.445334
Si Si3 0.211675 0.736611 0.021517
Si Si4 0.132900 0.326403 0.016060
Si Si5 0.738817 0.177972 0.017543
Si Si6 0.656615 0.147829 0.511639
Si Si7 0.043443 0.004800 0.019249
O O1 0.865839 0.488495 0.700074
O O2 0.848763 0.740168 0.488009
O O3 0.022500 0.593199 0.474303
O O4 0.329676 0.210677 0.485907
O O5 0.533586 0.113175 0.469103
O O6 0.386922 0.977092 0.673984
O O7 0.178888 0.646748 0.784006
O O8 0.201419 0.662049 0.279634
O O9 0.129055 0.873932 0.024882
O O10 0.105792 0.154507 0.023355
O O11 0.673855 0.220666 0.772024
O O12 0.722285 0.004103 0.026865
O O13 0.695276 0.228335 0.274544
O O14 0.980934 0.999030 0.764844
#
# Coordination Sequence:
#
# PCOD9131261 Si02
#       7
#     2   2   2   2   2   2   2
#     4  12  26  44  65  87 110 167 229 267 302 358
#     4  12  18  30  56  90 134 165 188 221 293 407
#     4  10  19  31  53  87 129 154 185 227 287 376
#     4  10  20  37  51  80 118 152 201 244 298 337
#     4  10  20  40  58  88 125 154 207 252 326 361
#     4  10  19  37  59  95 126 160 183 246 333 383
#     4   8  14  27  42  69 110 140 169 207 273 330
#
# _framework density 21.559404000000001
#
# number of rings (size 3 to 8) (size 9 to 14) (size 15 to 20)
#    0.000    1.714    2.857    5.143    0.000    0.000 
#   15.429    0.000    0.000    0.000    0.000   20.000 
#    0.000    0.000    0.000    0.000    0.000    0.000 
#
# Total GULP energy -78064.683108 kJ/mol
# GULP energy per Si atom -5576.048793 kJ/mol
# Density = 2.151033 g / cm^3
# Si number density = 21.559404 Si / 1000 Ang^3
#
#
#
# Elastic Constant Matrix: (Units=GPa)
#
#
# Indices 1 2 3 4 5 6 
#
# 1 78.4766 20.7635 4.2762 0.0000 -14.0836 0.0000
# 2 20.7635 58.9163 -2.0856 0.0000 -9.5416 0.0000
# 3 4.2762 -2.0856 153.0408 0.0000 -34.1098 0.0000
# 4 0.0000 0.0000 0.0000 -23.2040 0.0000 -3.2212
# 5 -14.0836 -9.5416 -34.1098 0.0000 29.1701 0.0000
# 6 0.0000 0.0000 0.0000 -3.2212 0.0000 13.3493
#
#
#
# Elastic Compliance Matrix: (Units=1/GPa)
#
#
# Indices 1 2 3 4 5 6 
#
# 1 0.015069 -0.004092 0.001145 0.000000 0.007275 0.000000
# 2 -0.004092 0.019546 0.001847 0.000000 0.006577 0.000000
# 3 0.001145 0.001847 0.009177 0.000000 0.011888 0.000000
# 4 0.000000 0.000000 0.000000 -0.041699 0.000000 -0.010062
# 5 0.007275 0.006577 0.011888 0.000000 0.053847 0.000000
# 6 0.000000 0.000000 0.000000 -0.010062 0.000000 0.072483
#
#
# Mechanical properties :
#
#
# Convention : Reuss Voigt Hill
#
# Bulk Modulus (GPa) = 24.04387 37.37134 30.70760
# Shear Modulus (GPa) = 34.60559 21.69505 28.15032
#
# Velocity S-wave (km/s) = 4.01075 3.17565 3.61738
# Velocity P-wave (km/s) = 5.71181 5.55141 5.63218
#
# Compressibility (1/GPa) = 0.04159064
#
# Stress axis : x y z
#
# Youngs Moduli (GPa) = 66.36344 51.16180 108.96908
#
# Poissons Ratio (x) = 0.20934 -0.12474
# Poissons Ratio (y) = 0.27154 -0.20123
# Poissons Ratio (z) = -0.07597 -0.09448
#
# Static dielectric constant tensor:
#      x y z
#    x 1.723070 0.000000 -0.010550 
#    y 0.000000 1.810370 0.000000 
#    z -0.010550 0.000000 1.891230 
# 
# From -- ./inp_files/1020.got.cif
#   From: 2010.05.17/outbox.cif.g08.bks.cpg/sg7_cif.got.tgz:1020.got - 2010.06.03 19:44:50.
