data_PCOD9131006
_publ_section_title
;
Structure prediction by ZEFSAII (Michael W. Deem and Ramdas Pophale) SiO2 
 PCOD9131006
Probable space group: P M
;
_chemical_formula_sum "Si O2"
_cell_formula_units_Z 14
_cell_length_a 14.558695
_cell_length_b 9.964211
_cell_length_c 5.228483
_cell_angle_alpha 90.000000
_cell_angle_beta 115.141228
_cell_angle_gamma 90.000000
_cell_volume 686.619274
_symmetry_space_group_name_H-M "P M"
_symmetry_group_IT_number 6
_symmetry_cell_setting 'monoclinic'
loop_
_space_group_symop_operation_xyz
x,y,z
x,-y,z
loop_
_atom_site_type_symbol
_atom_site_label
_atom_site_fract_x
_atom_site_fract_y
_atom_site_fract_z
Si Si1 0.605160 0.861611 0.929910
Si Si2 0.094559 0.659037 0.668372
Si Si3 0.405138 0.153694 0.356402
Si Si4 0.223634 0.660671 0.333031
Si Si5 0.550111 0.650243 0.251428
Si Si6 0.743169 0.721866 0.766098
Si Si7 0.865302 0.657534 0.417327
O O1 0.497189 0.861095 0.664250
O O2 0.693994 0.855105 0.827104
O O3 0.613509 0.000000 0.095525
O O4 0.607482 0.726895 0.094080
O O5 0.084329 0.500000 0.606117
O O6 0.169421 0.704807 0.531594
O O7 0.979929 0.711553 0.526190
O O8 0.145055 0.674365 0.004890
O O9 0.315707 0.240286 0.375751
O O10 0.456727 0.251677 0.207522
O O11 0.377867 0.000000 0.243459
O O12 0.252319 0.500000 0.381414
O O13 0.516257 0.500000 0.151661
O O14 0.638013 0.644982 0.570907
O O15 0.808076 0.729627 0.584287
O O16 0.810814 0.665184 0.077517
O O17 0.867331 0.500000 0.496600
#
# Coordination Sequence:
#
# PCOD9131006 Si02
#       7
#     2   2   2   2   2   2   2
#     4  10  23  42  61  87 127 170 208 246 300 369
#     4   9  20  36  59  89 123 156 197 253 311 363
#     4  10  23  40  60  87 121 167 208 246 305 371
#     4  10  20  38  61  90 120 156 202 255 309 358
#     4  11  22  37  61  96 130 160 203 256 303 357
#     4  11  22  36  59  92 124 165 202 247 297 363
#     4  11  20  35  59  91 127 162 200 251 309 363
#
# _framework density 20.389755999999998
#
# number of rings (size 3 to 8) (size 9 to 14) (size 15 to 20)
#    0.000    1.714    1.429    3.000    2.000    6.286 
#    0.000    0.000    0.000    5.143    0.000    0.000 
#    0.000    0.000    0.000    0.000    0.000    0.000 
#
# Total GULP energy -78014.578156 kJ/mol
# GULP energy per Si atom -5572.469868 kJ/mol
# Density = 2.034335 g / cm^3
# Si number density = 20.389756 Si / 1000 Ang^3
#
#
#
# Elastic Constant Matrix: (Units=GPa)
#
#
# Indices 1 2 3 4 5 6 
#
# 1 106.5283 28.8781 12.2095 0.0000 -2.6002 0.0000
# 2 28.8781 119.9877 17.9668 0.0000 -1.8922 0.0000
# 3 12.2095 17.9668 36.8772 0.0000 -13.7182 0.0000
# 4 0.0000 0.0000 0.0000 28.0966 0.0000 40.6502
# 5 -2.6002 -1.8922 -13.7182 0.0000 34.0253 0.0000
# 6 0.0000 0.0000 0.0000 40.6502 0.0000 168.3359
#
#
#
# Elastic Compliance Matrix: (Units=1/GPa)
#
#
# Indices 1 2 3 4 5 6 
#
# 1 0.010233 -0.002095 -0.002494 0.000000 -0.000340 0.000000
# 2 -0.002095 0.009483 -0.004459 0.000000 -0.001430 0.000000
# 3 -0.002494 -0.004459 0.035237 0.000000 0.013768 0.000000
# 4 0.000000 0.000000 0.000000 0.054704 0.000000 -0.013210
# 5 -0.000340 -0.001430 0.013768 0.000000 0.034835 0.000000
# 6 0.000000 0.000000 0.000000 -0.013210 0.000000 0.009130
#
#
# Mechanical properties :
#
#
# Convention : Reuss Voigt Hill
#
# Bulk Modulus (GPa) = 27.13119 42.38912 34.76015
# Shear Modulus (GPa) = 27.17345 59.71415 43.44380
#
# Velocity S-wave (km/s) = 3.65458 5.41756 4.62092
# Velocity P-wave (km/s) = 5.58060 7.74389 6.74948
#
# Compressibility (1/GPa) = 0.03685795
#
# Stress axis : x y z
#
# Youngs Moduli (GPa) = 97.72761 105.44688 28.37938
#
# Poissons Ratio (x) = 0.22088 0.07077
# Poissons Ratio (y) = 0.20471 0.12654
# Poissons Ratio (z) = 0.24371 0.47019
#
# Static dielectric constant tensor:
#      x y z
#    x 1.759800 0.000000 -0.022410 
#    y 0.000000 1.647020 0.000000 
#    z -0.022410 0.000000 1.759710 
# 
# From -- ./inp_files/1822.got.cif
#   From: 2010.05.17/outbox.cif.g08.bks.cpg/sg6_1_cif.got.tgz:1822.got - 2010.06.03 19:42:10.
