data_PCOD9131297
_publ_section_title
;
Structure prediction by ZEFSAII (Michael W. Deem and Ramdas Pophale) SiO2 
 PCOD9131297
Probable space group: P C
;
_chemical_formula_sum "Si O2"
_cell_formula_units_Z 16
_cell_length_a 9.036865
_cell_length_b 16.063946
_cell_length_c 5.248325
_cell_angle_alpha 90.000000
_cell_angle_beta 57.173818
_cell_angle_gamma 90.000000
_cell_volume 640.228380
_symmetry_space_group_name_H-M "P C"
_symmetry_group_IT_number 7
_symmetry_cell_setting 'monoclinic'
loop_
_space_group_symop_operation_xyz
x,y,z
x,-y,1/2+z
loop_
_atom_site_type_symbol
_atom_site_label
_atom_site_fract_x
_atom_site_fract_y
_atom_site_fract_z
Si Si1 0.731090 0.284856 0.557100
Si Si2 0.210871 0.261347 0.777953
Si Si3 0.162881 0.451880 0.872421
Si Si4 0.054188 0.205714 0.416225
Si Si5 0.589929 0.458017 0.487451
Si Si6 0.852190 0.957144 0.939590
Si Si7 0.573881 0.783691 0.722790
Si Si8 0.460161 0.024750 0.309867
O O1 0.664805 0.374149 0.535153
O O2 0.719646 0.229751 0.307420
O O3 0.927160 0.283830 0.483242
O O4 0.620960 0.248617 0.898654
O O5 0.129800 0.353812 0.866501
O O6 0.119233 0.207991 0.642045
O O7 0.409612 0.266625 0.491767
O O8 0.201540 0.216603 0.060782
O O9 0.099537 0.506701 0.693351
O O10 0.377054 0.456962 0.686253
O O11 0.930910 0.127472 0.472273
O O12 0.644545 0.527644 0.644459
O O13 0.907063 0.975182 0.600495
O O14 0.637625 0.966532 0.141233
O O15 0.519785 0.880179 0.758024
O O16 0.356882 0.998183 0.654583
#
# Coordination Sequence:
#
# PCOD9131297 Si02
#       8
#     2   2   2   2   2   2   2   2
#     4  12  23  42  68  99 127 180 224 275 335 401
#     4  12  26  45  64 105 141 176 223 284 342 398
#     4  10  21  40  68  95 128 181 228 269 328 406
#     4  12  26  43  67  99 143 179 219 277 348 410
#     4  10  21  37  63  99 129 165 224 286 330 384
#     4  10  19  38  64  89 121 171 225 261 314 406
#     4  12  24  42  72  98 131 171 231 287 327 389
#     4  10  20  37  62  94 122 159 220 277 318 384
#
# _framework density 24.991083
#
# number of rings (size 3 to 8) (size 9 to 14) (size 15 to 20)
#    0.000    1.000    1.250    7.500    3.500    0.000 
#    0.000    7.500    0.000    0.000    0.000    0.000 
#    0.000    0.000    0.000    0.000    0.000    0.000 
#
# Total GULP energy -89568.555564 kJ/mol
# GULP energy per Si atom -5598.034723 kJ/mol
# Density = 2.493420 g / cm^3
# Si number density = 24.991083 Si / 1000 Ang^3
#
#
#
# Elastic Constant Matrix: (Units=GPa)
#
#
# Indices 1 2 3 4 5 6 
#
# 1 61.7201 3.0498 29.6338 0.0000 22.1346 0.0000
# 2 3.0498 76.5845 16.2733 0.0000 20.0285 0.0000
# 3 29.6338 16.2733 90.1415 0.0000 27.2166 0.0000
# 4 0.0000 0.0000 0.0000 32.2164 0.0000 12.0293
# 5 22.1346 20.0285 27.2166 0.0000 45.9909 0.0000
# 6 0.0000 0.0000 0.0000 12.0293 0.0000 46.6287
#
#
#
# Elastic Compliance Matrix: (Units=1/GPa)
#
#
# Indices 1 2 3 4 5 6 
#
# 1 0.021494 0.002409 -0.004944 0.000000 -0.008468 0.000000
# 2 0.002409 0.015063 -0.001438 0.000000 -0.006869 0.000000
# 3 -0.004944 -0.001438 0.014697 0.000000 -0.005692 0.000000
# 4 0.000000 0.000000 0.000000 0.034349 0.000000 -0.008861
# 5 -0.008468 -0.006869 -0.005692 0.000000 0.032178 0.000000
# 6 0.000000 0.000000 0.000000 -0.008861 0.000000 0.023732
#
#
# Mechanical properties :
#
#
# Convention : Reuss Voigt Hill
#
# Bulk Modulus (GPa) = 23.08985 36.26221 29.67603
# Shear Modulus (GPa) = 30.50729 36.93315 33.72022
#
# Velocity S-wave (km/s) = 3.49768 3.84846 3.67725
# Velocity P-wave (km/s) = 5.05678 5.85568 5.47083
#
# Compressibility (1/GPa) = 0.04330907
#
# Stress axis : x y z
#
# Youngs Moduli (GPa) = 46.52496 66.38656 68.04028
#
# Poissons Ratio (x) = -0.15994 0.33641
# Poissons Ratio (y) = -0.11209 0.09781
# Poissons Ratio (z) = 0.23003 0.09543
#
# Static dielectric constant tensor:
#      x y z
#    x 2.019550 0.000000 0.000400 
#    y 0.000000 1.965110 0.000000 
#    z 0.000400 0.000000 2.017420 
# 
# From -- ./inp_files/786.got.cif
#   From: 2010.05.17/outbox.cif.g08.bks.cpg/sg7_cif.got.tgz:786.got - 2010.06.03 19:44:50.
