data_PCOD9131958
_publ_section_title
;
Structure prediction by ZEFSAII (Michael W. Deem and Ramdas Pophale) SiO2 
 PCOD9131958
Probable space group: C M
;
_chemical_formula_sum "Si O2"
_cell_formula_units_Z 32
_cell_length_a 20.560208
_cell_length_b 8.746366
_cell_length_c 21.576905
_cell_angle_alpha 90.000000
_cell_angle_beta 23.041008
_cell_angle_gamma 90.000000
_cell_volume 1518.636613
_symmetry_space_group_name_H-M "C M"
_symmetry_group_IT_number 8
_symmetry_cell_setting 'monoclinic'
loop_
_space_group_symop_operation_xyz
x,y,z
x,-y,z
1/2+x,1/2+y,z
1/2+x,1/2-y,z
loop_
_atom_site_type_symbol
_atom_site_label
_atom_site_fract_x
_atom_site_fract_y
_atom_site_fract_z
Si Si1 0.473910 0.173963 0.611100
Si Si2 0.260839 0.330768 0.027598
Si Si3 0.045868 0.825090 0.882377
Si Si4 0.325208 0.184183 0.297430
Si Si5 0.442073 0.675705 0.325788
Si Si6 0.253338 0.819027 0.590467
Si Si7 0.469059 0.170426 0.759690
Si Si8 0.605652 0.179109 0.951168
O O1 0.640325 0.256966 0.439080
O O2 0.511641 0.168912 0.651190
O O3 0.286932 0.244618 0.778354
O O4 0.464886 0.000000 0.594583
O O5 0.184275 0.500000 0.097168
O O6 0.404367 0.323033 0.953512
O O7 0.338676 0.300972 0.891891
O O8 0.136767 0.193440 0.145173
O O9 0.215014 0.787962 0.695791
O O10 0.013071 0.713598 0.967458
O O11 0.055814 0.000000 0.896806
O O12 0.364266 0.245219 0.332699
O O13 0.321326 0.000000 0.301837
O O14 0.479335 0.232911 0.116831
O O15 0.389318 0.500000 0.376209
O O16 0.417711 0.768346 0.411538
O O17 0.126549 0.717664 0.661740
O O18 0.223005 0.000000 0.608271
O O19 0.412375 0.000000 0.826368
O O20 0.633068 0.000000 0.936815
#
# Coordination Sequence:
#
# PCOD9131958 Si02
#       8
#     4   4   4   4   4   4   4   4
#     4  11  23  39  63  94 127 167 211 258 315 376
#     4  10  21  37  59  87 119 161 203 247 311 376
#     4   9  21  42  64  86 115 159 208 252 305 368
#     4  11  24  42  65  94 130 168 209 261 318 380
#     4  12  23  36  58  93 127 158 199 253 314 373
#     4  10  20  36  60  86 118 157 194 242 303 369
#     4  10  19  33  56  88 120 152 194 245 304 366
#     4  11  25  43  65  92 124 168 216 264 316 370
#
# _framework density 21.071531
#
# number of rings (size 3 to 8) (size 9 to 14) (size 15 to 20)
#    0.000    1.500    1.250    4.875    0.000    8.500 
#    2.250    0.000    0.000    0.000    0.000    0.000 
#    0.000    0.000    0.000    0.000    0.000    0.000 
#
# Total GULP energy -89124.525578 kJ/mol
# GULP energy per Si atom -5570.282849 kJ/mol
# Density = 2.102357 g / cm^3
# Si number density = 21.071531 Si / 1000 Ang^3
#
#
#
# Elastic Constant Matrix: (Units=GPa)
#
#
# Indices 1 2 3 4 5 6 
#
# 1 22.8260 16.1633 9.5364 0.0000 4.7322 0.0000
# 2 16.1633 90.5126 35.3200 0.0001 1.1672 -0.0001
# 3 9.5364 35.3200 101.1713 0.0001 -3.2199 0.0000
# 4 0.0000 0.0001 0.0001 38.9939 0.0000 -0.4610
# 5 4.7322 1.1672 -3.2199 0.0000 24.9662 0.0000
# 6 0.0000 -0.0001 0.0000 -0.4610 0.0000 25.1029
#
#
#
# Elastic Compliance Matrix: (Units=1/GPa)
#
#
# Indices 1 2 3 4 5 6 
#
# 1 0.052785 -0.008374 -0.002368 0.000000 -0.009919 0.000000
# 2 -0.008374 0.014154 -0.004139 0.000000 0.000392 0.000000
# 3 -0.002368 -0.004139 0.011621 0.000000 0.002141 0.000000
# 4 0.000000 0.000000 0.000000 0.025651 0.000000 0.000471
# 5 -0.009919 0.000392 0.002141 0.000000 0.042192 0.000000
# 6 0.000000 0.000000 0.000000 0.000471 0.000000 0.039845
#
#
# Mechanical properties :
#
#
# Convention : Reuss Voigt Hill
#
# Bulk Modulus (GPa) = 20.49309 37.39435 28.94372
# Shear Modulus (GPa) = 21.52617 28.04530 24.78574
#
# Velocity S-wave (km/s) = 3.19968 3.65219 3.43339
# Velocity P-wave (km/s) = 4.83706 5.96402 5.42986
#
# Compressibility (1/GPa) = 0.04879693
#
# Stress axis : x y z
#
# Youngs Moduli (GPa) = 18.94471 70.65195 86.05358
#
# Poissons Ratio (x) = 0.59166 0.20374
# Poissons Ratio (y) = 0.15865 0.35621
# Poissons Ratio (z) = 0.04485 0.29246
#
# Static dielectric constant tensor:
#      x y z
#    x 1.821450 0.000000 0.042060 
#    y 0.000000 1.730270 0.000000 
#    z 0.042060 0.000000 1.913850 
# 
# From -- ./inp_files/32334.got.cif
#   From: 2010.05.17/outbox.cif.g08.bks.cpg/sg8_17_cif.got.tgz:32334.got - 2010.06.03 19:46:02.
