data_PCOD9131468
_publ_section_title
;
Structure prediction by ZEFSAII (Michael W. Deem and Ramdas Pophale) SiO2 
 PCOD9131468
Probable space group: P C
;
_chemical_formula_sum "Si O2"
_cell_formula_units_Z 14
_cell_length_a 6.148812
_cell_length_b 20.347068
_cell_length_c 6.011095
_cell_angle_alpha 90.000000
_cell_angle_beta 132.046237
_cell_angle_gamma 90.000000
_cell_volume 558.475698
_symmetry_space_group_name_H-M "P C"
_symmetry_group_IT_number 7
_symmetry_cell_setting 'monoclinic'
loop_
_space_group_symop_operation_xyz
x,y,z
x,-y,1/2+z
loop_
_atom_site_type_symbol
_atom_site_label
_atom_site_fract_x
_atom_site_fract_y
_atom_site_fract_z
Si Si1 0.947780 0.154985 0.940670
Si Si2 0.013598 0.378477 0.955283
Si Si3 0.350589 0.073480 0.494224
Si Si4 0.530191 0.533865 0.957507
Si Si5 0.061892 0.259840 0.664842
Si Si6 0.695701 0.275671 0.017170
Si Si7 0.831785 0.023688 0.333236
O O1 0.648442 0.113271 0.751314
O O2 0.996328 0.192506 0.744793
O O3 0.900241 0.216065 0.073554
O O4 0.220165 0.108202 0.185273
O O5 0.844024 0.430492 0.686380
O O6 0.123011 0.318746 0.878940
O O7 0.783645 0.343451 0.962468
O O8 0.268728 0.413398 0.265476
O O9 0.069349 0.082182 0.462150
O O10 0.490154 0.999588 0.593663
O O11 0.511136 0.500045 0.694480
O O12 0.777768 0.279322 0.330920
O O13 0.363969 0.256810 0.737354
O O14 0.903746 0.005663 0.636522
#
# Coordination Sequence:
#
# PCOD9131468 Si02
#       7
#     2   2   2   2   2   2   2
#     4  11  26  46  70 116 140 194 247 320 384 464
#     4  11  26  46  74 106 152 200 259 314 382 454
#     4  12  26  49  76 106 159 194 260 312 386 462
#     4  12  28  47  74 112 159 202 262 312 378 444
#     4  11  24  45  75 106 146 194 251 313 397 450
#     4  11  24  45  75 106 146 194 251 313 397 450
#     4  12  28  52  76 112 148 204 252 306 378 462
#
# _framework density 25.068232999999999
#
# number of rings (size 3 to 8) (size 9 to 14) (size 15 to 20)
#    0.000    0.571    1.429    5.143    6.000    8.000 
#    5.143    0.000    0.000    0.000    0.000    0.000 
#    0.000    0.000    0.000    0.000    0.000    0.000 
#
# Total GULP energy -77971.420730 kJ/mol
# GULP energy per Si atom -5569.387195 kJ/mol
# Density = 2.501118 g / cm^3
# Si number density = 25.068233 Si / 1000 Ang^3
#
#
#
# Elastic Constant Matrix: (Units=GPa)
#
#
# Indices 1 2 3 4 5 6 
#
# 1 61.9799 38.0816 41.7513 0.0000 0.7754 0.0000
# 2 38.0816 88.1098 45.0805 0.0000 0.2914 0.0000
# 3 41.7513 45.0805 171.0660 0.0000 18.3634 0.0000
# 4 0.0000 0.0000 0.0000 48.8895 0.0000 3.0781
# 5 0.7754 0.2914 18.3634 0.0000 59.1572 0.0000
# 6 0.0000 0.0000 0.0000 3.0781 0.0000 40.4646
#
#
#
# Elastic Compliance Matrix: (Units=1/GPa)
#
#
# Indices 1 2 3 4 5 6 
#
# 1 0.023756 -0.008387 -0.003682 0.000000 0.000873 0.000000
# 2 -0.008387 0.016142 -0.002286 0.000000 0.000740 0.000000
# 3 -0.003682 -0.002286 0.007593 0.000000 -0.002298 0.000000
# 4 0.000000 0.000000 0.000000 0.020553 0.000000 -0.001563
# 5 0.000873 0.000740 -0.002298 0.000000 0.017602 0.000000
# 6 0.000000 0.000000 0.000000 -0.001563 0.000000 0.024832
#
#
# Mechanical properties :
#
#
# Convention : Reuss Voigt Hill
#
# Bulk Modulus (GPa) = 53.24277 63.44249 58.34263
# Shear Modulus (GPa) = 34.37640 42.78507 38.58073
#
# Velocity S-wave (km/s) = 3.70714 4.13576 3.92730
# Velocity P-wave (km/s) = 6.29358 6.94038 6.62488
#
# Compressibility (1/GPa) = 0.01878189
#
# Stress axis : x y z
#
# Youngs Moduli (GPa) = 42.09376 61.95160 131.69341
#
# Poissons Ratio (x) = 0.51958 0.48485
# Poissons Ratio (y) = 0.35304 0.30108
# Poissons Ratio (z) = 0.15497 0.14164
#
# Static dielectric constant tensor:
#      x y z
#    x 2.069010 0.000000 -0.039780 
#    y 0.000000 2.059420 0.000000 
#    z -0.039780 0.000000 2.017970 
# 
# From -- ./inp_files/337.got.cif
#   From: 2010.05.17/outbox.cif.g08.bks.cpg/sg7_cif.got.tgz:337.got - 2010.06.03 19:44:50.
