data_PCOD9131107
_publ_section_title
;
Structure prediction by ZEFSAII (Michael W. Deem and Ramdas Pophale) SiO2 
 PCOD9131107
Probable space group: P M
;
_chemical_formula_sum "Si O2"
_cell_formula_units_Z 12
_cell_length_a 9.037750
_cell_length_b 13.314045
_cell_length_c 4.929536
_cell_angle_alpha 90.000000
_cell_angle_beta 73.299735
_cell_angle_gamma 90.000000
_cell_volume 568.147129
_symmetry_space_group_name_H-M "P M"
_symmetry_group_IT_number 6
_symmetry_cell_setting 'monoclinic'
loop_
_space_group_symop_operation_xyz
x,y,z
x,-y,z
loop_
_atom_site_type_symbol
_atom_site_label
_atom_site_fract_x
_atom_site_fract_y
_atom_site_fract_z
Si Si1 0.471140 0.190652 0.171010
Si Si2 0.734568 0.309784 0.266356
Si Si3 0.637068 0.112216 0.557122
Si Si4 0.198363 0.319083 0.165976
Si Si5 0.013877 0.621795 0.751187
Si Si6 0.621900 0.500000 0.626779
Si Si7 0.416422 0.500000 0.233388
O O1 0.569705 0.289794 0.204972
O O2 0.491658 0.123865 0.427591
O O3 0.301899 0.220617 0.160787
O O4 0.570443 0.138583 0.884685
O O5 0.752295 0.200996 0.400905
O O6 0.713368 0.400708 0.488109
O O7 0.860989 0.338404 0.979428
O O8 0.700119 0.000000 0.511040
O O9 0.050482 0.330319 0.440203
O O10 0.149036 0.341238 0.885194
O O11 0.308738 0.407588 0.210139
O O12 0.010972 0.500000 0.737431
O O13 0.568786 0.500000 0.963423
O O14 0.468972 0.500000 0.517353
#
# Coordination Sequence:
#
# PCOD9131107 Si02
#       7
#     2   2   2   2   2   1   1
#     4  10  22  39  64  93 112 160 207 262 303 353
#     4  10  25  38  62  94 122 166 200 257 300 365
#     4  10  21  41  69  95 115 153 213 265 310 352
#     4  12  23  38  57  86 127 164 207 237 308 364
#     4  12  24  38  55  89 134 173 200 242 297 373
#     4  12  22  34  62  88 130 147 213 250 302 362
#     4  12  20  34  54  84 116 171 197 246 288 354
#
# _framework density 21.121290999999999
#
# number of rings (size 3 to 8) (size 9 to 14) (size 15 to 20)
#    1.000    0.000    4.167    3.500    2.333    0.000 
#    0.000    0.000    0.000    6.000    0.000    0.000 
#    0.000    0.000    0.000    0.000    0.000    0.000 
#
# Total GULP energy -67024.481737 kJ/mol
# GULP energy per Si atom -5585.373478 kJ/mol
# Density = 2.107322 g / cm^3
# Si number density = 21.121291 Si / 1000 Ang^3
#
#
#
# Elastic Constant Matrix: (Units=GPa)
#
#
# Indices 1 2 3 4 5 6 
#
# 1 48.3416 8.8176 -3.2329 0.0000 0.7469 0.0000
# 2 8.8176 125.5742 27.5966 0.0000 -9.1375 0.0000
# 3 -3.2329 27.5966 87.0309 0.0000 -0.3883 0.0000
# 4 0.0000 0.0000 0.0000 -2.1464 0.0000 -22.7771
# 5 0.7469 -9.1375 -0.3883 0.0000 40.6793 0.0000
# 6 0.0000 0.0000 0.0000 -22.7771 0.0000 0.6757
#
#
#
# Elastic Compliance Matrix: (Units=1/GPa)
#
#
# Indices 1 2 3 4 5 6 
#
# 1 0.021125 -0.001841 0.001365 0.000000 -0.000788 0.000000
# 2 -0.001841 0.008869 -0.002872 0.000000 0.001999 0.000000
# 3 0.001365 -0.002872 0.012449 0.000000 -0.000551 0.000000
# 4 0.000000 0.000000 0.000000 -0.001299 0.000000 -0.043781
# 5 -0.000788 0.001999 -0.000551 0.000000 0.025041 0.000000
# 6 0.000000 0.000000 0.000000 -0.043781 0.000000 0.004126
#
#
# Mechanical properties :
#
#
# Convention : Reuss Voigt Hill
#
# Bulk Modulus (GPa) = 27.97333 36.36769 32.17051
# Shear Modulus (GPa) = 56.22872 23.02608 39.62740
#
# Velocity S-wave (km/s) = 5.16523 3.30537 4.33619
# Velocity P-wave (km/s) = 6.98897 5.64121 6.35094
#
# Compressibility (1/GPa) = 0.03574834
#
# Stress axis : x y z
#
# Youngs Moduli (GPa) = 47.33660 112.74958 80.32755
#
# Poissons Ratio (x) = 0.20754 -0.10964
# Poissons Ratio (y) = 0.08713 0.23068
# Poissons Ratio (z) = -0.06461 0.32379
#
# Static dielectric constant tensor:
#      x y z
#    x 1.828990 0.000000 -0.010330 
#    y 0.000000 1.815200 0.000000 
#    z -0.010330 0.000000 1.740540 
# 
# From -- ./inp_files/1708.got.cif
#   From: 2010.05.17/outbox.cif.g08.bks.cpg/sg6_1_cif.got.tgz:1708.got - 2010.06.03 19:42:10.
