data_PCOD9131313
_publ_section_title
;
Structure prediction by ZEFSAII (Michael W. Deem and Ramdas Pophale) SiO2 
 PCOD9131313
Probable space group: P C
;
_chemical_formula_sum "Si O2"
_cell_formula_units_Z 16
_cell_length_a 12.610435
_cell_length_b 9.582457
_cell_length_c 5.467849
_cell_angle_alpha 90.000000
_cell_angle_beta 82.923104
_cell_angle_gamma 90.000000
_cell_volume 655.695504
_symmetry_space_group_name_H-M "P C"
_symmetry_group_IT_number 7
_symmetry_cell_setting 'monoclinic'
loop_
_space_group_symop_operation_xyz
x,y,z
x,-y,1/2+z
loop_
_atom_site_type_symbol
_atom_site_label
_atom_site_fract_x
_atom_site_fract_y
_atom_site_fract_z
Si Si1 0.257690 0.957815 0.199820
Si Si2 0.207051 0.647760 0.320998
Si Si3 0.429022 0.376066 0.583979
Si Si4 0.929252 0.084738 0.959031
Si Si5 0.504784 0.316782 0.062042
Si Si6 0.684530 0.090849 0.065276
Si Si7 0.994010 0.461402 0.418606
Si Si8 0.101932 0.204987 0.230367
O O1 0.152610 0.056455 0.274490
O O2 0.314419 0.984112 0.443180
O O3 0.221249 0.797902 0.180813
O O4 0.311439 0.571327 0.192566
O O5 0.103100 0.550679 0.336600
O O6 0.200200 0.703749 0.600746
O O7 0.435247 0.296152 0.327022
O O8 0.504749 0.512761 0.544878
O O9 0.460649 0.281131 0.805597
O O10 0.808685 0.137776 0.022477
O O11 0.022365 0.187050 0.019752
O O12 0.938147 0.970450 0.179084
O O13 0.609780 0.226111 0.073450
O O14 0.668070 0.005358 0.325451
O O15 0.936173 0.513155 0.677148
O O16 0.032072 0.301069 0.426119
#
# Coordination Sequence:
#
# PCOD9131313 Si02
#       8
#     2   2   2   2   2   2   2   2
#     4  10  20  35  52  78 112 155 193 244 287 334
#     4  10  22  38  59  85 122 168 213 240 301 363
#     4  10  23  38  66  88 116 174 211 256 308 388
#     4  10  21  38  65  95 121 161 204 245 316 385
#     4  10  22  41  63  90 120 156 219 261 317 375
#     4  10  21  41  70  96 125 158 201 267 333 388
#     4  10  22  34  55  77 114 162 203 244 288 346
#     4  10  21  37  60  87 126 160 206 251 298 357
#
# _framework density 24.401572000000002
#
# number of rings (size 3 to 8) (size 9 to 14) (size 15 to 20)
#    0.000    2.000    0.000    3.000    7.000    4.000 
#    0.000    7.500   11.000    0.000    0.000    0.000 
#    0.000    0.000    0.000    0.000    0.000    0.000 
#
# Total GULP energy -89205.473138 kJ/mol
# GULP energy per Si atom -5575.342071 kJ/mol
# Density = 2.434603 g / cm^3
# Si number density = 24.401572 Si / 1000 Ang^3
#
#
#
# Elastic Constant Matrix: (Units=GPa)
#
#
# Indices 1 2 3 4 5 6 
#
# 1 59.6917 35.2761 7.5848 0.0000 -6.0942 0.0000
# 2 35.2761 118.0667 20.5017 0.0000 -0.5421 0.0000
# 3 7.5848 20.5017 168.2905 0.0000 7.8838 0.0000
# 4 0.0000 0.0000 0.0000 36.3530 0.0000 4.6600
# 5 -6.0942 -0.5421 7.8838 0.0000 21.2212 0.0000
# 6 0.0000 0.0000 0.0000 4.6600 0.0000 31.5637
#
#
#
# Elastic Compliance Matrix: (Units=1/GPa)
#
#
# Indices 1 2 3 4 5 6 
#
# 1 0.021093 -0.006191 -0.000481 0.000000 0.006078 0.000000
# 2 -0.006191 0.010478 -0.000943 0.000000 -0.001160 0.000000
# 3 -0.000481 -0.000943 0.006194 0.000000 -0.002463 0.000000
# 4 0.000000 0.000000 0.000000 0.028039 0.000000 -0.004140
# 5 0.006078 -0.001160 -0.002463 0.000000 0.049754 0.000000
# 6 0.000000 0.000000 0.000000 -0.004140 0.000000 0.032293
#
#
# Mechanical properties :
#
#
# Convention : Reuss Voigt Hill
#
# Bulk Modulus (GPa) = 44.37564 52.53045 48.45304
# Shear Modulus (GPa) = 29.30967 36.67334 32.99150
#
# Velocity S-wave (km/s) = 3.46950 3.88094 3.68098
# Velocity P-wave (km/s) = 5.85448 6.45419 6.16164
#
# Compressibility (1/GPa) = 0.02253489
#
# Stress axis : x y z
#
# Youngs Moduli (GPa) = 47.40917 95.43895 161.44422
#
# Poissons Ratio (x) = 0.59084 0.07769
# Poissons Ratio (y) = 0.29350 0.15226
# Poissons Ratio (z) = 0.02281 0.09001
#
# Static dielectric constant tensor:
#      x y z
#    x 1.941070 0.000000 0.082950 
#    y 0.000000 2.006940 0.000000 
#    z 0.082950 0.000000 2.118620 
# 
# From -- ./inp_files/1274.got.cif
#   From: 2010.05.17/outbox.cif.g08.bks.cpg/sg7_cif.got.tgz:1274.got - 2010.06.03 19:44:50.
