data_PCOD9131954
_publ_section_title
;
Structure prediction by ZEFSAII (Michael W. Deem and Ramdas Pophale) SiO2 
 PCOD9131954
Probable space group: C M
;
_chemical_formula_sum "Si O2"
_cell_formula_units_Z 32
_cell_length_a 15.319979
_cell_length_b 9.326126
_cell_length_c 22.551855
_cell_angle_alpha 90.000000
_cell_angle_beta 147.104158
_cell_angle_gamma 90.000000
_cell_volume 1749.976959
_symmetry_space_group_name_H-M "C M"
_symmetry_group_IT_number 8
_symmetry_cell_setting 'monoclinic'
loop_
_space_group_symop_operation_xyz
x,y,z
x,-y,z
1/2+x,1/2+y,z
1/2+x,1/2-y,z
loop_
_atom_site_type_symbol
_atom_site_label
_atom_site_fract_x
_atom_site_fract_y
_atom_site_fract_z
Si Si1 0.185550 0.329622 0.634280
Si Si2 0.281729 0.169698 0.069517
Si Si3 0.696546 0.834189 0.842367
Si Si4 0.979187 0.671435 0.063718
Si Si5 0.496705 0.835113 0.851243
Si Si6 0.808866 0.671427 0.221407
Si Si7 0.445649 0.829601 0.597520
Si Si8 0.141580 0.327620 0.472276
O O1 0.220282 0.500000 0.656821
O O2 0.330104 0.246239 0.747803
O O3 0.022196 0.304893 0.577041
O O4 0.167095 0.287163 0.555463
O O5 0.407220 0.204868 0.088423
O O6 0.340322 0.197871 0.169469
O O7 0.247497 0.000000 0.044632
O O8 0.118553 0.256253 0.964719
O O9 0.586212 0.831138 0.838365
O O10 0.583018 0.787528 0.723641
O O11 0.746704 0.000000 0.860721
O O12 0.849998 0.736869 0.943818
O O13 0.988784 0.500000 0.063114
O O14 0.150479 0.744599 0.151135
O O15 0.472605 0.000000 0.854423
O O16 0.782125 0.500000 0.213319
O O17 0.966116 0.712777 0.348330
O O18 0.283389 0.745278 0.516498
O O19 0.418656 0.000000 0.590342
O O20 0.154339 0.500000 0.475155
#
# Coordination Sequence:
#
# PCOD9131954 Si02
#       8
#     4   4   4   4   4   4   4   4
#     4  10  21  36  56  83 114 148 185 227 281 336
#     4   9  20  38  57  79 112 151 186 225 280 337
#     4   9  18  34  55  80 114 150 181 221 280 342
#     4  10  21  36  56  85 113 143 187 237 280 325
#     4  10  19  33  56  85 115 144 183 232 279 329
#     4  10  22  40  60  80 111 155 192 226 279 340
#     4  10  21  37  57  82 112 150 188 226 282 339
#     4  10  22  40  59  82 113 149 192 236 275 326
#
# _framework density 18.285955000000001
#
# number of rings (size 3 to 8) (size 9 to 14) (size 15 to 20)
#    0.000    2.250    1.250    0.750    1.750    4.000 
#    0.000    0.000    0.000    0.000    0.000    0.000 
#    0.000    0.000    0.000    0.000    0.000    0.000 
#
# Total GULP energy -89331.245151 kJ/mol
# GULP energy per Si atom -5583.202822 kJ/mol
# Density = 1.824434 g / cm^3
# Si number density = 18.285955 Si / 1000 Ang^3
#
#
#
# Elastic Constant Matrix: (Units=GPa)
#
#
# Indices 1 2 3 4 5 6 
#
# 1 41.7162 27.1429 23.8977 0.0000 19.6949 0.0000
# 2 27.1429 34.4991 38.1552 0.0000 15.6311 0.0000
# 3 23.8977 38.1552 96.0891 0.0001 27.6845 0.0000
# 4 0.0000 0.0000 0.0001 27.4510 0.0000 11.2462
# 5 19.6949 15.6311 27.6845 0.0000 23.8109 0.0000
# 6 0.0000 0.0000 0.0000 11.2462 0.0000 25.4513
#
#
#
# Elastic Compliance Matrix: (Units=1/GPa)
#
#
# Indices 1 2 3 4 5 6 
#
# 1 0.068176 -0.052682 0.015408 0.000000 -0.039721 0.000000
# 2 -0.052682 0.096296 -0.029287 0.000000 0.014412 0.000000
# 3 0.015408 -0.029287 0.024566 0.000000 -0.022081 0.000000
# 4 0.000000 0.000000 0.000000 0.044481 0.000000 -0.019655
# 5 -0.039721 0.014412 -0.022081 0.000000 0.091064 0.000000
# 6 0.000000 0.000000 0.000000 -0.019655 0.000000 0.047976
#
#
# Mechanical properties :
#
#
# Convention : Reuss Voigt Hill
#
# Bulk Modulus (GPa) = 17.88444 38.96621 28.42532
# Shear Modulus (GPa) = 9.53616 20.88322 15.20969
#
# Velocity S-wave (km/s) = 2.28612 3.38307 2.88717
# Velocity P-wave (km/s) = 4.09513 6.05110 5.16652
#
# Compressibility (1/GPa) = 0.05591453
#
# Stress axis : x y z
#
# Youngs Moduli (GPa) = 14.66802 10.38463 40.70612
#
# Poissons Ratio (x) = 0.54708 -0.62718
# Poissons Ratio (y) = 0.77274 1.19218
# Poissons Ratio (z) = -0.22600 0.30414
#
# Static dielectric constant tensor:
#      x y z
#    x 1.641740 0.000000 -0.016230 
#    y 0.000000 1.613400 0.000000 
#    z -0.016230 0.000000 1.588440 
# 
# From -- ./inp_files/21515.got.cif
#   From: 2010.05.17/outbox.cif.g08.bks.cpg/sg8_11_cif.got.tgz:21515.got - 2010.06.03 19:46:02.
