data_PCOD9131014
_publ_section_title
;
Structure prediction by ZEFSAII (Michael W. Deem and Ramdas Pophale) SiO2 
 PCOD9131014
Probable space group: P M
;
_chemical_formula_sum "Si O2"
_cell_formula_units_Z 16
_cell_length_a 9.780108
_cell_length_b 7.624932
_cell_length_c 12.397724
_cell_angle_alpha 90.000000
_cell_angle_beta 129.122167
_cell_angle_gamma 90.000000
_cell_volume 717.253505
_symmetry_space_group_name_H-M "P M"
_symmetry_group_IT_number 6
_symmetry_cell_setting 'monoclinic'
loop_
_space_group_symop_operation_xyz
x,y,z
x,-y,z
loop_
_atom_site_type_symbol
_atom_site_label
_atom_site_fract_x
_atom_site_fract_y
_atom_site_fract_z
Si Si1 0.784700 0.287249 0.919780
Si Si2 0.105732 0.793530 0.921795
Si Si3 0.432663 0.709808 0.621623
Si Si4 0.776899 0.705228 0.161400
Si Si5 0.046358 0.208645 0.469206
Si Si6 0.485816 0.702063 0.180474
Si Si7 0.875550 0.213300 0.606239
Si Si8 0.482907 0.300581 0.416468
O O1 0.782351 0.500000 0.919300
O O2 0.607612 0.225479 0.769455
O O3 0.959377 0.234798 0.941483
O O4 0.785045 0.223555 0.043999
O O5 0.018612 0.736456 0.766238
O O6 0.142461 0.000000 0.933074
O O7 0.290799 0.703472 0.035846
O O8 0.454898 0.500000 0.621857
O O9 0.249093 0.743417 0.588965
O O10 0.406742 0.782445 0.487180
O O11 0.732290 0.500000 0.126133
O O12 0.626974 0.781083 0.167193
O O13 0.960150 0.718952 0.317146
O O14 0.932774 0.267652 0.515377
O O15 0.033239 0.000000 0.457031
O O16 0.543865 0.500000 0.227947
O O17 0.469923 0.784330 0.292005
O O18 0.691024 0.299114 0.543541
O O19 0.856474 0.000000 0.599864
O O20 0.411810 0.500000 0.372128
#
# Coordination Sequence:
#
# PCOD9131014 Si02
#       8
#     2   2   2   2   2   2   2   2
#     4  10  22  41  63  88 119 154 196 245 293 346
#     4  11  24  40  60  88 120 158 197 239 293 352
#     4  10  22  39  61  89 117 153 198 246 294 345
#     4  10  22  41  63  88 119 154 196 245 293 346
#     4  11  24  40  60  88 120 158 197 239 293 352
#     4  10  22  39  61  89 117 153 198 246 294 345
#     4  10  22  40  60  85 118 153 196 245 292 344
#     4  10  20  38  64  87 110 149 202 249 292 342
#
# _framework density 22.307314000000002
#
# number of rings (size 3 to 8) (size 9 to 14) (size 15 to 20)
#    0.000    1.750    2.500    0.750    3.500    3.500 
#    0.000    0.000    0.000    0.000    0.000    0.000 
#    0.000    0.000    0.000    0.000    0.000    0.000 
#
# Total GULP energy -89377.121497 kJ/mol
# GULP energy per Si atom -5586.070094 kJ/mol
# Density = 2.225654 g / cm^3
# Si number density = 22.307314 Si / 1000 Ang^3
#
#
#
# Elastic Constant Matrix: (Units=GPa)
#
#
# Indices 1 2 3 4 5 6 
#
# 1 67.9838 -4.6710 10.5299 0.0000 -4.1383 0.0000
# 2 -4.6710 48.6511 -1.1185 0.0000 -7.3783 0.0000
# 3 10.5299 -1.1185 97.2473 0.0000 -12.2048 0.0000
# 4 0.0000 0.0000 0.0000 42.4010 0.0000 32.9700
# 5 -4.1383 -7.3783 -12.2048 0.0000 46.7320 0.0000
# 6 0.0000 0.0000 0.0000 32.9700 0.0000 33.6419
#
#
#
# Elastic Compliance Matrix: (Units=1/GPa)
#
#
# Indices 1 2 3 4 5 6 
#
# 1 0.015120 0.001601 -0.001467 0.000000 0.001209 0.000000
# 2 0.001601 0.021272 0.000528 0.000000 0.003638 0.000000
# 3 -0.001467 0.000528 0.010796 0.000000 0.002773 0.000000
# 4 0.000000 0.000000 0.000000 0.099113 0.000000 -0.097134
# 5 0.001209 0.003638 0.002773 0.000000 0.022804 0.000000
# 6 0.000000 0.000000 0.000000 -0.097134 0.000000 0.124919
#
#
# Mechanical properties :
#
#
# Convention : Reuss Voigt Hill
#
# Bulk Modulus (GPa) = 20.61329 24.81812 22.71570
# Shear Modulus (GPa) = 16.18799 38.49777 27.34288
#
# Velocity S-wave (km/s) = 2.69677 4.15877 3.50485
# Velocity P-wave (km/s) = 4.35401 5.84895 5.15595
#
# Compressibility (1/GPa) = 0.04851240
#
# Stress axis : x y z
#
# Youngs Moduli (GPa) = 66.13662 47.00987 92.62686
#
# Poissons Ratio (x) = -0.07527 0.13589
# Poissons Ratio (y) = -0.10590 -0.04890
# Poissons Ratio (z) = 0.09703 -0.02482
#
# Static dielectric constant tensor:
#      x y z
#    x 1.793820 0.000000 -0.043780 
#    y 0.000000 1.862470 0.000000 
#    z -0.043780 0.000000 1.811390 
# 
# From -- ./inp_files/2698.got.cif
#   From: 2010.05.17/outbox.cif.g08.bks.cpg/sg6_2_cif.got.tgz:2698.got - 2010.06.03 19:42:10.
