data_PCOD9131865
_publ_section_title
;
Structure prediction by ZEFSAII (Michael W. Deem and Ramdas Pophale) SiO2 
 PCOD9131865
Probable space group: C M
;
_chemical_formula_sum "Si O2"
_cell_formula_units_Z 28
_cell_length_a 5.090152
_cell_length_b 14.006517
_cell_length_c 19.276949
_cell_angle_alpha 90.000000
_cell_angle_beta 106.094090
_cell_angle_gamma 90.000000
_cell_volume 1320.491778
_symmetry_space_group_name_H-M "C M"
_symmetry_group_IT_number 8
_symmetry_cell_setting 'monoclinic'
loop_
_space_group_symop_operation_xyz
x,y,z
x,-y,z
1/2+x,1/2+y,z
1/2+x,1/2-y,z
loop_
_atom_site_type_symbol
_atom_site_label
_atom_site_fract_x
_atom_site_fract_y
_atom_site_fract_z
Si Si1 0.942760 0.685180 0.246360
Si Si2 0.980521 0.688434 0.800288
Si Si3 0.284647 0.613820 0.552472
Si Si4 0.372791 0.884098 0.639442
Si Si5 0.445709 0.000000 0.890911
Si Si6 0.465990 0.188583 0.396863
Si Si7 0.044955 0.000000 0.985029
Si Si8 0.695834 0.318977 0.087285
O O1 0.739921 0.775280 0.246969
O O2 0.804309 0.639261 0.169016
O O3 0.959010 0.634425 0.322282
O O4 0.784200 0.769933 0.816460
O O5 0.882824 0.661061 0.715807
O O6 0.959492 0.594145 0.844857
O O7 0.289225 0.500000 0.554141
O O8 0.598909 0.644836 0.578093
O O9 0.115343 0.641760 0.472542
O O10 0.130759 0.643377 0.611451
O O11 0.372750 0.000000 0.647186
O O12 0.175775 0.000000 0.918116
O O13 0.717044 0.000000 0.958016
O O14 0.161511 0.220285 0.394798
O O15 0.146024 0.094990 0.031349
O O16 0.423544 0.256825 0.079292
#
# Coordination Sequence:
#
# PCOD9131865 Si02
#       8
#     4   4   4   4   2   4   2   4
#     4   8  16  32  54  79 113 157 194 241 302 344
#     4  12  26  44  70  95 121 167 209 244 312 374
#     4  10  21  34  54  82 117 158 194 246 309 344
#     4  10  21  40  59  80 120 158 197 257 305 348
#     4  12  28  48  64  96 138 152 196 266 300 368
#     4  10  19  32  52  78 114 154 197 247 295 345
#     4  12  26  42  70  98 122 168 204 238 318 376
#     4  10  21  40  65  93 128 163 206 256 299 361
#
# _framework density 21.204222000000001
#
# number of rings (size 3 to 8) (size 9 to 14) (size 15 to 20)
#    0.000    1.714    0.714    3.429    0.000    6.857 
#    1.286    0.000    0.000    0.000    0.000    0.000 
#    0.000    0.000    0.000    0.000    0.000    0.000 
#
# Total GULP energy -78237.238012 kJ/mol
# GULP energy per Si atom -5588.374144 kJ/mol
# Density = 2.115596 g / cm^3
# Si number density = 21.204222 Si / 1000 Ang^3
#
#
#
# Elastic Constant Matrix: (Units=GPa)
#
#
# Indices 1 2 3 4 5 6 
#
# 1 78.3308 -8.2335 -11.7432 0.0000 1.0062 0.0000
# 2 -8.2335 66.4967 22.3783 0.0000 -10.8764 0.0000
# 3 -11.7432 22.3783 77.4400 0.0000 -5.9490 0.0000
# 4 0.0000 0.0000 0.0000 56.8706 0.0000 -1.1258
# 5 1.0062 -10.8764 -5.9490 0.0000 34.3910 0.0000
# 6 0.0000 0.0000 0.0000 -1.1258 0.0000 19.5378
#
#
#
# Elastic Compliance Matrix: (Units=1/GPa)
#
#
# Indices 1 2 3 4 5 6 
#
# 1 0.013132 0.001098 0.001694 0.000000 0.000256 0.000000
# 2 0.001098 0.017465 -0.004519 0.000000 0.004710 0.000000
# 3 0.001694 -0.004519 0.014556 0.000000 0.001039 0.000000
# 4 0.000000 0.000000 0.000000 0.017604 0.000000 0.001014
# 5 0.000256 0.004710 0.001039 0.000000 0.030739 0.000000
# 6 0.000000 0.000000 0.000000 0.001014 0.000000 0.051241
#
#
# Mechanical properties :
#
#
# Convention : Reuss Voigt Hill
#
# Bulk Modulus (GPa) = 23.98117 25.23007 24.60562
# Shear Modulus (GPa) = 30.84675 36.81761 33.83218
#
# Velocity S-wave (km/s) = 3.81825 4.17145 3.99875
# Velocity P-wave (km/s) = 5.54733 5.92670 5.74015
#
# Compressibility (1/GPa) = 0.04169938
#
# Stress axis : x y z
#
# Youngs Moduli (GPa) = 76.14744 57.25625 68.70146
#
# Poissons Ratio (x) = -0.06286 -0.11637
# Poissons Ratio (y) = -0.08360 0.31045
# Poissons Ratio (z) = -0.12898 0.25873
#
# Static dielectric constant tensor:
#      x y z
#    x 1.735530 0.000000 -0.006680 
#    y 0.000000 1.734050 0.000000 
#    z -0.006680 0.000000 1.790760 
# 
# From -- ./inp_files/28430.got.cif
#   From: 2010.05.17/outbox.cif.g08.bks.cpg/sg8_15_cif.got.tgz:28430.got - 2010.06.03 19:46:02.
