data_PCOD9131878
_publ_section_title
;
Structure prediction by ZEFSAII (Michael W. Deem and Ramdas Pophale) SiO2 
 PCOD9131878
Probable space group: C M
;
_chemical_formula_sum "Si O2"
_cell_formula_units_Z 32
_cell_length_a 20.724602
_cell_length_b 8.957851
_cell_length_c 25.792791
_cell_angle_alpha 90.000000
_cell_angle_beta 156.949022
_cell_angle_gamma 90.000000
_cell_volume 1874.889066
_symmetry_space_group_name_H-M "C M"
_symmetry_group_IT_number 8
_symmetry_cell_setting 'monoclinic'
loop_
_space_group_symop_operation_xyz
x,y,z
x,-y,z
1/2+x,1/2+y,z
1/2+x,1/2-y,z
loop_
_atom_site_type_symbol
_atom_site_label
_atom_site_fract_x
_atom_site_fract_y
_atom_site_fract_z
Si Si1 0.190910 0.178743 0.334270
Si Si2 0.492576 0.678059 0.500552
Si Si3 0.194025 0.820008 0.828513
Si Si4 0.228077 0.179559 0.585001
Si Si5 0.818023 0.678256 0.809563
Si Si6 0.841965 0.320160 0.049342
Si Si7 0.833056 0.320340 0.550565
Si Si8 0.014256 0.821429 0.865760
O O1 0.330743 0.236598 0.398419
O O2 0.248475 0.227054 0.434518
O O3 0.014235 0.245697 0.190058
O O4 0.184088 0.000000 0.328110
O O5 0.461830 0.500000 0.479046
O O6 0.567072 0.719376 0.499490
O O7 0.642435 0.709233 0.651563
O O8 0.299727 0.778227 0.855912
O O9 0.013588 0.749747 0.689822
O O10 0.176255 0.000000 0.814863
O O11 0.278330 0.777332 0.944899
O O12 0.230012 0.218631 0.525997
O O13 0.384135 0.254786 0.728311
O O14 0.247139 0.000000 0.604051
O O15 0.844071 0.500000 0.825319
O O16 0.957177 0.759570 0.879069
O O17 0.859851 0.500000 0.063283
O O18 0.697110 0.279214 0.982568
O O19 0.849840 0.500000 0.561680
O O20 0.001685 0.000000 0.855622
#
# Coordination Sequence:
#
# PCOD9131878 Si02
#       8
#     4   4   4   4   4   4   4   4
#     4  11  23  36  53  79 110 144 179 219 270 321
#     4   9  17  32  54  77 105 141 175 215 266 319
#     4  10  19  35  57  81 106 138 183 223 262 317
#     4   9  18  33  54  79 107 139 176 218 268 318
#     4   9  18  32  54  81 108 138 173 217 268 320
#     4  10  22  38  55  77 107 145 183 218 264 321
#     4  10  20  34  54  82 110 137 177 227 269 310
#     4  10  19  32  53  80 109 138 174 221 267 314
#
# _framework density 17.067675999999999
#
# number of rings (size 3 to 8) (size 9 to 14) (size 15 to 20)
#    0.000    2.250    2.500    1.500    0.000    4.500 
#    0.000    1.250    0.000    6.000    0.000    0.000 
#    0.000    0.000    0.000    0.000    0.000    0.000 
#
# Total GULP energy -89252.990863 kJ/mol
# GULP energy per Si atom -5578.311929 kJ/mol
# Density = 1.702883 g / cm^3
# Si number density = 17.067676 Si / 1000 Ang^3
#
#
#
# Elastic Constant Matrix: (Units=GPa)
#
#
# Indices 1 2 3 4 5 6 
#
# 1 171.0627 45.1717 91.4144 0.0000 18.7452 0.0000
# 2 45.1717 24.0707 44.1528 -0.0003 9.6085 0.0001
# 3 91.4144 44.1528 128.6201 -0.0015 12.3825 0.0003
# 4 0.0000 -0.0003 -0.0015 28.2190 -0.0004 4.8491
# 5 18.7452 9.6085 12.3825 -0.0004 26.9351 0.0000
# 6 0.0000 0.0001 0.0003 4.8491 0.0000 26.0340
#
#
#
# Elastic Compliance Matrix: (Units=1/GPa)
#
#
# Indices 1 2 3 4 5 6 
#
# 1 0.011816 -0.017758 -0.002218 0.000000 -0.000868 0.000000
# 2 -0.017758 0.154915 -0.038114 -0.000001 -0.025382 0.000000
# 3 -0.002218 -0.038114 0.021949 0.000001 0.005050 0.000000
# 4 0.000000 -0.000001 0.000001 0.036609 0.000001 -0.006819
# 5 -0.000868 -0.025382 0.005050 0.000001 0.044463 0.000000
# 6 0.000000 0.000000 0.000000 -0.006819 0.000000 0.039681
#
#
# Mechanical properties :
#
#
# Convention : Reuss Voigt Hill
#
# Bulk Modulus (GPa) = 13.79347 76.13683 44.96515
# Shear Modulus (GPa) = 11.11653 25.77193 18.44423
#
# Velocity S-wave (km/s) = 2.55487 3.89007 3.29089
# Velocity P-wave (km/s) = 4.09906 8.05497 6.39080
#
# Compressibility (1/GPa) = 0.07249805
#
# Stress axis : x y z
#
# Youngs Moduli (GPa) = 84.63354 6.45516 45.56008
#
# Poissons Ratio (x) = 0.11463 0.10105
# Poissons Ratio (y) = 1.50295 1.73649
# Poissons Ratio (z) = 0.18772 0.24603
#
# Static dielectric constant tensor:
#      x y z
#    x 1.604620 0.000000 -0.001700 
#    y 0.000000 1.571220 0.000000 
#    z -0.001700 0.000000 1.533210 
# 
# From -- ./inp_files/15808.got.cif
#   From: 2010.05.17/outbox.cif.g08.bks.cpg/sg8_8_cif.got.tgz:15808.got - 2010.06.03 19:46:02.
