data_PCOD9131705
_publ_section_title
;
Structure prediction by ZEFSAII (Michael W. Deem and Ramdas Pophale) SiO2 
 PCOD9131705
Probable space group: C M
;
_chemical_formula_sum "Si O2"
_cell_formula_units_Z 28
_cell_length_a 22.742669
_cell_length_b 12.275720
_cell_length_c 16.939452
_cell_angle_alpha 90.000000
_cell_angle_beta 160.037420
_cell_angle_gamma 90.000000
_cell_volume 1614.579233
_symmetry_space_group_name_H-M "C M"
_symmetry_group_IT_number 8
_symmetry_cell_setting 'monoclinic'
loop_
_space_group_symop_operation_xyz
x,y,z
x,-y,z
1/2+x,1/2+y,z
1/2+x,1/2-y,z
loop_
_atom_site_type_symbol
_atom_site_label
_atom_site_fract_x
_atom_site_fract_y
_atom_site_fract_z
Si Si1 0.501830 0.375374 0.741990
Si Si2 0.387918 0.227282 0.466858
Si Si3 0.243868 0.621842 0.880531
Si Si4 0.213429 0.702714 0.667520
Si Si5 0.470925 0.628515 0.420789
Si Si6 0.359144 0.780171 0.150482
Si Si7 0.024867 0.871032 0.958562
O O1 0.447754 0.500000 0.659722
O O2 0.388739 0.288712 0.551329
O O3 0.506549 0.355554 0.841458
O O4 0.696047 0.357747 0.953963
O O5 0.549083 0.144671 0.664692
O O6 0.430648 0.318225 0.454262
O O7 0.211385 0.169311 0.221915
O O8 0.300038 0.500000 0.972460
O O9 0.240975 0.636214 0.782684
O O10 0.355288 0.716022 0.063178
O O11 0.377134 0.692693 0.819058
O O12 0.154472 0.823076 0.622424
O O13 0.040807 0.665529 0.402524
O O14 0.463561 0.500000 0.412257
O O15 0.341886 0.684732 0.195112
O O16 0.006302 0.000000 0.951148
#
# Coordination Sequence:
#
# PCOD9131705 Si02
#       7
#     4   4   4   4   4   4   4
#     4  10  20  35  57  80 109 144 180 224 274 317
#     4  10  20  34  55  83 108 140 184 229 262 327
#     4  10  18  33  57  81 103 140 184 229 272 312
#     4   9  21  34  52  82 110 142 180 225 264 328
#     4   9  17  35  56  77 107 139 174 227 273 308
#     4   9  19  34  55  81 107 136 182 231 264 319
#     4  11  21  37  56  78 114 151 178 219 269 321
#
# _framework density 17.34198
#
# number of rings (size 3 to 8) (size 9 to 14) (size 15 to 20)
#    0.857    1.429    1.429    1.714    0.000    3.429 
#    0.000    1.429    0.000    3.429    0.000    0.000 
#    0.000    0.000    0.000    0.000    0.000    0.000 
#
# Total GULP energy -77953.271034 kJ/mol
# GULP energy per Si atom -5568.090788 kJ/mol
# Density = 1.730251 g / cm^3
# Si number density = 17.341980 Si / 1000 Ang^3
#
#
#
# Elastic Constant Matrix: (Units=GPa)
#
#
# Indices 1 2 3 4 5 6 
#
# 1 54.6001 9.3752 28.6510 0.0000 -8.1330 0.0000
# 2 9.3752 46.1981 -4.3752 0.0001 -2.9491 0.0000
# 3 28.6510 -4.3752 39.5212 0.0002 -14.2353 0.0001
# 4 0.0000 0.0001 0.0002 16.0937 0.0001 -4.6080
# 5 -8.1330 -2.9491 -14.2353 0.0001 25.7706 0.0000
# 6 0.0000 0.0000 0.0001 -4.6080 0.0000 16.3293
#
#
#
# Elastic Compliance Matrix: (Units=1/GPa)
#
#
# Indices 1 2 3 4 5 6 
#
# 1 0.033553 -0.009773 -0.027458 0.000000 -0.005697 0.000000
# 2 -0.009773 0.025207 0.012239 0.000000 0.006561 0.000000
# 3 -0.027458 0.012239 0.054863 -0.000001 0.023041 -0.000001
# 4 0.000000 0.000000 -0.000001 0.067598 -0.000001 0.019075
# 5 -0.005697 0.006561 0.023041 -0.000001 0.050484 0.000000
# 6 0.000000 0.000000 -0.000001 0.019075 0.000000 0.066622
#
#
# Mechanical properties :
#
#
# Convention : Reuss Voigt Hill
#
# Bulk Modulus (GPa) = 15.71397 23.06904 19.39150
# Shear Modulus (GPa) = 13.53087 18.74994 16.14040
#
# Velocity S-wave (km/s) = 2.79630 3.29171 3.05407
# Velocity P-wave (km/s) = 4.41663 5.27052 4.86236
#
# Compressibility (1/GPa) = 0.06363766
#
# Stress axis : x y z
#
# Youngs Moduli (GPa) = 29.80354 39.67132 18.22726
#
# Poissons Ratio (x) = 0.38772 0.50049
# Poissons Ratio (y) = 0.29128 -0.22308
# Poissons Ratio (z) = 0.81836 -0.48553
#
# Static dielectric constant tensor:
#      x y z
#    x 1.590590 0.000000 -0.030440 
#    y 0.000000 1.573810 0.000000 
#    z -0.030440 0.000000 1.598240 
# 
# From -- ./inp_files/30126.got.cif
#   From: 2010.05.17/outbox.cif.g08.bks.cpg/sg8_16_cif.got.tgz:30126.got - 2010.06.03 19:46:02.
