data_PCOD9131956
_publ_section_title
;
Structure prediction by ZEFSAII (Michael W. Deem and Ramdas Pophale) SiO2 
 PCOD9131956
Probable space group: C M
;
_chemical_formula_sum "Si O2"
_cell_formula_units_Z 32
_cell_length_a 20.601567
_cell_length_b 8.625174
_cell_length_c 25.542584
_cell_angle_alpha 90.000000
_cell_angle_beta 156.694139
_cell_angle_gamma 90.000000
_cell_volume 1795.694869
_symmetry_space_group_name_H-M "C M"
_symmetry_group_IT_number 8
_symmetry_cell_setting 'monoclinic'
loop_
_space_group_symop_operation_xyz
x,y,z
x,-y,z
1/2+x,1/2+y,z
1/2+x,1/2-y,z
loop_
_atom_site_type_symbol
_atom_site_label
_atom_site_fract_x
_atom_site_fract_y
_atom_site_fract_z
Si Si1 0.424350 0.686061 0.292590
Si Si2 0.379332 0.187466 0.039657
Si Si3 0.520827 0.185382 0.751846
Si Si4 0.702341 0.187976 0.221611
Si Si5 0.712607 0.184121 0.579093
Si Si6 0.532889 0.184901 0.265784
Si Si7 0.511357 0.685751 0.522058
Si Si8 0.399960 0.185241 0.546608
O O1 0.424030 0.500000 0.287505
O O2 0.272908 0.735472 0.217516
O O3 0.587321 0.735579 0.445241
O O4 0.431078 0.762058 0.240905
O O5 0.523066 0.239797 0.106329
O O6 0.443827 0.225406 0.145640
O O7 0.364447 0.000000 0.025282
O O8 0.205717 0.263023 0.899360
O O9 0.394139 0.263469 0.698126
O O10 0.466647 0.232044 0.652962
O O11 0.505050 0.000000 0.744237
O O12 0.840017 0.232652 0.366488
O O13 0.699760 0.000000 0.220007
O O14 0.654082 0.239856 0.592826
O O15 0.695783 0.000000 0.562204
O O16 0.711477 0.262276 0.401618
O O17 0.556495 0.000000 0.284059
O O18 0.523503 0.500000 0.528193
O O19 0.500740 0.740338 0.573654
O O20 0.408812 0.000000 0.549184
#
# Coordination Sequence:
#
# PCOD9131956 Si02
#       8
#     4   4   4   4   4   4   4   4
#     4  10  19  33  56  85 116 149 188 240 288 339
#     4  10  21  39  59  82 112 153 197 237 286 348
#     4  11  24  40  57  83 118 157 196 239 289 344
#     4   8  16  33  55  80 111 146 183 227 282 337
#     4  11  21  35  57  85 116 152 193 238 289 345
#     4  11  21  35  58  86 115 149 193 242 290 343
#     4  10  19  35  59  86 117 148 186 240 291 344
#     4  11  22  36  57  85 117 150 194 245 287 340
#
# _framework density 17.820401
#
# number of rings (size 3 to 8) (size 9 to 14) (size 15 to 20)
#    0.000    1.750    2.500    3.750    0.000    2.500 
#    0.000    2.500    0.000    6.000    0.000    0.000 
#    0.000    0.000    0.000    0.000    0.000    0.000 
#
# Total GULP energy -89348.263156 kJ/mol
# GULP energy per Si atom -5584.266447 kJ/mol
# Density = 1.777984 g / cm^3
# Si number density = 17.820401 Si / 1000 Ang^3
#
#
#
# Elastic Constant Matrix: (Units=GPa)
#
#
# Indices 1 2 3 4 5 6 
#
# 1 126.1383 17.0553 50.9706 0.0009 19.3817 0.0001
# 2 17.0553 28.6507 16.5936 0.0010 -1.3036 0.0002
# 3 50.9706 16.5936 93.4722 -0.0004 13.9177 0.0004
# 4 0.0009 0.0010 -0.0004 26.1363 0.0001 1.9923
# 5 19.3817 -1.3036 13.9177 0.0001 28.3690 0.0000
# 6 0.0001 0.0002 0.0004 1.9923 0.0000 29.9953
#
#
#
# Elastic Compliance Matrix: (Units=1/GPa)
#
#
# Indices 1 2 3 4 5 6 
#
# 1 0.011196 -0.004316 -0.004499 0.000000 -0.005640 0.000000
# 2 -0.004316 0.041404 -0.006170 -0.000002 0.007878 0.000000
# 3 -0.004499 -0.006170 0.014922 0.000001 -0.004530 0.000000
# 4 0.000000 -0.000002 0.000001 0.038456 0.000000 -0.002554
# 5 -0.005640 0.007878 -0.004530 0.000000 0.041687 0.000000
# 6 0.000000 0.000000 0.000000 -0.002554 0.000000 0.033508
#
#
# Mechanical properties :
#
#
# Convention : Reuss Voigt Hill
#
# Bulk Modulus (GPa) = 26.62965 46.38892 36.50928
# Shear Modulus (GPa) = 22.35533 27.80957 25.08245
#
# Velocity S-wave (km/s) = 3.54571 3.95466 3.75575
# Velocity P-wave (km/s) = 5.63369 6.85130 6.27211
#
# Compressibility (1/GPa) = 0.03755213
#
# Stress axis : x y z
#
# Youngs Moduli (GPa) = 89.31710 24.15220 67.01655
#
# Poissons Ratio (x) = 0.10423 0.30153
# Poissons Ratio (y) = 0.38546 0.41349
# Poissons Ratio (z) = 0.40187 0.14902
#
# Static dielectric constant tensor:
#      x y z
#    x 1.619780 0.000000 0.010790 
#    y 0.000000 1.598660 0.000000 
#    z 0.010790 0.000000 1.578700 
# 
# From -- ./inp_files/33048.got.cif
#   From: 2010.05.17/outbox.cif.g08.bks.cpg/sg8_17_cif.got.tgz:33048.got - 2010.06.03 19:46:02.
