data_PCOD9131302
_publ_section_title
;
Structure prediction by ZEFSAII (Michael W. Deem and Ramdas Pophale) SiO2 
 PCOD9131302
Probable space group: P C
;
_chemical_formula_sum "Si O2"
_cell_formula_units_Z 14
_cell_length_a 9.147653
_cell_length_b 15.273320
_cell_length_c 5.292506
_cell_angle_alpha 90.000000
_cell_angle_beta 119.367366
_cell_angle_gamma 90.000000
_cell_volume 644.419290
_symmetry_space_group_name_H-M "P C"
_symmetry_group_IT_number 7
_symmetry_cell_setting 'monoclinic'
loop_
_space_group_symop_operation_xyz
x,y,z
x,-y,1/2+z
loop_
_atom_site_type_symbol
_atom_site_label
_atom_site_fract_x
_atom_site_fract_y
_atom_site_fract_z
Si Si1 0.403260 0.792763 0.218780
Si Si2 0.752610 0.558948 0.067115
Si Si3 0.133467 0.557997 0.345740
Si Si4 0.050560 0.888141 0.947117
Si Si5 0.436744 0.314732 0.242457
Si Si6 0.543319 0.039889 0.585004
Si Si7 0.921805 0.922167 0.337313
O O1 0.461750 0.755170 0.536881
O O2 0.519205 0.866816 0.192767
O O3 0.227075 0.841712 0.112696
O O4 0.391258 0.722927 0.980752
O O5 0.735289 0.490064 0.821229
O O6 0.605924 0.629230 0.913974
O O7 0.943532 0.594427 0.209234
O O8 0.149729 0.486319 0.584233
O O9 0.280438 0.627003 0.515140
O O10 0.963327 0.863849 0.611910
O O11 0.050325 0.995074 0.935863
O O12 0.941328 0.868463 0.099715
O O13 0.742438 0.032710 0.713912
O O14 0.474513 0.025763 0.243485
#
# Coordination Sequence:
#
# PCOD9131302 Si02
#       7
#     2   2   2   2   2   2   2
#     4  12  28  40  62  94 139 172 214 266 353 399
#     4  10  21  41  73 102 129 173 224 266 307 383
#     4  10  21  41  73 102 127 173 228 262 307 387
#     4  10  20  38  59  88 111 157 209 272 315 386
#     4  12  24  46  60 102 143 178 204 266 344 400
#     4  12  23  43  63  90 118 166 229 283 322 394
#     4  10  19  39  64  84 107 151 226 277 320 361
#
# _framework density 21.724986000000001
#
# number of rings (size 3 to 8) (size 9 to 14) (size 15 to 20)
#    0.000    1.143    2.857    4.286    4.000    0.000 
#    7.714    0.000    0.000    0.000    0.000    0.000 
#    0.000    0.000    0.000    0.000    0.000    0.000 
#
# Total GULP energy -78158.416907 kJ/mol
# GULP energy per Si atom -5582.744065 kJ/mol
# Density = 2.167554 g / cm^3
# Si number density = 21.724986 Si / 1000 Ang^3
#
#
#
# Elastic Constant Matrix: (Units=GPa)
#
#
# Indices 1 2 3 4 5 6 
#
# 1 87.2714 25.6240 37.7190 0.0000 -15.3011 0.0000
# 2 25.6240 37.7877 3.0558 0.0000 14.7310 0.0000
# 3 37.7190 3.0558 110.3424 0.0000 -44.2616 0.0000
# 4 0.0000 0.0000 0.0000 3.5453 0.0000 -30.8964
# 5 -15.3011 14.7310 -44.2616 0.0000 57.8980 0.0000
# 6 0.0000 0.0000 0.0000 -30.8964 0.0000 168.9338
#
#
#
# Elastic Compliance Matrix: (Units=1/GPa)
#
#
# Indices 1 2 3 4 5 6 
#
# 1 0.018180 -0.014288 -0.003510 0.000000 0.005757 0.000000
# 2 -0.014288 0.043117 -0.003209 0.000000 -0.017200 0.000000
# 3 -0.003510 -0.003209 0.014865 0.000000 0.011253 0.000000
# 4 0.000000 0.000000 0.000000 -0.474991 0.000000 -0.086871
# 5 0.005757 -0.017200 0.011253 0.000000 0.031772 0.000000
# 6 0.000000 0.000000 0.000000 -0.086871 0.000000 -0.009968
#
#
# Mechanical properties :
#
#
# Convention : Reuss Voigt Hill
#
# Bulk Modulus (GPa) = 29.28403 40.91101 35.09752
# Shear Modulus (GPa) = -15.44985 57.34226 20.94620
#
# Velocity S-wave (km/s) = -2.66964 5.14314 3.10845
# Velocity P-wave (km/s) = 2.00151 7.35808 5.39201
#
# Compressibility (1/GPa) = 0.03414830
#
# Stress axis : x y z
#
# Youngs Moduli (GPa) = 55.00555 23.19255 67.27099
#
# Poissons Ratio (x) = 0.33138 0.23609
# Poissons Ratio (y) = 0.78594 0.21588
# Poissons Ratio (z) = 0.19305 0.07443
#
# Static dielectric constant tensor:
#      x y z
#    x 1.792940 0.000000 -0.020050 
#    y 0.000000 1.799200 0.000000 
#    z -0.020050 0.000000 1.838390 
# 
# From -- ./inp_files/604.got.cif
#   From: 2010.05.17/outbox.cif.g08.bks.cpg/sg7_cif.got.tgz:604.got - 2010.06.03 19:44:50.
