data_PCOD9131588
_publ_section_title
;
Structure prediction by ZEFSAII (Michael W. Deem and Ramdas Pophale) SiO2 
 PCOD9131588
Probable space group: C M
;
_chemical_formula_sum "Si O2"
_cell_formula_units_Z 32
_cell_length_a 8.969091
_cell_length_b 29.684738
_cell_length_c 11.349800
_cell_angle_alpha 90.000000
_cell_angle_beta 28.985694
_cell_angle_gamma 90.000000
_cell_volume 1464.351728
_symmetry_space_group_name_H-M "C M"
_symmetry_group_IT_number 8
_symmetry_cell_setting 'monoclinic'
loop_
_space_group_symop_operation_xyz
x,y,z
x,-y,z
1/2+x,1/2+y,z
1/2+x,1/2-y,z
loop_
_atom_site_type_symbol
_atom_site_label
_atom_site_fract_x
_atom_site_fract_y
_atom_site_fract_z
Si Si1 0.756950 0.905777 0.977130
Si Si2 0.859782 0.552706 0.039778
Si Si3 0.164073 0.725711 0.336197
Si Si4 0.874773 0.178240 0.594920
Si Si5 0.035963 0.816554 0.737400
Si Si6 0.259692 0.947055 0.474689
Si Si7 0.284982 0.234308 0.014763
Si Si8 0.836821 0.919498 0.542456
O O1 0.824911 0.853171 0.945964
O O2 0.080957 0.927279 0.711235
O O3 0.534910 0.916892 0.017981
O O4 0.581374 0.925410 0.211142
O O5 0.931655 0.500000 0.011931
O O6 0.500146 0.560535 0.314728
O O7 0.994757 0.566842 0.819860
O O8 0.291859 0.729733 0.115832
O O9 0.442942 0.717093 0.230736
O O10 0.045472 0.776993 0.434710
O O11 0.878008 0.692459 0.547198
O O12 0.868793 0.134439 0.519107
O O13 0.043940 0.165233 0.598749
O O14 0.527909 0.194668 0.861153
O O15 0.885428 0.766651 0.837064
O O16 0.035939 0.938788 0.515903
O O17 0.298576 0.000000 0.462540
#
# Coordination Sequence:
#
# PCOD9131588 Si02
#       8
#     4   4   4   4   4   4   4   4
#     4  10  19  29  50  74 111 154 185 233 288 361
#     4  10  18  29  47  78 116 150 185 236 299 351
#     4  11  24  38  60  79 117 152 198 255 294 350
#     4  11  22  36  55  85 109 156 204 238 298 353
#     4  11  22  36  55  85 109 156 204 238 298 353
#     4  10  18  29  47  78 116 150 185 236 299 351
#     4  11  24  38  60  79 117 152 198 255 294 350
#     4  10  19  29  50  74 111 154 185 233 288 361
#
# _framework density 21.852672999999999
#
# number of rings (size 3 to 8) (size 9 to 14) (size 15 to 20)
#    0.000    1.500    5.000    3.750    7.000    0.000 
#    0.000    0.000    0.000    0.000    0.000    0.000 
#    0.000   11.000    0.000    0.000    0.000    0.000 
#
# Total GULP energy -89296.736558 kJ/mol
# GULP energy per Si atom -5581.046035 kJ/mol
# Density = 2.180294 g / cm^3
# Si number density = 21.852673 Si / 1000 Ang^3
#
#
#
# Elastic Constant Matrix: (Units=GPa)
#
#
# Indices 1 2 3 4 5 6 
#
# 1 25.7256 4.5835 14.1156 0.0000 -10.5754 0.0000
# 2 4.5835 98.9648 33.2533 0.0000 -7.1293 0.0000
# 3 14.1156 33.2533 147.8557 0.0000 6.9494 0.0000
# 4 0.0000 0.0000 0.0000 40.2510 0.0000 0.2410
# 5 -10.5754 -7.1293 6.9494 0.0000 24.7744 0.0000
# 6 0.0000 0.0000 0.0000 0.2410 0.0000 8.0008
#
#
#
# Elastic Compliance Matrix: (Units=1/GPa)
#
#
# Indices 1 2 3 4 5 6 
#
# 1 0.052259 0.001529 -0.006488 0.000000 0.024568 0.000000
# 2 0.001529 0.011358 -0.002923 0.000000 0.004741 0.000000
# 3 -0.006488 -0.002923 0.008320 0.000000 -0.005944 0.000000
# 4 0.000000 0.000000 0.000000 0.024849 0.000000 -0.000749
# 5 0.024568 0.004741 -0.005944 0.000000 0.053883 0.000000
# 6 0.000000 0.000000 0.000000 -0.000749 0.000000 0.125009
#
#
# Mechanical properties :
#
#
# Convention : Reuss Voigt Hill
#
# Bulk Modulus (GPa) = 17.80227 41.82789 29.81508
# Shear Modulus (GPa) = 16.12049 29.31149 22.71599
#
# Velocity S-wave (km/s) = 2.71899 3.66638 3.22764
# Velocity P-wave (km/s) = 4.24516 6.09143 5.25009
#
# Compressibility (1/GPa) = 0.05617263
#
# Stress axis : x y z
#
# Youngs Moduli (GPa) = 19.13562 88.04714 120.19857
#
# Poissons Ratio (x) = -0.13466 0.77982
# Poissons Ratio (y) = -0.02927 0.35137
# Poissons Ratio (z) = 0.12415 0.25738
#
# Static dielectric constant tensor:
#      x y z
#    x 1.787600 0.000000 0.054970 
#    y 0.000000 1.797980 0.000000 
#    z 0.054970 0.000000 1.927330 
# 
# From -- ./inp_files/3318.got.cif
#   From: 2010.05.17/outbox.cif.g08.bks.cpg/sg8_2_cif.got.tgz:3318.got - 2010.06.03 19:46:02.
