data_PCOD9131579
_publ_section_title
;
Structure prediction by ZEFSAII (Michael W. Deem and Ramdas Pophale) SiO2 
 PCOD9131579
Probable space group: C M
;
_chemical_formula_sum "Si O2"
_cell_formula_units_Z 32
_cell_length_a 5.231803
_cell_length_b 18.735468
_cell_length_c 15.825559
_cell_angle_alpha 90.000000
_cell_angle_beta 79.294785
_cell_angle_gamma 90.000000
_cell_volume 1524.227990
_symmetry_space_group_name_H-M "C M"
_symmetry_group_IT_number 8
_symmetry_cell_setting 'monoclinic'
loop_
_space_group_symop_operation_xyz
x,y,z
x,-y,z
1/2+x,1/2+y,z
1/2+x,1/2-y,z
loop_
_atom_site_type_symbol
_atom_site_label
_atom_site_fract_x
_atom_site_fract_y
_atom_site_fract_z
Si Si1 0.977660 0.291409 0.688900
Si Si2 0.328170 0.582718 0.624836
Si Si3 0.251111 0.412648 0.352962
Si Si4 0.873446 0.077673 0.814108
Si Si5 0.314684 0.086635 0.050556
Si Si6 0.241062 0.584860 0.161636
Si Si7 0.198819 0.086626 0.450119
Si Si8 0.839572 0.355081 0.868611
O O1 0.718759 0.261806 0.663816
O O2 0.931823 0.297299 0.793691
O O3 0.078985 0.366222 0.645909
O O4 0.254878 0.500000 0.612231
O O5 0.448043 0.585363 0.711682
O O6 0.536686 0.606528 0.543035
O O7 0.252822 0.500000 0.352326
O O8 0.228711 0.386915 0.257922
O O9 0.518108 0.391416 0.382135
O O10 0.995442 0.389400 0.420743
O O11 0.564427 0.086270 0.835613
O O12 0.044175 0.129886 0.859249
O O13 0.946524 0.000000 0.841388
O O14 0.523100 0.108110 0.108739
O O15 0.026261 0.093986 0.105336
O O16 0.350018 0.000000 0.027621
O O17 0.343803 0.139858 0.969186
O O18 0.195619 0.500000 0.172740
O O19 0.208985 0.000000 0.450287
#
# Coordination Sequence:
#
# PCOD9131579 Si02
#       8
#     4   4   4   4   4   4   4   4
#     4  11  24  42  59  79 113 152 186 225 278 337
#     4   9  20  37  58  85 112 145 192 237 274 319
#     4   9  16  27  42  65 102 143 173 207 268 333
#     4  10  19  31  49  74 106 138 173 222 275 318
#     4  10  18  28  45  70 101 135 177 224 266 316
#     4   9  17  27  41  65 102 143 173 208 269 333
#     4   9  17  28  46  71 101 135 176 222 264 316
#     4  11  21  34  51  73 101 141 184 225 270 322
#
# _framework density 20.994235
#
# number of rings (size 3 to 8) (size 9 to 14) (size 15 to 20)
#    0.000    2.250    0.000    4.125    0.000    8.000 
#    0.000    8.125    0.000    0.000    0.000    0.000 
#    0.000   20.000    0.000    0.000    0.000    0.000 
#
# Total GULP energy -89198.621917 kJ/mol
# GULP energy per Si atom -5574.913870 kJ/mol
# Density = 2.094645 g / cm^3
# Si number density = 20.994235 Si / 1000 Ang^3
#
#
#
# Elastic Constant Matrix: (Units=GPa)
#
#
# Indices 1 2 3 4 5 6 
#
# 1 45.4301 8.6861 -28.6192 0.0000 1.9132 0.0000
# 2 8.6861 27.3278 -0.7690 0.0000 -3.6185 0.0000
# 3 -28.6192 -0.7690 49.6815 0.0000 0.6645 0.0000
# 4 0.0000 0.0000 0.0000 13.2343 0.0000 -5.9138
# 5 1.9132 -3.6185 0.6645 0.0000 21.9541 0.0000
# 6 0.0000 0.0000 0.0000 -5.9138 0.0000 9.2313
#
#
#
# Elastic Compliance Matrix: (Units=1/GPa)
#
#
# Indices 1 2 3 4 5 6 
#
# 1 0.038576 -0.012445 0.022111 0.000000 -0.006082 0.000000
# 2 -0.012445 0.041436 -0.006636 0.000000 0.008115 0.000000
# 3 0.022111 -0.006636 0.032816 0.000000 -0.004014 0.000000
# 4 0.000000 0.000000 0.000000 0.105867 0.000000 0.067821
# 5 -0.006082 0.008115 -0.004014 0.000000 0.047539 0.000000
# 6 0.000000 0.000000 0.000000 0.067821 0.000000 0.151775
#
#
# Mechanical properties :
#
#
# Convention : Reuss Voigt Hill
#
# Bulk Modulus (GPa) = 8.41120 9.00391 8.70756
# Shear Modulus (GPa) = 11.07227 18.42670 14.74949
#
# Velocity S-wave (km/s) = 2.29900 2.96582 2.65344
# Velocity P-wave (km/s) = 3.32601 4.00327 3.68025
#
# Compressibility (1/GPa) = 0.11888908
#
# Stress axis : x y z
#
# Youngs Moduli (GPa) = 25.92258 24.13360 30.47270
#
# Poissons Ratio (x) = 0.30033 -0.67378
# Poissons Ratio (y) = 0.32260 0.20222
# Poissons Ratio (z) = -0.57317 0.16015
#
# Static dielectric constant tensor:
#      x y z
#    x 1.742410 0.000000 0.005050 
#    y 0.000000 1.778800 0.000000 
#    z 0.005050 0.000000 1.782690 
# 
# From -- ./inp_files/24997.got.cif
#   From: 2010.05.17/outbox.cif.g08.bks.cpg/sg8_13_cif.got.tgz:24997.got - 2010.06.03 19:46:02.
