data_PCOD9131207
_publ_section_title
;
Structure prediction by ZEFSAII (Michael W. Deem and Ramdas Pophale) SiO2 
 PCOD9131207
Probable space group: P C
;
_chemical_formula_sum "Si O2"
_cell_formula_units_Z 14
_cell_length_a 17.495091
_cell_length_b 7.129921
_cell_length_c 5.410442
_cell_angle_alpha 90.000000
_cell_angle_beta 108.392748
_cell_angle_gamma 90.000000
_cell_volume 640.414887
_symmetry_space_group_name_H-M "P C"
_symmetry_group_IT_number 7
_symmetry_cell_setting 'monoclinic'
loop_
_space_group_symop_operation_xyz
x,y,z
x,-y,1/2+z
loop_
_atom_site_type_symbol
_atom_site_label
_atom_site_fract_x
_atom_site_fract_y
_atom_site_fract_z
Si Si1 0.402210 0.384193 0.332300
Si Si2 0.012577 0.376585 0.453853
Si Si3 0.658547 0.727583 0.613305
Si Si4 0.590487 0.701826 0.043851
Si Si5 0.243332 0.209539 0.299380
Si Si6 0.178526 0.213827 0.733542
Si Si7 0.833704 0.623237 0.813845
O O1 0.390235 0.530596 0.546579
O O2 0.494805 0.322286 0.445185
O O3 0.336121 0.224576 0.316274
O O4 0.018808 0.477449 0.192083
O O5 0.085674 0.233441 0.564925
O O6 0.922894 0.290562 0.384308
O O7 0.619867 0.796989 0.322606
O O8 0.633603 0.504292 0.588252
O O9 0.754421 0.748754 0.713193
O O10 0.619647 0.797155 0.824628
O O11 0.228535 0.296074 0.554185
O O12 0.210054 0.998767 0.293012
O O13 0.193837 0.297563 0.020708
O O14 0.828515 0.481892 0.573368
#
# Coordination Sequence:
#
# PCOD9131207 Si02
#       7
#     2   2   2   2   2   2   2
#     4  12  21  32  48  81 111 133 179 222 261 295
#     4  10  21  32  53  80 107 135 169 224 266 301
#     4  10  14  25  41  61 100 151 158 184 254 302
#     4  10  16  25  41  64 101 146 160 198 246 297
#     4  10  23  37  58  71  98 144 180 220 260 317
#     4  10  21  42  54  72 101 136 187 211 266 324
#     4  10  16  25  41  69 100 135 163 195 247 302
#
# _framework density 21.86083
#
# number of rings (size 3 to 8) (size 9 to 14) (size 15 to 20)
#    0.000    1.714    5.714    1.714    0.000    3.429 
#    0.000    0.000    0.000    0.000    0.000    0.000 
#    0.000   27.429    0.000    0.000    0.000    0.000 
#
# Total GULP energy -78109.955958 kJ/mol
# GULP energy per Si atom -5579.282568 kJ/mol
# Density = 2.181107 g / cm^3
# Si number density = 21.860830 Si / 1000 Ang^3
#
#
#
# Elastic Constant Matrix: (Units=GPa)
#
#
# Indices 1 2 3 4 5 6 
#
# 1 152.7882 15.0235 29.3312 0.0000 16.0610 0.0000
# 2 15.0235 69.2680 0.6055 0.0000 5.4158 0.0000
# 3 29.3312 0.6055 158.0210 0.0000 -26.2814 0.0000
# 4 0.0000 0.0000 0.0000 -16.3369 0.0000 3.2583
# 5 16.0610 5.4158 -26.2814 0.0000 58.3105 0.0000
# 6 0.0000 0.0000 0.0000 3.2583 0.0000 -34.8353
#
#
#
# Elastic Compliance Matrix: (Units=1/GPa)
#
#
# Indices 1 2 3 4 5 6 
#
# 1 0.007308 -0.001358 -0.001800 0.000000 -0.002698 0.000000
# 2 -0.001358 0.014808 0.000031 0.000000 -0.000987 0.000000
# 3 -0.001800 0.000031 0.007291 0.000000 0.003779 0.000000
# 4 0.000000 0.000000 0.000000 -0.062375 0.000000 -0.005834
# 5 -0.002698 -0.000987 0.003779 0.000000 0.019688 0.000000
# 6 0.000000 0.000000 0.000000 -0.005834 0.000000 -0.029252
#
#
# Mechanical properties :
#
#
# Convention : Reuss Voigt Hill
#
# Bulk Modulus (GPa) = 43.19171 52.22197 47.70684
# Shear Modulus (GPa) = -175.06314 23.76879 -75.64718
#
# Velocity S-wave (km/s) = -8.95849 3.30097 -5.88890
# Velocity P-wave (km/s) = 9.33840 6.20232 4.93644
#
# Compressibility (1/GPa) = 0.02315259
#
# Stress axis : x y z
#
# Youngs Moduli (GPa) = 136.84181 67.53018 137.16024
#
# Poissons Ratio (x) = 0.09173 0.24688
# Poissons Ratio (y) = 0.18587 -0.00428
# Poissons Ratio (z) = 0.24631 -0.00211
#
# Static dielectric constant tensor:
#      x y z
#    x 1.784920 0.000000 -0.025250 
#    y 0.000000 1.755360 0.000000 
#    z -0.025250 0.000000 1.844160 
# 
# From -- ./inp_files/1257.got.cif
#   From: 2010.05.17/outbox.cif.g08.bks.cpg/sg7_cif.got.tgz:1257.got - 2010.06.03 19:44:50.
