data_PCOD9131810
_publ_section_title
;
Structure prediction by ZEFSAII (Michael W. Deem and Ramdas Pophale) SiO2 
 PCOD9131810
Probable space group: C M
;
_chemical_formula_sum "Si O2"
_cell_formula_units_Z 32
_cell_length_a 14.135875
_cell_length_b 9.690113
_cell_length_c 11.451652
_cell_angle_alpha 90.000000
_cell_angle_beta 67.459767
_cell_angle_gamma 90.000000
_cell_volume 1448.800480
_symmetry_space_group_name_H-M "C M"
_symmetry_group_IT_number 8
_symmetry_cell_setting 'monoclinic'
loop_
_space_group_symop_operation_xyz
x,y,z
x,-y,z
1/2+x,1/2+y,z
1/2+x,1/2-y,z
loop_
_atom_site_type_symbol
_atom_site_label
_atom_site_fract_x
_atom_site_fract_y
_atom_site_fract_z
Si Si1 0.220310 0.839423 0.614890
Si Si2 0.415224 0.346730 0.914856
Si Si3 0.779152 0.157624 0.376582
Si Si4 0.828791 0.653590 0.148544
Si Si5 0.148358 0.156706 0.893178
Si Si6 0.040899 0.343422 0.400057
Si Si7 0.985588 0.155638 0.629300
Si Si8 0.600965 0.343982 0.169525
O O1 0.278686 0.742038 0.497236
O O2 0.212788 0.787794 0.752715
O O3 0.103137 0.842035 0.620980
O O4 0.254255 0.000000 0.597715
O O5 0.370173 0.500000 0.959690
O O6 0.533413 0.353031 0.898026
O O7 0.416589 0.321088 0.776088
O O8 0.367974 0.225908 0.012901
O O9 0.841139 0.240769 0.248882
O O10 0.660192 0.153238 0.387571
O O11 0.812908 0.000000 0.374210
O O12 0.871763 0.500000 0.147137
O O13 0.707550 0.639408 0.187451
O O14 0.187148 0.000000 0.896493
O O15 0.132047 0.220127 0.028974
O O16 0.008236 0.500000 0.395904
O O17 0.979596 0.269108 0.532636
O O18 0.037044 0.253195 0.284708
O O19 0.967180 0.000000 0.593236
O O20 0.558547 0.500000 0.170975
#
# Coordination Sequence:
#
# PCOD9131810 Si02
#       8
#     4   4   4   4   4   4   4   4
#     4   8  13  24  43  65  86 107 140 185 225 260
#     4   9  17  30  48  68  90 116 147 183 221 262
#     4   9  16  26  41  62  88 116 147 183 221 259
#     4  10  19  29  44  67  93 120 148 180 219 262
#     4   8  15  29  49  69  88 116 150 181 217 263
#     4   9  16  25  40  64  90 114 144 185 225 255
#     4   8  14  25  42  63  85 111 143 180 222 264
#     4   9  17  30  47  66  90 120 151 179 214 265
#
# _framework density 22.087236999999998
#
# number of rings (size 3 to 8) (size 9 to 14) (size 15 to 20)
#    0.000    3.250    0.000    2.625    0.000    4.000 
#    0.000    3.125    0.000    1.500    0.000    3.500 
#    0.000    0.000    0.000    0.000    0.000    0.000 
#
# Total GULP energy -89261.998391 kJ/mol
# GULP energy per Si atom -5578.874899 kJ/mol
# Density = 2.203697 g / cm^3
# Si number density = 22.087237 Si / 1000 Ang^3
#
#
#
# Elastic Constant Matrix: (Units=GPa)
#
#
# Indices 1 2 3 4 5 6 
#
# 1 54.0046 3.3158 -9.6393 0.0000 9.7553 0.0000
# 2 3.3158 171.8039 115.4526 0.0000 2.9789 0.0000
# 3 -9.6393 115.4526 162.0360 0.0000 18.3204 0.0000
# 4 0.0000 0.0000 0.0000 22.1016 0.0000 0.4236
# 5 9.7553 2.9789 18.3204 0.0000 21.1441 0.0000
# 6 0.0000 0.0000 0.0000 0.4236 0.0000 2.9525
#
#
#
# Elastic Compliance Matrix: (Units=1/GPa)
#
#
# Indices 1 2 3 4 5 6 
#
# 1 0.022595 -0.004269 0.006094 0.000000 -0.015103 0.000000
# 2 -0.004269 0.012680 -0.010320 0.000000 0.009125 0.000000
# 3 0.006094 -0.010320 0.015566 0.000000 -0.014845 0.000000
# 4 0.000000 0.000000 0.000000 0.045370 0.000000 -0.006509
# 5 -0.015103 0.009125 -0.014845 0.000000 0.065839 0.000000
# 6 0.000000 0.000000 0.000000 -0.006509 0.000000 0.339628
#
#
# Mechanical properties :
#
#
# Convention : Reuss Voigt Hill
#
# Bulk Modulus (GPa) = 29.54318 67.34475 48.44396
# Shear Modulus (GPa) = 9.43480 27.82067 18.62773
#
# Velocity S-wave (km/s) = 2.06903 3.55291 2.90724
# Velocity P-wave (km/s) = 4.37179 6.88385 5.76628
#
# Compressibility (1/GPa) = 0.03384876
#
# Stress axis : x y z
#
# Youngs Moduli (GPa) = 44.25783 78.86344 64.24335
#
# Poissons Ratio (x) = 0.33667 -0.39147
# Poissons Ratio (y) = 0.18894 0.66302
# Poissons Ratio (z) = -0.26969 0.81391
#
# Static dielectric constant tensor:
#      x y z
#    x 1.880120 0.000000 -0.021440 
#    y 0.000000 1.792530 0.000000 
#    z -0.021440 0.000000 1.810400 
# 
# From -- ./inp_files/23677.got.cif
#   From: 2010.05.17/outbox.cif.g08.bks.cpg/sg8_12_cif.got.tgz:23677.got - 2010.06.03 19:46:02.
