data_PCOD9131673
_publ_section_title
;
Structure prediction by ZEFSAII (Michael W. Deem and Ramdas Pophale) SiO2 
 PCOD9131673
Probable space group: C M
;
_chemical_formula_sum "Si O2"
_cell_formula_units_Z 32
_cell_length_a 14.313228
_cell_length_b 15.623852
_cell_length_c 10.693773
_cell_angle_alpha 90.000000
_cell_angle_beta 149.635042
_cell_angle_gamma 90.000000
_cell_volume 1208.879789
_symmetry_space_group_name_H-M "C M"
_symmetry_group_IT_number 8
_symmetry_cell_setting 'monoclinic'
loop_
_space_group_symop_operation_xyz
x,y,z
x,-y,z
1/2+x,1/2+y,z
1/2+x,1/2-y,z
loop_
_atom_site_type_symbol
_atom_site_label
_atom_site_fract_x
_atom_site_fract_y
_atom_site_fract_z
Si Si1 0.715240 0.404850 0.763470
Si Si2 0.524290 0.907283 0.762076
Si Si3 0.190780 0.097173 0.016092
Si Si4 0.407223 0.403833 0.075218
Si Si5 0.773692 0.908098 0.296641
Si Si6 0.841871 0.724823 0.394362
Si Si7 0.310152 0.405074 0.681405
Si Si8 0.619123 0.270081 0.494434
O O1 0.788862 0.500000 0.824549
O O2 0.760750 0.379587 0.958765
O O3 0.489633 0.413525 0.502840
O O4 0.771214 0.337206 0.723081
O O5 0.393836 0.829202 0.576151
O O6 0.429015 0.000000 0.644002
O O7 0.643058 0.903728 0.024219
O O8 0.687854 0.903543 0.848177
O O9 0.968139 0.095058 0.758260
O O10 0.251687 0.000000 0.115817
O O11 0.240148 0.164269 0.178272
O O12 0.473996 0.500000 0.190497
O O13 0.499543 0.326362 0.258644
O O14 0.418906 0.396652 0.939644
O O15 0.747609 0.813656 0.321526
O O16 0.729813 0.000000 0.307352
O O17 0.015266 0.749247 0.506030
O O18 0.221244 0.500000 0.582734
O O19 0.185336 0.321969 0.526327
#
# Coordination Sequence:
#
# PCOD9131673 Si02
#       8
#     4   4   4   4   4   4   4   4
#     4   9  18  35  61  90 122 157 199 252 306 365
#     4  10  18  32  54  87 121 147 194 256 304 347
#     4  10  23  41  59  88 130 168 200 245 316 376
#     4  10  19  36  61  87 119 156 200 251 305 359
#     4   9  19  33  53  82 117 157 193 242 305 354
#     4  11  21  31  60  88 120 153 206 257 292 347
#     4  10  23  43  62  84 124 170 202 242 306 376
#     4  11  21  33  64  94 115 150 210 259 300 352
#
# _framework density 26.470787999999999
#
# number of rings (size 3 to 8) (size 9 to 14) (size 15 to 20)
#    0.000    2.000    3.750    0.750    5.250    0.500 
#    4.500    0.000    0.000    2.250    0.000    0.000 
#    0.000    0.000    0.000    0.000    0.000    0.000 
#
# Total GULP energy -89482.686950 kJ/mol
# GULP energy per Si atom -5592.667934 kJ/mol
# Density = 2.641054 g / cm^3
# Si number density = 26.470788 Si / 1000 Ang^3
#
#
#
# Elastic Constant Matrix: (Units=GPa)
#
#
# Indices 1 2 3 4 5 6 
#
# 1 60.4945 26.5410 11.2516 0.0000 -17.0825 0.0000
# 2 26.5410 276.8254 87.6603 0.0000 -25.6058 0.0000
# 3 11.2516 87.6603 88.0750 0.0000 -26.5780 0.0000
# 4 0.0000 0.0000 0.0000 59.3420 0.0000 -15.3676
# 5 -17.0825 -25.6058 -26.5780 0.0000 41.8369 0.0000
# 6 0.0000 0.0000 0.0000 -15.3676 0.0000 0.6860
#
#
#
# Elastic Compliance Matrix: (Units=1/GPa)
#
#
# Indices 1 2 3 4 5 6 
#
# 1 0.019150 -0.001585 0.001482 0.000000 0.007791 0.000000
# 2 -0.001585 0.005407 -0.005413 0.000000 -0.000777 0.000000
# 3 0.001482 -0.005413 0.019467 0.000000 0.009659 0.000000
# 4 0.000000 0.000000 0.000000 -0.003510 0.000000 -0.078625
# 5 0.007791 -0.000777 0.009659 0.000000 0.032744 0.000000
# 6 0.000000 0.000000 0.000000 -0.078625 0.000000 -0.303612
#
#
# Mechanical properties :
#
#
# Convention : Reuss Voigt Hill
#
# Bulk Modulus (GPa) = 30.31084 75.14451 52.72768
# Shear Modulus (GPa) = -24.00094 40.36910 8.18408
#
# Velocity S-wave (km/s) = -3.01441 3.90942 1.76024
# Velocity P-wave (km/s) = 0.79999 6.98766 4.90853
#
# Compressibility (1/GPa) = 0.03299149
#
# Stress axis : x y z
#
# Youngs Moduli (GPa) = 52.21935 184.95947 51.36893
#
# Poissons Ratio (x) = 0.29309 -0.07611
# Poissons Ratio (y) = 0.08275 0.27807
# Poissons Ratio (z) = -0.07737 1.00121
#
# Static dielectric constant tensor:
#      x y z
#    x 2.070470 0.000000 0.038100 
#    y 0.000000 2.112170 0.000000 
#    z 0.038100 0.000000 2.096210 
# 
# From -- ./inp_files/23337.got.cif
#   From: 2010.05.17/outbox.cif.g08.bks.cpg/sg8_12_cif.got.tgz:23337.got - 2010.06.03 19:46:02.
