data_PCOD9131425
_publ_section_title
;
Structure prediction by ZEFSAII (Michael W. Deem and Ramdas Pophale) SiO2 
 PCOD9131425
Probable space group: P C
;
_chemical_formula_sum "Si O2"
_cell_formula_units_Z 16
_cell_length_a 9.212934
_cell_length_b 16.668187
_cell_length_c 5.046951
_cell_angle_alpha 90.000000
_cell_angle_beta 110.543892
_cell_angle_gamma 90.000000
_cell_volume 725.735727
_symmetry_space_group_name_H-M "P C"
_symmetry_group_IT_number 7
_symmetry_cell_setting 'monoclinic'
loop_
_space_group_symop_operation_xyz
x,y,z
x,-y,1/2+z
loop_
_atom_site_type_symbol
_atom_site_label
_atom_site_fract_x
_atom_site_fract_y
_atom_site_fract_z
Si Si1 0.219830 0.552240 0.308610
Si Si2 0.683546 0.297296 0.684574
Si Si3 0.860770 0.555871 0.069211
Si Si4 0.892858 0.199892 0.106010
Si Si5 0.615894 0.835765 0.741214
Si Si6 0.114686 0.186091 0.742670
Si Si7 0.398534 0.298480 0.851753
Si Si8 0.337207 0.049662 0.123568
O O1 0.236678 0.478924 0.520964
O O2 0.349834 0.617998 0.449206
O O3 0.041531 0.582020 0.217877
O O4 0.750087 0.369443 0.555823
O O5 0.800594 0.284787 0.010202
O O6 0.690080 0.210682 0.539591
O O7 0.508414 0.312149 0.668628
O O8 0.836489 0.486301 0.272367
O O9 0.001810 0.200974 0.918821
O O10 0.743481 0.146436 0.098574
O O11 0.006429 0.178259 0.418817
O O12 0.499808 0.765232 0.576121
O O13 0.508598 0.912092 0.719305
O O14 0.234380 0.254229 0.721624
O O15 0.218927 0.113209 0.920228
O O16 0.316321 0.973322 0.916819
#
# Coordination Sequence:
#
# PCOD9131425 Si02
#       8
#     2   2   2   2   2   2   2   2
#     4  10  23  41  60  91 130 173 227 277 341 394
#     4  11  24  43  69 101 136 179 233 276 342 398
#     4  10  24  42  62  91 134 181 227 282 343 398
#     4  11  23  42  71  99 134 171 224 283 312 397
#     4  10  25  45  69 104 133 177 231 265 340 407
#     4  11  24  43  71 100 132 172 229 268 336 390
#     4  10  25  39  67  97 133 175 222 283 327 405
#     4  11  26  47  73  99 140 180 215 272 343 407
#
# _framework density 22.046590999999999
#
# number of rings (size 3 to 8) (size 9 to 14) (size 15 to 20)
#    0.000    1.500    1.250    1.500   14.000    3.000 
#    0.000    3.750    0.000    0.000    0.000    0.000 
#    0.000    0.000    0.000    0.000    0.000    0.000 
#
# Total GULP energy -89181.227718 kJ/mol
# GULP energy per Si atom -5573.826732 kJ/mol
# Density = 2.199641 g / cm^3
# Si number density = 22.046591 Si / 1000 Ang^3
#
#
#
# Elastic Constant Matrix: (Units=GPa)
#
#
# Indices 1 2 3 4 5 6 
#
# 1 129.9596 30.6005 6.6575 0.0000 -1.9087 0.0000
# 2 30.6005 43.6606 0.2869 0.0000 4.8275 0.0000
# 3 6.6575 0.2869 45.2168 0.0000 0.6790 0.0000
# 4 0.0000 0.0000 0.0000 17.1357 0.0000 -7.6686
# 5 -1.9087 4.8275 0.6790 0.0000 29.2166 0.0000
# 6 0.0000 0.0000 0.0000 -7.6686 0.0000 31.3364
#
#
#
# Elastic Compliance Matrix: (Units=1/GPa)
#
#
# Indices 1 2 3 4 5 6 
#
# 1 0.009383 -0.006762 -0.001365 0.000000 0.001762 0.000000
# 2 -0.006762 0.028204 0.000894 0.000000 -0.005123 0.000000
# 3 -0.001365 0.000894 0.022322 0.000000 -0.000756 0.000000
# 4 0.000000 0.000000 0.000000 0.065535 0.000000 0.016038
# 5 0.001762 -0.005123 -0.000756 0.000000 0.035206 0.000000
# 6 0.000000 0.000000 0.000000 0.016038 0.000000 0.035836
#
#
# Mechanical properties :
#
#
# Convention : Reuss Voigt Hill
#
# Bulk Modulus (GPa) = 22.00608 32.65855 27.33231
# Shear Modulus (GPa) = 22.11408 27.62387 24.86897
#
# Velocity S-wave (km/s) = 3.17055 3.54358 3.36224
# Velocity P-wave (km/s) = 4.83802 5.62034 5.24379
#
# Compressibility (1/GPa) = 0.04544199
#
# Stress axis : x y z
#
# Youngs Moduli (GPa) = 106.57937 35.45626 44.79820
#
# Poissons Ratio (x) = 0.23975 0.06115
# Poissons Ratio (y) = 0.72068 -0.04003
# Poissons Ratio (z) = 0.14548 -0.03168
#
# Static dielectric constant tensor:
#      x y z
#    x 1.820320 0.000000 0.017660 
#    y 0.000000 1.830720 0.000000 
#    z 0.017660 0.000000 1.905040 
# 
# From -- ./inp_files/634.got.cif
#   From: 2010.05.17/outbox.cif.g08.bks.cpg/sg7_cif.got.tgz:634.got - 2010.06.03 19:44:50.
