data_PCOD9131709
_publ_section_title
;
Structure prediction by ZEFSAII (Michael W. Deem and Ramdas Pophale) SiO2 
 PCOD9131709
Probable space group: C M
;
_chemical_formula_sum "Si O2"
_cell_formula_units_Z 32
_cell_length_a 20.938128
_cell_length_b 8.775966
_cell_length_c 21.578345
_cell_angle_alpha 90.000000
_cell_angle_beta 156.835396
_cell_angle_gamma 90.000000
_cell_volume 1559.755703
_symmetry_space_group_name_H-M "C M"
_symmetry_group_IT_number 8
_symmetry_cell_setting 'monoclinic'
loop_
_space_group_symop_operation_xyz
x,y,z
x,-y,z
1/2+x,1/2+y,z
1/2+x,1/2-y,z
loop_
_atom_site_type_symbol
_atom_site_label
_atom_site_fract_x
_atom_site_fract_y
_atom_site_fract_z
Si Si1 0.191570 0.825340 0.212630
Si Si2 0.050060 0.181594 0.221806
Si Si3 0.189454 0.674575 0.892271
Si Si4 0.758989 0.322170 0.620802
Si Si5 0.013308 0.829055 0.514092
Si Si6 0.994538 0.324399 0.939019
Si Si7 0.742014 0.832505 0.793843
Si Si8 0.828741 0.821534 0.558561
O O1 0.079763 0.800420 0.173925
O O2 0.327049 0.698091 0.337234
O O3 0.247946 0.000000 0.266405
O O4 0.115381 0.794566 0.077251
O O5 0.205176 0.251224 0.396817
O O6 0.050614 0.000000 0.234018
O O7 0.865083 0.235499 0.075011
O O8 0.167144 0.500000 0.895397
O O9 0.231290 0.668720 0.856917
O O10 0.012431 0.755062 0.733484
O O11 0.763614 0.500000 0.605412
O O12 0.613429 0.305832 0.540111
O O13 0.921010 0.290915 0.806033
O O14 0.745020 0.215205 0.549737
O O15 0.065639 0.701169 0.609471
O O16 0.043958 0.000000 0.564010
O O17 0.048554 0.500000 0.988441
O O18 0.845159 0.300028 0.853779
O O19 0.801946 0.000000 0.827332
O O20 0.844075 0.000000 0.559589
#
# Coordination Sequence:
#
# PCOD9131709 Si02
#       8
#     4   4   4   4   4   4   4   4
#     4  11  21  36  59  92 125 156 196 244 304 368
#     4  10  22  42  65  91 125 168 209 246 300 377
#     4  10  21  40  64  89 121 167 211 247 301 376
#     4   9  21  43  63  80 112 162 208 242 293 369
#     4  10  21  36  57  88 119 156 200 244 305 366
#     4  10  20  35  59  87 117 153 191 241 298 356
#     4  10  18  33  57  86 117 152 194 240 296 361
#     4  12  26  41  62  93 124 160 209 266 317 357
#
# _framework density 20.516033
#
# number of rings (size 3 to 8) (size 9 to 14) (size 15 to 20)
#    0.000    1.750    1.250    4.125    0.000    8.500 
#    2.250    0.000    0.000    0.000    0.000    0.000 
#    0.000    0.000    0.000    0.000    0.000    0.000 
#
# Total GULP energy -89080.580500 kJ/mol
# GULP energy per Si atom -5567.536281 kJ/mol
# Density = 2.046934 g / cm^3
# Si number density = 20.516033 Si / 1000 Ang^3
#
#
#
# Elastic Constant Matrix: (Units=GPa)
#
#
# Indices 1 2 3 4 5 6 
#
# 1 29.1654 18.0983 12.4060 0.0000 -6.9638 0.0000
# 2 18.0983 65.5025 33.2505 -0.0001 3.6877 -0.0001
# 3 12.4060 33.2505 82.5753 0.0001 14.0096 0.0000
# 4 0.0000 -0.0001 0.0001 32.5358 -0.0001 -0.0691
# 5 -6.9638 3.6877 14.0096 -0.0001 25.2268 -0.0001
# 6 0.0000 -0.0001 0.0000 -0.0691 -0.0001 22.4498
#
#
#
# Elastic Compliance Matrix: (Units=1/GPa)
#
#
# Indices 1 2 3 4 5 6 
#
# 1 0.048130 -0.011422 -0.005707 0.000000 0.018125 0.000000
# 2 -0.011422 0.021961 -0.006677 0.000000 -0.002656 0.000000
# 3 -0.005707 -0.006677 0.017397 0.000000 -0.010261 0.000000
# 4 0.000000 0.000000 0.000000 0.030736 0.000000 0.000095
# 5 0.018125 -0.002656 -0.010261 0.000000 0.050730 0.000000
# 6 0.000000 0.000000 0.000000 0.000095 0.000000 0.044544
#
#
# Mechanical properties :
#
#
# Convention : Reuss Voigt Hill
#
# Bulk Modulus (GPa) = 25.07678 33.86145 29.46911
# Shear Modulus (GPa) = 18.22154 23.60839 20.91497
#
# Velocity S-wave (km/s) = 2.98344 3.39592 3.19634
# Velocity P-wave (km/s) = 4.91095 5.64952 5.29313
#
# Compressibility (1/GPa) = 0.03987752
#
# Stress axis : x y z
#
# Youngs Moduli (GPa) = 20.77702 45.53509 57.48197
#
# Poissons Ratio (x) = 0.52009 0.32804
# Poissons Ratio (y) = 0.23731 0.38378
# Poissons Ratio (z) = 0.11857 0.30402
#
# Static dielectric constant tensor:
#      x y z
#    x 1.706370 0.000000 0.022500 
#    y 0.000000 1.692980 0.000000 
#    z 0.022500 0.000000 1.890000 
# 
# From -- ./inp_files/32440.got.cif
#   From: 2010.05.17/outbox.cif.g08.bks.cpg/sg8_17_cif.got.tgz:32440.got - 2010.06.03 19:46:02.
