data_PCOD9131446
_publ_section_title
;
Structure prediction by ZEFSAII (Michael W. Deem and Ramdas Pophale) SiO2 
 PCOD9131446
Probable space group: P C
;
_chemical_formula_sum "Si O2"
_cell_formula_units_Z 14
_cell_length_a 4.961919
_cell_length_b 21.261871
_cell_length_c 4.959430
_cell_angle_alpha 90.000000
_cell_angle_beta 85.464760
_cell_angle_gamma 90.000000
_cell_volume 521.580032
_symmetry_space_group_name_H-M "P C"
_symmetry_group_IT_number 7
_symmetry_cell_setting 'monoclinic'
loop_
_space_group_symop_operation_xyz
x,y,z
x,-y,1/2+z
loop_
_atom_site_type_symbol
_atom_site_label
_atom_site_fract_x
_atom_site_fract_y
_atom_site_fract_z
Si Si1 0.177330 0.364907 0.775300
Si Si2 0.547872 0.540578 0.079575
Si Si3 0.442903 0.129759 0.081093
Si Si4 0.659646 0.345151 0.180975
Si Si5 0.079329 0.956440 0.868274
Si Si6 0.306926 0.748268 0.924394
Si Si7 0.995255 0.147007 0.730577
O O1 0.238252 0.434864 0.656178
O O2 0.186263 0.320095 0.512646
O O3 0.419410 0.349320 0.971648
O O4 0.917992 0.352393 0.973422
O O5 0.612034 0.483544 0.873109
O O6 0.661569 0.600676 0.909635
O O7 0.382592 0.071961 0.288937
O O8 0.321449 0.195068 0.208361
O O9 0.241556 0.111362 0.854697
O O10 0.731373 0.145361 0.933359
O O11 0.612058 0.279263 0.344337
O O12 0.013194 0.996303 0.612813
O O13 0.929055 0.891670 0.964664
O O14 0.136099 0.786629 0.161857
#
# Coordination Sequence:
#
# PCOD9131446 Si02
#       7
#     2   2   2   2   2   2   2
#     4  11  25  45  70 103 141 184 233 289 351 415
#     4  11  24  47  72 105 142 187 236 290 348 419
#     4  11  25  45  70 103 141 184 233 289 351 415
#     4  11  25  45  70 103 141 184 233 289 351 415
#     4  11  24  47  72 105 142 187 236 290 348 419
#     4  10  24  42  72 104 140 182 234 288 352 416
#     4  11  25  45  70 103 141 184 233 289 351 415
#
# _framework density 26.841518000000001
#
# number of rings (size 3 to 8) (size 9 to 14) (size 15 to 20)
#    0.000    1.143    2.857    1.714    0.000   13.714 
#    0.000    0.000    0.000    0.000    0.000    0.000 
#    0.000    0.000    0.000    0.000    0.000    0.000 
#
# Total GULP energy -77961.870302 kJ/mol
# GULP energy per Si atom -5568.705022 kJ/mol
# Density = 2.678043 g / cm^3
# Si number density = 26.841518 Si / 1000 Ang^3
#
#
#
# Elastic Constant Matrix: (Units=GPa)
#
#
# Indices 1 2 3 4 5 6 
#
# 1 94.0668 -5.0185 58.2995 0.0000 -18.3070 0.0000
# 2 -5.0185 80.5423 33.9405 0.0000 2.2853 0.0000
# 3 58.2995 33.9405 208.2552 0.0000 -32.8532 0.0000
# 4 0.0000 0.0000 0.0000 50.1768 0.0000 -12.9534
# 5 -18.3070 2.2853 -32.8532 0.0000 46.8343 0.0000
# 6 0.0000 0.0000 0.0000 -12.9534 0.0000 20.2386
#
#
#
# Elastic Compliance Matrix: (Units=1/GPa)
#
#
# Indices 1 2 3 4 5 6 
#
# 1 0.013603 0.002375 -0.003795 0.000000 0.002540 0.000000
# 2 0.002375 0.014000 -0.003269 0.000000 -0.002048 0.000000
# 3 -0.003795 -0.003269 0.006958 0.000000 0.003557 0.000000
# 4 0.000000 0.000000 0.000000 0.023874 0.000000 0.015280
# 5 0.002540 -0.002048 0.003557 0.000000 0.024940 0.000000
# 6 0.000000 0.000000 0.000000 0.015280 0.000000 0.059190
#
#
# Mechanical properties :
#
#
# Convention : Reuss Voigt Hill
#
# Bulk Modulus (GPa) = 39.71046 61.92305 50.81675
# Shear Modulus (GPa) = 31.18397 43.15946 37.17171
#
# Velocity S-wave (km/s) = 3.41219 4.01426 3.72541
# Velocity P-wave (km/s) = 5.50914 6.67875 6.12194
#
# Compressibility (1/GPa) = 0.02518228
#
# Stress axis : x y z
#
# Youngs Moduli (GPa) = 73.51089 71.43018 143.71814
#
# Poissons Ratio (x) = -0.16962 0.54534
# Poissons Ratio (y) = -0.17456 0.46989
# Poissons Ratio (z) = 0.27894 0.23354
#
# Static dielectric constant tensor:
#      x y z
#    x 2.346670 0.000000 0.120540 
#    y 0.000000 2.158700 0.000000 
#    z 0.120540 0.000000 2.188470 
# 
# From -- ./inp_files/297.got.cif
#   From: 2010.05.17/outbox.cif.g08.bks.cpg/sg7_cif.got.tgz:297.got - 2010.06.03 19:44:50.
