data_PCOD9131510
_publ_section_title
;
Structure prediction by ZEFSAII (Michael W. Deem and Ramdas Pophale) SiO2 
 PCOD9131510
Probable space group: C M
;
_chemical_formula_sum "Si O2"
_cell_formula_units_Z 22
_cell_length_a 14.513558
_cell_length_b 12.272071
_cell_length_c 12.393181
_cell_angle_alpha 90.000000
_cell_angle_beta 149.409413
_cell_angle_gamma 90.000000
_cell_volume 1123.329062
_symmetry_space_group_name_H-M "C M"
_symmetry_group_IT_number 8
_symmetry_cell_setting 'monoclinic'
loop_
_space_group_symop_operation_xyz
x,y,z
x,-y,z
1/2+x,1/2+y,z
1/2+x,1/2-y,z
loop_
_atom_site_type_symbol
_atom_site_label
_atom_site_fract_x
_atom_site_fract_y
_atom_site_fract_z
Si Si1 0.959610 0.500000 0.968071
Si Si2 0.367599 0.500000 0.302609
Si Si3 0.436474 0.218017 0.816809
Si Si4 0.915803 0.211201 0.575191
Si Si5 0.634188 0.500000 0.770488
Si Si6 0.637184 0.871635 0.442586
Si Si7 0.342587 0.741791 0.255754
O O1 0.898731 0.608795 0.843757
O O2 0.849261 0.500000 0.968856
O O3 0.178000 0.500000 0.179053
O O4 0.534970 0.500000 0.553224
O O5 0.368111 0.615661 0.243419
O O6 0.451249 0.198333 0.702011
O O7 0.279087 0.307691 0.663846
O O8 0.629733 0.262589 0.048177
O O9 0.716620 0.164379 0.406210
O O10 0.920500 0.245341 0.456336
O O11 0.053245 0.110924 0.737852
O O12 0.444980 0.822703 0.280039
O O13 0.647053 0.000000 0.464637
#
# Coordination Sequence:
#
# PCOD9131510 Si02
#       7
#     2   2   4   4   2   4   4
#     4  10  18  34  62  80 106 147 183 230 292 310
#     4   8  18  32  58  84 101 132 193 232 272 326
#     4   9  20  37  55  86 113 141 188 234 270 341
#     4   9  19  37  54  83 112 139 195 230 264 338
#     4  10  16  34  56  78 107 145 178 248 274 304
#     4  10  21  39  56  81 115 151 187 230 277 331
#     4  10  19  38  58  82 115 147 180 238 285 317
#
# _framework density 19.584644000000001
#
# number of rings (size 3 to 8) (size 9 to 14) (size 15 to 20)
#    1.091    1.455    0.909    2.182    0.000    0.727 
#   14.727    0.000    0.000    0.000    0.000    0.000 
#    0.000    0.000    0.000    0.000    0.000    0.000 
#
# Total GULP energy -61243.693386 kJ/mol
# GULP energy per Si atom -5567.608490 kJ/mol
# Density = 1.954007 g / cm^3
# Si number density = 19.584644 Si / 1000 Ang^3
#
#
#
# Elastic Constant Matrix: (Units=GPa)
#
#
# Indices 1 2 3 4 5 6 
#
# 1 82.4511 29.8186 5.4788 0.0000 12.5788 0.0000
# 2 29.8186 55.2550 13.4880 0.0000 8.0150 0.0000
# 3 5.4788 13.4880 49.2735 0.0000 8.3897 0.0000
# 4 0.0000 0.0000 0.0000 23.9766 0.0000 9.5497
# 5 12.5788 8.0150 8.3897 0.0000 29.8629 0.0000
# 6 0.0000 0.0000 0.0000 9.5497 0.0000 33.2175
#
#
#
# Elastic Compliance Matrix: (Units=1/GPa)
#
#
# Indices 1 2 3 4 5 6 
#
# 1 0.015702 -0.008091 0.001287 0.000000 -0.004804 0.000000
# 2 -0.008091 0.024005 -0.005414 0.000000 -0.001514 0.000000
# 3 0.001287 -0.005414 0.022558 0.000000 -0.005426 0.000000
# 4 0.000000 0.000000 0.000000 0.047101 0.000000 -0.013541
# 5 -0.004804 -0.001514 -0.005426 0.000000 0.037441 0.000000
# 6 0.000000 0.000000 0.000000 -0.013541 0.000000 0.033998
#
#
# Mechanical properties :
#
#
# Convention : Reuss Voigt Hill
#
# Bulk Modulus (GPa) = 26.43457 31.61670 29.02563
# Shear Modulus (GPa) = 22.95171 26.62435 24.78803
#
# Velocity S-wave (km/s) = 3.42705 3.69107 3.56151
# Velocity P-wave (km/s) = 5.40245 5.86038 5.63607
#
# Compressibility (1/GPa) = 0.03782925
#
# Stress axis : x y z
#
# Youngs Moduli (GPa) = 63.68680 41.65756 44.33087
#
# Poissons Ratio (x) = 0.33704 -0.05704
# Poissons Ratio (y) = 0.51528 0.23999
# Poissons Ratio (z) = -0.08195 0.22552
#
# Static dielectric constant tensor:
#      x y z
#    x 1.703380 0.000000 0.000510 
#    y 0.000000 1.678650 0.000000 
#    z 0.000510 0.000000 1.737050 
# 
# From -- ./inp_files/12268.got.cif
#   From: 2010.05.17/outbox.cif.g08.bks.cpg/sg8_7_cif.got.tgz:12268.got - 2010.06.03 19:46:02.
