data_PCOD9131427
_publ_section_title
;
Structure prediction by ZEFSAII (Michael W. Deem and Ramdas Pophale) SiO2 
 PCOD9131427
Probable space group: P C
;
_chemical_formula_sum "Si O2"
_cell_formula_units_Z 12
_cell_length_a 7.400539
_cell_length_b 13.768075
_cell_length_c 5.510082
_cell_angle_alpha 90.000000
_cell_angle_beta 60.566261
_cell_angle_gamma 90.000000
_cell_volume 488.962090
_symmetry_space_group_name_H-M "P C"
_symmetry_group_IT_number 7
_symmetry_cell_setting 'monoclinic'
loop_
_space_group_symop_operation_xyz
x,y,z
x,-y,1/2+z
loop_
_atom_site_type_symbol
_atom_site_label
_atom_site_fract_x
_atom_site_fract_y
_atom_site_fract_z
Si Si1 0.555420 0.812000 0.092340
Si Si2 0.161585 0.280215 0.890651
Si Si3 0.731464 0.217510 0.970414
Si Si4 0.479374 0.446066 0.628380
Si Si5 0.973006 0.559373 0.798991
Si Si6 0.861473 0.998854 0.877101
O O1 0.308340 0.814735 0.306080
O O2 0.637293 0.753523 0.275254
O O3 0.602313 0.764948 0.799138
O O4 0.694067 0.910992 0.991256
O O5 0.323374 0.358290 0.683579
O O6 0.959401 0.260172 0.864620
O O7 0.075857 0.334450 0.188532
O O8 0.744606 0.101002 0.951510
O O9 0.440411 0.480167 0.931329
O O10 0.725101 0.428439 0.451308
O O11 0.019648 0.493965 0.524233
O O12 0.985179 0.000320 0.545439
#
# Coordination Sequence:
#
# PCOD9131427 Si02
#       6
#     2   2   2   2   2   2
#     4  10  23  41  62  92 129 164 208 266 315 372
#     4  12  24  40  68  98 124 168 220 260 312 378
#     4  10  23  41  62  92 129 164 208 266 315 372
#     4  10  23  42  63  89 127 168 206 259 319 375
#     4  10  23  42  63  89 127 168 206 259 319 375
#     4   8  16  38  60  80 122 164 198 252 314 364
#
# _framework density 24.541782000000001
#
# number of rings (size 3 to 8) (size 9 to 14) (size 15 to 20)
#    0.000    2.000    0.000    2.000    0.000   10.667 
#    0.000   15.000    0.000    0.000    0.000    0.000 
#    0.000    0.000    0.000    0.000    0.000    0.000 
#
# Total GULP energy -66926.516163 kJ/mol
# GULP energy per Si atom -5577.209680 kJ/mol
# Density = 2.448592 g / cm^3
# Si number density = 24.541782 Si / 1000 Ang^3
#
#
#
# Elastic Constant Matrix: (Units=GPa)
#
#
# Indices 1 2 3 4 5 6 
#
# 1 77.5438 2.2274 46.6682 0.0000 -0.0814 0.0000
# 2 2.2274 56.1800 18.7079 0.0000 1.8148 0.0000
# 3 46.6682 18.7079 136.7843 0.0000 45.9141 0.0000
# 4 0.0000 0.0000 0.0000 33.3458 0.0000 -4.5212
# 5 -0.0814 1.8148 45.9141 0.0000 54.2261 0.0000
# 6 0.0000 0.0000 0.0000 -4.5212 0.0000 25.7538
#
#
#
# Elastic Compliance Matrix: (Units=1/GPa)
#
#
# Indices 1 2 3 4 5 6 
#
# 1 0.018327 0.002059 -0.009110 0.000000 0.007672 0.000000
# 2 0.002059 0.019061 -0.004326 0.000000 0.003028 0.000000
# 3 -0.009110 -0.004326 0.015321 0.000000 -0.012841 0.000000
# 4 0.000000 0.000000 0.000000 0.030720 0.000000 0.005393
# 5 0.007672 0.003028 -0.012841 0.000000 0.029225 0.000000
# 6 0.000000 0.000000 0.000000 0.005393 0.000000 0.039776
#
#
# Mechanical properties :
#
#
# Convention : Reuss Voigt Hill
#
# Bulk Modulus (GPa) = 33.38211 45.07945 39.23078
# Shear Modulus (GPa) = 27.00243 36.19210 31.59727
#
# Velocity S-wave (km/s) = 3.32062 3.84437 3.59205
# Velocity P-wave (km/s) = 5.32294 6.17364 5.76401
#
# Compressibility (1/GPa) = 0.02995616
#
# Stress axis : x y z
#
# Youngs Moduli (GPa) = 54.56308 52.46318 65.27003
#
# Poissons Ratio (x) = -0.10803 0.59460
# Poissons Ratio (y) = -0.11235 0.28235
# Poissons Ratio (z) = 0.49706 0.22695
#
# Static dielectric constant tensor:
#      x y z
#    x 1.946080 0.000000 0.043710 
#    y 0.000000 2.067150 0.000000 
#    z 0.043710 0.000000 2.011490 
# 
# From -- ./inp_files/596.got.cif
#   From: 2010.05.17/outbox.cif.g08.bks.cpg/sg7_cif.got.tgz:596.got - 2010.06.03 19:44:50.
