data_PCOD9131238
_publ_section_title
;
Structure prediction by ZEFSAII (Michael W. Deem and Ramdas Pophale) SiO2 
 PCOD9131238
Probable space group: P C
;
_chemical_formula_sum "Si O2"
_cell_formula_units_Z 16
_cell_length_a 7.097402
_cell_length_b 17.133167
_cell_length_c 5.657077
_cell_angle_alpha 90.000000
_cell_angle_beta 109.548817
_cell_angle_gamma 90.000000
_cell_volume 648.252923
_symmetry_space_group_name_H-M "P C"
_symmetry_group_IT_number 7
_symmetry_cell_setting 'monoclinic'
loop_
_space_group_symop_operation_xyz
x,y,z
x,-y,1/2+z
loop_
_atom_site_type_symbol
_atom_site_label
_atom_site_fract_x
_atom_site_fract_y
_atom_site_fract_z
Si Si1 0.691720 0.171179 0.664860
Si Si2 0.488138 0.538022 0.559527
Si Si3 0.076998 0.845938 0.609685
Si Si4 0.189872 0.312766 0.431914
Si Si5 0.032218 0.517018 0.875567
Si Si6 0.420191 0.954775 0.895961
Si Si7 0.593025 0.693017 0.838003
Si Si8 0.347278 0.784267 0.363493
O O1 0.617832 0.101285 0.467904
O O2 0.745604 0.253261 0.553791
O O3 0.482752 0.188186 0.708260
O O4 0.850911 0.146401 0.928990
O O5 0.531356 0.517134 0.304928
O O6 0.241754 0.533333 0.466956
O O7 0.606968 0.617246 0.678443
O O8 0.104769 0.761571 0.751109
O O9 0.205175 0.909339 0.804499
O O10 0.196706 0.844518 0.411425
O O11 0.071390 0.391495 0.360034
O O12 0.412943 0.331987 0.434992
O O13 0.217884 0.287486 0.713543
O O14 0.933296 0.491125 0.590194
O O15 0.429707 0.002831 0.654648
O O16 0.495857 0.757151 0.627134
#
# Coordination Sequence:
#
# PCOD9131238 Si02
#       8
#     2   2   2   2   2   2   2   2
#     4  11  25  45  71 104 139 184 235 287 348 417
#     4  10  18  28  51  91 129 179 235 280 350 412
#     4  11  25  45  71 104 139 184 235 287 348 417
#     4  10  19  34  61  94 131 180 239 290 334 413
#     4  10  18  28  51  91 129 179 235 280 350 412
#     4  12  27  50  76 109 146 180 226 286 349 436
#     4  10  19  34  61  94 131 180 239 290 334 413
#     4  10  19  40  68  97 136 178 236 296 337 400
#
# _framework density 24.681722000000001
#
# number of rings (size 3 to 8) (size 9 to 14) (size 15 to 20)
#    0.000    1.500    6.250    2.250    3.500    2.000 
#    0.000    0.000    0.000    1.500    0.000    0.000 
#    0.000    0.000    0.000    0.000    0.000    0.000 
#
# Total GULP energy -89255.632085 kJ/mol
# GULP energy per Si atom -5578.477005 kJ/mol
# Density = 2.462555 g / cm^3
# Si number density = 24.681722 Si / 1000 Ang^3
#
#
#
# Elastic Constant Matrix: (Units=GPa)
#
#
# Indices 1 2 3 4 5 6 
#
# 1 36.9346 8.3103 39.9225 0.0000 19.1131 0.0000
# 2 8.3103 91.7841 43.3289 0.0000 2.9628 0.0000
# 3 39.9225 43.3289 143.5950 0.0000 -5.8674 0.0000
# 4 0.0000 0.0000 0.0000 52.4563 0.0000 -8.7588
# 5 19.1131 2.9628 -5.8674 0.0000 50.5782 0.0000
# 6 0.0000 0.0000 0.0000 -8.7588 0.0000 0.6523
#
#
#
# Elastic Compliance Matrix: (Units=1/GPa)
#
#
# Indices 1 2 3 4 5 6 
#
# 1 0.059265 0.004306 -0.018791 0.000000 -0.024828 0.000000
# 2 0.004306 0.013090 -0.005270 0.000000 -0.003005 0.000000
# 3 -0.018791 -0.005270 0.014148 0.000000 0.009051 0.000000
# 4 0.000000 0.000000 0.000000 -0.015350 0.000000 -0.206103
# 5 -0.024828 -0.003005 0.009051 0.000000 0.030380 0.000000
# 6 0.000000 0.000000 0.000000 -0.206103 0.000000 -1.234346
#
#
# Mechanical properties :
#
#
# Convention : Reuss Voigt Hill
#
# Bulk Modulus (GPa) = 21.27922 50.60410 35.94166
# Shear Modulus (GPa) = -4.63977 32.78751 14.07387
#
# Velocity S-wave (km/s) = -1.37256 3.64869 2.39051
# Velocity P-wave (km/s) = 2.47553 6.18852 4.71307
#
# Compressibility (1/GPa) = 0.04699420
#
# Stress axis : x y z
#
# Youngs Moduli (GPa) = 16.87342 76.39419 70.68043
#
# Poissons Ratio (x) = -0.32896 1.32813
# Poissons Ratio (y) = -0.07266 0.37247
# Poissons Ratio (z) = 0.31706 0.40258
#
# Static dielectric constant tensor:
#      x y z
#    x 2.038650 0.000000 -0.020510 
#    y 0.000000 2.122820 0.000000 
#    z -0.020510 0.000000 1.945990 
# 
# From -- ./inp_files/929.got.cif
#   From: 2010.05.17/outbox.cif.g08.bks.cpg/sg7_cif.got.tgz:929.got - 2010.06.03 19:44:50.
