data_PCOD9131875
_publ_section_title
;
Structure prediction by ZEFSAII (Michael W. Deem and Ramdas Pophale) SiO2 
 PCOD9131875
Probable space group: C M
;
_chemical_formula_sum "Si O2"
_cell_formula_units_Z 24
_cell_length_a 18.946799
_cell_length_b 8.699713
_cell_length_c 24.889748
_cell_angle_alpha 90.000000
_cell_angle_beta 19.497129
_cell_angle_gamma 90.000000
_cell_volume 1369.288849
_symmetry_space_group_name_H-M "C M"
_symmetry_group_IT_number 8
_symmetry_cell_setting 'monoclinic'
loop_
_space_group_symop_operation_xyz
x,y,z
x,-y,z
1/2+x,1/2+y,z
1/2+x,1/2-y,z
loop_
_atom_site_type_symbol
_atom_site_label
_atom_site_fract_x
_atom_site_fract_y
_atom_site_fract_z
Si Si1 0.431860 0.686931 0.159660
Si Si2 0.314822 0.177430 0.021870
Si Si3 0.893765 0.183117 0.853146
Si Si4 0.210211 0.684049 0.206919
Si Si5 0.809356 0.177311 0.359787
Si Si6 0.744765 0.185693 0.521976
O O1 0.448333 0.500000 0.151554
O O2 0.325276 0.725654 0.179773
O O3 0.296813 0.742334 0.308618
O O4 0.665612 0.755383 0.997405
O O5 0.336155 0.257631 0.064110
O O6 0.061704 0.179148 0.191120
O O7 0.380305 0.000000 0.977391
O O8 0.420365 0.260490 0.895566
O O9 0.072212 0.252113 0.686688
O O10 0.897580 0.000000 0.848721
O O11 0.190176 0.500000 0.218615
O O12 0.977526 0.757761 0.371626
O O13 0.707069 0.243098 0.487386
O O14 0.739076 0.000000 0.406906
O O15 0.743516 0.000000 0.522077
#
# Coordination Sequence:
#
# PCOD9131875 Si02
#       6
#     4   4   4   4   4   4
#     4   9  18  34  54  76 104 136 168 206 256 308
#     4   9  17  32  52  72  99 135 172 207 253 310
#     4  11  21  33  52  77 103 132 174 220 255 297
#     4  10  19  32  53  80 106 133 171 213 250 297
#     4   7  13  28  50  71  91 126 170 202 237 296
#     4  10  19  33  53  74 101 138 175 210 255 306
#
# _framework density 17.527346000000001
#
# number of rings (size 3 to 8) (size 9 to 14) (size 15 to 20)
#    0.000    2.667    0.000    5.000    0.000    1.333 
#    0.000    2.500    0.000    8.000    0.000    0.000 
#    0.000    0.000    0.000    0.000    0.000    0.000 
#
# Total GULP energy -66852.237553 kJ/mol
# GULP energy per Si atom -5571.019796 kJ/mol
# Density = 1.748745 g / cm^3
# Si number density = 17.527346 Si / 1000 Ang^3
#
#
#
# Elastic Constant Matrix: (Units=GPa)
#
#
# Indices 1 2 3 4 5 6 
#
# 1 182.5383 56.7744 73.0325 0.0020 39.5374 0.0013
# 2 56.7744 71.3511 35.7514 -0.0118 14.0799 -0.0014
# 3 73.0325 35.7514 94.5459 -0.0171 39.5736 -0.0009
# 4 0.0020 -0.0118 -0.0171 25.0844 -0.0030 4.4238
# 5 39.5374 14.0799 39.5736 -0.0030 30.4333 -0.0012
# 6 0.0013 -0.0014 -0.0009 4.4238 -0.0012 25.1083
#
#
#
# Elastic Compliance Matrix: (Units=1/GPa)
#
#
# Indices 1 2 3 4 5 6 
#
# 1 0.009521 -0.004899 -0.002794 -0.000006 -0.006470 0.000000
# 2 -0.004899 0.019829 -0.005569 0.000006 0.004433 0.000000
# 3 -0.002794 -0.005569 0.026866 0.000013 -0.028728 -0.000003
# 4 -0.000006 0.000006 0.000013 0.041144 -0.000009 -0.007249
# 5 -0.006470 0.004433 -0.028728 -0.000009 0.076568 0.000005
# 6 0.000000 0.000000 -0.000003 -0.007249 0.000005 0.041105
#
#
# Mechanical properties :
#
#
# Convention : Reuss Voigt Hill
#
# Bulk Modulus (GPa) = 33.68042 75.50577 54.59309
# Shear Modulus (GPa) = 19.88419 28.31699 24.10059
#
# Velocity S-wave (km/s) = 3.37184 4.02380 3.71216
# Velocity P-wave (km/s) = 5.86658 8.04738 7.04191
#
# Compressibility (1/GPa) = 0.02969084
#
# Stress axis : x y z
#
# Youngs Moduli (GPa) = 105.02610 50.43007 37.22242
#
# Poissons Ratio (x) = 0.24708 0.10401
# Poissons Ratio (y) = 0.51457 0.20729
# Poissons Ratio (z) = 0.29347 0.28085
#
# Static dielectric constant tensor:
#      x y z
#    x 1.626130 0.000000 0.030360 
#    y 0.000000 1.594070 0.000000 
#    z 0.030360 0.000000 1.575070 
# 
# From -- ./inp_files/14189.got.cif
#   From: 2010.05.17/outbox.cif.g08.bks.cpg/sg8_8_cif.got.tgz:14189.got - 2010.06.03 19:46:02.
