data_PCOD9131897
_publ_section_title
;
Structure prediction by ZEFSAII (Michael W. Deem and Ramdas Pophale) SiO2 
 PCOD9131897
Probable space group: C M
;
_chemical_formula_sum "Si O2"
_cell_formula_units_Z 32
_cell_length_a 34.027186
_cell_length_b 7.913013
_cell_length_c 12.855226
_cell_angle_alpha 90.000000
_cell_angle_beta 26.731341
_cell_angle_gamma 90.000000
_cell_volume 1556.949147
_symmetry_space_group_name_H-M "C M"
_symmetry_group_IT_number 8
_symmetry_cell_setting 'monoclinic'
loop_
_space_group_symop_operation_xyz
x,y,z
x,-y,z
1/2+x,1/2+y,z
1/2+x,1/2-y,z
loop_
_atom_site_type_symbol
_atom_site_label
_atom_site_fract_x
_atom_site_fract_y
_atom_site_fract_z
Si Si1 0.137760 0.703628 0.250000
Si Si2 0.946546 0.203525 0.627928
Si Si3 0.388379 0.296683 0.989696
Si Si4 0.898833 0.200750 0.331408
Si Si5 0.580207 0.799591 0.610063
Si Si6 0.588805 0.700759 0.823677
Si Si7 0.270983 0.199473 0.451224
Si Si8 0.325627 0.707558 0.723903
O O1 0.141150 0.500000 0.246913
O O2 0.128122 0.764988 0.392471
O O3 0.048043 0.747676 0.402187
O O4 0.227625 0.762897 0.985624
O O5 0.895623 0.259871 0.852889
O O6 0.895581 0.261538 0.646063
O O7 0.944145 0.000000 0.633184
O O8 0.385491 0.500000 0.998741
O O9 0.478167 0.236854 0.830752
O O10 0.310000 0.229382 0.244298
O O11 0.835614 0.224483 0.383114
O O12 0.856157 0.266784 0.538373
O O13 0.909407 0.000000 0.321177
O O14 0.994838 0.272237 0.078682
O O15 0.603228 0.723663 0.666557
O O16 0.594626 0.000000 0.582815
O O17 0.586920 0.500000 0.847481
O O18 0.672872 0.770401 0.685012
O O19 0.268804 0.000000 0.475884
O O20 0.324364 0.500000 0.726955
#
# Coordination Sequence:
#
# PCOD9131897 Si02
#       8
#     4   4   4   4   4   4   4   4
#     4   9  19  35  55  82 115 145 181 230 280 327
#     4   9  19  35  57  83 112 146 186 227 273 336
#     4  10  19  33  56  83 116 150 185 228 280 338
#     4  10  21  40  61  79 108 152 194 231 277 335
#     4  10  19  32  56  84 115 149 183 229 283 333
#     4  10  22  37  54  80 113 148 187 233 282 334
#     4  11  23  37  55  83 115 147 187 238 286 329
#     4   9  19  37  60  82 108 149 193 228 271 332
#
# _framework density 20.553014999999998
#
# number of rings (size 3 to 8) (size 9 to 14) (size 15 to 20)
#    0.000    2.250    1.250    1.125    1.750    3.000 
#    0.000    3.125    0.000    0.000    0.000    0.000 
#    0.000    0.000    0.000    0.000    0.000    0.000 
#
# Total GULP energy -89311.474833 kJ/mol
# GULP energy per Si atom -5581.967177 kJ/mol
# Density = 2.050624 g / cm^3
# Si number density = 20.553015 Si / 1000 Ang^3
#
#
#
# Elastic Constant Matrix: (Units=GPa)
#
#
# Indices 1 2 3 4 5 6 
#
# 1 89.7478 -4.9862 98.1072 0.0000 0.1254 0.0000
# 2 -4.9862 17.0523 3.0998 0.0000 2.0338 0.0000
# 3 98.1072 3.0998 187.9104 0.0000 -4.4818 0.0000
# 4 0.0000 0.0000 0.0000 16.3513 0.0000 -2.3245
# 5 0.1254 2.0338 -4.4818 0.0000 22.0198 0.0000
# 6 0.0000 0.0000 0.0000 -2.3245 0.0000 11.0228
#
#
#
# Elastic Compliance Matrix: (Units=1/GPa)
#
#
# Indices 1 2 3 4 5 6 
#
# 1 0.028199 0.011485 -0.015014 0.000000 -0.004277 0.000000
# 2 0.011485 0.064207 -0.007234 0.000000 -0.007468 0.000000
# 3 -0.015014 -0.007234 0.013363 0.000000 0.003473 0.000000
# 4 0.000000 0.000000 0.000000 0.063047 0.000000 0.013296
# 5 -0.004277 -0.007468 0.003473 0.000000 0.046835 0.000000
# 6 0.000000 0.000000 0.000000 0.013296 0.000000 0.093525
#
#
# Mechanical properties :
#
#
# Convention : Reuss Voigt Hill
#
# Bulk Modulus (GPa) = 11.87040 54.12802 32.99921
# Shear Modulus (GPa) = 13.93607 23.11143 18.52375
#
# Velocity S-wave (km/s) = 2.60677 3.35696 3.00537
# Velocity P-wave (km/s) = 3.85336 6.43573 5.30410
#
# Compressibility (1/GPa) = 0.08424319
#
# Stress axis : x y z
#
# Youngs Moduli (GPa) = 35.46259 15.57465 74.83605
#
# Poissons Ratio (x) = -0.17887 1.12358
# Poissons Ratio (y) = -0.40729 0.54133
# Poissons Ratio (z) = 0.53243 0.11266
#
# Static dielectric constant tensor:
#      x y z
#    x 1.703640 0.000000 0.002660 
#    y 0.000000 1.743850 0.000000 
#    z 0.002660 0.000000 1.742880 
# 
# From -- ./inp_files/24361.got.cif
#   From: 2010.05.17/outbox.cif.g08.bks.cpg/sg8_13_cif.got.tgz:24361.got - 2010.06.03 19:46:02.
