data_PCOD9131198
_publ_section_title
;
Structure prediction by ZEFSAII (Michael W. Deem and Ramdas Pophale) SiO2 
 PCOD9131198
Probable space group: P M
;
_chemical_formula_sum "Si O2"
_cell_formula_units_Z 16
_cell_length_a 12.000000
_cell_length_b 9.000000
_cell_length_c 9.000000
_cell_angle_alpha 90.000000
_cell_angle_beta 50.000000
_cell_angle_gamma 90.000000
_cell_volume 744.595199
_symmetry_space_group_name_H-M "P M"
_symmetry_group_IT_number 6
_symmetry_cell_setting 'monoclinic'
loop_
_space_group_symop_operation_xyz
x,y,z
x,-y,z
loop_
_atom_site_type_symbol
_atom_site_label
_atom_site_fract_x
_atom_site_fract_y
_atom_site_fract_z
Si Si1 0.302890 0.833197 0.205200
Si Si2 0.307901 0.826533 0.542752
Si Si3 0.848754 0.665045 0.268693
Si Si4 0.540310 0.328422 0.868410
Si Si5 0.757444 0.834655 0.888569
Si Si6 0.004636 0.667959 0.848028
Si Si7 0.568795 0.176136 0.527621
Si Si8 0.966355 0.159425 0.428032
O O1 0.351475 0.818108 0.333480
O O2 0.129791 0.824259 0.343565
O O3 0.346265 0.000000 0.115580
O O4 0.373206 0.707150 0.045807
O O5 0.155356 0.744671 0.684238
O O6 0.433387 0.769767 0.544773
O O7 0.283266 0.000000 0.598852
O O8 0.785426 0.500000 0.321894
O O9 0.722060 0.775892 0.328545
O O10 0.910300 0.710415 0.374022
O O11 0.982980 0.668028 0.042476
O O12 0.574046 0.500000 0.827003
O O13 0.625022 0.257477 0.934907
O O14 0.573435 0.245625 0.687164
O O15 0.862369 0.849714 0.656639
O O16 0.861902 0.749640 0.910657
O O17 0.713929 0.000000 0.976984
O O18 0.004432 0.500000 0.790347
O O19 0.559094 0.000000 0.547273
O O20 0.956530 0.000000 0.353408
#
# Coordination Sequence:
#
# PCOD9131198 Si02
#       8
#     2   2   2   2   2   2   2   2
#     4  10  22  43  66  94 125 161 211 265 310 370
#     4  10  23  44  67  92 124 166 216 262 311 370
#     4  11  25  42  62  93 131 167 208 259 316 379
#     4  12  26  42  63  95 130 168 207 257 321 380
#     4  11  22  42  69  94 122 163 214 264 310 370
#     4  11  25  42  63  96 132 167 207 257 321 379
#     4  11  24  43  66  93 124 168 217 262 311 371
#     4  10  21  40  68  93 120 160 212 264 312 369
#
# _framework density 21.488185999999999
#
# number of rings (size 3 to 8) (size 9 to 14) (size 15 to 20)
#    0.000    1.250    2.500    2.625    3.500    4.500 
#    0.000    0.000    0.000    0.000    0.000    0.000 
#    0.000    0.000    0.000    0.000    0.000    0.000 
#
# Total GULP energy -89294.280502 kJ/mol
# GULP energy per Si atom -5580.892531 kJ/mol
# Density = 2.143928 g / cm^3
# Si number density = 21.488186 Si / 1000 Ang^3
#
#
#
# Elastic Constant Matrix: (Units=GPa)
#
#
# Indices 1 2 3 4 5 6 
#
# 1 78.3509 25.8049 27.2688 0.0000 -5.2742 0.0000
# 2 25.8049 70.8394 48.9094 0.0000 -4.0795 0.0000
# 3 27.2688 48.9094 56.2900 0.0000 -8.1557 0.0000
# 4 0.0000 0.0000 0.0000 20.8307 0.0000 -14.9639
# 5 -5.2742 -4.0795 -8.1557 0.0000 19.0011 0.0000
# 6 0.0000 0.0000 0.0000 -14.9639 0.0000 -2.5021
#
#
#
# Elastic Compliance Matrix: (Units=1/GPa)
#
#
# Indices 1 2 3 4 5 6 
#
# 1 0.015421 -0.001293 -0.006149 0.000000 0.001363 0.000000
# 2 -0.001293 0.036034 -0.031577 0.000000 -0.006176 0.000000
# 3 -0.006149 -0.031577 0.050065 0.000000 0.013003 0.000000
# 4 0.000000 0.000000 0.000000 0.009064 0.000000 -0.054209
# 5 0.001363 -0.006176 0.013003 0.000000 0.057262 0.000000
# 6 0.000000 0.000000 0.000000 -0.054209 0.000000 -0.075463
#
#
# Mechanical properties :
#
#
# Convention : Reuss Voigt Hill
#
# Bulk Modulus (GPa) = 42.58974 45.49408 44.04191
# Shear Modulus (GPa) = 28.05046 14.36573 21.20810
#
# Velocity S-wave (km/s) = 3.61694 2.58842 3.14501
# Velocity P-wave (km/s) = 6.10787 5.49098 5.80762
#
# Compressibility (1/GPa) = 0.02347984
#
# Stress axis : x y z
#
# Youngs Moduli (GPa) = 64.84676 27.75167 19.97404
#
# Poissons Ratio (x) = 0.03590 0.12282
# Poissons Ratio (y) = 0.08388 0.63073
# Poissons Ratio (z) = 0.39874 0.87633
#
# Static dielectric constant tensor:
#      x y z
#    x 1.743180 0.000000 0.003290 
#    y 0.000000 1.791140 0.000000 
#    z 0.003290 0.000000 1.804430 
# 
# From -- ./inp_files/2702.got.cif
#   From: 2010.05.17/outbox.ucp.g08.bks.cvg/sg6_2_cif.got.tgz:2702.got - 2010.06.11 12:59:37.
