data_PCOD9131534
_publ_section_title
;
Structure prediction by ZEFSAII (Michael W. Deem and Ramdas Pophale) SiO2 
 PCOD9131534
Probable space group: C M
;
_chemical_formula_sum "Si O2"
_cell_formula_units_Z 26
_cell_length_a 19.781632
_cell_length_b 8.194044
_cell_length_c 9.240813
_cell_angle_alpha 90.000000
_cell_angle_beta 40.791143
_cell_angle_gamma 90.000000
_cell_volume 978.555873
_symmetry_space_group_name_H-M "C M"
_symmetry_group_IT_number 8
_symmetry_cell_setting 'monoclinic'
loop_
_space_group_symop_operation_xyz
x,y,z
x,-y,z
1/2+x,1/2+y,z
1/2+x,1/2-y,z
loop_
_atom_site_type_symbol
_atom_site_label
_atom_site_fract_x
_atom_site_fract_y
_atom_site_fract_z
Si Si1 0.161101 0.500000 0.894130
Si Si2 0.920720 0.689046 0.523228
Si Si3 0.692137 0.309579 0.037619
Si Si4 0.398195 0.318639 0.240846
Si Si5 0.323180 0.186632 0.085196
Si Si6 0.097038 0.318365 0.788561
Si Si7 0.029677 0.184664 0.618184
O O1 0.142545 0.650547 0.042554
O O2 0.199667 0.349161 0.710274
O O3 0.809774 0.696458 0.782808
O O4 0.913956 0.774286 0.380711
O O5 0.004583 0.769755 0.494267
O O6 0.442534 0.000000 0.467625
O O7 0.655753 0.500000 0.072513
O O8 0.717875 0.286018 0.168012
O O9 0.363017 0.500000 0.270887
O O10 0.328653 0.205130 0.249054
O O11 0.515991 0.304157 0.985379
O O12 0.355035 0.000000 0.999827
O O13 0.413832 0.301006 0.877047
O O14 0.056815 0.500000 0.917613
O O15 0.092843 0.301984 0.625431
O O16 0.067438 0.000000 0.572816
#
# Coordination Sequence:
#
# PCOD9131534 Si02
#       7
#     2   4   4   4   4   4   4
#     4  10  22  34  62  72 118 150 188 220 258 330
#     4  10  20  33  53  78 113 138 169 229 285 327
#     4   9  20  35  55  83 106 143 186 224 269 322
#     4  11  20  30  52  84 110 136 176 227 280 327
#     4   9  17  30  50  74 108 137 172 225 274 316
#     4   9  19  34  49  75 102 148 176 214 265 312
#     4  10  17  28  50  78 104 133 178 228 269 317
#
# _framework density 26.569768
#
# number of rings (size 3 to 8) (size 9 to 14) (size 15 to 20)
#    0.462    1.846    0.000    6.923    6.462    1.231 
#    0.000    0.000    0.000    3.692    0.000    4.308 
#    0.000    0.000    0.000    0.000    0.000    0.000 
#
# Total GULP energy -72372.421812 kJ/mol
# GULP energy per Si atom -5567.109370 kJ/mol
# Density = 2.650929 g / cm^3
# Si number density = 26.569768 Si / 1000 Ang^3
#
#
#
# Elastic Constant Matrix: (Units=GPa)
#
#
# Indices 1 2 3 4 5 6 
#
# 1 155.9203 64.4163 43.6504 0.0000 40.6907 0.0000
# 2 64.4163 148.3676 25.8983 0.0000 29.2978 0.0000
# 3 43.6504 25.8983 113.7547 0.0000 47.0782 0.0000
# 4 0.0000 0.0000 0.0000 41.6642 0.0000 7.9658
# 5 40.6907 29.2978 47.0782 0.0000 69.2543 0.0000
# 6 0.0000 0.0000 0.0000 7.9658 0.0000 40.4657
#
#
#
# Elastic Compliance Matrix: (Units=1/GPa)
#
#
# Indices 1 2 3 4 5 6 
#
# 1 0.008830 -0.002999 -0.001508 0.000000 -0.002895 0.000000
# 2 -0.002999 0.008397 -0.000028 0.000000 -0.001771 0.000000
# 3 -0.001508 -0.000028 0.012529 0.000000 -0.007620 0.000000
# 4 0.000000 0.000000 0.000000 0.024940 0.000000 -0.004910
# 5 -0.002895 -0.001771 -0.007620 0.000000 0.022069 0.000000
# 6 0.000000 0.000000 0.000000 -0.004910 0.000000 0.025679
#
#
# Mechanical properties :
#
#
# Convention : Reuss Voigt Hill
#
# Bulk Modulus (GPa) = 48.33960 76.21919 62.27939
# Shear Modulus (GPa) = 42.22683 49.21536 45.72110
#
# Velocity S-wave (km/s) = 3.99090 4.30851 4.15275
# Velocity P-wave (km/s) = 6.28247 7.31435 6.81796
#
# Compressibility (1/GPa) = 0.02068697
#
# Stress axis : x y z
#
# Youngs Moduli (GPa) = 113.25098 119.09486 79.81425
#
# Poissons Ratio (x) = 0.35716 0.12033
# Poissons Ratio (y) = 0.33963 0.00222
# Poissons Ratio (z) = 0.17073 0.00332
#
# Static dielectric constant tensor:
#      x y z
#    x 2.193600 0.000000 -0.063750 
#    y 0.000000 1.956810 0.000000 
#    z -0.063750 0.000000 2.363480 
# 
# From -- ./inp_files/15611.got.cif
#   From: 2010.05.17/outbox.cif.g08.bks.cpg/sg8_8_cif.got.tgz:15611.got - 2010.06.03 19:46:02.
