data_PCOD9131647
_publ_section_title
;
Structure prediction by ZEFSAII (Michael W. Deem and Ramdas Pophale) SiO2 
 PCOD9131647
Probable space group: C M
;
_chemical_formula_sum "Si O2"
_cell_formula_units_Z 24
_cell_length_a 26.002375
_cell_length_b 8.586359
_cell_length_c 7.362221
_cell_angle_alpha 90.000000
_cell_angle_beta 142.605203
_cell_angle_gamma 90.000000
_cell_volume 998.244290
_symmetry_space_group_name_H-M "C M"
_symmetry_group_IT_number 8
_symmetry_cell_setting 'monoclinic'
loop_
_space_group_symop_operation_xyz
x,y,z
x,-y,z
1/2+x,1/2+y,z
1/2+x,1/2-y,z
loop_
_atom_site_type_symbol
_atom_site_label
_atom_site_fract_x
_atom_site_fract_y
_atom_site_fract_z
Si Si1 0.449200 0.675535 0.360550
Si Si2 0.331843 0.000000 0.719887
Si Si3 0.720962 0.500000 0.926695
Si Si4 0.110482 0.329441 0.118876
Si Si5 0.910028 0.500000 0.335090
Si Si6 0.649229 0.500000 0.124484
Si Si7 0.314654 0.667816 0.676561
Si Si8 0.574438 0.675045 0.371851
O O1 0.456152 0.500000 0.453811
O O2 0.517602 0.697586 0.389527
O O3 0.449719 0.830052 0.484269
O O4 0.359725 0.675140 0.998873
O O5 0.230548 0.000000 0.490791
O O6 0.342680 0.829820 0.660026
O O7 0.391747 0.000000 0.064977
O O8 0.818594 0.500000 0.168418
O O9 0.696772 0.500000 0.067775
O O10 0.671547 0.648769 0.705499
O O11 0.088588 0.500000 0.982962
O O12 0.213712 0.332324 0.414039
O O13 0.071488 0.303566 0.209440
O O14 0.098338 0.160744 0.992444
O O15 0.339426 0.500000 0.662506
O O16 0.551575 0.500000 0.235316
#
# Coordination Sequence:
#
# PCOD9131647 Si02
#       8
#     4   2   2   4   2   2   4   4
#     4   9  17  29  49  77 107 130 164 222 277 315
#     4   8  14  26  48  70  94 121 165 214 251 293
#     4  10  20  34  56  78 109 153 181 214 265 323
#     4  10  18  31  55  79 105 130 179 232 268 308
#     4  10  18  32  56  80  99 136 182 224 271 308
#     4  10  18  34  52  72 110 150 174 212 267 320
#     4   8  14  24  42  70  93 122 152 205 262 297
#     4   9  18  32  51  80 107 134 174 223 271 311
#
# _framework density 24.042211999999999
#
# number of rings (size 3 to 8) (size 9 to 14) (size 15 to 20)
#    0.500    2.333    0.833    3.000    1.167    0.000 
#    0.000    1.667    0.000    6.000    0.000    0.000 
#    0.000    0.000    0.000    0.000    0.000    0.000 
#
# Total GULP energy -66863.781133 kJ/mol
# GULP energy per Si atom -5571.981761 kJ/mol
# Density = 2.398749 g / cm^3
# Si number density = 24.042212 Si / 1000 Ang^3
#
#
#
# Elastic Constant Matrix: (Units=GPa)
#
#
# Indices 1 2 3 4 5 6 
#
# 1 55.4781 28.2111 -6.8298 0.0000 14.5956 0.0000
# 2 28.2111 265.1254 36.6697 0.0000 19.6474 0.0000
# 3 -6.8298 36.6697 54.6110 0.0000 13.6211 0.0000
# 4 0.0000 0.0000 0.0000 46.5237 0.0000 5.4721
# 5 14.5956 19.6474 13.6211 0.0000 21.3035 0.0000
# 6 0.0000 0.0000 0.0000 5.4721 0.0000 14.8963
#
#
#
# Elastic Compliance Matrix: (Units=1/GPa)
#
#
# Indices 1 2 3 4 5 6 
#
# 1 0.026679 -0.002646 0.010783 0.000000 -0.022733 0.000000
# 2 -0.002646 0.004530 -0.003310 0.000000 -0.000248 0.000000
# 3 0.010783 -0.003310 0.027321 0.000000 -0.021803 0.000000
# 4 0.000000 0.000000 0.000000 0.022465 0.000000 -0.008252
# 5 -0.022733 -0.000248 -0.021803 0.000000 0.076685 0.000000
# 6 0.000000 0.000000 0.000000 -0.008252 0.000000 0.070162
#
#
# Mechanical properties :
#
#
# Convention : Reuss Voigt Hill
#
# Bulk Modulus (GPa) = 14.66645 54.59073 34.62859
# Shear Modulus (GPa) = 20.75420 37.68893 29.22156
#
# Velocity S-wave (km/s) = 2.94128 3.96361 3.49008
# Velocity P-wave (km/s) = 4.20100 6.61078 5.53854
#
# Compressibility (1/GPa) = 0.06818285
#
# Stress axis : x y z
#
# Youngs Moduli (GPa) = 37.48329 220.77164 36.60213
#
# Poissons Ratio (x) = 0.58406 -0.39468
# Poissons Ratio (y) = 0.09916 0.12117
# Poissons Ratio (z) = -0.40418 0.73084
#
# Static dielectric constant tensor:
#      x y z
#    x 1.833940 0.000000 -0.007230 
#    y 0.000000 1.980480 0.000000 
#    z -0.007230 0.000000 2.043610 
# 
# From -- ./inp_files/14273.got.cif
#   From: 2010.05.17/outbox.cif.g08.bks.cpg/sg8_8_cif.got.tgz:14273.got - 2010.06.03 19:46:02.
