data_PCOD9131861
_publ_section_title
;
Structure prediction by ZEFSAII (Michael W. Deem and Ramdas Pophale) SiO2 
 PCOD9131861
Probable space group: C M
;
_chemical_formula_sum "Si O2"
_cell_formula_units_Z 32
_cell_length_a 14.574039
_cell_length_b 14.633592
_cell_length_c 13.171154
_cell_angle_alpha 90.000000
_cell_angle_beta 35.757394
_cell_angle_gamma 90.000000
_cell_volume 1641.462673
_symmetry_space_group_name_H-M "C M"
_symmetry_group_IT_number 8
_symmetry_cell_setting 'monoclinic'
loop_
_space_group_symop_operation_xyz
x,y,z
x,-y,z
1/2+x,1/2+y,z
1/2+x,1/2-y,z
loop_
_atom_site_type_symbol
_atom_site_label
_atom_site_fract_x
_atom_site_fract_y
_atom_site_fract_z
Si Si1 0.279430 0.735325 0.294480
Si Si2 0.934437 0.763926 0.377267
Si Si3 0.193660 0.239870 0.011785
Si Si4 0.498057 0.306424 0.649188
Si Si5 0.033338 0.109132 0.991307
Si Si6 0.788868 0.895969 0.671327
Si Si7 0.223449 0.106731 0.612315
Si Si8 0.505876 0.891804 0.062362
O O1 0.353737 0.719212 0.340070
O O2 0.363081 0.658945 0.150144
O O3 0.345447 0.834765 0.201535
O O4 0.095505 0.743244 0.482805
O O5 0.852958 0.832182 0.526942
O O6 0.882617 0.664587 0.462287
O O7 0.118614 0.777641 0.189385
O O8 0.135055 0.161822 0.985919
O O9 0.108450 0.335169 0.053245
O O10 0.377487 0.252120 0.829529
O O11 0.394118 0.374511 0.675410
O O12 0.618932 0.360138 0.611350
O O13 0.021648 0.000000 0.018512
O O14 0.123598 0.124890 0.804172
O O15 0.805066 0.000000 0.626257
O O16 0.609764 0.879785 0.867359
O O17 0.254483 0.000000 0.578227
O O18 0.490002 0.000000 0.097261
#
# Coordination Sequence:
#
# PCOD9131861 Si02
#       8
#     4   4   4   4   4   4   4   4
#     4   9  19  32  52  74  98 132 165 205 245 289
#     4   9  18  32  50  72  99 134 171 201 236 294
#     4   9  19  33  51  74  99 131 165 205 247 288
#     4  10  20  33  49  74 106 129 158 206 259 295
#     4   9  18  35  56  73  95 132 172 203 236 291
#     4  10  19  32  52  76 102 131 163 204 249 295
#     4  10  19  32  52  76 101 130 164 205 251 296
#     4   8  15  29  49  71  96 127 163 199 240 290
#
# _framework density 19.494809
#
# number of rings (size 3 to 8) (size 9 to 14) (size 15 to 20)
#    0.000    3.000    0.000    2.625    0.000    8.500 
#    0.000    0.625    0.000    4.500    0.000    0.000 
#    0.000    0.000    0.000    0.000    0.000    0.000 
#
# Total GULP energy -89135.813833 kJ/mol
# GULP energy per Si atom -5570.988365 kJ/mol
# Density = 1.945044 g / cm^3
# Si number density = 19.494809 Si / 1000 Ang^3
#
#
#
# Elastic Constant Matrix: (Units=GPa)
#
#
# Indices 1 2 3 4 5 6 
#
# 1 19.6188 15.3943 18.4388 -0.0001 1.7092 0.0001
# 2 15.3943 83.6259 45.8134 0.0000 11.5460 0.0001
# 3 18.4388 45.8134 130.4248 -0.0001 -1.7095 0.0002
# 4 -0.0001 0.0000 -0.0001 17.3496 0.0001 4.6719
# 5 1.7092 11.5460 -1.7095 0.0001 27.5369 -0.0001
# 6 0.0001 0.0001 0.0002 4.6719 -0.0001 15.5344
#
#
#
# Elastic Compliance Matrix: (Units=1/GPa)
#
#
# Indices 1 2 3 4 5 6 
#
# 1 0.063172 -0.008186 -0.006067 0.000001 -0.000865 -0.000001
# 2 -0.008186 0.017145 -0.004957 0.000000 -0.006989 0.000000
# 3 -0.006067 -0.004957 0.010307 0.000000 0.003095 0.000000
# 4 0.000001 0.000000 0.000000 0.062717 0.000000 -0.018862
# 5 -0.000865 -0.006989 0.003095 0.000000 0.039491 0.000000
# 6 -0.000001 0.000000 0.000000 -0.018862 0.000000 0.070046
#
#
# Mechanical properties :
#
#
# Convention : Reuss Voigt Hill
#
# Bulk Modulus (GPa) = 19.15533 43.66251 31.40892
# Shear Modulus (GPa) = 15.68880 22.35239 19.02060
#
# Velocity S-wave (km/s) = 2.83992 3.38979 3.12697
# Velocity P-wave (km/s) = 4.53880 6.14545 5.40219
#
# Compressibility (1/GPa) = 0.05220480
#
# Stress axis : x y z
#
# Youngs Moduli (GPa) = 15.82980 58.32476 97.02434
#
# Poissons Ratio (x) = 0.47744 0.58864
# Poissons Ratio (y) = 0.12958 0.48094
# Poissons Ratio (z) = 0.09604 0.28911
#
# Static dielectric constant tensor:
#      x y z
#    x 1.723790 0.000000 -0.019310 
#    y 0.000000 1.660230 0.000000 
#    z -0.019310 0.000000 1.763650 
# 
# From -- ./inp_files/22227.got.cif
#   From: 2010.05.17/outbox.cif.g08.bks.cpg/sg8_12_cif.got.tgz:22227.got - 2010.06.03 19:46:02.
