data_PCOD9131524
_publ_section_title
;
Structure prediction by ZEFSAII (Michael W. Deem and Ramdas Pophale) SiO2 
 PCOD9131524
Probable space group: C M
;
_chemical_formula_sum "Si O2"
_cell_formula_units_Z 32
_cell_length_a 14.905654
_cell_length_b 8.394014
_cell_length_c 11.721297
_cell_angle_alpha 90.000000
_cell_angle_beta 72.298119
_cell_angle_gamma 90.000000
_cell_volume 1397.109517
_symmetry_space_group_name_H-M "C M"
_symmetry_group_IT_number 8
_symmetry_cell_setting 'monoclinic'
loop_
_space_group_symop_operation_xyz
x,y,z
x,-y,z
1/2+x,1/2+y,z
1/2+x,1/2-y,z
loop_
_atom_site_type_symbol
_atom_site_label
_atom_site_fract_x
_atom_site_fract_y
_atom_site_fract_z
Si Si1 0.360550 0.187719 0.760570
Si Si2 0.480478 0.179204 0.245563
Si Si3 0.581903 0.319932 0.989220
Si Si4 0.417399 0.805430 0.501386
Si Si5 0.266805 0.180787 0.246096
Si Si6 0.271956 0.317574 0.000079
Si Si7 0.661716 0.814983 0.747521
Si Si8 0.205763 0.807804 0.503860
O O1 0.425389 0.245700 0.630057
O O2 0.253870 0.215501 0.752596
O O3 0.376325 0.000000 0.771424
O O4 0.358500 0.274759 0.883268
O O5 0.521567 0.268562 0.121289
O O6 0.484733 0.249744 0.372095
O O7 0.369573 0.166177 0.262771
O O8 0.521610 0.000000 0.230284
O O9 0.560900 0.500000 0.966214
O O10 0.687519 0.297472 0.995867
O O11 0.582207 0.217430 0.873140
O O12 0.311089 0.760712 0.504953
O O13 0.421822 0.000000 0.498619
O O14 0.281189 0.287929 0.130176
O O15 0.200148 0.242651 0.373863
O O16 0.237561 0.000000 0.224498
O O17 0.245131 0.500000 0.988358
O O18 0.639789 0.764094 0.626856
O O19 0.686610 0.000000 0.739554
O O20 0.199924 0.000000 0.507765
#
# Coordination Sequence:
#
# PCOD9131524 Si02
#       8
#     4   4   4   4   4   4   4   4
#     4   9  15  27  46  67  92 123 160 197 238 285
#     4   9  17  32  52  74  99 125 157 197 242 290
#     4  11  21  33  49  70  98 131 166 201 242 288
#     4   7  12  24  45  69  91 118 151 190 234 281
#     4   9  18  33  53  74  99 131 161 193 239 293
#     4  11  21  32  48  72 101 130 163 203 243 283
#     4  10  17  26  43  68  95 122 156 199 243 281
#     4   8  14  27  46  68  93 122 156 192 233 283
#
# _framework density 22.904432
#
# number of rings (size 3 to 8) (size 9 to 14) (size 15 to 20)
#    0.000    2.750    0.000    7.500    0.000    1.000 
#    0.000    5.625    0.000    1.500    0.000    5.250 
#    0.000    0.000    0.000    0.000    0.000    0.000 
#
# Total GULP energy -89168.427724 kJ/mol
# GULP energy per Si atom -5573.026733 kJ/mol
# Density = 2.285230 g / cm^3
# Si number density = 22.904432 Si / 1000 Ang^3
#
#
#
# Elastic Constant Matrix: (Units=GPa)
#
#
# Indices 1 2 3 4 5 6 
#
# 1 38.0756 -13.0278 10.5953 0.0000 -2.5420 0.0000
# 2 -13.0278 46.7431 37.8098 0.0000 5.3325 0.0000
# 3 10.5953 37.8098 248.5722 0.0000 12.7195 0.0000
# 4 0.0000 0.0000 0.0000 22.7723 0.0000 -2.7527
# 5 -2.5420 5.3325 12.7195 0.0000 11.9169 0.0000
# 6 0.0000 0.0000 0.0000 -2.7527 0.0000 -0.0891
#
#
#
# Elastic Compliance Matrix: (Units=1/GPa)
#
#
# Indices 1 2 3 4 5 6 
#
# 1 0.031175 0.010693 -0.003227 0.000000 0.005309 0.000000
# 2 0.010693 0.028688 -0.004527 0.000000 -0.005725 0.000000
# 3 -0.003227 -0.004527 0.005057 0.000000 -0.004060 0.000000
# 4 0.000000 0.000000 0.000000 0.009278 0.000000 -0.286526
# 5 0.005309 -0.005725 -0.004060 0.000000 0.091942 0.000000
# 6 0.000000 0.000000 0.000000 -0.286526 0.000000 -2.370367
#
#
# Mechanical properties :
#
#
# Convention : Reuss Voigt Hill
#
# Bulk Modulus (GPa) = 14.12440 44.90504 29.51472
# Shear Modulus (GPa) = -2.28675 26.78760 12.25042
#
# Velocity S-wave (km/s) = -1.00028 3.42356 2.31519
# Velocity P-wave (km/s) = 2.20136 5.93933 4.47893
#
# Compressibility (1/GPa) = 0.07079947
#
# Stress axis : x y z
#
# Youngs Moduli (GPa) = 32.07723 34.85722 197.75269
#
# Poissons Ratio (x) = -0.37274 0.63815
# Poissons Ratio (y) = -0.34301 0.89515
# Poissons Ratio (z) = 0.10351 0.15778
#
# Static dielectric constant tensor:
#      x y z
#    x 1.914010 0.000000 -0.010020 
#    y 0.000000 1.810410 0.000000 
#    z -0.010020 0.000000 1.988690 
# 
# From -- ./inp_files/23714.got.cif
#   From: 2010.05.17/outbox.cif.g08.bks.cpg/sg8_12_cif.got.tgz:23714.got - 2010.06.03 19:46:02.
