data_PCOD9131164
_publ_section_title
;
Structure prediction by ZEFSAII (Michael W. Deem and Ramdas Pophale) SiO2 
 PCOD9131164
Probable space group: P M
;
_chemical_formula_sum "Si O2"
_cell_formula_units_Z 13
_cell_length_a 5.111067
_cell_length_b 21.252652
_cell_length_c 6.543058
_cell_angle_alpha 90.000000
_cell_angle_beta 52.231147
_cell_angle_gamma 90.000000
_cell_volume 561.824666
_symmetry_space_group_name_H-M "P M"
_symmetry_group_IT_number 6
_symmetry_cell_setting 'monoclinic'
loop_
_space_group_symop_operation_xyz
x,y,z
x,-y,z
loop_
_atom_site_type_symbol
_atom_site_label
_atom_site_fract_x
_atom_site_fract_y
_atom_site_fract_z
Si Si1 0.282160 0.106432 0.386370
Si Si2 0.142443 0.390245 0.704629
Si Si3 0.119082 0.777827 0.198454
Si Si4 0.861277 0.500000 0.088377
Si Si5 0.638838 0.305552 0.702388
Si Si6 0.148528 0.000000 0.178764
Si Si7 0.155133 0.500000 0.366376
Si Si8 0.016804 0.893791 0.966326
O O1 0.288609 0.174022 0.275383
O O2 0.048294 0.056210 0.388720
O O3 0.648498 0.077276 0.174641
O O4 0.153589 0.114084 0.675408
O O5 0.465482 0.354676 0.630668
O O6 0.164090 0.438758 0.505446
O O7 0.879598 0.339498 0.749527
O O8 0.036250 0.435481 0.941057
O O9 0.841916 0.741959 0.460948
O O10 0.997815 0.826405 0.084267
O O11 0.362357 0.729823 0.968857
O O12 0.531310 0.500000 0.105187
O O13 0.872147 0.500000 0.330524
O O14 0.246639 0.056160 0.969372
#
# Coordination Sequence:
#
# PCOD9131164 Si02
#       8
#     2   2   2   1   2   1   1   2
#     4  11  24  44  70  99 140 189 234 305 362 434
#     4  11  28  46  72 112 142 191 248 300 366 437
#     4  11  28  45  68 103 142 189 248 296 364 437
#     4  11  24  47  76 105 147 188 238 307 366 433
#     4  12  28  47  76 105 150 196 246 304 364 442
#     4  10  24  42  68 108 136 180 248 290 374 434
#     4  11  24  47  76 105 147 188 238 307 366 433
#     4  11  24  44  70  99 140 189 234 305 362 434
#
# _framework density 23.13889
#
# number of rings (size 3 to 8) (size 9 to 14) (size 15 to 20)
#    0.000    0.923    0.000    4.615   12.923    7.385 
#    0.000    0.000    0.000    0.000    0.000    0.000 
#    0.000    0.000    0.000    0.000    0.000    0.000 
#
# Total GULP energy -72413.009688 kJ/mol
# GULP energy per Si atom -5570.231514 kJ/mol
# Density = 2.308622 g / cm^3
# Si number density = 23.138890 Si / 1000 Ang^3
#
#
#
# Elastic Constant Matrix: (Units=GPa)
#
#
# Indices 1 2 3 4 5 6 
#
# 1 73.5738 7.3279 20.7881 0.0000 14.9994 0.0000
# 2 7.3279 78.4236 6.1301 0.0000 13.8506 0.0000
# 3 20.7881 6.1301 115.9596 0.0000 25.5555 0.0000
# 4 0.0000 0.0000 0.0000 -41.2718 0.0000 0.4052
# 5 14.9994 13.8506 25.5555 0.0000 39.0020 0.0000
# 6 0.0000 0.0000 0.0000 0.4052 0.0000 258.1433
#
#
#
# Elastic Compliance Matrix: (Units=1/GPa)
#
#
# Indices 1 2 3 4 5 6 
#
# 1 0.015033 -0.000476 -0.001675 0.000000 -0.004515 0.000000
# 2 -0.000476 0.013636 0.000457 0.000000 -0.004959 0.000000
# 3 -0.001675 0.000457 0.010278 0.000000 -0.006253 0.000000
# 4 0.000000 0.000000 0.000000 -0.024229 0.000000 0.000038
# 5 -0.004515 -0.004959 -0.006253 0.000000 0.033234 0.000000
# 6 0.000000 0.000000 0.000000 0.000038 0.000000 0.003874
#
#
# Mechanical properties :
#
#
# Convention : Reuss Voigt Hill
#
# Bulk Modulus (GPa) = 28.12233 37.38327 32.75280
# Shear Modulus (GPa) = 74.55400 66.75544 70.65472
#
# Velocity S-wave (km/s) = 5.68244 5.37704 5.53185
# Velocity P-wave (km/s) = 7.43193 7.39872 7.41535
#
# Compressibility (1/GPa) = 0.03555894
#
# Stress axis : x y z
#
# Youngs Moduli (GPa) = 66.52092 73.33617 97.29771
#
# Poissons Ratio (x) = 0.03494 0.16295
# Poissons Ratio (y) = 0.03169 -0.04451
# Poissons Ratio (z) = 0.11141 -0.03355
#
# Static dielectric constant tensor:
#      x y z
#    x 2.070130 0.000000 -0.058800 
#    y 0.000000 1.816260 0.000000 
#    z -0.058800 0.000000 1.937790 
# 
# From -- ./inp_files/540.got.cif
#   From: 2010.05.17/outbox.cif.g08.bks.cpg/sg6_1_cif.got.tgz:540.got - 2010.06.03 19:42:10.
