data_PCOD9131987
_publ_section_title
;
Structure prediction by ZEFSAII (Michael W. Deem and Ramdas Pophale) SiO2 
 PCOD9131987
Probable space group: C M
;
_chemical_formula_sum "Si O2"
_cell_formula_units_Z 32
_cell_length_a 14.277097
_cell_length_b 9.159903
_cell_length_c 21.303894
_cell_angle_alpha 90.000000
_cell_angle_beta 141.836713
_cell_angle_gamma 90.000000
_cell_volume 1721.516900
_symmetry_space_group_name_H-M "C M"
_symmetry_group_IT_number 8
_symmetry_cell_setting 'monoclinic'
loop_
_space_group_symop_operation_xyz
x,y,z
x,-y,z
1/2+x,1/2+y,z
1/2+x,1/2-y,z
loop_
_atom_site_type_symbol
_atom_site_label
_atom_site_fract_x
_atom_site_fract_y
_atom_site_fract_z
Si Si1 0.835210 0.672755 0.114580
Si Si2 0.560632 0.669360 0.059928
Si Si3 0.725919 0.831230 0.521244
Si Si4 0.009332 0.673297 0.716594
Si Si5 0.258249 0.171624 0.927360
Si Si6 0.456887 0.673637 0.427048
Si Si7 0.638564 0.668425 0.248951
Si Si8 0.008785 0.168045 0.594094
O O1 0.864949 0.500000 0.139881
O O2 0.701491 0.717160 0.091330
O O3 0.990991 0.760959 0.203224
O O4 0.778883 0.691436 0.013062
O O5 0.524932 0.500000 0.024959
O O6 0.607849 0.672550 0.157792
O O7 0.411359 0.767551 0.976045
O O8 0.567730 0.748914 0.435542
O O9 0.826349 0.827885 0.510736
O O10 0.843491 0.748508 0.629563
O O11 0.704367 0.000000 0.527464
O O12 0.997750 0.500000 0.713545
O O13 0.117420 0.738673 0.826255
O O14 0.072144 0.726584 0.681320
O O15 0.238530 0.000000 0.904285
O O16 0.450395 0.500000 0.415667
O O17 0.291097 0.741823 0.339760
O O18 0.532291 0.705947 0.534689
O O19 0.657784 0.500000 0.278084
O O20 0.055966 0.000000 0.630888
#
# Coordination Sequence:
#
# PCOD9131987 Si02
#       8
#     4   4   4   4   4   4   4   4
#     4   9  19  37  58  79 105 140 181 222 266 320
#     4   9  19  37  57  79 107 141 179 221 267 321
#     4   9  19  37  55  76 107 142 181 223 267 313
#     4  10  19  35  57  80 109 145 180 221 271 321
#     4  10  19  34  56  81 109 140 177 223 270 318
#     4  11  21  36  57  81 108 144 184 223 271 322
#     4  10  21  35  54  80 111 142 176 222 272 320
#     4   8  19  37  54  74 106 142 178 223 268 313
#
# _framework density 18.588256999999999
#
# number of rings (size 3 to 8) (size 9 to 14) (size 15 to 20)
#    0.750    1.750    0.000    2.250    0.000    3.500 
#    2.250    5.000    0.000    0.000    0.000    0.000 
#    0.000    0.000    0.000    0.000    0.000    0.000 
#
# Total GULP energy -89149.586422 kJ/mol
# GULP energy per Si atom -5571.849151 kJ/mol
# Density = 1.854595 g / cm^3
# Si number density = 18.588257 Si / 1000 Ang^3
#
#
#
# Elastic Constant Matrix: (Units=GPa)
#
#
# Indices 1 2 3 4 5 6 
#
# 1 79.6620 19.1506 -0.6380 0.0000 16.6713 0.0000
# 2 19.1506 90.1944 26.2209 0.0000 7.7993 0.0000
# 3 -0.6380 26.2209 30.8020 0.0000 16.1929 0.0000
# 4 0.0000 0.0000 0.0000 31.9307 0.0000 7.6427
# 5 16.6713 7.7993 16.1929 0.0000 17.7796 0.0000
# 6 0.0000 0.0000 0.0000 7.6427 0.0000 25.0720
#
#
#
# Elastic Compliance Matrix: (Units=1/GPa)
#
#
# Indices 1 2 3 4 5 6 
#
# 1 0.029643 -0.014208 0.046132 0.000000 -0.063578 0.000000
# 2 -0.014208 0.022433 -0.040715 0.000000 0.040563 0.000000
# 3 0.046132 -0.040715 0.156235 0.000000 -0.167689 0.000000
# 4 0.000000 0.000000 0.000000 0.033783 0.000000 -0.010298
# 5 -0.063578 0.040563 -0.167689 0.000000 0.250790 0.000000
# 6 0.000000 0.000000 0.000000 -0.010298 0.000000 0.043024
#
#
# Mechanical properties :
#
#
# Convention : Reuss Voigt Hill
#
# Bulk Modulus (GPa) = 5.24298 32.23616 18.73957
# Shear Modulus (GPa) = 8.10286 25.35145 16.72715
#
# Velocity S-wave (km/s) = 2.09012 3.69703 3.00305
# Velocity P-wave (km/s) = 2.94134 5.96690 4.70401
#
# Compressibility (1/GPa) = 0.19073138
#
# Stress axis : x y z
#
# Youngs Moduli (GPa) = 33.73430 44.57790 6.40059
#
# Poissons Ratio (x) = 0.63335 -0.29527
# Poissons Ratio (y) = 0.47928 0.26060
# Poissons Ratio (z) = -1.55624 1.81497
#
# Static dielectric constant tensor:
#      x y z
#    x 1.642460 0.000000 -0.009990 
#    y 0.000000 1.627200 0.000000 
#    z -0.009990 0.000000 1.630840 
# 
# From -- ./inp_files/26448.got.cif
#   From: 2010.05.17/outbox.cif.g08.bks.cpg/sg8_14_cif.got.tgz:26448.got - 2010.06.03 19:46:02.
