data_PCOD9131541
_publ_section_title
;
Structure prediction by ZEFSAII (Michael W. Deem and Ramdas Pophale) SiO2 
 PCOD9131541
Probable space group: C M
;
_chemical_formula_sum "Si O2"
_cell_formula_units_Z 32
_cell_length_a 20.738253
_cell_length_b 7.497268
_cell_length_c 20.480652
_cell_angle_alpha 90.000000
_cell_angle_beta 149.794078
_cell_angle_gamma 90.000000
_cell_volume 1602.069326
_symmetry_space_group_name_H-M "C M"
_symmetry_group_IT_number 8
_symmetry_cell_setting 'monoclinic'
loop_
_space_group_symop_operation_xyz
x,y,z
x,-y,z
1/2+x,1/2+y,z
1/2+x,1/2-y,z
loop_
_atom_site_type_symbol
_atom_site_label
_atom_site_fract_x
_atom_site_fract_y
_atom_site_fract_z
Si Si1 0.076270 0.282018 0.824670
Si Si2 0.418108 0.796992 0.314112
Si Si3 0.822552 0.282343 0.365663
Si Si4 0.843856 0.281469 0.531234
Si Si5 0.039323 0.785054 0.073234
Si Si6 0.856189 0.781761 0.025710
Si Si7 0.137259 0.291929 0.022027
Si Si8 0.059136 0.794598 0.309858
O O1 0.073234 0.500000 0.821335
O O2 0.954330 0.220689 0.676846
O O3 0.211082 0.224990 0.910986
O O4 0.080127 0.226671 0.903880
O O5 0.404710 0.719820 0.375310
O O6 0.272173 0.796347 0.159227
O O7 0.507103 0.709600 0.337809
O O8 0.462677 0.000000 0.358606
O O9 0.823468 0.500000 0.364025
O O10 0.866601 0.228825 0.475918
O O11 0.674691 0.227959 0.224078
O O12 0.845001 0.500000 0.533970
O O13 0.701413 0.219341 0.426471
O O14 0.044267 0.726863 0.002546
O O15 0.922222 0.725989 0.015872
O O16 0.039666 0.000000 0.073682
O O17 0.949927 0.719667 0.166276
O O18 0.853525 0.000000 0.024538
O O19 0.169672 0.500000 0.041676
O O20 0.071644 0.000000 0.299586
#
# Coordination Sequence:
#
# PCOD9131541 Si02
#       8
#     4   4   4   4   4   4   4   4
#     4   9  17  28  46  72  98 124 161 202 236 276
#     4  10  19  30  48  73 100 126 156 200 246 285
#     4   8  14  26  44  65  90 120 156 193 233 280
#     4   9  16  28  48  72  95 125 162 199 238 282
#     4   9  16  28  48  71  94 122 159 203 244 282
#     4   9  15  27  47  70  95 122 159 203 234 270
#     4  10  18  30  48  71 100 128 159 199 238 283
#     4  10  17  29  51  74  96 123 162 203 237 278
#
# _framework density 19.974167000000001
#
# number of rings (size 3 to 8) (size 9 to 14) (size 15 to 20)
#    0.000    2.750    2.500    1.500    0.000    0.000 
#    0.000    1.875    0.000    3.000    0.000    0.000 
#    0.000    0.000    0.000    0.000    0.000    0.000 
#
# Total GULP energy -89245.366744 kJ/mol
# GULP energy per Si atom -5577.835422 kJ/mol
# Density = 1.992870 g / cm^3
# Si number density = 19.974167 Si / 1000 Ang^3
#
#
#
# Elastic Constant Matrix: (Units=GPa)
#
#
# Indices 1 2 3 4 5 6 
#
# 1 160.3801 -8.1246 80.2340 0.0000 -12.3783 0.0000
# 2 -8.1246 50.7914 -1.2308 0.0000 1.4973 0.0000
# 3 80.2340 -1.2308 122.2270 0.0000 -6.7517 0.0000
# 4 0.0000 0.0000 0.0000 1.4504 0.0000 -2.8639
# 5 -12.3783 1.4973 -6.7517 0.0000 28.5537 0.0000
# 6 0.0000 0.0000 0.0000 -2.8639 0.0000 18.2964
#
#
#
# Elastic Compliance Matrix: (Units=1/GPa)
#
#
# Indices 1 2 3 4 5 6 
#
# 1 0.009567 0.001304 -0.006121 0.000000 0.002631 0.000000
# 2 0.001304 0.019899 -0.000691 0.000000 -0.000641 0.000000
# 3 -0.006121 -0.000691 0.012208 0.000000 0.000269 0.000000
# 4 0.000000 0.000000 0.000000 0.997862 0.000000 0.156191
# 5 0.002631 -0.000641 0.000269 0.000000 0.036260 0.000000
# 6 0.000000 0.000000 0.000000 0.156191 0.000000 0.079103
#
#
# Mechanical properties :
#
#
# Convention : Reuss Voigt Hill
#
# Bulk Modulus (GPa) = 32.61904 52.79506 42.70705
# Shear Modulus (GPa) = 4.25121 27.16145 15.70633
#
# Velocity S-wave (km/s) = 1.46047 3.69159 2.80720
# Velocity P-wave (km/s) = 4.38293 6.68277 5.65108
#
# Compressibility (1/GPa) = 0.03065694
#
# Stress axis : x y z
#
# Youngs Moduli (GPa) = 104.52855 50.25335 81.91529
#
# Poissons Ratio (x) = -0.06555 0.50144
# Poissons Ratio (y) = -0.13635 0.05663
# Poissons Ratio (z) = 0.63987 0.03474
#
# Static dielectric constant tensor:
#      x y z
#    x 1.709320 0.000000 -0.010920 
#    y 0.000000 1.762710 0.000000 
#    z -0.010920 0.000000 1.663000 
# 
# From -- ./inp_files/23731.got.cif
#   From: 2010.05.17/outbox.cif.g08.bks.cpg/sg8_12_cif.got.tgz:23731.got - 2010.06.03 19:46:02.
