data_PCOD9131671
_publ_section_title
;
Structure prediction by ZEFSAII (Michael W. Deem and Ramdas Pophale) SiO2 
 PCOD9131671
Probable space group: C M
;
_chemical_formula_sum "Si O2"
_cell_formula_units_Z 32
_cell_length_a 17.641759
_cell_length_b 14.747256
_cell_length_c 9.888234
_cell_angle_alpha 90.000000
_cell_angle_beta 33.550978
_cell_angle_gamma 90.000000
_cell_volume 1421.819838
_symmetry_space_group_name_H-M "C M"
_symmetry_group_IT_number 8
_symmetry_cell_setting 'monoclinic'
loop_
_space_group_symop_operation_xyz
x,y,z
x,-y,z
1/2+x,1/2+y,z
1/2+x,1/2-y,z
loop_
_atom_site_type_symbol
_atom_site_label
_atom_site_fract_x
_atom_site_fract_y
_atom_site_fract_z
Si Si1 0.188650 0.240005 0.545170
Si Si2 0.489533 0.900142 0.849232
Si Si3 0.722556 0.247209 0.793349
Si Si4 0.201428 0.188125 0.247735
Si Si5 0.905338 0.596168 0.559641
Si Si6 0.420761 0.394510 0.571728
Si Si7 0.958358 0.659904 0.194531
Si Si8 0.731786 0.103552 0.125865
O O1 0.159816 0.217453 0.744695
O O2 0.155028 0.172486 0.473792
O O3 0.353000 0.236789 0.302736
O O4 0.106822 0.330419 0.634552
O O5 0.340592 0.868233 0.020521
O O6 0.489364 0.896161 0.013852
O O7 0.518999 0.000000 0.756504
O O8 0.810830 0.320078 0.743053
O O9 0.826344 0.164204 0.610980
O O10 0.591830 0.205940 0.059153
O O11 0.245227 0.294530 0.169173
O O12 0.068111 0.154480 0.365625
O O13 0.851007 0.500000 0.688774
O O14 0.897181 0.602652 0.407900
O O15 0.065995 0.601127 0.353409
O O16 0.436620 0.500000 0.511843
O O17 0.328745 0.391798 0.847189
O O18 0.763404 0.000000 0.135275
#
# Coordination Sequence:
#
# PCOD9131671 Si02
#       8
#     4   4   4   4   4   4   4   4
#     4   9  21  36  56  82 112 150 190 231 285 340
#     4  10  20  35  57  83 111 149 192 231 279 338
#     4  10  19  35  57  87 115 146 184 240 288 337
#     4  11  21  39  57  82 118 154 187 238 287 344
#     4  10  18  32  54  82 109 140 183 225 276 333
#     4  11  22  36  59  87 115 150 194 241 284 337
#     4   9  18  34  58  79 110 146 187 233 280 330
#     4  10  21  35  56  82 108 147 191 229 277 335
#
# _framework density 22.506367000000001
#
# number of rings (size 3 to 8) (size 9 to 14) (size 15 to 20)
#    0.000    2.000    2.500    1.500    0.000    2.500 
#    0.000    1.250    0.000   14.250    0.000    0.000 
#    0.000    0.000    0.000    0.000    0.000    0.000 
#
# Total GULP energy -89115.517348 kJ/mol
# GULP energy per Si atom -5569.719834 kJ/mol
# Density = 2.245514 g / cm^3
# Si number density = 22.506367 Si / 1000 Ang^3
#
#
#
# Elastic Constant Matrix: (Units=GPa)
#
#
# Indices 1 2 3 4 5 6 
#
# 1 43.9416 -1.4073 4.0499 0.0000 -5.1736 0.0000
# 2 -1.4073 91.8900 41.5568 0.0000 -19.2772 0.0000
# 3 4.0499 41.5568 63.3179 0.0000 -30.7332 0.0000
# 4 0.0000 0.0000 0.0000 25.4336 0.0000 -2.1486
# 5 -5.1736 -19.2772 -30.7332 0.0000 38.7206 0.0000
# 6 0.0000 0.0000 0.0000 -2.1486 0.0000 15.9375
#
#
#
# Elastic Compliance Matrix: (Units=1/GPa)
#
#
# Indices 1 2 3 4 5 6 
#
# 1 0.023251 0.001420 -0.000924 0.000000 0.003080 0.000000
# 2 0.001420 0.015571 -0.010501 0.000000 -0.000393 0.000000
# 3 -0.000924 -0.010501 0.032773 0.000000 0.020661 0.000000
# 4 0.000000 0.000000 0.000000 0.039771 0.000000 0.005362
# 5 0.003080 -0.000393 0.020661 0.000000 0.042441 0.000000
# 6 0.000000 0.000000 0.000000 0.005362 0.000000 0.063468
#
#
# Mechanical properties :
#
#
# Convention : Reuss Voigt Hill
#
# Bulk Modulus (GPa) = 19.38576 31.94982 25.66779
# Shear Modulus (GPa) = 19.64793 26.34835 22.99814
#
# Velocity S-wave (km/s) = 2.95785 3.42527 3.20011
# Velocity P-wave (km/s) = 4.50526 5.46535 5.00836
#
# Compressibility (1/GPa) = 0.05158426
#
# Stress axis : x y z
#
# Youngs Moduli (GPa) = 43.00928 64.22213 30.51294
#
# Poissons Ratio (x) = -0.09121 0.02820
# Poissons Ratio (y) = -0.06108 0.32042
# Poissons Ratio (z) = 0.03975 0.67441
#
# Static dielectric constant tensor:
#      x y z
#    x 1.884670 0.000000 0.047280 
#    y 0.000000 1.878820 0.000000 
#    z 0.047280 0.000000 1.837540 
# 
# From -- ./inp_files/20221.got.cif
#   From: 2010.05.17/outbox.cif.g08.bks.cpg/sg8_11_cif.got.tgz:20221.got - 2010.06.03 19:46:02.
