data_PCOD9131003
_publ_section_title
;
Structure prediction by ZEFSAII (Michael W. Deem and Ramdas Pophale) SiO2 
 PCOD9131003
Probable space group: P M
;
_chemical_formula_sum "Si O2"
_cell_formula_units_Z 16
_cell_length_a 7.534771
_cell_length_b 19.901338
_cell_length_c 5.266976
_cell_angle_alpha 90.000000
_cell_angle_beta 59.086881
_cell_angle_gamma 90.000000
_cell_volume 677.601383
_symmetry_space_group_name_H-M "P M"
_symmetry_group_IT_number 6
_symmetry_cell_setting 'monoclinic'
loop_
_space_group_symop_operation_xyz
x,y,z
x,-y,z
loop_
_atom_site_type_symbol
_atom_site_label
_atom_site_fract_x
_atom_site_fract_y
_atom_site_fract_z
Si Si1 0.902090 0.573192 0.232270
Si Si2 0.488021 0.422775 0.189791
Si Si3 0.425504 0.926145 0.426799
Si Si4 0.753351 0.334479 0.724501
Si Si5 0.915717 0.207303 0.351484
Si Si6 0.157941 0.794387 0.657988
Si Si7 0.699559 0.074682 0.725183
Si Si8 0.169409 0.342881 0.737105
O O1 0.992062 0.500000 0.149098
O O2 0.701785 0.576181 0.196945
O O3 0.808789 0.592917 0.566687
O O4 0.084819 0.626095 0.057205
O O5 0.459118 0.500000 0.115110
O O6 0.295464 0.400678 0.504512
O O7 0.530232 0.354932 0.993326
O O8 0.270918 0.864976 0.565294
O O9 0.535030 0.929660 0.618559
O O10 0.332247 0.000000 0.442332
O O11 0.588384 0.913688 0.077781
O O12 0.767694 0.271512 0.521637
O O13 0.945950 0.324464 0.773310
O O14 0.831362 0.138357 0.537319
O O15 0.108025 0.219723 0.398465
O O16 0.980283 0.199808 0.010228
O O17 0.282147 0.728363 0.660548
O O18 0.801175 0.000000 0.663747
#
# Coordination Sequence:
#
# PCOD9131003 Si02
#       8
#     2   2   2   2   2   2   2   2
#     4  10  20  38  59  82 117 154 196 257 311 362
#     4  10  22  38  59  87 114 156 208 250 311 376
#     4  10  22  40  62  92 128 163 203 252 305 362
#     4  10  22  39  58  85 121 156 199 258 309 363
#     4  11  23  40  63  91 123 161 208 253 306 368
#     4  11  23  40  62  92 123 162 207 250 310 367
#     4  10  22  40  63  92 125 164 205 249 306 364
#     4  10  22  39  58  85 121 156 202 255 306 370
#
# _framework density 23.612701999999999
#
# number of rings (size 3 to 8) (size 9 to 14) (size 15 to 20)
#    0.000    1.750    1.250    2.250    1.750    4.500 
#    0.000    0.000    0.000    0.000    0.000    0.000 
#    0.000    0.000    0.000    0.000    0.000    0.000 
#
# Total GULP energy -89105.170296 kJ/mol
# GULP energy per Si atom -5569.073144 kJ/mol
# Density = 2.355896 g / cm^3
# Si number density = 23.612702 Si / 1000 Ang^3
#
#
#
# Elastic Constant Matrix: (Units=GPa)
#
#
# Indices 1 2 3 4 5 6 
#
# 1 40.5866 4.2446 0.0184 0.0000 4.1415 0.0000
# 2 4.2446 164.5431 28.1111 0.0000 -18.6276 0.0000
# 3 0.0184 28.1111 60.5387 0.0000 3.3581 0.0000
# 4 0.0000 0.0000 0.0000 53.4697 0.0000 -7.5214
# 5 4.1415 -18.6276 3.3581 0.0000 20.5716 0.0000
# 6 0.0000 0.0000 0.0000 -7.5214 0.0000 26.2055
#
#
#
# Elastic Compliance Matrix: (Units=1/GPa)
#
#
# Indices 1 2 3 4 5 6 
#
# 1 0.025499 -0.001616 0.001119 0.000000 -0.006780 0.000000
# 2 -0.001616 0.007707 -0.004020 0.000000 0.007960 0.000000
# 3 0.001119 -0.004020 0.018769 0.000000 -0.006929 0.000000
# 4 0.000000 0.000000 0.000000 0.019489 0.000000 0.005594
# 5 -0.006780 0.007960 -0.006929 0.000000 0.058315 0.000000
# 6 0.000000 0.000000 0.000000 0.005594 0.000000 0.039765
#
#
# Mechanical properties :
#
#
# Convention : Reuss Voigt Hill
#
# Bulk Modulus (GPa) = 23.28813 36.71296 30.00054
# Shear Modulus (GPa) = 25.92117 35.60232 30.76175
#
# Velocity S-wave (km/s) = 3.31685 3.88720 3.61330
# Velocity P-wave (km/s) = 4.95506 5.97736 5.49006
#
# Compressibility (1/GPa) = 0.04294033
#
# Stress axis : x y z
#
# Youngs Moduli (GPa) = 39.21716 129.75080 53.27933
#
# Poissons Ratio (x) = 0.20974 -0.05962
# Poissons Ratio (y) = 0.06339 0.21418
# Poissons Ratio (z) = -0.04388 0.52158
#
# Static dielectric constant tensor:
#      x y z
#    x 1.981530 0.000000 0.016880 
#    y 0.000000 1.986600 0.000000 
#    z 0.016880 0.000000 1.873660 
# 
# From -- ./inp_files/613.got.cif
#   From: 2010.05.17/outbox.cif.g08.bks.cpg/sg6_1_cif.got.tgz:613.got - 2010.06.03 19:42:10.
