data_PCOD9131493
_publ_section_title
;
Structure prediction by ZEFSAII (Michael W. Deem and Ramdas Pophale) SiO2 
 PCOD9131493
Probable space group: C M
;
_chemical_formula_sum "Si O2"
_cell_formula_units_Z 32
_cell_length_a 12.692300
_cell_length_b 24.320416
_cell_length_c 7.114926
_cell_angle_alpha 90.000000
_cell_angle_beta 141.902533
_cell_angle_gamma 90.000000
_cell_volume 1355.088448
_symmetry_space_group_name_H-M "C M"
_symmetry_group_IT_number 8
_symmetry_cell_setting 'monoclinic'
loop_
_space_group_symop_operation_xyz
x,y,z
x,-y,z
1/2+x,1/2+y,z
1/2+x,1/2-y,z
loop_
_atom_site_type_symbol
_atom_site_label
_atom_site_fract_x
_atom_site_fract_y
_atom_site_fract_z
Si Si1 0.966170 0.377674 0.203240
Si Si2 0.451343 0.255902 0.825579
Si Si3 0.298117 0.560460 0.668064
Si Si4 0.986800 0.366574 0.775167
Si Si5 0.808024 0.063451 0.230971
Si Si6 0.077131 0.738110 0.398400
Si Si7 0.103423 0.151944 0.589132
Si Si8 0.121636 0.861461 0.173912
O O1 0.104760 0.423423 0.452005
O O2 0.039628 0.323550 0.407860
O O3 0.980270 0.376252 0.993260
O O4 0.761436 0.372417 0.928453
O O5 0.506959 0.199870 0.803229
O O6 0.251033 0.266950 0.515125
O O7 0.441273 0.248184 0.040361
O O8 0.568134 0.309728 0.969975
O O9 0.339118 0.500000 0.794951
O O10 0.298987 0.560297 0.443559
O O11 0.456112 0.599821 0.941086
O O12 0.814316 0.382909 0.419936
O O13 0.139343 0.405408 0.923775
O O14 0.957311 0.106904 0.400224
O O15 0.829125 0.000000 0.196910
O O16 0.060638 0.782882 0.541959
O O17 0.143419 0.156553 0.421917
#
# Coordination Sequence:
#
# PCOD9131493 Si02
#       8
#     4   4   4   4   4   4   4   4
#     4   9  17  32  56  81 110 142 184 226 270 326
#     4  10  15  28  55  85 113 136 173 223 281 320
#     4  10  21  36  57  83 108 145 190 234 274 323
#     4   9  18  33  55  82 105 147 185 218 273 334
#     4  10  23  41  55  72 114 157 186 224 278 329
#     4  10  15  28  54  84 111 137 174 224 279 319
#     4  10  20  35  57  84 108 151 184 220 278 335
#     4  10  19  33  61  87 109 137 188 237 271 318
#
# _framework density 23.614695000000001
#
# number of rings (size 3 to 8) (size 9 to 14) (size 15 to 20)
#    0.000    2.250    6.250    0.000    0.000    1.500 
#    0.000    6.250    0.000    0.000    0.000    0.000 
#    0.000    0.000    0.000    0.000    0.000    0.000 
#
# Total GULP energy -89127.124855 kJ/mol
# GULP energy per Si atom -5570.445303 kJ/mol
# Density = 2.356095 g / cm^3
# Si number density = 23.614695 Si / 1000 Ang^3
#
#
#
# Elastic Constant Matrix: (Units=GPa)
#
#
# Indices 1 2 3 4 5 6 
#
# 1 50.8295 6.1603 18.9587 0.0000 -13.1137 0.0000
# 2 6.1603 90.6456 51.2139 0.0000 22.9431 0.0000
# 3 18.9587 51.2139 124.0704 0.0000 18.4876 0.0000
# 4 0.0000 0.0000 0.0000 26.7480 0.0000 7.5806
# 5 -13.1137 22.9431 18.4876 0.0000 47.2116 0.0000
# 6 0.0000 0.0000 0.0000 7.5806 0.0000 20.3127
#
#
#
# Elastic Compliance Matrix: (Units=1/GPa)
#
#
# Indices 1 2 3 4 5 6 
#
# 1 0.023815 -0.001418 -0.004399 0.000000 0.009026 0.000000
# 2 -0.001418 0.015653 -0.005366 0.000000 -0.005900 0.000000
# 3 -0.004399 -0.005366 0.011406 0.000000 -0.003081 0.000000
# 4 0.000000 0.000000 0.000000 0.041808 0.000000 -0.015602
# 5 0.009026 -0.005900 -0.003081 0.000000 0.027762 0.000000
# 6 0.000000 0.000000 0.000000 -0.015602 0.000000 0.055053
#
#
# Mechanical properties :
#
#
# Convention : Reuss Voigt Hill
#
# Bulk Modulus (GPa) = 35.07605 46.46793 40.77199
# Shear Modulus (GPa) = 24.11217 31.46864 27.79040
#
# Velocity S-wave (km/s) = 3.19888 3.65442 3.43421
# Velocity P-wave (km/s) = 5.34130 6.12590 5.74701
#
# Compressibility (1/GPa) = 0.02850948
#
# Stress axis : x y z
#
# Youngs Moduli (GPa) = 41.99049 63.88547 87.67332
#
# Poissons Ratio (x) = 0.09058 0.38566
# Poissons Ratio (y) = 0.05954 0.47041
# Poissons Ratio (z) = 0.18471 0.34278
#
# Static dielectric constant tensor:
#      x y z
#    x 2.036540 0.000000 0.006730 
#    y 0.000000 1.971590 0.000000 
#    z 0.006730 0.000000 1.883970 
# 
# From -- ./inp_files/13841.got.cif
#   From: 2010.05.17/outbox.cif.g08.bks.cpg/sg8_7_cif.got.tgz:13841.got - 2010.06.03 19:46:02.
