data_PCOD9131891
_publ_section_title
;
Structure prediction by ZEFSAII (Michael W. Deem and Ramdas Pophale) SiO2 
 PCOD9131891
Probable space group: C M
;
_chemical_formula_sum "Si O2"
_cell_formula_units_Z 26
_cell_length_a 4.986242
_cell_length_b 13.519809
_cell_length_c 16.542134
_cell_angle_alpha 90.000000
_cell_angle_beta 90.884478
_cell_angle_gamma 90.000000
_cell_volume 1115.022663
_symmetry_space_group_name_H-M "C M"
_symmetry_group_IT_number 8
_symmetry_cell_setting 'monoclinic'
loop_
_space_group_symop_operation_xyz
x,y,z
x,-y,z
1/2+x,1/2+y,z
1/2+x,1/2-y,z
loop_
_atom_site_type_symbol
_atom_site_label
_atom_site_fract_x
_atom_site_fract_y
_atom_site_fract_z
Si Si1 0.648350 0.182345 0.269140
Si Si2 0.633063 0.380605 0.708746
Si Si3 0.801297 0.186446 0.437732
Si Si4 0.739995 0.822561 0.091283
Si Si5 0.220653 0.184202 0.890116
Si Si6 0.488413 0.000000 0.985678
Si Si7 0.124465 0.617438 0.611781
O O1 0.344688 0.221196 0.269552
O O2 0.719842 0.130982 0.354502
O O3 0.708455 0.135376 0.182981
O O4 0.639577 0.500000 0.715053
O O5 0.726984 0.340673 0.794806
O O6 0.333766 0.351957 0.682114
O O7 0.828529 0.350070 0.636143
O O8 0.611554 0.284259 0.435008
O O9 0.725576 0.141922 0.523237
O O10 0.527488 0.731012 0.084236
O O11 0.663984 0.911772 0.032359
O O12 0.426231 0.273939 0.906307
O O13 0.310169 0.087564 0.938781
O O14 0.118679 0.500000 0.615174
#
# Coordination Sequence:
#
# PCOD9131891 Si02
#       7
#     4   4   4   4   4   2   4
#     4   8  16  33  56  82 117 155 195 243 296 355
#     4  10  21  41  58  81 120 163 201 254 307 357
#     4  10  19  32  54  83 116 155 197 246 293 346
#     4  10  22  42  67  94 127 167 206 252 314 373
#     4  12  27  44  67  96 126 165 208 257 317 375
#     4  12  26  46  68  98 128 162 204 268 306 386
#     4  10  21  35  57  83 119 158 198 248 299 351
#
# _framework density 23.317909
#
# number of rings (size 3 to 8) (size 9 to 14) (size 15 to 20)
#    0.000    1.846    0.769    2.769    0.000    6.154 
#    1.385    0.000    0.000    0.000    0.000    0.000 
#    0.000    0.000    0.000    0.000    0.000    0.000 
#
# Total GULP energy -72395.631109 kJ/mol
# GULP energy per Si atom -5568.894701 kJ/mol
# Density = 2.326484 g / cm^3
# Si number density = 23.317909 Si / 1000 Ang^3
#
#
#
# Elastic Constant Matrix: (Units=GPa)
#
#
# Indices 1 2 3 4 5 6 
#
# 1 84.6371 -1.0443 -0.1560 0.0000 4.4870 0.0000
# 2 -1.0443 109.7130 24.5690 0.0000 8.0969 0.0000
# 3 -0.1560 24.5690 111.3197 0.0000 19.1358 0.0000
# 4 0.0000 0.0000 0.0000 36.3276 0.0000 19.1517
# 5 4.4870 8.0969 19.1358 0.0000 32.4823 0.0000
# 6 0.0000 0.0000 0.0000 19.1517 0.0000 22.1233
#
#
#
# Elastic Compliance Matrix: (Units=1/GPa)
#
#
# Indices 1 2 3 4 5 6 
#
# 1 0.011917 0.000185 0.000297 0.000000 -0.001867 0.000000
# 2 0.000185 0.009639 -0.001902 0.000000 -0.001308 0.000000
# 3 0.000297 -0.001902 0.010380 0.000000 -0.005682 0.000000
# 4 0.000000 0.000000 0.000000 0.050637 0.000000 -0.043835
# 5 -0.001867 -0.001308 -0.005682 0.000000 0.034717 0.000000
# 6 0.000000 0.000000 0.000000 -0.043835 0.000000 0.083149
#
#
# Mechanical properties :
#
#
# Convention : Reuss Voigt Hill
#
# Bulk Modulus (GPa) = 34.37066 39.15636 36.76351
# Shear Modulus (GPa) = 23.47655 37.00670 30.24163
#
# Velocity S-wave (km/s) = 3.17646 3.98810 3.60519
# Velocity P-wave (km/s) = 5.31274 6.16729 5.75590
#
# Compressibility (1/GPa) = 0.02909458
#
# Stress axis : x y z
#
# Youngs Moduli (GPa) = 83.91401 103.74561 96.33788
#
# Poissons Ratio (x) = -0.01917 -0.02860
# Poissons Ratio (y) = -0.01550 0.18327
# Poissons Ratio (z) = -0.02491 0.19736
#
# Static dielectric constant tensor:
#      x y z
#    x 1.847430 0.000000 -0.020740 
#    y 0.000000 1.830780 0.000000 
#    z -0.020740 0.000000 1.948980 
# 
# From -- ./inp_files/28418.got.cif
#   From: 2010.05.17/outbox.cif.g08.bks.cpg/sg8_15_cif.got.tgz:28418.got - 2010.06.03 19:46:02.
