data_PCOD9131481
_publ_section_title
;
Structure prediction by ZEFSAII (Michael W. Deem and Ramdas Pophale) SiO2 
 PCOD9131481
Probable space group: P C
;
_chemical_formula_sum "Si O2"
_cell_formula_units_Z 16
_cell_length_a 4.856772
_cell_length_b 28.064875
_cell_length_c 5.511737
_cell_angle_alpha 90.000000
_cell_angle_beta 53.295959
_cell_angle_gamma 90.000000
_cell_volume 602.322853
_symmetry_space_group_name_H-M "P C"
_symmetry_group_IT_number 7
_symmetry_cell_setting 'monoclinic'
loop_
_space_group_symop_operation_xyz
x,y,z
x,-y,1/2+z
loop_
_atom_site_type_symbol
_atom_site_label
_atom_site_fract_x
_atom_site_fract_y
_atom_site_fract_z
Si Si1 0.110260 0.593893 0.323520
Si Si2 0.045446 0.156855 0.841569
Si Si3 0.535849 0.529566 0.811023
Si Si4 0.699875 0.344470 0.716272
Si Si5 0.494469 0.220658 0.340399
Si Si6 0.641248 0.094196 0.729524
Si Si7 0.109446 0.281085 0.169455
Si Si8 0.198203 0.029567 0.238165
O O1 0.462171 0.612521 0.251503
O O2 0.888278 0.559328 0.607301
O O3 0.874618 0.638489 0.372119
O O4 0.220828 0.565928 0.020713
O O5 0.272083 0.204294 0.685792
O O6 0.290951 0.116784 0.818403
O O7 0.899433 0.136129 0.667985
O O8 0.711616 0.173613 0.161353
O O9 0.521375 0.501956 0.563356
O O10 0.002463 0.327534 0.381967
O O11 0.447339 0.299189 0.856936
O O12 0.226684 0.237948 0.280772
O O13 0.767723 0.262910 0.219757
O O14 0.846714 0.059743 0.442613
O O15 0.523877 0.064508 0.029080
O O16 0.208616 0.001473 0.486727
#
# Coordination Sequence:
#
# PCOD9131481 Si02
#       8
#     2   2   2   2   2   2   2   2
#     4  12  26  47  73 106 147 194 245 306 369 441
#     4  12  25  45  70 104 143 190 241 300 366 437
#     4  12  27  49  76 110 149 198 251 310 374 445
#     4  12  25  45  70 104 143 190 241 300 366 437
#     4  12  24  43  69 102 141 188 239 298 361 435
#     4  12  26  47  73 106 147 194 245 306 369 441
#     4  12  24  43  69 102 141 188 239 298 361 435
#     4  12  27  49  76 110 149 198 251 310 374 445
#
# _framework density 26.563825000000001
#
# number of rings (size 3 to 8) (size 9 to 14) (size 15 to 20)
#    0.000    0.000    0.000   10.500    0.000    4.000 
#    0.000    0.000    0.000    0.000    0.000    0.000 
#    0.000    0.000    0.000    0.000    0.000    0.000 
#
# Total GULP energy -89764.748146 kJ/mol
# GULP energy per Si atom -5610.296759 kJ/mol
# Density = 2.650336 g / cm^3
# Si number density = 26.563825 Si / 1000 Ang^3
#
#
#
# Elastic Constant Matrix: (Units=GPa)
#
#
# Indices 1 2 3 4 5 6 
#
# 1 111.3418 27.1130 18.6614 0.0000 -7.5073 0.0000
# 2 27.1130 89.4345 44.8339 0.0000 -4.0217 0.0000
# 3 18.6614 44.8339 153.3449 0.0000 -11.0572 0.0000
# 4 0.0000 0.0000 0.0000 70.2627 0.0000 -10.7502
# 5 -7.5073 -4.0217 -11.0572 0.0000 38.3024 0.0000
# 6 0.0000 0.0000 0.0000 -10.7502 0.0000 46.0337
#
#
#
# Elastic Compliance Matrix: (Units=1/GPa)
#
#
# Indices 1 2 3 4 5 6 
#
# 1 0.009805 -0.002766 -0.000273 0.000000 0.001553 0.000000
# 2 -0.002766 0.013885 -0.003735 0.000000 -0.000162 0.000000
# 3 -0.000273 -0.003735 0.007776 0.000000 0.001799 0.000000
# 4 0.000000 0.000000 0.000000 0.014760 0.000000 0.003447
# 5 0.001553 -0.000162 0.001799 0.000000 0.026915 0.000000
# 6 0.000000 0.000000 0.000000 0.003447 0.000000 0.022528
#
#
# Mechanical properties :
#
#
# Convention : Reuss Voigt Hill
#
# Bulk Modulus (GPa) = 55.80491 59.48197 57.64344
# Shear Modulus (GPa) = 43.40710 48.48729 45.94719
#
# Velocity S-wave (km/s) = 4.04675 4.27700 4.16347
# Velocity P-wave (km/s) = 6.54892 6.84332 6.69774
#
# Compressibility (1/GPa) = 0.01791957
#
# Stress axis : x y z
#
# Youngs Moduli (GPa) = 101.98557 72.02109 128.59983
#
# Poissons Ratio (x) = 0.19922 0.03505
# Poissons Ratio (y) = 0.28210 0.48027
# Poissons Ratio (z) = 0.02780 0.26897
#
# Static dielectric constant tensor:
#      x y z
#    x 2.035330 0.000000 0.036020 
#    y 0.000000 2.156280 0.000000 
#    z 0.036020 0.000000 2.004850 
# 
# From -- ./inp_files/453.got.cif
#   From: 2010.05.17/outbox.cif.g08.bks.cpg/sg7_cif.got.tgz:453.got - 2010.06.03 19:44:50.
