data_PCOD9131015
_publ_section_title
;
Structure prediction by ZEFSAII (Michael W. Deem and Ramdas Pophale) SiO2 
 PCOD9131015
Probable space group: P M
;
_chemical_formula_sum "Si O2"
_cell_formula_units_Z 13
_cell_length_a 9.406919
_cell_length_b 7.990311
_cell_length_c 7.253283
_cell_angle_alpha 90.000000
_cell_angle_beta 108.054890
_cell_angle_gamma 90.000000
_cell_volume 518.342274
_symmetry_space_group_name_H-M "P M"
_symmetry_group_IT_number 6
_symmetry_cell_setting 'monoclinic'
loop_
_space_group_symop_operation_xyz
x,y,z
x,-y,z
loop_
_atom_site_type_symbol
_atom_site_label
_atom_site_fract_x
_atom_site_fract_y
_atom_site_fract_z
Si Si1 0.647070 0.191819 0.130520
Si Si2 0.941977 0.676742 0.390676
Si Si3 0.552491 0.687141 0.474006
Si Si4 0.859429 0.188223 0.725352
Si Si5 0.176325 0.202012 0.987359
Si Si6 0.390719 0.198728 0.745213
Si Si7 0.186046 0.500000 0.253264
O O1 0.800096 0.293978 0.201705
O O2 0.572026 0.198146 0.303609
O O3 0.684625 0.000000 0.106002
O O4 0.526381 0.249648 0.934647
O O5 0.915790 0.500000 0.483637
O O6 0.926152 0.811441 0.543830
O O7 0.091256 0.644513 0.338316
O O8 0.545506 0.500000 0.400498
O O9 0.705351 0.712619 0.651922
O O10 0.417151 0.712894 0.561492
O O11 0.998853 0.241270 0.905624
O O12 0.818648 0.000000 0.760547
O O13 0.244923 0.226940 0.809872
O O14 0.245033 0.346970 0.141233
O O15 0.196750 0.000000 0.038929
O O16 0.402059 0.000000 0.714894
#
# Coordination Sequence:
#
# PCOD9131015 Si02
#       7
#     2   2   2   2   2   2   1
#     4  10  20  38  64  89 123 160 202 259 306 364
#     4   9  20  36  55  91 119 152 195 250 306 352
#     4  11  23  37  62  94 122 159 202 254 311 368
#     4  10  20  38  64  87 120 159 202 256 301 365
#     4  10  24  43  61  89 123 162 207 250 306 366
#     4  10  23  43  62  86 122 162 206 252 302 368
#     4  10  24  38  62  88 124 166 192 262 304 364
#
# _framework density 25.079951000000001
#
# number of rings (size 3 to 8) (size 9 to 14) (size 15 to 20)
#    0.462    1.538    0.000    4.615    5.385    2.462 
#    2.769    0.000    0.000    0.000    0.000    0.000 
#    0.000    0.000    0.000    0.000    0.000    0.000 
#
# Total GULP energy -72401.753515 kJ/mol
# GULP energy per Si atom -5569.365655 kJ/mol
# Density = 2.502287 g / cm^3
# Si number density = 25.079951 Si / 1000 Ang^3
#
#
#
# Elastic Constant Matrix: (Units=GPa)
#
#
# Indices 1 2 3 4 5 6 
#
# 1 113.2160 28.5293 35.8618 0.0000 -12.6711 0.0000
# 2 28.5293 81.4595 22.9968 0.0000 -8.2094 0.0000
# 3 35.8618 22.9968 72.1622 0.0000 -13.7549 0.0000
# 4 0.0000 0.0000 0.0000 -74.5166 0.0000 11.8952
# 5 -12.6711 -8.2094 -13.7549 0.0000 55.4504 0.0000
# 6 0.0000 0.0000 0.0000 11.8952 0.0000 36.1025
#
#
#
# Elastic Compliance Matrix: (Units=1/GPa)
#
#
# Indices 1 2 3 4 5 6 
#
# 1 0.010991 -0.002482 -0.004474 0.000000 0.001034 0.000000
# 2 -0.002482 0.014101 -0.003118 0.000000 0.000747 0.000000
# 3 -0.004474 -0.003118 0.017625 0.000000 0.002888 0.000000
# 4 0.000000 0.000000 0.000000 -0.012749 0.000000 0.004201
# 5 0.001034 0.000747 0.002888 0.000000 0.019098 0.000000
# 6 0.000000 0.000000 0.000000 0.004201 0.000000 0.026315
#
#
# Mechanical properties :
#
#
# Convention : Reuss Voigt Hill
#
# Bulk Modulus (GPa) = 44.30793 49.06817 46.68805
# Shear Modulus (GPa) = 48.51972 15.37056 31.94514
#
# Velocity S-wave (km/s) = 4.40318 2.47829 3.57281
# Velocity P-wave (km/s) = 6.59968 5.27223 5.97294
#
# Compressibility (1/GPa) = 0.02256932
#
# Stress axis : x y z
#
# Youngs Moduli (GPa) = 90.98310 70.91796 56.73715
#
# Poissons Ratio (x) = 0.17602 0.25384
# Poissons Ratio (y) = 0.22583 0.17689
# Poissons Ratio (z) = 0.40706 0.22111
#
# Static dielectric constant tensor:
#      x y z
#    x 2.071400 0.000000 0.062360 
#    y 0.000000 1.835630 0.000000 
#    z 0.062360 0.000000 1.995310 
# 
# From -- ./inp_files/2595.got.cif
#   From: 2010.05.17/outbox.cif.g08.bks.cpg/sg6_2_cif.got.tgz:2595.got - 2010.06.03 19:42:10.
