data_PCOD9131152
_publ_section_title
;
Structure prediction by ZEFSAII (Michael W. Deem and Ramdas Pophale) SiO2 
 PCOD9131152
Probable space group: P M
;
_chemical_formula_sum "Si O2"
_cell_formula_units_Z 16
_cell_length_a 9.858904
_cell_length_b 8.085472
_cell_length_c 12.262154
_cell_angle_alpha 90.000000
_cell_angle_beta 128.069076
_cell_angle_gamma 90.000000
_cell_volume 769.526085
_symmetry_space_group_name_H-M "P M"
_symmetry_group_IT_number 6
_symmetry_cell_setting 'monoclinic'
loop_
_space_group_symop_operation_xyz
x,y,z
x,-y,z
loop_
_atom_site_type_symbol
_atom_site_label
_atom_site_fract_x
_atom_site_fract_y
_atom_site_fract_z
Si Si1 0.593110 0.809218 0.565940
Si Si2 0.971174 0.693055 0.724262
Si Si3 0.522424 0.805470 0.981123
Si Si4 0.897105 0.697821 0.230575
Si Si5 0.446045 0.306870 0.703123
Si Si6 0.060971 0.298511 0.529978
Si Si7 0.241031 0.201003 0.271467
Si Si8 0.251752 0.195855 0.026876
O O1 0.766460 0.712817 0.625268
O O2 0.566137 0.794331 0.682233
O O3 0.417603 0.748272 0.420721
O O4 0.617966 0.000000 0.546548
O O5 0.017055 0.500000 0.751812
O O6 0.030899 0.762917 0.637002
O O7 0.073163 0.775775 0.874108
O O8 0.479099 0.716109 0.846861
O O9 0.484132 0.000000 0.948110
O O10 0.723868 0.780922 0.102736
O O11 0.404017 0.740982 0.022398
O O12 0.872937 0.500000 0.216829
O O13 0.929685 0.753174 0.371532
O O14 0.068425 0.737563 0.245950
O O15 0.463539 0.500000 0.683517
O O16 0.250826 0.251089 0.585830
O O17 0.056617 0.500000 0.532247
O O18 0.247274 0.259903 0.148539
O O19 0.235383 0.000000 0.271124
O O20 0.280942 0.000000 0.051816
#
# Coordination Sequence:
#
# PCOD9131152 Si02
#       8
#     2   2   2   2   2   2   2   2
#     4  11  24  41  63  93 125 162 205 254 310 369
#     4  11  23  41  64  92 123 161 206 255 310 368
#     4  11  24  41  63  93 125 162 205 254 310 369
#     4  11  23  41  64  92 123 161 206 255 310 368
#     4  11  21  41  67  90 121 160 205 257 306 364
#     4   9  20  39  63  90 121 154 201 259 308 358
#     4  10  23  43  63  87 124 164 205 253 306 367
#     4  10  23  43  63  87 124 164 205 253 306 367
#
# _framework density 20.792020000000001
#
# number of rings (size 3 to 8) (size 9 to 14) (size 15 to 20)
#    0.000    1.500    2.500    1.875    3.500    1.500 
#    0.000    1.875    0.000    0.000    0.000    0.000 
#    0.000    0.000    0.000    0.000    0.000    0.000 
#
# Total GULP energy -89386.938590 kJ/mol
# GULP energy per Si atom -5586.683662 kJ/mol
# Density = 2.074470 g / cm^3
# Si number density = 20.792020 Si / 1000 Ang^3
#
#
#
# Elastic Constant Matrix: (Units=GPa)
#
#
# Indices 1 2 3 4 5 6 
#
# 1 74.1928 -5.2130 28.1347 0.0000 -5.7621 0.0000
# 2 -5.2130 22.5835 -8.8361 0.0000 -2.7730 0.0000
# 3 28.1347 -8.8361 89.7408 0.0000 -5.5165 0.0000
# 4 0.0000 0.0000 0.0000 -15.8147 0.0000 -1.6933
# 5 -5.7621 -2.7730 -5.5165 0.0000 40.0631 0.0000
# 6 0.0000 0.0000 0.0000 -1.6933 0.0000 22.7566
#
#
#
# Elastic Compliance Matrix: (Units=1/GPa)
#
#
# Indices 1 2 3 4 5 6 
#
# 1 0.015479 0.002007 -0.004548 0.000000 0.001739 0.000000
# 2 0.002007 0.046909 0.004243 0.000000 0.004120 0.000000
# 3 -0.004548 0.004243 0.013075 0.000000 0.001440 0.000000
# 4 0.000000 0.000000 0.000000 -0.062732 0.000000 -0.004668
# 5 0.001739 0.004120 0.001440 0.000000 0.025694 0.000000
# 6 0.000000 0.000000 0.000000 -0.004668 0.000000 0.043596
#
#
# Mechanical properties :
#
#
# Convention : Reuss Voigt Hill
#
# Bulk Modulus (GPa) = 12.67958 23.85424 18.26691
# Shear Modulus (GPa) = 47.66095 20.89644 34.27869
#
# Velocity S-wave (km/s) = 4.79296 3.17365 4.06476
# Velocity P-wave (km/s) = 6.06148 4.99270 5.55286
#
# Compressibility (1/GPa) = 0.07886694
#
# Stress axis : x y z
#
# Youngs Moduli (GPa) = 64.60254 21.31774 76.47923
#
# Poissons Ratio (x) = -0.04279 0.34786
# Poissons Ratio (y) = -0.12966 -0.32449
# Poissons Ratio (z) = 0.29384 -0.09045
#
# Static dielectric constant tensor:
#      x y z
#    x 1.736250 0.000000 -0.006670 
#    y 0.000000 1.730130 0.000000 
#    z -0.006670 0.000000 1.724860 
# 
# From -- ./inp_files/2720.got.cif
#   From: 2010.05.17/outbox.cif.g08.bks.cpg/sg6_2_cif.got.tgz:2720.got - 2010.06.03 19:42:10.
