data_PCOD9131772
_publ_section_title
;
Structure prediction by ZEFSAII (Michael W. Deem and Ramdas Pophale) SiO2 
 PCOD9131772
Probable space group: C M
;
_chemical_formula_sum "Si O2"
_cell_formula_units_Z 30
_cell_length_a 8.593062
_cell_length_b 17.778322
_cell_length_c 15.207816
_cell_angle_alpha 90.000000
_cell_angle_beta 33.419948
_cell_angle_gamma 90.000000
_cell_volume 1279.607910
_symmetry_space_group_name_H-M "C M"
_symmetry_group_IT_number 8
_symmetry_cell_setting 'monoclinic'
loop_
_space_group_symop_operation_xyz
x,y,z
x,-y,z
1/2+x,1/2+y,z
1/2+x,1/2-y,z
loop_
_atom_site_type_symbol
_atom_site_label
_atom_site_fract_x
_atom_site_fract_y
_atom_site_fract_z
Si Si1 0.884460 0.280766 0.170090
Si Si2 0.065680 0.640907 0.805029
Si Si3 0.643283 0.415749 0.448201
Si Si4 0.258716 0.359453 0.121420
Si Si5 0.156879 0.000000 0.972082
Si Si6 0.956264 0.235983 0.711209
Si Si7 0.023195 0.084787 0.295611
Si Si8 0.045663 0.690871 0.478950
O O1 0.908726 0.203043 0.108807
O O2 0.722993 0.342968 0.187553
O O3 0.690425 0.251831 0.345054
O O4 0.164445 0.320921 0.074412
O O5 0.375276 0.616679 0.623706
O O6 0.163199 0.691501 0.841395
O O7 0.872702 0.567826 0.905044
O O8 0.955407 0.697667 0.782324
O O9 0.688276 0.500000 0.458595
O O10 0.547986 0.419286 0.390087
O O11 0.949815 0.377587 0.308946
O O12 0.442408 0.433997 0.033806
O O13 0.037910 0.274831 0.580288
O O14 0.219190 0.181973 0.609173
O O15 0.725712 0.114361 0.398743
O O16 0.086066 0.000000 0.232176
#
# Coordination Sequence:
#
# PCOD9131772 Si02
#       8
#     4   4   4   4   2   4   4   4
#     4  11  20  37  64  89 129 162 205 249 317 367
#     4  11  22  41  65  92 122 163 210 258 309 369
#     4  10  18  35  64  95 124 156 201 257 308 365
#     4  11  23  42  65  94 123 163 211 259 306 378
#     4  12  28  44  64  88 122 170 220 256 310 374
#     4  10  20  34  64  90 127 160 207 250 309 372
#     4  10  19  30  53  94 137 153 188 251 314 360
#     4  11  16  35  59 102 124 158 197 253 311 372
#
# _framework density 23.444683000000001
#
# number of rings (size 3 to 8) (size 9 to 14) (size 15 to 20)
#    0.000    1.333    5.333    3.200    0.933    1.067 
#    2.400    0.000    0.000    3.200    0.000    0.000 
#    0.000    0.000    0.000    0.000    0.000    0.000 
#
# Total GULP energy -83561.127653 kJ/mol
# GULP energy per Si atom -5570.741844 kJ/mol
# Density = 2.339132 g / cm^3
# Si number density = 23.444683 Si / 1000 Ang^3
#
#
#
# Elastic Constant Matrix: (Units=GPa)
#
#
# Indices 1 2 3 4 5 6 
#
# 1 83.4038 67.8475 46.9597 -0.0119 -34.4156 0.0035
# 2 67.8475 233.0789 59.2013 -0.0029 -29.9252 -0.0015
# 3 46.9597 59.2013 92.1445 0.0163 -17.0447 -0.0028
# 4 -0.0119 -0.0029 0.0163 53.0526 0.0079 -24.4685
# 5 -34.4156 -29.9252 -17.0447 0.0079 26.8453 -0.0045
# 6 0.0035 -0.0015 -0.0028 -24.4685 -0.0045 38.6710
#
#
#
# Elastic Compliance Matrix: (Units=1/GPa)
#
#
# Indices 1 2 3 4 5 6 
#
# 1 0.033433 -0.003174 -0.008754 0.000007 0.033766 0.000005
# 2 -0.003174 0.005862 -0.001918 0.000000 0.001248 0.000001
# 3 -0.008754 -0.001918 0.015947 -0.000008 -0.003235 -0.000004
# 4 0.000007 0.000000 -0.000008 0.026617 -0.000001 0.016841
# 5 0.033766 0.001248 -0.003235 -0.000001 0.079876 0.000005
# 6 0.000005 0.000001 -0.000004 0.016841 0.000005 0.036515
#
#
# Mechanical properties :
#
#
# Convention : Reuss Voigt Hill
#
# Bulk Modulus (GPa) = 36.29470 84.07158 60.18314
# Shear Modulus (GPa) = 21.26537 39.35503 30.31020
#
# Velocity S-wave (km/s) = 3.01499 4.10156 3.59951
# Velocity P-wave (km/s) = 5.25688 7.63988 6.55754
#
# Compressibility (1/GPa) = 0.02755224
#
# Stress axis : x y z
#
# Youngs Moduli (GPa) = 29.91028 170.60466 62.70580
#
# Poissons Ratio (x) = 0.54142 0.54891
# Poissons Ratio (y) = 0.09492 0.12025
# Poissons Ratio (z) = 0.26183 0.32718
#
# Static dielectric constant tensor:
#      x y z
#    x 1.984700 0.000000 0.081810 
#    y 0.000000 1.874340 0.000020 
#    z 0.081810 0.000020 2.018140 
# 
# From -- ./inp_files/30412.got.cif
#   From: 2010.05.17/outbox.cif.g08.bks.cpg/sg8_16_cif.got.tgz:30412.got - 2010.06.03 19:46:02.
