data_PCOD9131627
_publ_section_title
;
Structure prediction by ZEFSAII (Michael W. Deem and Ramdas Pophale) SiO2 
 PCOD9131627
Probable space group: C M
;
_chemical_formula_sum "Si O2"
_cell_formula_units_Z 30
_cell_length_a 10.950606
_cell_length_b 14.530041
_cell_length_c 8.454895
_cell_angle_alpha 90.000000
_cell_angle_beta 121.659254
_cell_angle_gamma 90.000000
_cell_volume 1145.082985
_symmetry_space_group_name_H-M "C M"
_symmetry_group_IT_number 8
_symmetry_cell_setting 'monoclinic'
loop_
_space_group_symop_operation_xyz
x,y,z
x,-y,z
1/2+x,1/2+y,z
1/2+x,1/2-y,z
loop_
_atom_site_type_symbol
_atom_site_label
_atom_site_fract_x
_atom_site_fract_y
_atom_site_fract_z
Si Si1 0.245690 0.189773 0.840610
Si Si2 0.442245 0.358489 0.519695
Si Si3 0.515703 0.637095 0.235947
Si Si4 0.150335 0.500000 0.166297
Si Si5 0.602627 0.867784 0.841157
Si Si6 0.345748 0.147005 0.463865
Si Si7 0.480272 0.859395 0.225389
Si Si8 0.855699 0.871766 0.805026
O O1 0.158611 0.261592 0.897321
O O2 0.339607 0.260471 0.801212
O O3 0.115560 0.149362 0.653486
O O4 0.352626 0.125357 0.009470
O O5 0.368269 0.258163 0.467895
O O6 0.118228 0.418558 0.276898
O O7 0.399740 0.400466 0.660506
O O8 0.428918 0.601049 0.332805
O O9 0.682894 0.616433 0.359141
O O10 0.504844 0.749052 0.236676
O O11 0.454940 0.606195 0.024513
O O12 0.140531 0.421362 0.021161
O O13 0.441184 0.882809 0.676803
O O14 0.698489 0.899242 0.756628
O O15 0.417537 0.114096 0.350965
#
# Coordination Sequence:
#
# PCOD9131627 Si02
#       8
#     4   4   4   2   4   4   4   4
#     4   8  18  34  60  92 126 168 222 276 324 389
#     4  10  18  30  60  95 126 163 211 281 339 373
#     4  10  21  34  65 103 126 163 225 296 321 390
#     4  12  26  40  66  98 142 188 222 272 354 424
#     4   9  23  40  61  95 133 178 214 283 338 405
#     4  10  21  37  61 100 132 163 230 288 334 385
#     4  10  23  37  62  97 136 176 223 278 342 403
#     4   9  19  36  56  90 135 166 214 277 333 387
#
# _framework density 26.198974
#
# number of rings (size 3 to 8) (size 9 to 14) (size 15 to 20)
#    0.800    1.600    0.000    1.600   13.067    0.533 
#    0.000    0.000    0.000    4.000    6.933    0.000 
#    0.000    0.000    0.000    0.000    0.000    0.000 
#
# Total GULP energy -83595.721431 kJ/mol
# GULP energy per Si atom -5573.048095 kJ/mol
# Density = 2.613934 g / cm^3
# Si number density = 26.198974 Si / 1000 Ang^3
#
#
#
# Elastic Constant Matrix: (Units=GPa)
#
#
# Indices 1 2 3 4 5 6 
#
# 1 147.0976 -4.2583 73.5024 0.0000 -40.8508 0.0000
# 2 -4.2583 77.4227 14.0340 0.0000 -21.2318 0.0000
# 3 73.5024 14.0340 181.8271 0.0000 5.7011 0.0000
# 4 0.0000 0.0000 0.0000-1905.8048 0.0000 2562.9114
# 5 -40.8508 -21.2318 5.7011 0.0000 61.4351 0.0000
# 6 0.0000 0.0000 0.0000 2562.9114 0.0000-3464.3530
#
#
#
# Elastic Compliance Matrix: (Units=1/GPa)
#
#
# Indices 1 2 3 4 5 6 
#
# 1 0.012864 0.004721 -0.005901 0.000000 0.010733 0.000000
# 2 0.004721 0.016294 -0.003451 0.000000 0.009090 0.000000
# 3 -0.005901 -0.003451 0.008336 0.000000 -0.005890 0.000000
# 4 0.000000 0.000000 0.000000 -0.102297 0.000000 -0.075679
# 5 0.010733 0.009090 -0.005890 0.000000 0.027102 0.000000
# 6 0.000000 0.000000 0.000000 -0.075679 0.000000 -0.056276
#
#
# Mechanical properties :
#
#
# Convention : Reuss Voigt Hill
#
# Bulk Modulus (GPa) = 35.42119 63.65594 49.53856
# Shear Modulus (GPa) = -66.39932 -1040.20658 -553.30295
#
# Velocity S-wave (km/s) = -5.03977 -19.94750 -14.54823
# Velocity P-wave (km/s) = 4.50736 22.49861 16.22504
#
# Compressibility (1/GPa) = 0.02823169
#
# Stress axis : x y z
#
# Youngs Moduli (GPa) = 77.73450 61.37168 119.95751
#
# Poissons Ratio (x) = -0.28971 0.70789
# Poissons Ratio (y) = -0.36695 0.41396
# Poissons Ratio (z) = 0.45873 0.21179
#
# Static dielectric constant tensor:
#      x y z
#    x 2.063900 0.000000 0.030000 
#    y 0.000000 2.067600 0.000000 
#    z 0.030000 0.000000 2.060630 
# 
# From -- ./inp_files/22436.got.cif
#   From: 2010.05.17/outbox.cif.g08.bks.cpg/sg8_12_cif.got.tgz:22436.got - 2010.06.03 19:46:02.
