data_PCOD9131847
_publ_section_title
;
Structure prediction by ZEFSAII (Michael W. Deem and Ramdas Pophale) SiO2 
 PCOD9131847
Probable space group: C M
;
_chemical_formula_sum "Si O2"
_cell_formula_units_Z 32
_cell_length_a 20.711386
_cell_length_b 8.630912
_cell_length_c 12.631992
_cell_angle_alpha 90.000000
_cell_angle_beta 53.599378
_cell_angle_gamma 90.000000
_cell_volume 1817.493214
_symmetry_space_group_name_H-M "C M"
_symmetry_group_IT_number 8
_symmetry_cell_setting 'monoclinic'
loop_
_space_group_symop_operation_xyz
x,y,z
x,-y,z
1/2+x,1/2+y,z
1/2+x,1/2-y,z
loop_
_atom_site_type_symbol
_atom_site_label
_atom_site_fract_x
_atom_site_fract_y
_atom_site_fract_z
Si Si1 0.213370 0.186914 0.056250
Si Si2 0.096028 0.185637 0.989579
Si Si3 0.735783 0.812670 0.703666
Si Si4 0.352346 0.313476 0.770918
Si Si5 0.452031 0.814668 0.007647
Si Si6 0.512541 0.685794 0.724398
Si Si7 0.267988 0.186831 0.229014
Si Si8 0.689578 0.814858 0.516972
O O1 0.218679 0.237542 0.172571
O O2 0.216753 0.000000 0.051016
O O3 0.135973 0.233146 0.062531
O O4 0.291189 0.247721 0.917891
O O5 0.160691 0.237945 0.838174
O O6 0.012350 0.263320 0.041405
O O7 0.087917 0.000000 0.994848
O O8 0.814891 0.769776 0.693757
O O9 0.733341 0.766148 0.583744
O O10 0.726725 0.000000 0.717915
O O11 0.350096 0.500000 0.780123
O O12 0.442310 0.264623 0.711408
O O13 0.483548 0.738322 0.868729
O O14 0.454713 0.000000 0.992141
O O15 0.360710 0.767935 0.120547
O O16 0.519287 0.500000 0.716021
O O17 0.598230 0.757275 0.614273
O O18 0.232223 0.251151 0.371563
O O19 0.265312 0.000000 0.235936
O O20 0.690019 0.000000 0.513132
#
# Coordination Sequence:
#
# PCOD9131847 Si02
#       8
#     4   4   4   4   4   4   4   4
#     4   9  18  34  54  79 109 143 180 223 274 322
#     4  10  19  31  54  84 110 138 179 228 274 322
#     4   9  18  34  53  77 110 144 178 220 274 324
#     4   9  18  32  54  82 108 138 177 225 273 320
#     4  11  21  35  56  81 111 145 182 227 275 323
#     4  11  21  34  56  84 112 141 182 230 273 323
#     4  10  22  39  57  77 109 149 185 224 274 327
#     4  11  23  37  56  80 111 148 185 225 273 329
#
# _framework density 17.606669
#
# number of rings (size 3 to 8) (size 9 to 14) (size 15 to 20)
#    0.000    2.000    2.500    1.500    0.000    3.000 
#    0.000    1.250    0.000    6.000    0.000    0.000 
#    0.000    0.000    0.000    0.000    0.000    0.000 
#
# Total GULP energy -89279.519353 kJ/mol
# GULP energy per Si atom -5579.969960 kJ/mol
# Density = 1.756660 g / cm^3
# Si number density = 17.606669 Si / 1000 Ang^3
#
#
#
# Elastic Constant Matrix: (Units=GPa)
#
#
# Indices 1 2 3 4 5 6 
#
# 1 153.0694 25.0304 73.7726 0.0000 20.2223 0.0000
# 2 25.0304 13.9064 22.4247 0.0000 4.3204 0.0000
# 3 73.7726 22.4247 115.0497 0.0000 15.2288 0.0000
# 4 0.0000 0.0000 0.0000 28.8304 0.0000 -0.9955
# 5 20.2223 4.3204 15.2288 0.0000 26.7136 0.0000
# 6 0.0000 0.0000 0.0000 -0.9955 0.0000 23.5397
#
#
#
# Elastic Compliance Matrix: (Units=1/GPa)
#
#
# Indices 1 2 3 4 5 6 
#
# 1 0.011037 -0.011757 -0.004252 0.000000 -0.004030 0.000000
# 2 -0.011757 0.118216 -0.015305 0.000000 -0.001494 0.000000
# 3 -0.004252 -0.015305 0.014762 0.000000 -0.002721 0.000000
# 4 0.000000 0.000000 0.000000 0.034736 0.000000 0.001469
# 5 -0.004030 -0.001494 -0.002721 0.000000 0.042277 0.000000
# 6 0.000000 0.000000 0.000000 0.001469 0.000000 0.042544
#
#
# Mechanical properties :
#
#
# Convention : Reuss Voigt Hill
#
# Bulk Modulus (GPa) = 12.28719 58.27567 35.28143
# Shear Modulus (GPa) = 14.15106 26.53660 20.34383
#
# Velocity S-wave (km/s) = 2.83809 3.88647 3.40290
# Velocity P-wave (km/s) = 4.21112 7.30137 5.96001
#
# Compressibility (1/GPa) = 0.08138560
#
# Stress axis : x y z
#
# Youngs Moduli (GPa) = 90.60101 8.45911 67.74164
#
# Poissons Ratio (x) = 0.09946 0.28806
# Poissons Ratio (y) = 1.06523 1.03679
# Poissons Ratio (z) = 0.38527 0.12947
#
# Static dielectric constant tensor:
#      x y z
#    x 1.639940 0.000000 0.021360 
#    y 0.000000 1.597020 0.000000 
#    z 0.021360 0.000000 1.552860 
# 
# From -- ./inp_files/22939.got.cif
#   From: 2010.05.17/outbox.cif.g08.bks.cpg/sg8_12_cif.got.tgz:22939.got - 2010.06.03 19:46:02.
