data_PCOD9131176
_publ_section_title
;
Structure prediction by ZEFSAII (Michael W. Deem and Ramdas Pophale) SiO2 
 PCOD9131176
Probable space group: P M
;
_chemical_formula_sum "Si O2"
_cell_formula_units_Z 16
_cell_length_a 5.379837
_cell_length_b 22.830217
_cell_length_c 5.379832
_cell_angle_alpha 90.000000
_cell_angle_beta 84.688835
_cell_angle_gamma 90.000000
_cell_volume 657.929396
_symmetry_space_group_name_H-M "P M"
_symmetry_group_IT_number 6
_symmetry_cell_setting 'monoclinic'
loop_
_space_group_symop_operation_xyz
x,y,z
x,-y,z
loop_
_atom_site_type_symbol
_atom_site_label
_atom_site_fract_x
_atom_site_fract_y
_atom_site_fract_z
Si Si1 0.514120 0.931171 0.127790
Si Si2 0.896009 0.840631 0.998598
Si Si3 0.034694 0.262813 0.260348
Si Si4 0.466268 0.431171 0.175643
Si Si5 0.598822 0.237187 0.696219
Si Si6 0.968824 0.378396 0.961559
Si Si7 0.337073 0.340631 0.557532
Si Si8 0.300035 0.121604 0.630346
O O1 0.337688 0.914065 0.375094
O O2 0.559291 0.000000 0.120332
O O3 0.764774 0.893417 0.149357
O O4 0.412184 0.910892 0.866173
O O5 0.694223 0.792357 0.939136
O O6 0.017239 0.866012 0.737874
O O7 0.088397 0.799352 0.125751
O O8 0.832006 0.250000 0.493532
O O9 0.937322 0.314905 0.091995
O O10 0.277612 0.292357 0.355747
O O11 0.458809 0.500000 0.220817
O O12 0.713573 0.414066 0.999212
O O13 0.487833 0.393416 0.426296
O O14 0.204653 0.410893 0.073705
O O15 0.464228 0.299353 0.749922
O O16 0.430466 0.185096 0.598847
O O17 0.076351 0.366011 0.678763
#
# Coordination Sequence:
#
# PCOD9131176 Si02
#       8
#     2   2   2   2   2   2   2   2
#     4  11  26  47  70 104 146 195 254 314 371 456
#     4  11  26  43  72 104 145 186 242 307 384 453
#     4  11  22  41  68 105 142 183 234 303 379 450
#     4  11  26  47  70 104 146 195 254 314 371 456
#     4  11  22  41  68 105 142 183 234 303 379 450
#     4  11  25  44  73 103 145 192 246 304 382 452
#     4  11  26  43  72 104 145 186 242 307 384 453
#     4  11  25  44  73 103 145 192 246 304 382 452
#
# _framework density 24.318718000000001
#
# number of rings (size 3 to 8) (size 9 to 14) (size 15 to 20)
#    0.000    1.000    2.500    3.000    7.000    2.000 
#    0.000    0.000    0.000    0.000    0.000    0.000 
#    0.000    0.000    0.000    0.000    0.000    0.000 
#
# Total GULP energy -89579.420114 kJ/mol
# GULP energy per Si atom -5598.713757 kJ/mol
# Density = 2.426337 g / cm^3
# Si number density = 24.318718 Si / 1000 Ang^3
#
#
#
# Elastic Constant Matrix: (Units=GPa)
#
#
# Indices 1 2 3 4 5 6 
#
# 1 90.0301 57.6155 27.8823 0.0000 -12.8681 0.0000
# 2 57.6155 218.9719 60.9382 0.0000 -9.4243 0.0000
# 3 27.8823 60.9382 100.2725 0.0000 -16.1834 0.0000
# 4 0.0000 0.0000 0.0000 29.0749 0.0000 -1.1146
# 5 -12.8681 -9.4243 -16.1834 0.0000 42.7448 0.0000
# 6 0.0000 0.0000 0.0000 -1.1146 0.0000 28.6826
#
#
#
# Elastic Compliance Matrix: (Units=1/GPa)
#
#
# Indices 1 2 3 4 5 6 
#
# 1 0.014005 -0.003137 -0.001511 0.000000 0.002952 0.000000
# 2 -0.003137 0.006199 -0.003011 0.000000 -0.000718 0.000000
# 3 -0.001511 -0.003011 0.012826 0.000000 0.003737 0.000000
# 4 0.000000 0.000000 0.000000 0.034445 0.000000 0.001339
# 5 0.002952 -0.000718 0.003737 0.000000 0.025540 0.000000
# 6 0.000000 0.000000 0.000000 0.001339 0.000000 0.034916
#
#
# Mechanical properties :
#
#
# Convention : Reuss Voigt Hill
#
# Bulk Modulus (GPa) = 56.46040 78.01626 67.23833
# Shear Modulus (GPa) = 33.52214 37.62303 35.57259
#
# Velocity S-wave (km/s) = 3.71678 3.93756 3.82876
# Velocity P-wave (km/s) = 6.45651 7.26794 6.87421
#
# Compressibility (1/GPa) = 0.01771153
#
# Stress axis : x y z
#
# Youngs Moduli (GPa) = 71.40212 161.30765 77.96660
#
# Poissons Ratio (x) = 0.50609 0.11782
# Poissons Ratio (y) = 0.22402 0.23475
# Poissons Ratio (z) = 0.10790 0.48568
#
# Static dielectric constant tensor:
#      x y z
#    x 2.048660 0.000000 0.086380 
#    y 0.000000 1.855310 0.000000 
#    z 0.086380 0.000000 2.018200 
# 
# From -- ./inp_files/614.got.cif
#   From: 2010.05.17/outbox.cif.g08.bks.cpg/sg6_1_cif.got.tgz:614.got - 2010.06.03 19:42:10.
