data_PCOD9131739
_publ_section_title
;
Structure prediction by ZEFSAII (Michael W. Deem and Ramdas Pophale) SiO2 
 PCOD9131739
Probable space group: C M
;
_chemical_formula_sum "Si O2"
_cell_formula_units_Z 24
_cell_length_a 7.351234
_cell_length_b 23.592177
_cell_length_c 6.852384
_cell_angle_alpha 90.000000
_cell_angle_beta 57.095885
_cell_angle_gamma 90.000000
_cell_volume 997.774688
_symmetry_space_group_name_H-M "C M"
_symmetry_group_IT_number 8
_symmetry_cell_setting 'monoclinic'
loop_
_space_group_symop_operation_xyz
x,y,z
x,-y,z
1/2+x,1/2+y,z
1/2+x,1/2-y,z
loop_
_atom_site_type_symbol
_atom_site_label
_atom_site_fract_x
_atom_site_fract_y
_atom_site_fract_z
Si Si1 0.851540 0.711606 0.778180
Si Si2 0.205558 0.128253 0.561908
Si Si3 0.067691 0.115259 0.070640
Si Si4 0.268725 0.665118 0.737626
Si Si5 0.613465 0.935532 0.401846
Si Si6 0.992725 0.437115 0.934451
O O1 0.675419 0.677954 0.012597
O O2 0.805692 0.687318 0.587250
O O3 0.827532 0.778145 0.822564
O O4 0.089542 0.689404 0.693945
O O5 0.096263 0.102311 0.821735
O O6 0.405522 0.087147 0.403532
O O7 0.004408 0.141200 0.538318
O O8 0.237421 0.076032 0.087660
O O9 0.821281 0.104142 0.261733
O O10 0.140923 0.614738 0.919550
O O11 0.546484 0.935494 0.669194
O O12 0.670930 0.000000 0.318668
O O13 0.045023 0.500000 0.973235
#
# Coordination Sequence:
#
# PCOD9131739 Si02
#       6
#     4   4   4   4   4   4
#     4   9  18  33  59  80 106 151 183 226 289 319
#     4   9  20  33  56  82 112 143 190 226 285 326
#     4   8  17  34  56  79 112 144 186 229 278 328
#     4  11  17  35  63  78 115 149 184 240 276 332
#     4  10  18  34  58  84 116 151 187 231 280 339
#     4   9  19  33  56  87 114 152 188 224 286 334
#
# _framework density 24.053526999999999
#
# number of rings (size 3 to 8) (size 9 to 14) (size 15 to 20)
#    1.000    1.667    3.333    0.500    0.000    1.333 
#    0.000    3.333   22.000    0.000    0.000    0.000 
#    0.000    0.000    0.000    0.000    0.000    0.000 
#
# Total GULP energy -66912.730642 kJ/mol
# GULP energy per Si atom -5576.060887 kJ/mol
# Density = 2.399878 g / cm^3
# Si number density = 24.053527 Si / 1000 Ang^3
#
#
#
# Elastic Constant Matrix: (Units=GPa)
#
#
# Indices 1 2 3 4 5 6 
#
# 1 143.5988 34.5744 43.5347 0.0000 -46.7548 0.0000
# 2 34.5744 169.2098 31.9407 0.0000 -31.2750 0.0000
# 3 43.5347 31.9407 103.5970 0.0000 -36.3856 0.0000
# 4 0.0000 0.0000 0.0000 21.7909 0.0000 -12.0198
# 5 -46.7548 -31.2750 -36.3856 0.0000 52.8660 0.0000
# 6 0.0000 0.0000 0.0000 -12.0198 0.0000 22.5822
#
#
#
# Elastic Compliance Matrix: (Units=1/GPa)
#
#
# Indices 1 2 3 4 5 6 
#
# 1 0.009959 -0.000361 -0.001392 0.000000 0.007636 0.000000
# 2 -0.000361 0.006710 -0.000837 0.000000 0.003074 0.000000
# 3 -0.001392 -0.000837 0.013042 0.000000 0.007250 0.000000
# 4 0.000000 0.000000 0.000000 0.064964 0.000000 0.034578
# 5 0.007636 0.003074 0.007250 0.000000 0.032478 0.000000
# 6 0.000000 0.000000 0.000000 0.034578 0.000000 0.062687
#
#
# Mechanical properties :
#
#
# Convention : Reuss Voigt Hill
#
# Bulk Modulus (GPa) = 40.76456 70.72278 55.74367
# Shear Modulus (GPa) = 24.60663 39.87156 32.23909
#
# Velocity S-wave (km/s) = 3.20190 4.07580 3.66499
# Velocity P-wave (km/s) = 5.53658 7.18440 6.41363
#
# Compressibility (1/GPa) = 0.02453111
#
# Stress axis : x y z
#
# Youngs Moduli (GPa) = 100.41132 149.03607 76.67369
#
# Poissons Ratio (x) = 0.05376 0.10671
# Poissons Ratio (y) = 0.03622 0.06421
# Poissons Ratio (z) = 0.13975 0.12482
#
# Static dielectric constant tensor:
#      x y z
#    x 1.999270 0.000000 0.082900 
#    y 0.000000 1.902360 0.000000 
#    z 0.082900 0.000000 1.934790 
# 
# From -- ./inp_files/19308.got.cif
#   From: 2010.05.17/outbox.cif.g08.bks.cpg/sg8_10_cif.got.tgz:19308.got - 2010.06.03 19:46:02.
