data_PCOD9131626
_publ_section_title
;
Structure prediction by ZEFSAII (Michael W. Deem and Ramdas Pophale) SiO2 
 PCOD9131626
Probable space group: C M
;
_chemical_formula_sum "Si O2"
_cell_formula_units_Z 26
_cell_length_a 13.959677
_cell_length_b 14.283082
_cell_length_c 11.390193
_cell_angle_alpha 90.000000
_cell_angle_beta 31.519458
_cell_angle_gamma 90.000000
_cell_volume 1187.282516
_symmetry_space_group_name_H-M "C M"
_symmetry_group_IT_number 8
_symmetry_cell_setting 'monoclinic'
loop_
_space_group_symop_operation_xyz
x,y,z
x,-y,z
1/2+x,1/2+y,z
1/2+x,1/2-y,z
loop_
_atom_site_type_symbol
_atom_site_label
_atom_site_fract_x
_atom_site_fract_y
_atom_site_fract_z
Si Si1 0.966460 0.000000 0.644691
Si Si2 0.257385 0.686030 0.639713
Si Si3 0.880706 0.787136 0.066723
Si Si4 0.258658 0.000000 0.151312
Si Si5 0.442289 0.390680 0.216276
Si Si6 0.559316 0.296616 0.528105
Si Si7 0.105167 0.500000 0.914355
Si Si8 0.801009 0.681163 0.941892
O O1 0.031069 0.102292 0.619721
O O2 0.744734 0.000000 0.877686
O O3 0.053993 0.000000 0.419003
O O4 0.332075 0.663624 0.432740
O O5 0.425527 0.704043 0.553308
O O6 0.164721 0.591518 0.782362
O O7 0.090905 0.759664 0.821015
O O8 0.874740 0.878529 0.153395
O O9 0.768057 0.716486 0.270335
O O10 0.775625 0.770894 0.054022
O O11 0.301391 0.909674 0.026189
O O12 0.386902 0.000000 0.133270
O O13 0.453206 0.500000 0.235493
O O14 0.640326 0.341148 0.019672
O O15 0.482733 0.209349 0.682349
#
# Coordination Sequence:
#
# PCOD9131626 Si02
#       8
#     2   4   4   2   4   4   2   4
#     4  10  20  40  64  89 131 171 222 281 327 392
#     4  11  20  38  65  95 129 170 224 276 329 393
#     4  12  24  41  66  98 136 177 219 282 345 400
#     4  12  20  38  66  94 123 174 228 279 324 391
#     4  12  25  44  71 103 136 180 230 286 337 407
#     4  11  23  40  63 101 135 176 225 282 339 400
#     4  10  18  30  60  93 114 149 214 272 311 369
#     4  12  23  41  68  98 139 175 225 283 339 401
#
# _framework density 21.898748000000001
#
# number of rings (size 3 to 8) (size 9 to 14) (size 15 to 20)
#    0.000    0.615    7.692    1.846    0.000    0.000 
#    1.385    0.000    0.000    0.000    2.000    0.000 
#    0.000    0.000    0.000    0.000    0.000    0.000 
#
# Total GULP energy -72427.349128 kJ/mol
# GULP energy per Si atom -5571.334548 kJ/mol
# Density = 2.184891 g / cm^3
# Si number density = 21.898748 Si / 1000 Ang^3
#
#
#
# Elastic Constant Matrix: (Units=GPa)
#
#
# Indices 1 2 3 4 5 6 
#
# 1 66.7935 16.1156 8.7423 -0.0010 -4.1479 0.0006
# 2 16.1156 66.1648 35.3785 -0.0005 7.7679 0.0004
# 3 8.7423 35.3785 94.6659 -0.0016 -2.5165 0.0014
# 4 -0.0010 -0.0005 -0.0016 27.7230 0.0011 1.3751
# 5 -4.1479 7.7679 -2.5165 0.0011 33.1860 -0.0009
# 6 0.0006 0.0004 0.0014 1.3751 -0.0009 30.1454
#
#
#
# Elastic Compliance Matrix: (Units=1/GPa)
#
#
# Indices 1 2 3 4 5 6 
#
# 1 0.016202 -0.004439 0.000245 0.000000 0.003083 0.000000
# 2 -0.004439 0.020958 -0.007583 0.000000 -0.006036 0.000000
# 3 0.000245 -0.007583 0.013450 0.000001 0.002825 0.000000
# 4 0.000000 0.000000 0.000001 0.036153 -0.000001 -0.001649
# 5 0.003083 -0.006036 0.002825 -0.000001 0.032146 0.000001
# 6 0.000000 0.000000 0.000000 -0.001649 0.000001 0.033248
#
#
# Mechanical properties :
#
#
# Convention : Reuss Voigt Hill
#
# Bulk Modulus (GPa) = 36.96122 38.67742 37.81932
# Shear Modulus (GPa) = 27.06660 29.37007 28.21833
#
# Velocity S-wave (km/s) = 3.51948 3.66618 3.59358
# Velocity P-wave (km/s) = 5.78191 5.96837 5.87588
#
# Compressibility (1/GPa) = 0.02705539
#
# Stress axis : x y z
#
# Youngs Moduli (GPa) = 61.72094 47.71395 74.35000
#
# Poissons Ratio (x) = 0.21180 -0.01819
# Poissons Ratio (y) = 0.27398 0.56380
# Poissons Ratio (z) = -0.01510 0.36182
#
# Static dielectric constant tensor:
#      x y z
#    x 1.906190 0.000000 -0.027670 
#    y 0.000000 1.826130 0.000000 
#    z -0.027670 0.000000 1.810830 
# 
# From -- ./inp_files/22210.got.cif
#   From: 2010.05.17/outbox.cif.g08.bks.cpg/sg8_12_cif.got.tgz:22210.got - 2010.06.03 19:46:02.
