data_PCOD9131281
_publ_section_title
;
Structure prediction by ZEFSAII (Michael W. Deem and Ramdas Pophale) SiO2 
 PCOD9131281
Probable space group: P C
;
_chemical_formula_sum "Si O2"
_cell_formula_units_Z 14
_cell_length_a 15.616853
_cell_length_b 8.013245
_cell_length_c 5.289176
_cell_angle_alpha 90.000000
_cell_angle_beta 80.723702
_cell_angle_gamma 90.000000
_cell_volume 653.240354
_symmetry_space_group_name_H-M "P C"
_symmetry_group_IT_number 7
_symmetry_cell_setting 'monoclinic'
loop_
_space_group_symop_operation_xyz
x,y,z
x,-y,1/2+z
loop_
_atom_site_type_symbol
_atom_site_label
_atom_site_fract_x
_atom_site_fract_y
_atom_site_fract_z
Si Si1 0.872630 0.540216 0.511380
Si Si2 0.410832 0.614895 0.229960
Si Si3 0.258440 0.883752 0.288193
Si Si4 0.563505 0.112201 0.655834
Si Si5 0.872899 0.894211 0.487091
Si Si6 0.687202 0.598901 0.098222
Si Si7 0.069112 0.101865 0.966589
O O1 0.924170 0.498609 0.237147
O O2 0.825853 0.719108 0.529895
O O3 0.791578 0.412462 0.548979
O O4 0.412334 0.501065 0.480307
O O5 0.327027 0.735480 0.267361
O O6 0.491668 0.742232 0.190433
O O7 0.159962 0.812854 0.357040
O O8 0.268539 0.010033 0.523373
O O9 0.653602 0.213407 0.613322
O O10 0.555171 0.000235 0.409572
O O11 0.973475 0.829803 0.455802
O O12 0.858753 0.011723 0.732853
O O13 0.656651 0.500298 0.363023
O O14 0.070634 0.948224 0.761765
#
# Coordination Sequence:
#
# PCOD9131281 Si02
#       7
#     2   2   2   2   2   2   2
#     4  10  21  38  56  79 114 150 180 227 293 341
#     4  12  24  39  59  86 121 153 181 231 289 335
#     4  10  19  36  58  83 114 153 195 233 271 328
#     4  12  24  41  64  88 109 146 197 236 271 336
#     4  10  19  35  58  85 110 147 197 236 271 331
#     4  10  21  41  60  81 115 147 177 227 293 341
#     4   8  16  30  53  80 111 146 187 236 278 312
#
# _framework density 21.431621
#
# number of rings (size 3 to 8) (size 9 to 14) (size 15 to 20)
#    0.000    1.714    0.000    5.143    0.000    0.000 
#    0.000   18.571    0.000    0.000    0.000    0.000 
#    0.000    0.000    0.000    0.000    0.000    0.000 
#
# Total GULP energy -78141.241280 kJ/mol
# GULP energy per Si atom -5581.517234 kJ/mol
# Density = 2.138284 g / cm^3
# Si number density = 21.431621 Si / 1000 Ang^3
#
#
#
# Elastic Constant Matrix: (Units=GPa)
#
#
# Indices 1 2 3 4 5 6 
#
# 1 41.9974 4.9666 6.9079 0.0000 2.5013 0.0000
# 2 4.9666 91.7249 71.7918 0.0000 11.0113 0.0000
# 3 6.9079 71.7918 209.5582 0.0000 26.3079 0.0000
# 4 0.0000 0.0000 0.0000 48.8418 0.0000 7.3761
# 5 2.5013 11.0113 26.3079 0.0000 15.8300 0.0000
# 6 0.0000 0.0000 0.0000 7.3761 0.0000 13.2170
#
#
#
# Elastic Compliance Matrix: (Units=1/GPa)
#
#
# Indices 1 2 3 4 5 6 
#
# 1 0.024111 -0.000844 -0.000128 0.000000 -0.003010 0.000000
# 2 -0.000844 0.014997 -0.004823 0.000000 -0.002282 0.000000
# 3 -0.000128 -0.004823 0.007588 0.000000 -0.009235 0.000000
# 4 0.000000 0.000000 0.000000 0.022359 0.000000 -0.012478
# 5 -0.003010 -0.002282 -0.009235 0.000000 0.080582 0.000000
# 6 0.000000 0.000000 0.000000 -0.012478 0.000000 0.082624
#
#
# Mechanical properties :
#
#
# Convention : Reuss Voigt Hill
#
# Bulk Modulus (GPa) = 28.48556 56.73480 42.61018
# Shear Modulus (GPa) = 19.56541 32.88540 26.22540
#
# Velocity S-wave (km/s) = 3.02474 3.92143 3.50191
# Velocity P-wave (km/s) = 5.05163 6.85810 6.02297
#
# Compressibility (1/GPa) = 0.03510550
#
# Stress axis : x y z
#
# Youngs Moduli (GPa) = 41.47466 66.67952 131.78749
#
# Poissons Ratio (x) = 0.05629 0.01682
# Poissons Ratio (y) = 0.03501 0.63567
# Poissons Ratio (z) = 0.00529 0.32162
#
# Static dielectric constant tensor:
#      x y z
#    x 1.859400 0.000000 0.002510 
#    y 0.000000 1.756940 0.000000 
#    z 0.002510 0.000000 1.864130 
# 
# From -- ./inp_files/1332.got.cif
#   From: 2010.05.17/outbox.cif.g08.bks.cpg/sg7_cif.got.tgz:1332.got - 2010.06.03 19:44:50.
