data_PCOD9131025
_publ_section_title
;
Structure prediction by ZEFSAII (Michael W. Deem and Ramdas Pophale) SiO2 
 PCOD9131025
Probable space group: P M
;
_chemical_formula_sum "Si O2"
_cell_formula_units_Z 16
_cell_length_a 9.804917
_cell_length_b 8.099534
_cell_length_c 19.898911
_cell_angle_alpha 90.000000
_cell_angle_beta 151.517818
_cell_angle_gamma 90.000000
_cell_volume 753.611171
_symmetry_space_group_name_H-M "P M"
_symmetry_group_IT_number 6
_symmetry_cell_setting 'monoclinic'
loop_
_space_group_symop_operation_xyz
x,y,z
x,-y,z
loop_
_atom_site_type_symbol
_atom_site_label
_atom_site_fract_x
_atom_site_fract_y
_atom_site_fract_z
Si Si1 0.283190 0.697155 0.007920
Si Si2 0.333526 0.305792 0.315873
Si Si3 0.812731 0.189738 0.617866
Si Si4 0.139808 0.307617 0.562658
Si Si5 0.512479 0.193825 0.251778
Si Si6 0.366160 0.688117 0.800375
Si Si7 0.649732 0.193936 0.696266
Si Si8 0.703133 0.702309 0.069656
O O1 0.259444 0.500000 0.991491
O O2 0.416499 0.739062 0.137933
O O3 0.494793 0.756523 0.039582
O O4 0.965394 0.769544 0.861863
O O5 0.374615 0.500000 0.346920
O O6 0.593030 0.209571 0.462088
O O7 0.344388 0.277577 0.240779
O O8 0.034099 0.252368 0.218909
O O9 0.663871 0.231546 0.623349
O O10 0.079640 0.307204 0.720737
O O11 0.914524 0.000000 0.666157
O O12 0.066056 0.500000 0.543561
O O13 0.268734 0.234307 0.687886
O O14 0.397215 0.293328 0.621847
O O15 0.849495 0.225171 0.411304
O O16 0.455612 0.000000 0.229138
O O17 0.456441 0.500000 0.824178
O O18 0.597517 0.763094 0.950782
O O19 0.587756 0.000000 0.678146
O O20 0.690639 0.500000 0.062661
#
# Coordination Sequence:
#
# PCOD9131025 Si02
#       8
#     2   2   2   2   2   2   2   2
#     4  11  23  43  68  94 125 169 217 264 314 380
#     4  11  23  41  66  95 125 165 215 265 313 380
#     4  11  23  40  63  92 127 167 208 259 322 380
#     4  11  24  41  67  97 124 168 219 264 314 380
#     4  12  26  44  63  92 133 171 207 264 327 383
#     4  10  20  40  67  93 121 159 209 266 318 372
#     4  11  25  43  63  95 133 170 210 263 325 381
#     4   9  21  40  65  96 124 157 209 265 315 366
#
# _framework density 21.231107000000002
#
# number of rings (size 3 to 8) (size 9 to 14) (size 15 to 20)
#    0.000    1.250    2.500    3.000    3.500    2.000 
#    0.000    3.125    0.000    0.000    0.000    0.000 
#    0.000    0.000    0.000    0.000    0.000    0.000 
#
# Total GULP energy -89421.627437 kJ/mol
# GULP energy per Si atom -5588.851715 kJ/mol
# Density = 2.118278 g / cm^3
# Si number density = 21.231107 Si / 1000 Ang^3
#
#
#
# Elastic Constant Matrix: (Units=GPa)
#
#
# Indices 1 2 3 4 5 6 
#
# 1 68.9770 -4.8765 7.2835 0.0000 -7.3975 0.0000
# 2 -4.8765 29.4695 -14.1273 0.0000 -0.2112 0.0000
# 3 7.2835 -14.1273 56.0765 0.0000 -7.1677 0.0000
# 4 0.0000 0.0000 0.0000 18.1006 0.0000 -3.0718
# 5 -7.3975 -0.2112 -7.1677 0.0000 42.8878 0.0000
# 6 0.0000 0.0000 0.0000 -3.0718 0.0000 25.7246
#
#
#
# Elastic Compliance Matrix: (Units=1/GPa)
#
#
# Indices 1 2 3 4 5 6 
#
# 1 0.015015 0.001950 -0.001151 0.000000 0.002407 0.000000
# 2 0.001950 0.038993 0.009848 0.000000 0.002174 0.000000
# 3 -0.001151 0.009848 0.020890 0.000000 0.003341 0.000000
# 4 0.000000 0.000000 0.000000 0.056390 0.000000 0.006734
# 5 0.002407 0.002174 0.003341 0.000000 0.024301 0.000000
# 6 0.000000 0.000000 0.000000 0.006734 0.000000 0.039677
#
#
# Mechanical properties :
#
#
# Convention : Reuss Voigt Hill
#
# Bulk Modulus (GPa) = 10.39591 14.56471 12.48031
# Shear Modulus (GPa) = 24.26750 28.42548 26.34649
#
# Velocity S-wave (km/s) = 3.38452 3.66301 3.52652
# Velocity P-wave (km/s) = 4.49227 4.97646 4.74055
#
# Compressibility (1/GPa) = 0.09619170
#
# Stress axis : x y z
#
# Youngs Moduli (GPa) = 66.59934 25.64580 47.86888
#
# Poissons Ratio (x) = -0.05001 0.05511
# Poissons Ratio (y) = -0.12987 -0.47141
# Poissons Ratio (z) = 0.07668 -0.25256
#
# Static dielectric constant tensor:
#      x y z
#    x 1.753010 0.000000 -0.022150 
#    y 0.000000 1.767390 0.000000 
#    z -0.022150 0.000000 1.745360 
# 
# From -- ./inp_files/3702.got.cif
#   From: 2010.05.17/outbox.cif.g08.bks.cpg/sg6_2_cif.got.tgz:3702.got - 2010.06.03 19:42:10.
