data_PCOD9131934
_publ_section_title
;
Structure prediction by ZEFSAII (Michael W. Deem and Ramdas Pophale) SiO2 
 PCOD9131934
Probable space group: C M
;
_chemical_formula_sum "Si O2"
_cell_formula_units_Z 32
_cell_length_a 27.553611
_cell_length_b 9.304592
_cell_length_c 13.467590
_cell_angle_alpha 90.000000
_cell_angle_beta 30.653396
_cell_angle_gamma 90.000000
_cell_volume 1760.364102
_symmetry_space_group_name_H-M "C M"
_symmetry_group_IT_number 8
_symmetry_cell_setting 'monoclinic'
loop_
_space_group_symop_operation_xyz
x,y,z
x,-y,z
1/2+x,1/2+y,z
1/2+x,1/2-y,z
loop_
_atom_site_type_symbol
_atom_site_label
_atom_site_fract_x
_atom_site_fract_y
_atom_site_fract_z
Si Si1 0.424780 0.834824 0.773530
Si Si2 0.845362 0.334166 0.706486
Si Si3 0.829255 0.828425 0.345058
Si Si4 0.436382 0.329425 0.950050
Si Si5 0.633960 0.671257 0.057117
Si Si6 0.021872 0.169127 0.440730
Si Si7 0.108125 0.332151 0.741144
Si Si8 0.999148 0.667016 0.143088
O O1 0.343912 0.833053 0.830149
O O2 0.400548 0.747273 0.913812
O O3 0.511301 0.758975 0.560611
O O4 0.446258 0.000000 0.759318
O O5 0.868434 0.500000 0.638232
O O6 0.930770 0.224612 0.536628
O O7 0.743700 0.292977 0.842904
O O8 0.718516 0.787755 0.547970
O O9 0.899438 0.745100 0.295668
O O10 0.836922 0.000000 0.349359
O O11 0.869450 0.800303 0.163248
O O12 0.442036 0.500000 0.926672
O O13 0.539992 0.263582 0.792604
O O14 0.621801 0.500000 0.062819
O O15 0.610640 0.698526 0.213882
O O16 0.561223 0.757131 0.117658
O O17 0.014560 0.000000 0.473722
O O18 0.103968 0.500000 0.717165
O O19 0.061919 0.323248 0.931803
O O20 0.983170 0.500000 0.193973
#
# Coordination Sequence:
#
# PCOD9131934 Si02
#       8
#     4   4   4   4   4   4   4   4
#     4   9  18  35  55  74 106 143 171 210 261 305
#     4   8  18  35  52  72 102 139 173 209 257 305
#     4   9  19  37  57  77 105 138 172 212 259 311
#     4  10  19  33  55  81 106 134 173 215 257 306
#     4  10  20  36  55  75 104 142 176 211 260 310
#     4   9  18  33  53  75 101 133 174 218 254 298
#     4   9  19  37  56  76 105 138 172 212 259 311
#     4  10  21  34  53  80 107 135 173 217 259 306
#
# _framework density 18.178056999999999
#
# number of rings (size 3 to 8) (size 9 to 14) (size 15 to 20)
#    0.750    2.000    0.000    1.125    0.000    4.000 
#    2.250    3.750    0.000    0.000    0.000    0.000 
#    0.000    0.000    0.000    0.000    0.000    0.000 
#
# Total GULP energy -89093.360787 kJ/mol
# GULP energy per Si atom -5568.335049 kJ/mol
# Density = 1.813668 g / cm^3
# Si number density = 18.178057 Si / 1000 Ang^3
#
#
#
# Elastic Constant Matrix: (Units=GPa)
#
#
# Indices 1 2 3 4 5 6 
#
# 1 38.8710 13.4224 4.1101 0.0000 -3.6346 0.0000
# 2 13.4224 46.7665 19.0734 0.0000 -0.0006 0.0000
# 3 4.1101 19.0734 58.6461 0.0000 -21.3498 0.0000
# 4 0.0000 0.0000 0.0000 21.3332 0.0000 -0.4498
# 5 -3.6346 -0.0006 -21.3498 0.0000 19.4824 0.0000
# 6 0.0000 0.0000 0.0000 -0.4498 0.0000 31.9227
#
#
#
# Elastic Compliance Matrix: (Units=1/GPa)
#
#
# Indices 1 2 3 4 5 6 
#
# 1 0.030030 -0.011003 0.005845 0.000000 0.012007 0.000000
# 2 -0.011003 0.031468 -0.016987 0.000000 -0.020667 0.000000
# 3 0.005845 -0.016987 0.037539 0.000000 0.042227 0.000000
# 4 0.000000 0.000000 0.000000 0.046889 0.000000 0.000661
# 5 0.012007 -0.020667 0.042227 0.000000 0.099842 0.000000
# 6 0.000000 0.000000 0.000000 0.000661 0.000000 0.031335
#
#
# Mechanical properties :
#
#
# Convention : Reuss Voigt Hill
#
# Bulk Modulus (GPa) = 18.26552 24.16618 21.21585
# Shear Modulus (GPa) = 14.72135 21.72618 18.22376
#
# Velocity S-wave (km/s) = 2.84886 3.46090 3.16969
# Velocity P-wave (km/s) = 4.57070 5.41234 5.00923
#
# Compressibility (1/GPa) = 0.05474798
#
# Stress axis : x y z
#
# Youngs Moduli (GPa) = 33.29999 31.77781 26.63895
#
# Poissons Ratio (x) = 0.34964 -0.15570
# Poissons Ratio (y) = 0.36639 0.45252
# Poissons Ratio (z) = -0.19463 0.53981
#
# Static dielectric constant tensor:
#      x y z
#    x 1.622570 0.000000 0.019800 
#    y 0.000000 1.608100 0.000000 
#    z 0.019800 0.000000 1.625960 
# 
# From -- ./inp_files/28381.got.cif
#   From: 2010.05.17/outbox.cif.g08.bks.cpg/sg8_15_cif.got.tgz:28381.got - 2010.06.03 19:46:02.
