data_PCOD9131812
_publ_section_title
;
Structure prediction by ZEFSAII (Michael W. Deem and Ramdas Pophale) SiO2 
 PCOD9131812
Probable space group: C M
;
_chemical_formula_sum "Si O2"
_cell_formula_units_Z 32
_cell_length_a 18.714325
_cell_length_b 12.752367
_cell_length_c 6.643122
_cell_angle_alpha 90.000000
_cell_angle_beta 93.542791
_cell_angle_gamma 90.000000
_cell_volume 1582.364152
_symmetry_space_group_name_H-M "C M"
_symmetry_group_IT_number 8
_symmetry_cell_setting 'monoclinic'
loop_
_space_group_symop_operation_xyz
x,y,z
x,-y,z
1/2+x,1/2+y,z
1/2+x,1/2-y,z
loop_
_atom_site_type_symbol
_atom_site_label
_atom_site_fract_x
_atom_site_fract_y
_atom_site_fract_z
Si Si1 0.683130 0.183257 0.895140
Si Si2 0.327378 0.885033 0.007919
Si Si3 0.224728 0.214837 0.299475
Si Si4 0.972482 0.792906 0.653488
Si Si5 0.031821 0.384952 0.935570
Si Si6 0.966095 0.616525 0.316317
Si Si7 0.628715 0.622116 0.626334
Si Si8 0.815584 0.800771 0.683665
O O1 0.610731 0.119323 0.857448
O O2 0.663865 0.297723 0.794095
O O3 0.752099 0.139349 0.790161
O O4 0.698411 0.199635 0.133355
O O5 0.265571 0.866206 0.161575
O O6 0.399231 0.877447 0.152630
O O7 0.321376 0.000000 0.916308
O O8 0.325921 0.799677 0.832469
O O9 0.162270 0.161947 0.420690
O O10 0.281518 0.263593 0.467009
O O11 0.963897 0.709954 0.470976
O O12 0.895221 0.846691 0.670889
O O13 0.991478 0.715873 0.842182
O O14 0.042829 0.861988 0.624445
O O15 0.999667 0.500000 0.886800
O O16 0.033130 0.375409 0.177241
O O17 0.965460 0.500000 0.409657
O O18 0.646315 0.500000 0.662134
#
# Coordination Sequence:
#
# PCOD9131812 Si02
#       8
#     4   4   4   4   4   4   4   4
#     4   9  21  37  55  78 105 140 178 215 260 310
#     4  10  19  29  47  78 110 134 165 209 262 320
#     4  10  19  35  54  75 105 139 174 213 267 308
#     4  11  20  35  55  79 109 140 172 215 266 311
#     4  10  20  36  56  79 108 138 173 217 261 313
#     4  10  19  30  50  82 109 134 165 205 264 322
#     4  10  22  37  54  76 105 142 183 219 253 303
#     4  10  20  33  52  79 105 139 172 213 263 311
#
# _framework density 20.222905999999998
#
# number of rings (size 3 to 8) (size 9 to 14) (size 15 to 20)
#    0.000    2.000    2.500    1.500    0.000    6.000 
#    0.000    0.625    0.000    0.750    0.000    0.000 
#    0.000    0.000    0.000    0.000    0.000    0.000 
#
# Total GULP energy -89200.962329 kJ/mol
# GULP energy per Si atom -5575.060146 kJ/mol
# Density = 2.017688 g / cm^3
# Si number density = 20.222906 Si / 1000 Ang^3
#
#
#
# Elastic Constant Matrix: (Units=GPa)
#
#
# Indices 1 2 3 4 5 6 
#
# 1 142.2409 0.4172 15.4464 0.0000 -22.6339 0.0000
# 2 0.4172 31.3922 8.3294 0.0000 -0.9091 0.0000
# 3 15.4464 8.3294 86.3498 0.0000 -3.4153 0.0000
# 4 0.0000 0.0000 0.0000 6.7625 0.0000 0.3760
# 5 -22.6339 -0.9091 -3.4153 0.0000 29.8112 0.0000
# 6 0.0000 0.0000 0.0000 0.3760 0.0000 8.8939
#
#
#
# Elastic Compliance Matrix: (Units=1/GPa)
#
#
# Indices 1 2 3 4 5 6 
#
# 1 0.008126 0.000399 -0.001253 0.000000 0.006038 0.000000
# 2 0.000399 0.032724 -0.003191 0.000000 0.000936 0.000000
# 3 -0.001253 -0.003191 0.012126 0.000000 0.000340 0.000000
# 4 0.000000 0.000000 0.000000 0.148223 0.000000 -0.006267
# 5 0.006038 0.000936 0.000340 0.000000 0.038196 0.000000
# 6 0.000000 0.000000 0.000000 -0.006267 0.000000 0.112702
#
#
# Mechanical properties :
#
#
# Convention : Reuss Voigt Hill
#
# Bulk Modulus (GPa) = 22.27858 34.26318 28.27088
# Shear Modulus (GPa) = 13.32805 24.81284 19.07045
#
# Velocity S-wave (km/s) = 2.57000 3.50661 3.07418
# Velocity P-wave (km/s) = 4.45499 5.77708 5.15856
#
# Compressibility (1/GPa) = 0.04488616
#
# Stress axis : x y z
#
# Youngs Moduli (GPa) = 123.06038 30.55904 82.46564
#
# Poissons Ratio (x) = -0.01221 0.10336
# Poissons Ratio (y) = -0.04915 0.26315
# Poissons Ratio (z) = 0.15423 0.09751
#
# Static dielectric constant tensor:
#      x y z
#    x 1.806480 0.000000 -0.020240 
#    y 0.000000 1.700650 0.000000 
#    z -0.020240 0.000000 1.706370 
# 
# From -- ./inp_files/4972.got.cif
#   From: 2010.05.17/outbox.cif.g08.bks.cpg/sg8_3_cif.got.tgz:4972.got - 2010.06.03 19:46:02.
