data_PCOD9131838
_publ_section_title
;
Structure prediction by ZEFSAII (Michael W. Deem and Ramdas Pophale) SiO2 
 PCOD9131838
Probable space group: C M
;
_chemical_formula_sum "Si O2"
_cell_formula_units_Z 32
_cell_length_a 14.202937
_cell_length_b 23.459919
_cell_length_c 8.192307
_cell_angle_alpha 90.000000
_cell_angle_beta 149.810528
_cell_angle_gamma 90.000000
_cell_volume 1372.647280
_symmetry_space_group_name_H-M "C M"
_symmetry_group_IT_number 8
_symmetry_cell_setting 'monoclinic'
loop_
_space_group_symop_operation_xyz
x,y,z
x,-y,z
1/2+x,1/2+y,z
1/2+x,1/2-y,z
loop_
_atom_site_type_symbol
_atom_site_label
_atom_site_fract_x
_atom_site_fract_y
_atom_site_fract_z
Si Si1 0.389220 0.362861 0.343160
Si Si2 0.399900 0.645493 0.732251
Si Si3 0.501041 0.160271 0.631271
Si Si4 0.446874 0.147398 0.074887
Si Si5 0.502914 0.242311 0.372054
Si Si6 0.821161 0.273336 0.613828
Si Si7 0.448785 0.062901 0.333708
Si Si8 0.406691 0.566078 0.044743
O O1 0.446743 0.374159 0.616933
O O2 0.442641 0.298498 0.373361
O O3 0.450414 0.404455 0.285839
O O4 0.162570 0.361887 0.991515
O O5 0.172206 0.643612 0.405923
O O6 0.434130 0.713773 0.798273
O O7 0.470442 0.606401 0.988384
O O8 0.605826 0.197966 0.648427
O O9 0.353845 0.204721 0.482035
O O10 0.396400 0.107615 0.394109
O O11 0.367717 0.196230 0.081665
O O12 0.388629 0.088367 0.069176
O O13 0.385093 0.171531 0.811502
O O14 0.623647 0.260626 0.397630
O O15 0.378971 0.000000 0.255842
O O16 0.677698 0.063424 0.687707
O O17 0.471219 0.500000 0.131669
#
# Coordination Sequence:
#
# PCOD9131838 Si02
#       8
#     4   4   4   4   4   4   4   4
#     4  11  19  34  54  77 106 140 171 215 264 311
#     4  10  19  31  52  78 107 135 171 214 261 313
#     4  10  19  32  52  78 108 132 170 215 259 312
#     4   9  17  31  50  71 104 137 166 212 259 307
#     4  10  20  32  48  77 107 138 169 209 262 316
#     4  11  19  32  50  79 108 136 166 212 264 317
#     4   8  16  32  52  75 101 132 172 219 261 299
#     4   9  19  34  52  77 105 134 177 224 260 301
#
# _framework density 23.312616999999999
#
# number of rings (size 3 to 8) (size 9 to 14) (size 15 to 20)
#    0.000    2.250    2.500    3.750    0.000    0.500 
#    0.000    0.625    0.000    1.500    0.000    0.000 
#    0.000    0.000    0.000    0.000    0.000    0.000 
#
# Total GULP energy -89176.392123 kJ/mol
# GULP energy per Si atom -5573.524508 kJ/mol
# Density = 2.325956 g / cm^3
# Si number density = 23.312617 Si / 1000 Ang^3
#
#
#
# Elastic Constant Matrix: (Units=GPa)
#
#
# Indices 1 2 3 4 5 6 
#
# 1 113.3377 73.6369 27.0641 0.0000 -39.2809 0.0000
# 2 73.6369 186.7608 20.0518 0.0000 -30.4043 0.0000
# 3 27.0641 20.0518 57.1587 0.0000 -12.4220 0.0000
# 4 0.0000 0.0000 0.0000 18.8481 0.0000 -10.3799
# 5 -39.2809 -30.4043 -12.4220 0.0000 31.4627 0.0000
# 6 0.0000 0.0000 0.0000 -10.3799 0.0000 25.5327
#
#
#
# Elastic Compliance Matrix: (Units=1/GPa)
#
#
# Indices 1 2 3 4 5 6 
#
# 1 0.018389 -0.003992 -0.003452 0.000000 0.017737 0.000000
# 2 -0.003992 0.007271 -0.000237 0.000000 0.001949 0.000000
# 3 -0.003452 -0.000237 0.019937 0.000000 0.003333 0.000000
# 4 0.000000 0.000000 0.000000 0.068360 0.000000 0.027791
# 5 0.017737 0.001949 0.003333 0.000000 0.057128 0.000000
# 6 0.000000 0.000000 0.000000 0.027791 0.000000 0.050463
#
#
# Mechanical properties :
#
#
# Convention : Reuss Voigt Hill
#
# Bulk Modulus (GPa) = 33.07394 66.52921 49.80158
# Shear Modulus (GPa) = 20.24385 30.93565 25.58975
#
# Velocity S-wave (km/s) = 2.95000 3.64674 3.31672
# Velocity P-wave (km/s) = 5.08146 6.80672 6.00636
#
# Compressibility (1/GPa) = 0.03023528
#
# Stress axis : x y z
#
# Youngs Moduli (GPa) = 54.38136 137.52869 50.15803
#
# Poissons Ratio (x) = 0.54904 0.17313
# Poissons Ratio (y) = 0.21710 0.01189
# Poissons Ratio (z) = 0.18770 0.03260
#
# Static dielectric constant tensor:
#      x y z
#    x 1.944720 0.000000 -0.010420 
#    y 0.000000 1.871660 0.000000 
#    z -0.010420 0.000000 2.030980 
# 
# From -- ./inp_files/11342.got.cif
#   From: 2010.05.17/outbox.cif.g08.bks.cpg/sg8_6_cif.got.tgz:11342.got - 2010.06.03 19:46:02.
