data_PCOD9131085
_publ_section_title
;
Structure prediction by ZEFSAII (Michael W. Deem and Ramdas Pophale) SiO2 
 PCOD9131085
Probable space group: P M
;
_chemical_formula_sum "Si O2"
_cell_formula_units_Z 13
_cell_length_a 6.067118
_cell_length_b 17.709822
_cell_length_c 5.116179
_cell_angle_alpha 90.000000
_cell_angle_beta 92.864715
_cell_angle_gamma 90.000000
_cell_volume 549.034079
_symmetry_space_group_name_H-M "P M"
_symmetry_group_IT_number 6
_symmetry_cell_setting 'monoclinic'
loop_
_space_group_symop_operation_xyz
x,y,z
x,-y,z
loop_
_atom_site_type_symbol
_atom_site_label
_atom_site_fract_x
_atom_site_fract_y
_atom_site_fract_z
Si Si1 0.580380 0.242170 0.817940
Si Si2 0.066144 0.391206 0.414574
Si Si3 0.841081 0.241639 0.329160
Si Si4 0.706923 0.500000 0.185633
Si Si5 0.363222 0.917031 0.827075
Si Si6 0.059317 0.082850 0.309554
Si Si7 0.353422 0.391520 0.924614
O O1 0.640258 0.253744 0.519023
O O2 0.513767 0.155901 0.863568
O O3 0.400482 0.302730 0.895672
O O4 0.783674 0.257423 0.024933
O O5 0.022756 0.301826 0.426859
O O6 0.835509 0.434396 0.368809
O O7 0.220301 0.415704 0.660911
O O8 0.197879 0.408592 0.159244
O O9 0.910695 0.154886 0.356186
O O10 0.579518 0.434617 0.001079
O O11 0.253649 0.914878 0.535380
O O12 0.469558 0.000000 0.869493
O O13 0.169842 0.911201 0.031428
O O14 0.950689 0.000000 0.327099
#
# Coordination Sequence:
#
# PCOD9131085 Si02
#       7
#     2   2   2   1   2   2   2
#     4  12  24  42  67  98 138 178 231 287 332 411
#     4  12  27  48  74 103 141 185 227 286 355 411
#     4  12  24  42  67  98 138 178 231 287 332 411
#     4  12  28  50  76 108 140 172 242 290 338 438
#     4  10  21  39  63  94 133 178 229 281 337 404
#     4  10  21  39  63  94 133 178 229 281 337 404
#     4  12  27  48  74 103 141 185 227 286 355 411
#
# _framework density 23.677949999999999
#
# number of rings (size 3 to 8) (size 9 to 14) (size 15 to 20)
#    0.000    0.615    1.538    6.462    0.000    2.462 
#    0.000    0.000    0.000    0.000    0.000    0.000 
#    0.000    0.000    0.000    0.000    0.000    0.000 
#
# Total GULP energy -72521.852133 kJ/mol
# GULP energy per Si atom -5578.604010 kJ/mol
# Density = 2.362406 g / cm^3
# Si number density = 23.677950 Si / 1000 Ang^3
#
#
#
# Elastic Constant Matrix: (Units=GPa)
#
#
# Indices 1 2 3 4 5 6 
#
# 1 33.9335 23.5470 39.3276 0.0000 23.8460 0.0000
# 2 23.5470 154.1162 31.0117 0.0000 11.5883 0.0000
# 3 39.3276 31.0117 141.5625 0.0000 26.5960 0.0000
# 4 0.0000 0.0000 0.0000 14.0464 0.0000 25.1177
# 5 23.8460 11.5883 26.5960 0.0000 54.4933 0.0000
# 6 0.0000 0.0000 0.0000 25.1177 0.0000 26.2134
#
#
#
# Elastic Compliance Matrix: (Units=1/GPa)
#
#
# Indices 1 2 3 4 5 6 
#
# 1 0.061047 -0.005418 -0.012078 0.000000 -0.019667 0.000000
# 2 -0.005418 0.007300 -0.000273 0.000000 0.000952 0.000000
# 3 -0.012078 -0.000273 0.010432 0.000000 0.000252 0.000000
# 4 0.000000 0.000000 0.000000 -0.099787 0.000000 0.095616
# 5 -0.019667 0.000952 0.000252 0.000000 0.026632 0.000000
# 6 0.000000 0.000000 0.000000 0.095616 0.000000 -0.053471
#
#
# Mechanical properties :
#
#
# Convention : Reuss Voigt Hill
#
# Bulk Modulus (GPa) = 23.12580 57.48719 40.30649
# Shear Modulus (GPa) = 2377.02925 34.66568 1205.84747
#
# Velocity S-wave (km/s) = 31.71875 3.83044 22.59150
# Velocity P-wave (km/s) = 36.75904 6.62529 26.41138
#
# Compressibility (1/GPa) = 0.04324175
#
# Stress axis : x y z
#
# Youngs Moduli (GPa) = 16.38071 136.99099 95.86098
#
# Poissons Ratio (x) = 0.74224 1.15778
# Poissons Ratio (y) = 0.08875 0.02614
# Poissons Ratio (z) = 0.19784 0.03736
#
# Static dielectric constant tensor:
#      x y z
#    x 1.900040 0.000000 -0.010570 
#    y 0.000000 1.913170 0.000000 
#    z -0.010570 0.000000 1.834450 
# 
# From -- ./inp_files/465.got.cif
#   From: 2010.05.17/outbox.cif.g08.bks.cpg/sg6_1_cif.got.tgz:465.got - 2010.06.03 19:42:10.
