data_PCOD9131960
_publ_section_title
;
Structure prediction by ZEFSAII (Michael W. Deem and Ramdas Pophale) SiO2 
 PCOD9131960
Probable space group: C M
;
_chemical_formula_sum "Si O2"
_cell_formula_units_Z 32
_cell_length_a 20.512334
_cell_length_b 8.865059
_cell_length_c 25.490273
_cell_angle_alpha 90.000000
_cell_angle_beta 23.206687
_cell_angle_gamma 90.000000
_cell_volume 1826.508190
_symmetry_space_group_name_H-M "C M"
_symmetry_group_IT_number 8
_symmetry_cell_setting 'monoclinic'
loop_
_space_group_symop_operation_xyz
x,y,z
x,-y,z
1/2+x,1/2+y,z
1/2+x,1/2-y,z
loop_
_atom_site_type_symbol
_atom_site_label
_atom_site_fract_x
_atom_site_fract_y
_atom_site_fract_z
Si Si1 0.023200 0.179650 0.954340
Si Si2 0.122720 0.680809 0.988772
Si Si3 0.510941 0.318932 0.693063
Si Si4 0.493659 0.318709 0.192459
Si Si5 0.140596 0.181005 0.481519
Si Si6 0.335367 0.819882 0.648273
Si Si7 0.125510 0.679642 0.714233
Si Si8 0.815623 0.319636 0.018725
O O1 0.191173 0.216479 0.797499
O O2 0.015787 0.000000 0.966528
O O3 0.033212 0.260554 0.002687
O O4 0.874318 0.236450 0.027709
O O5 0.110913 0.500000 0.000827
O O6 0.048518 0.755345 0.095529
O O7 0.317019 0.722341 0.840184
O O8 0.522273 0.500000 0.690404
O O9 0.581158 0.277687 0.584207
O O10 0.607606 0.241388 0.669021
O O11 0.485455 0.500000 0.196260
O O12 0.318538 0.250524 0.338072
O O13 0.637429 0.277203 0.127737
O O14 0.003677 0.244373 0.542898
O O15 0.146380 0.000000 0.473619
O O16 0.268603 0.756745 0.642600
O O17 0.352307 0.000000 0.633488
O O18 0.147027 0.500000 0.698447
O O19 0.953627 0.714539 0.872122
O O20 0.819827 0.500000 0.024410
#
# Coordination Sequence:
#
# PCOD9131960 Si02
#       8
#     4   4   4   4   4   4   4   4
#     4  10  20  33  56  87 116 146 189 241 288 336
#     4  11  21  36  59  86 116 151 192 240 286 338
#     4  10  21  36  57  85 116 148 191 240 285 337
#     4  11  23  40  59  85 118 154 192 236 287 344
#     4  11  23  40  59  84 117 156 194 234 286 346
#     4  10  20  35  56  84 117 152 190 237 288 340
#     4  10  19  33  57  86 115 147 188 240 288 338
#     4   9  19  35  55  81 115 150 186 232 288 343
#
# _framework density 17.519769
#
# number of rings (size 3 to 8) (size 9 to 14) (size 15 to 20)
#    0.000    1.750    2.500    2.250    0.000    4.000 
#    0.000    1.250    0.000    3.000    0.000    0.000 
#    0.000    0.000    0.000    0.000    0.000    0.000 
#
# Total GULP energy -89374.546116 kJ/mol
# GULP energy per Si atom -5585.909132 kJ/mol
# Density = 1.747989 g / cm^3
# Si number density = 17.519769 Si / 1000 Ang^3
#
#
#
# Elastic Constant Matrix: (Units=GPa)
#
#
# Indices 1 2 3 4 5 6 
#
# 1 163.2273 62.1403 82.4127 -0.0005 -20.3592 -0.0001
# 2 62.1403 52.2551 55.0448 -0.0048 -8.4507 -0.0016
# 3 82.4127 55.0448 125.0290 -0.0054 -13.2209 -0.0003
# 4 -0.0005 -0.0048 -0.0054 24.8761 -0.0011 -2.5250
# 5 -20.3592 -8.4507 -13.2209 -0.0011 27.9894 0.0004
# 6 -0.0001 -0.0016 -0.0003 -2.5250 0.0004 34.4421
#
#
#
# Elastic Compliance Matrix: (Units=1/GPa)
#
#
# Indices 1 2 3 4 5 6 
#
# 1 0.012222 -0.010877 -0.002815 -0.000002 0.004276 -0.000001
# 2 -0.010877 0.045702 -0.012977 0.000006 -0.000243 0.000002
# 3 -0.002815 -0.012977 0.015721 0.000001 0.001460 0.000000
# 4 -0.000002 0.000006 0.000001 0.040501 0.000002 0.002969
# 5 0.004276 -0.000243 0.001460 0.000002 0.039455 0.000000
# 6 -0.000001 0.000002 0.000000 0.002969 0.000000 0.029252
#
#
# Mechanical properties :
#
#
# Convention : Reuss Voigt Hill
#
# Bulk Modulus (GPa) = 49.24357 82.18967 65.71662
# Shear Modulus (GPa) = 20.57961 26.85576 23.71768
#
# Velocity S-wave (km/s) = 3.43104 3.91945 3.68335
# Velocity P-wave (km/s) = 6.62302 8.21567 7.46196
#
# Compressibility (1/GPa) = 0.02030722
#
# Stress axis : x y z
#
# Youngs Moduli (GPa) = 81.81891 21.88111 63.60805
#
# Poissons Ratio (x) = 0.23800 0.17908
# Poissons Ratio (y) = 0.88994 0.82541
# Poissons Ratio (z) = 0.23035 0.28394
#
# Static dielectric constant tensor:
#      x y z
#    x 1.573510 0.000000 -0.002950 
#    y 0.000000 1.577260 0.000000 
#    z -0.002950 0.000000 1.576360 
# 
# From -- ./inp_files/30043.got.cif
#   From: 2010.05.17/outbox.cif.g08.bks.cpg/sg8_16_cif.got.tgz:30043.got - 2010.06.03 19:46:02.
