data_PCOD9131728
_publ_section_title
;
Structure prediction by ZEFSAII (Michael W. Deem and Ramdas Pophale) SiO2 
 PCOD9131728
Probable space group: C M
;
_chemical_formula_sum "Si O2"
_cell_formula_units_Z 32
_cell_length_a 15.459693
_cell_length_b 8.344742
_cell_length_c 22.440773
_cell_angle_alpha 90.000000
_cell_angle_beta 32.963799
_cell_angle_gamma 90.000000
_cell_volume 1575.206615
_symmetry_space_group_name_H-M "C M"
_symmetry_group_IT_number 8
_symmetry_cell_setting 'monoclinic'
loop_
_space_group_symop_operation_xyz
x,y,z
x,-y,z
1/2+x,1/2+y,z
1/2+x,1/2-y,z
loop_
_atom_site_type_symbol
_atom_site_label
_atom_site_fract_x
_atom_site_fract_y
_atom_site_fract_z
Si Si1 0.138280 0.308255 0.715590
Si Si2 0.855803 0.189019 0.476526
Si Si3 0.031873 0.187937 0.203766
Si Si4 0.216250 0.187142 0.436623
Si Si5 0.019969 0.691367 0.079682
Si Si6 0.379456 0.303864 0.671158
Si Si7 0.329666 0.308158 0.833247
Si Si8 0.170981 0.310806 0.248246
O O1 0.117746 0.500000 0.729290
O O2 0.265366 0.274252 0.589680
O O3 0.220223 0.255606 0.729258
O O4 0.971035 0.232359 0.796391
O O5 0.778443 0.292645 0.468475
O O6 0.043161 0.224971 0.365380
O O7 0.832849 0.000000 0.476510
O O8 0.068172 0.266751 0.119475
O O9 0.123368 0.259314 0.208249
O O10 0.844024 0.217965 0.324136
O O11 0.064384 0.000000 0.182578
O O12 0.035667 0.246751 0.544301
O O13 0.220607 0.000000 0.416740
O O14 0.006104 0.500000 0.082246
O O15 0.850024 0.765021 0.161190
O O16 0.160519 0.750496 0.955058
O O17 0.387001 0.500000 0.667030
O O18 0.377581 0.246260 0.740103
O O19 0.317813 0.500000 0.835271
O O20 0.148813 0.500000 0.266316
#
# Coordination Sequence:
#
# PCOD9131728 Si02
#       8
#     4   4   4   4   4   4   4   4
#     4  10  21  36  58  88 120 158 199 244 298 358
#     4  10  19  33  56  87 125 160 197 246 303 360
#     4  11  23  40  61  90 125 161 205 255 309 368
#     4  10  18  33  60  86 120 160 198 246 302 364
#     4  11  24  42  64  89 121 165 213 258 305 363
#     4   9  19  36  58  86 117 156 196 238 298 360
#     4  10  22  42  63  85 118 158 203 251 299 358
#     4  11  23  40  62  91 124 162 205 254 310 367
#
# _framework density 20.314793000000002
#
# number of rings (size 3 to 8) (size 9 to 14) (size 15 to 20)
#    0.000    1.750    1.250    4.875    1.750    2.500 
#    0.000    3.125    0.000    0.000    0.000    0.000 
#    0.000    0.000    0.000    0.000    0.000    0.000 
#
# Total GULP energy -89388.736979 kJ/mol
# GULP energy per Si atom -5586.796061 kJ/mol
# Density = 2.026856 g / cm^3
# Si number density = 20.314793 Si / 1000 Ang^3
#
#
#
# Elastic Constant Matrix: (Units=GPa)
#
#
# Indices 1 2 3 4 5 6 
#
# 1 44.7493 -4.5201 11.1343 0.0000 -14.4653 0.0000
# 2 -4.5201 33.6007 -0.2183 0.0000 -1.1261 0.0000
# 3 11.1343 -0.2183 75.1759 0.0000 -17.3043 0.0000
# 4 0.0000 0.0000 0.0000 19.3902 0.0000 -5.5317
# 5 -14.4653 -1.1261 -17.3043 0.0000 27.2810 0.0000
# 6 0.0000 0.0000 0.0000 -5.5317 0.0000 27.1965
#
#
#
# Elastic Compliance Matrix: (Units=1/GPa)
#
#
# Indices 1 2 3 4 5 6 
#
# 1 0.027588 0.004186 -0.000781 0.000000 0.014306 0.000000
# 2 0.004186 0.030450 0.000315 0.000000 0.003676 0.000000
# 3 -0.000781 0.000315 0.015605 0.000000 0.009497 0.000000
# 4 0.000000 0.000000 0.000000 0.054749 0.000000 0.011136
# 5 0.014306 0.003676 0.009497 0.000000 0.050416 0.000000
# 6 0.000000 0.000000 0.000000 0.011136 0.000000 0.039034
#
#
# Mechanical properties :
#
#
# Convention : Reuss Voigt Hill
#
# Bulk Modulus (GPa) = 12.33337 18.47976 15.40656
# Shear Modulus (GPa) = 21.05872 24.58219 22.82046
#
# Velocity S-wave (km/s) = 3.22315 3.48237 3.35527
# Velocity P-wave (km/s) = 4.46496 5.02848 4.75508
#
# Compressibility (1/GPa) = 0.08108085
#
# Stress axis : x y z
#
# Youngs Moduli (GPa) = 36.24747 32.84117 64.08297
#
# Poissons Ratio (x) = -0.13746 0.05005
# Poissons Ratio (y) = -0.15172 -0.02016
# Poissons Ratio (z) = 0.02831 -0.01033
#
# Static dielectric constant tensor:
#      x y z
#    x 1.718850 0.000000 0.002610 
#    y 0.000000 1.696850 0.000000 
#    z 0.002610 0.000000 1.721660 
# 
# From -- ./inp_files/31982.got.cif
#   From: 2010.05.17/outbox.cif.g08.bks.cpg/sg8_16_cif.got.tgz:31982.got - 2010.06.03 19:46:02.
