data_PCOD9131170
_publ_section_title
;
Structure prediction by ZEFSAII (Michael W. Deem and Ramdas Pophale) SiO2 
 PCOD9131170
Probable space group: P M
;
_chemical_formula_sum "Si O2"
_cell_formula_units_Z 9
_cell_length_a 10.093188
_cell_length_b 7.756092
_cell_length_c 12.424478
_cell_angle_alpha 90.000000
_cell_angle_beta 23.725494
_cell_angle_gamma 90.000000
_cell_volume 391.344330
_symmetry_space_group_name_H-M "P M"
_symmetry_group_IT_number 6
_symmetry_cell_setting 'monoclinic'
loop_
_space_group_symop_operation_xyz
x,y,z
x,-y,z
loop_
_atom_site_type_symbol
_atom_site_label
_atom_site_fract_x
_atom_site_fract_y
_atom_site_fract_z
Si Si1 0.464960 0.704311 0.496160
Si Si2 0.234708 0.701527 0.433172
Si Si3 0.224334 0.802768 0.908049
Si Si4 0.463940 0.688773 0.948670
Si Si5 0.345497 0.000000 0.185756
O O1 0.429506 0.500000 0.533435
O O2 0.279097 0.753178 0.524715
O O3 0.336798 0.780785 0.702275
O O4 0.844789 0.750760 0.198425
O O5 0.346965 0.500000 0.337461
O O6 0.848886 0.709280 0.690569
O O7 0.402464 0.844988 0.233924
O O8 0.420037 0.698577 0.853169
O O9 0.269555 0.000000 0.904632
O O10 0.348992 0.500000 0.071890
O O11 0.286012 0.847015 0.138771
#
# Coordination Sequence:
#
# PCOD9131170 Si02
#       5
#     2   2   2   2   1
#     4  11  26  48  72 104 144 189 235 292 358 422
#     4  10  26  45  70 102 140 184 233 288 352 420
#     4  12  27  46  72 107 143 187 239 294 355 421
#     4  11  25  46  70 101 140 185 232 290 352 420
#     4  12  24  42  72 104 136 184 232 298 336 430
#
# _framework density 22.997648999999999
#
# number of rings (size 3 to 8) (size 9 to 14) (size 15 to 20)
#    0.000    0.889    1.111    4.000    9.333    0.000 
#    0.000    0.000    0.000    0.000    0.000    0.000 
#    0.000    0.000    0.000    0.000    0.000    0.000 
#
# Total GULP energy -50115.441032 kJ/mol
# GULP energy per Si atom -5568.382337 kJ/mol
# Density = 2.294531 g / cm^3
# Si number density = 22.997649 Si / 1000 Ang^3
#
#
#
# Elastic Constant Matrix: (Units=GPa)
#
#
# Indices 1 2 3 4 5 6 
#
# 1 222.0007 39.7296 55.9223 0.0000 11.7130 0.0000
# 2 39.7296 168.2230 17.5178 0.0000 22.1743 0.0000
# 3 55.9223 17.5178 82.7195 0.0000 15.4850 0.0000
# 4 0.0000 0.0000 0.0000 15.9015 0.0000 11.9716
# 5 11.7130 22.1743 15.4850 0.0000 48.9349 0.0000
# 6 0.0000 0.0000 0.0000 11.9716 0.0000 46.7504
#
#
#
# Elastic Compliance Matrix: (Units=1/GPa)
#
#
# Indices 1 2 3 4 5 6 
#
# 1 0.005575 -0.000974 -0.003609 0.000000 0.000249 0.000000
# 2 -0.000974 0.006549 -0.000231 0.000000 -0.002662 0.000000
# 3 -0.003609 -0.000231 0.015303 0.000000 -0.003874 0.000000
# 4 0.000000 0.000000 0.000000 0.077907 0.000000 -0.019950
# 5 0.000249 -0.002662 -0.003874 0.000000 0.022808 0.000000
# 6 0.000000 0.000000 0.000000 -0.019950 0.000000 0.026499
#
#
# Mechanical properties :
#
#
# Convention : Reuss Voigt Hill
#
# Bulk Modulus (GPa) = 56.17800 77.69809 66.93804
# Shear Modulus (GPa) = 29.37707 46.30225 37.83966
#
# Velocity S-wave (km/s) = 3.57794 4.49190 4.06072
# Velocity P-wave (km/s) = 6.44590 7.79497 7.15231
#
# Compressibility (1/GPa) = 0.01780056
#
# Stress axis : x y z
#
# Youngs Moduli (GPa) = 179.38004 152.68850 65.34616
#
# Poissons Ratio (x) = 0.14865 0.23585
# Poissons Ratio (y) = 0.17464 0.01506
# Poissons Ratio (z) = 0.64742 0.03520
#
# Static dielectric constant tensor:
#      x y z
#    x 1.849010 0.000000 0.008310 
#    y 0.000000 1.847660 0.000000 
#    z 0.008310 0.000000 1.851410 
# 
# From -- ./inp_files/825.got.cif
#   From: 2010.05.17/outbox.cif.g08.bks.cpg/sg6_1_cif.got.tgz:825.got - 2010.06.03 19:42:10.
