data_PCOD9131801
_publ_section_title
;
Structure prediction by ZEFSAII (Michael W. Deem and Ramdas Pophale) SiO2 
 PCOD9131801
Probable space group: C M
;
_chemical_formula_sum "Si O2"
_cell_formula_units_Z 24
_cell_length_a 13.538122
_cell_length_b 14.822826
_cell_length_c 10.366438
_cell_angle_alpha 90.000000
_cell_angle_beta 148.780791
_cell_angle_gamma 90.000000
_cell_volume 1078.230763
_symmetry_space_group_name_H-M "C M"
_symmetry_group_IT_number 8
_symmetry_cell_setting 'monoclinic'
loop_
_space_group_symop_operation_xyz
x,y,z
x,-y,z
1/2+x,1/2+y,z
1/2+x,1/2-y,z
loop_
_atom_site_type_symbol
_atom_site_label
_atom_site_fract_x
_atom_site_fract_y
_atom_site_fract_z
Si Si1 0.259190 0.332531 0.098480
Si Si2 0.386436 0.897267 0.769311
Si Si3 0.404419 0.500000 0.435128
Si Si4 0.861862 0.500000 0.977156
Si Si5 0.751640 0.358495 0.204593
Si Si6 0.043406 0.500000 0.462237
Si Si7 0.538385 0.608361 0.223514
Si Si8 0.440341 0.500000 0.765687
O O1 0.330836 0.413194 0.273457
O O2 0.336898 0.353806 0.043196
O O3 0.310117 0.234075 0.204140
O O4 0.032228 0.335324 0.859406
O O5 0.172237 0.872696 0.496945
O O6 0.412539 0.000000 0.746297
O O7 0.423773 0.912361 0.962358
O O8 0.633395 0.500000 0.704883
O O9 0.343420 0.500000 0.516675
O O10 0.940938 0.500000 0.207111
O O11 0.584994 0.415210 0.943498
O O12 0.945226 0.416620 0.426006
O O13 0.648700 0.348537 0.227511
O O14 0.268043 0.500000 0.678865
O O15 0.529388 0.500000 0.195095
#
# Coordination Sequence:
#
# PCOD9131801 Si02
#       8
#     4   4   2   2   4   2   4   2
#     4  12  23  40  70 104 133 178 231 285 343 407
#     4   9  19  36  64  95 123 174 225 266 334 404
#     4  12  20  43  72  96 139 186 226 280 348 409
#     4  10  18  39  70  94 129 176 228 276 334 407
#     4  11  27  43  65 106 137 174 243 281 336 429
#     4  11  23  46  68  89 140 190 223 289 354 398
#     4  11  21  44  67  91 139 179 221 283 338 408
#     4  11  25  48  70  93 142 188 225 287 358 406
#
# _framework density 22.258685
#
# number of rings (size 3 to 8) (size 9 to 14) (size 15 to 20)
#    0.500    0.667    6.667    1.000    0.000    6.667 
#    0.000    0.000    0.000    0.000    0.000    0.000 
#    0.000    0.000    0.000    0.000    0.000    0.000 
#
# Total GULP energy -66940.752495 kJ/mol
# GULP energy per Si atom -5578.396041 kJ/mol
# Density = 2.220802 g / cm^3
# Si number density = 22.258685 Si / 1000 Ang^3
#
#
#
# Elastic Constant Matrix: (Units=GPa)
#
#
# Indices 1 2 3 4 5 6 
#
# 1 115.4306 -6.8993 14.6980 0.0000 11.8538 0.0000
# 2 -6.8993 84.4968 4.4683 0.0000 10.1020 0.0000
# 3 14.6980 4.4683 75.3165 0.0000 7.1519 0.0000
# 4 0.0000 0.0000 0.0000 0.9718 0.0000 1.0766
# 5 11.8538 10.1020 7.1519 0.0000 48.2285 0.0000
# 6 0.0000 0.0000 0.0000 1.0766 0.0000 20.9645
#
#
#
# Elastic Compliance Matrix: (Units=1/GPa)
#
#
# Indices 1 2 3 4 5 6 
#
# 1 0.009168 0.001103 -0.001642 0.000000 -0.002241 0.000000
# 2 0.001103 0.012289 -0.000684 0.000000 -0.002744 0.000000
# 3 -0.001642 -0.000684 0.013780 0.000000 -0.001497 0.000000
# 4 0.000000 0.000000 0.000000 1.091145 0.000000 -0.056036
# 5 -0.002241 -0.002744 -0.001497 0.000000 0.022082 0.000000
# 6 0.000000 0.000000 0.000000 -0.056036 0.000000 0.050578
#
#
# Mechanical properties :
#
#
# Convention : Reuss Voigt Hill
#
# Bulk Modulus (GPa) = 30.49416 33.30868 31.90142
# Shear Modulus (GPa) = 4.12399 31.56474 17.84436
#
# Velocity S-wave (km/s) = 1.36264 3.76983 2.83447
# Velocity P-wave (km/s) = 4.02559 5.82629 5.00755
#
# Compressibility (1/GPa) = 0.03279316
#
# Stress axis : x y z
#
# Youngs Moduli (GPa) = 109.07077 81.37313 72.56674
#
# Poissons Ratio (x) = -0.08978 0.11914
# Poissons Ratio (y) = -0.12034 0.04962
# Poissons Ratio (z) = 0.17908 0.05565
#
# Static dielectric constant tensor:
#      x y z
#    x 1.876590 0.000000 -0.011640 
#    y 0.000000 1.804120 0.000000 
#    z -0.011640 0.000000 1.860530 
# 
# From -- ./inp_files/22262.got.cif
#   From: 2010.05.17/outbox.cif.g08.bks.cpg/sg8_12_cif.got.tgz:22262.got - 2010.06.03 19:46:02.
