data_PCOD9131466
_publ_section_title
;
Structure prediction by ZEFSAII (Michael W. Deem and Ramdas Pophale) SiO2 
 PCOD9131466
Probable space group: P C
;
_chemical_formula_sum "Si O2"
_cell_formula_units_Z 16
_cell_length_a 6.401230
_cell_length_b 23.996617
_cell_length_c 6.190378
_cell_angle_alpha 90.000000
_cell_angle_beta 46.449704
_cell_angle_gamma 90.000000
_cell_volume 689.176927
_symmetry_space_group_name_H-M "P C"
_symmetry_group_IT_number 7
_symmetry_cell_setting 'monoclinic'
loop_
_space_group_symop_operation_xyz
x,y,z
x,-y,1/2+z
loop_
_atom_site_type_symbol
_atom_site_label
_atom_site_fract_x
_atom_site_fract_y
_atom_site_fract_z
Si Si1 0.546250 0.943489 0.693860
Si Si2 0.126187 0.214982 0.992386
Si Si3 0.132840 0.600474 0.457842
Si Si4 0.617628 0.526637 0.959293
Si Si5 0.608223 0.142836 0.493000
Si Si6 0.073712 0.301009 0.670069
Si Si7 0.445604 0.312951 0.014108
Si Si8 0.905553 0.948148 0.055880
O O1 0.467431 0.891621 0.899616
O O2 0.787612 0.921335 0.358901
O O3 0.709268 0.996434 0.680266
O O4 0.240442 0.962659 0.814244
O O5 0.355529 0.164842 0.825111
O O6 0.110479 0.242914 0.767391
O O7 0.256741 0.262947 0.049707
O O8 0.812204 0.193756 0.281277
O O9 0.306233 0.555705 0.193263
O O10 0.031754 0.650036 0.374032
O O11 0.351201 0.629856 0.469316
O O12 0.872997 0.571726 0.767572
O O13 0.637934 0.499584 0.194172
O O14 0.819397 0.096270 0.440004
O O15 0.353212 0.314104 0.329367
O O16 0.780914 0.301114 0.741722
#
# Coordination Sequence:
#
# PCOD9131466 Si02
#       8
#     2   2   2   2   2   2   2   2
#     4  12  26  43  68  95 128 175 224 273 342 416
#     4  11  26  44  64 106 132 174 224 285 356 426
#     4  11  26  46  72 108 144 194 252 291 366 426
#     4  12  28  47  74 110 162 203 250 314 370 436
#     4  12  26  43  68  94 142 167 222 286 346 428
#     4  11  24  44  75  99 138 183 235 296 352 433
#     4  11  24  44  75  99 138 183 235 296 352 433
#     4  12  26  43  68  95 128 175 224 273 342 416
#
# _framework density 23.216097000000001
#
# number of rings (size 3 to 8) (size 9 to 14) (size 15 to 20)
#    0.000    0.500    1.250    6.000    7.000   10.000 
#    0.000    0.000    0.000    0.000    0.000    0.000 
#    0.000    0.000    0.000    0.000    0.000    0.000 
#
# Total GULP energy -89397.311901 kJ/mol
# GULP energy per Si atom -5587.331994 kJ/mol
# Density = 2.316326 g / cm^3
# Si number density = 23.216097 Si / 1000 Ang^3
#
#
#
# Elastic Constant Matrix: (Units=GPa)
#
#
# Indices 1 2 3 4 5 6 
#
# 1 62.6455 14.4865 12.6863 0.0000 -17.5174 0.0000
# 2 14.4865 59.9361 10.8845 0.0000 3.8244 0.0000
# 3 12.6863 10.8845 103.3922 0.0000 -14.0705 0.0000
# 4 0.0000 0.0000 0.0000 42.5627 0.0000 -4.2440
# 5 -17.5174 3.8244 -14.0705 0.0000 44.1493 0.0000
# 6 0.0000 0.0000 0.0000 -4.2440 0.0000 27.5981
#
#
#
# Elastic Compliance Matrix: (Units=1/GPa)
#
#
# Indices 1 2 3 4 5 6 
#
# 1 0.019514 -0.005081 -0.000780 0.000000 0.007935 0.000000
# 2 -0.005081 0.018528 -0.001902 0.000000 -0.004227 0.000000
# 3 -0.000780 -0.001902 0.010399 0.000000 0.003170 0.000000
# 4 0.000000 0.000000 0.000000 0.023861 0.000000 0.003669
# 5 0.007935 -0.004227 0.003170 0.000000 0.027175 0.000000
# 6 0.000000 0.000000 0.000000 0.003669 0.000000 0.036799
#
#
# Mechanical properties :
#
#
# Convention : Reuss Voigt Hill
#
# Bulk Modulus (GPa) = 30.38149 33.56539 31.97344
# Shear Modulus (GPa) = 30.71741 35.38977 33.05359
#
# Velocity S-wave (km/s) = 3.64140 3.90855 3.77734
# Velocity P-wave (km/s) = 5.54928 5.90408 5.72943
#
# Compressibility (1/GPa) = 0.03291478
#
# Stress axis : x y z
#
# Youngs Moduli (GPa) = 51.24398 53.97291 96.16125
#
# Poissons Ratio (x) = 0.27425 0.07498
# Poissons Ratio (y) = 0.26039 0.18293
# Poissons Ratio (z) = 0.03996 0.10267
#
# Static dielectric constant tensor:
#      x y z
#    x 1.948090 0.000000 0.123200 
#    y 0.000000 1.898930 0.000000 
#    z 0.123200 0.000000 1.906890 
# 
# From -- ./inp_files/379.got.cif
#   From: 2010.05.17/outbox.cif.g08.bks.cpg/sg7_cif.got.tgz:379.got - 2010.06.03 19:44:50.
