data_PCOD9131060
_publ_section_title
;
Structure prediction by ZEFSAII (Michael W. Deem and Ramdas Pophale) SiO2 
 PCOD9131060
Probable space group: P M
;
_chemical_formula_sum "Si O2"
_cell_formula_units_Z 12
_cell_length_a 5.529253
_cell_length_b 9.051013
_cell_length_c 11.089318
_cell_angle_alpha 90.000000
_cell_angle_beta 117.886015
_cell_angle_gamma 90.000000
_cell_volume 490.525632
_symmetry_space_group_name_H-M "P M"
_symmetry_group_IT_number 6
_symmetry_cell_setting 'monoclinic'
loop_
_space_group_symop_operation_xyz
x,y,z
x,-y,z
loop_
_atom_site_type_symbol
_atom_site_label
_atom_site_fract_x
_atom_site_fract_y
_atom_site_fract_z
Si Si1 0.171240 0.839541 0.205640
Si Si2 0.153431 0.838206 0.919278
Si Si3 0.687162 0.659853 0.077869
Si Si4 0.203324 0.179861 0.561990
Si Si5 0.595716 0.678166 0.440566
Si Si6 0.656495 0.333958 0.792643
O O1 0.414834 0.725246 0.282412
O O2 0.889503 0.772758 0.190076
O O3 0.240287 0.000000 0.274009
O O4 0.105342 0.862110 0.050672
O O5 0.890250 0.770925 0.792468
O O6 0.232788 0.000000 0.888719
O O7 0.387528 0.718873 0.986769
O O8 0.705918 0.500000 0.140038
O O9 0.761818 0.645470 0.953480
O O10 0.397008 0.250123 0.499443
O O11 0.374824 0.244773 0.715696
O O12 0.896300 0.247466 0.497824
O O13 0.198378 0.000000 0.557085
O O14 0.615921 0.500000 0.455790
O O15 0.633092 0.500000 0.736296
#
# Coordination Sequence:
#
# PCOD9131060 Si02
#       6
#     2   2   2   2   2   2
#     4  10  22  41  63  92 129 170 220 275 335 402
#     4  10  21  37  62  93 128 169 215 270 334 400
#     4  10  21  37  62  93 128 169 215 270 334 400
#     4  12  27  48  73 102 138 183 233 286 345 411
#     4  12  27  48  73 102 138 183 233 286 345 411
#     4  10  22  41  63  92 129 170 220 275 335 402
#
# _framework density 24.463550999999999
#
# number of rings (size 3 to 8) (size 9 to 14) (size 15 to 20)
#    0.000    1.333    0.000    5.000    4.667    4.000 
#    0.000    0.000    0.000    0.000    0.000    0.000 
#    0.000    0.000    0.000    0.000    0.000    0.000 
#
# Total GULP energy -66911.880814 kJ/mol
# GULP energy per Si atom -5575.990068 kJ/mol
# Density = 2.440787 g / cm^3
# Si number density = 24.463551 Si / 1000 Ang^3
#
#
#
# Elastic Constant Matrix: (Units=GPa)
#
#
# Indices 1 2 3 4 5 6 
#
# 1 95.2451 36.7617 34.0628 0.0000 17.9859 0.0000
# 2 36.7617 184.1518 42.7340 0.0000 -1.5662 0.0000
# 3 34.0628 42.7340 81.2052 0.0000 29.2878 0.0000
# 4 0.0000 0.0000 0.0000 5.5746 0.0000 -0.9393
# 5 17.9859 -1.5662 29.2878 0.0000 37.8101 0.0000
# 6 0.0000 0.0000 0.0000 -0.9393 0.0000 28.0686
#
#
#
# Elastic Compliance Matrix: (Units=1/GPa)
#
#
# Indices 1 2 3 4 5 6 
#
# 1 0.013081 -0.001938 -0.003044 0.000000 -0.003945 0.000000
# 2 -0.001938 0.006906 -0.004520 0.000000 0.004709 0.000000
# 3 -0.003044 -0.004520 0.021530 0.000000 -0.015416 0.000000
# 4 0.000000 0.000000 0.000000 0.180402 0.000000 0.006037
# 5 -0.003945 0.004709 -0.015416 0.000000 0.040461 0.000000
# 6 0.000000 0.000000 0.000000 0.006037 0.000000 0.035829
#
#
# Mechanical properties :
#
#
# Convention : Reuss Voigt Hill
#
# Bulk Modulus (GPa) = 44.41953 65.30212 54.86082
# Shear Modulus (GPa) = 15.39796 30.76022 23.07909
#
# Velocity S-wave (km/s) = 2.51156 3.54982 3.07483
# Velocity P-wave (km/s) = 5.15824 6.59948 5.92286
#
# Compressibility (1/GPa) = 0.02251262
#
# Stress axis : x y z
#
# Youngs Moduli (GPa) = 76.44649 144.79870 46.44681
#
# Poissons Ratio (x) = 0.28068 0.14139
# Poissons Ratio (y) = 0.14819 0.20992
# Poissons Ratio (z) = 0.23272 0.65444
#
# Static dielectric constant tensor:
#      x y z
#    x 2.099700 0.000000 -0.202300 
#    y 0.000000 2.510940 0.000000 
#    z -0.202300 0.000000 2.018130 
# 
# From -- ./inp_files/1446.got.cif
#   From: 2010.05.17/outbox.cif.g08.bks.cpg/sg6_1_cif.got.tgz:1446.got - 2010.06.03 19:42:10.
