data_PCOD9131963
_publ_section_title
;
Structure prediction by ZEFSAII (Michael W. Deem and Ramdas Pophale) SiO2 
 PCOD9131963
Probable space group: C M
;
_chemical_formula_sum "Si O2"
_cell_formula_units_Z 28
_cell_length_a 7.967597
_cell_length_b 22.478811
_cell_length_c 10.949923
_cell_angle_alpha 90.000000
_cell_angle_beta 48.363609
_cell_angle_gamma 90.000000
_cell_volume 1465.720136
_symmetry_space_group_name_H-M "C M"
_symmetry_group_IT_number 8
_symmetry_cell_setting 'monoclinic'
loop_
_space_group_symop_operation_xyz
x,y,z
x,-y,z
1/2+x,1/2+y,z
1/2+x,1/2-y,z
loop_
_atom_site_type_symbol
_atom_site_label
_atom_site_fract_x
_atom_site_fract_y
_atom_site_fract_z
Si Si1 0.187210 0.677856 0.128190
Si Si2 0.483939 0.311893 0.610199
Si Si3 0.909222 0.067327 0.918360
Si Si4 0.638796 0.256039 0.947705
Si Si5 0.801303 0.067219 0.681701
Si Si6 0.967841 0.309988 0.491867
Si Si7 0.876853 0.625788 0.778633
O O1 0.107584 0.674609 0.304735
O O2 0.227089 0.611917 0.061536
O O3 0.422628 0.712480 0.994804
O O4 0.042324 0.719184 0.109046
O O5 0.274881 0.289586 0.795218
O O6 0.437861 0.375070 0.569426
O O7 0.704971 0.315869 0.585825
O O8 0.514972 0.258204 0.501987
O O9 0.867787 0.067913 0.792806
O O10 0.155013 0.090886 0.840235
O O11 0.882905 0.000000 0.974192
O O12 0.798958 0.314163 0.887331
O O13 0.544278 0.084972 0.775744
O O14 0.846591 0.000000 0.614461
O O15 0.001883 0.349543 0.596364
#
# Coordination Sequence:
#
# PCOD9131963 Si02
#       7
#     4   4   4   4   4   4   4
#     4  11  21  36  56  90 117 156 191 248 315 352
#     4  11  19  38  56  89 118 153 201 247 291 361
#     4  10  21  39  60  85 117 156 206 247 288 358
#     4  10  19  33  58  82 113 151 199 246 294 352
#     4  11  21  35  62  88 113 153 204 251 285 343
#     4  11  22  35  60  87 124 155 191 255 318 351
#     4  10  20  38  60  87 113 156 202 250 297 349
#
# _framework density 19.103238000000001
#
# number of rings (size 3 to 8) (size 9 to 14) (size 15 to 20)
#    0.000    1.429    2.857    5.571    0.000    0.000 
#    0.000    2.143    0.000    0.000    0.000    0.000 
#    0.000    0.000    0.000    0.000    0.000    0.000 
#
# Total GULP energy -78049.091939 kJ/mol
# GULP energy per Si atom -5574.935139 kJ/mol
# Density = 1.905976 g / cm^3
# Si number density = 19.103238 Si / 1000 Ang^3
#
#
#
# Elastic Constant Matrix: (Units=GPa)
#
#
# Indices 1 2 3 4 5 6 
#
# 1 83.3876 27.7989 -7.0295 0.0000 -5.1957 0.0000
# 2 27.7989 143.0461 14.3426 0.0000 11.2121 0.0000
# 3 -7.0295 14.3426 57.0237 0.0000 9.7152 0.0000
# 4 0.0000 0.0000 0.0000 16.5494 0.0000 6.3073
# 5 -5.1957 11.2121 9.7152 0.0000 16.7910 0.0000
# 6 0.0000 0.0000 0.0000 6.3073 0.0000 27.8299
#
#
#
# Elastic Compliance Matrix: (Units=1/GPa)
#
#
# Indices 1 2 3 4 5 6 
#
# 1 0.013532 -0.003211 0.001550 0.000000 0.005435 0.000000
# 2 -0.003211 0.008205 -0.001505 0.000000 -0.005601 0.000000
# 3 0.001550 -0.001505 0.019806 0.000000 -0.009975 0.000000
# 4 0.000000 0.000000 0.000000 0.066138 0.000000 -0.014989
# 5 0.005435 -0.005601 -0.009975 0.000000 0.070749 0.000000
# 6 0.000000 0.000000 0.000000 -0.014989 0.000000 0.039330
#
#
# Mechanical properties :
#
#
# Convention : Reuss Voigt Hill
#
# Bulk Modulus (GPa) = 28.40143 39.29792 33.84967
# Shear Modulus (GPa) = 21.20186 28.79042 24.99614
#
# Velocity S-wave (km/s) = 3.33507 3.88635 3.62121
# Velocity P-wave (km/s) = 5.45251 6.38391 5.93650
#
# Compressibility (1/GPa) = 0.03520950
#
# Stress axis : x y z
#
# Youngs Moduli (GPa) = 73.89911 121.88067 50.49067
#
# Poissons Ratio (x) = 0.39137 -0.07825
# Poissons Ratio (y) = 0.23730 0.07600
# Poissons Ratio (z) = -0.11453 0.18345
#
# Static dielectric constant tensor:
#      x y z
#    x 1.748600 0.000000 0.000080 
#    y 0.000000 1.692970 0.000000 
#    z 0.000080 0.000000 1.652760 
# 
# From -- ./inp_files/8557.got.cif
#   From: 2010.05.17/outbox.cif.g08.bks.cpg/sg8_5_cif.got.tgz:8557.got - 2010.06.03 19:46:02.
