data_PCOD9131585
_publ_section_title
;
Structure prediction by ZEFSAII (Michael W. Deem and Ramdas Pophale) SiO2 
 PCOD9131585
Probable space group: C M
;
_chemical_formula_sum "Si O2"
_cell_formula_units_Z 32
_cell_length_a 15.050885
_cell_length_b 22.858799
_cell_length_c 7.308342
_cell_angle_alpha 90.000000
_cell_angle_beta 29.909480
_cell_angle_gamma 90.000000
_cell_volume 1253.758035
_symmetry_space_group_name_H-M "C M"
_symmetry_group_IT_number 8
_symmetry_cell_setting 'monoclinic'
loop_
_space_group_symop_operation_xyz
x,y,z
x,-y,z
1/2+x,1/2+y,z
1/2+x,1/2-y,z
loop_
_atom_site_type_symbol
_atom_site_label
_atom_site_fract_x
_atom_site_fract_y
_atom_site_fract_z
Si Si1 0.095120 0.936887 0.750000
Si Si2 0.579079 0.689675 0.678179
Si Si3 0.440832 0.815006 0.510268
Si Si4 0.658953 0.813572 0.506702
Si Si5 0.052053 0.812220 0.305378
Si Si6 0.446175 0.937589 0.539867
Si Si7 0.535768 0.563301 0.290701
Si Si8 0.188754 0.561910 0.463076
O O1 0.166531 0.872041 0.579799
O O2 0.057822 0.938316 0.032873
O O3 0.179931 0.000000 0.546331
O O4 0.894365 0.936686 0.030121
O O5 0.630529 0.753144 0.665135
O O6 0.618408 0.695264 0.393716
O O7 0.365308 0.687042 0.077463
O O8 0.528655 0.814367 0.560176
O O9 0.473725 0.749387 0.383291
O O10 0.496718 0.879122 0.339570
O O11 0.229284 0.820609 0.875311
O O12 0.642137 0.876020 0.637665
O O13 0.947680 0.873993 0.491192
O O14 0.243272 0.933675 0.982599
O O15 0.571708 0.939748 0.490555
O O16 0.455276 0.000000 0.423587
O O17 0.460298 0.500000 0.484873
O O18 0.165343 0.500000 0.606978
#
# Coordination Sequence:
#
# PCOD9131585 Si02
#       8
#     4   4   4   4   4   4   4   4
#     4   9  18  32  48  69  98 127 156 198 249 289
#     4  10  18  29  47  70  97 128 162 197 236 286
#     4   9  16  27  45  69  97 125 156 200 242 277
#     4   9  16  27  45  69  97 125 156 200 242 277
#     4  10  18  29  47  70  97 128 162 197 236 286
#     4   8  14  26  45  67  88 117 159 195 225 274
#     4   9  18  32  48  69  98 127 156 198 249 289
#     4   8  14  26  45  67  88 117 159 195 225 274
#
# _framework density 25.523266
#
# number of rings (size 3 to 8) (size 9 to 14) (size 15 to 20)
#    0.000    3.000    0.000    3.000    0.000    0.500 
#    0.000    5.000    0.000    4.500    0.000   28.000 
#    0.000  187.000    0.000    0.000    0.000    0.000 
#
# Total GULP energy -89086.302799 kJ/mol
# GULP energy per Si atom -5567.893925 kJ/mol
# Density = 2.546517 g / cm^3
# Si number density = 25.523266 Si / 1000 Ang^3
#
#
#
# Elastic Constant Matrix: (Units=GPa)
#
#
# Indices 1 2 3 4 5 6 
#
# 1 26.5409 14.3797 7.5441 -0.0003 0.4047 -0.0001
# 2 14.3797 378.8156 12.1607 0.0000 4.1439 0.0003
# 3 7.5441 12.1607 28.0089 -0.0002 -13.9659 0.0002
# 4 -0.0003 0.0000 -0.0002 12.4997 0.0002 -18.6509
# 5 0.4047 4.1439 -13.9659 0.0002 23.3850 -0.0001
# 6 -0.0001 0.0003 0.0002 -18.6509 -0.0001 -16.1597
#
#
#
# Elastic Compliance Matrix: (Units=1/GPa)
#
#
# Indices 1 2 3 4 5 6 
#
# 1 0.043003 -0.000997 -0.016281 0.000000 -0.010291 0.000000
# 2 -0.000997 0.002747 -0.001649 0.000000 -0.001454 0.000000
# 3 -0.016281 -0.001649 0.058515 0.000000 0.035520 0.000000
# 4 0.000000 0.000000 0.000000 0.029389 0.000000 -0.033920
# 5 -0.010291 -0.001454 0.035520 0.000000 0.064411 0.000000
# 6 0.000000 0.000000 0.000000 -0.033920 0.000000 -0.022733
#
#
# Mechanical properties :
#
#
# Convention : Reuss Voigt Hill
#
# Bulk Modulus (GPa) = 15.05787 55.72604 35.39196
# Shear Modulus (GPa) = 21.24736 30.56373 25.90555
#
# Velocity S-wave (km/s) = 2.88839 3.46422 3.18933
# Velocity P-wave (km/s) = 4.12749 6.15483 5.24014
#
# Compressibility (1/GPa) = 0.06641043
#
# Stress axis : x y z
#
# Youngs Moduli (GPa) = 23.25438 364.09949 17.08951
#
# Poissons Ratio (x) = 0.36306 0.27823
# Poissons Ratio (y) = 0.02319 0.02818
# Poissons Ratio (z) = 0.37860 0.60040
#
# Static dielectric constant tensor:
#      x y z
#    x 2.000530 0.000000 -0.005070 
#    y 0.000000 2.202160 0.000000 
#    z -0.005070 0.000000 2.018290 
# 
# From -- ./inp_files/15356.got.cif
#   From: 2010.05.17/outbox.cif.g08.bks.cpg/sg8_8_cif.got.tgz:15356.got - 2010.06.03 19:46:02.
