data_PCOD9131417
_publ_section_title
;
Structure prediction by ZEFSAII (Michael W. Deem and Ramdas Pophale) SiO2 
 PCOD9131417
Probable space group: P C
;
_chemical_formula_sum "Si O2"
_cell_formula_units_Z 14
_cell_length_a 6.194526
_cell_length_b 20.379769
_cell_length_c 6.581186
_cell_angle_alpha 90.000000
_cell_angle_beta 45.396562
_cell_angle_gamma 90.000000
_cell_volume 591.536685
_symmetry_space_group_name_H-M "P C"
_symmetry_group_IT_number 7
_symmetry_cell_setting 'monoclinic'
loop_
_space_group_symop_operation_xyz
x,y,z
x,-y,1/2+z
loop_
_atom_site_type_symbol
_atom_site_label
_atom_site_fract_x
_atom_site_fract_y
_atom_site_fract_z
Si Si1 0.939540 0.755627 0.342000
Si Si2 0.468227 0.556597 0.527251
Si Si3 0.466691 0.668987 0.858749
Si Si4 0.271198 0.859232 0.395529
Si Si5 0.790111 0.577400 0.928645
Si Si6 0.269028 0.000231 0.365032
Si Si7 0.950574 0.134632 0.498615
O O1 0.629122 0.728879 0.638174
O O2 0.902172 0.805991 0.183684
O O3 0.131386 0.798772 0.372348
O O4 0.145515 0.693527 0.148847
O O5 0.445198 0.605998 0.729100
O O6 0.574692 0.483803 0.512059
O O7 0.133425 0.558288 0.651594
O O8 0.724279 0.583938 0.209118
O O9 0.685866 0.643836 0.892087
O O10 0.621250 0.872786 0.113295
O O11 0.110917 0.929227 0.460142
O O12 0.211341 0.845719 0.669988
O O13 0.064371 0.065100 0.509421
O O14 0.394973 0.996125 0.531751
#
# Coordination Sequence:
#
# PCOD9131417 Si02
#       7
#     2   2   2   2   2   2   2
#     4  12  26  48  66 106 144 188 236 290 368 450
#     4  12  26  45  74 106 141 183 239 300 360 432
#     4  12  28  44  74 102 146 186 234 296 368 442
#     4  11  25  45  72 102 144 189 242 305 365 440
#     4  12  26  45  74 106 141 183 239 300 360 432
#     4  10  22  44  72 112 142 194 254 316 380 444
#     4  11  25  45  72 102 144 189 242 305 365 440
#
# _framework density 23.667173999999999
#
# number of rings (size 3 to 8) (size 9 to 14) (size 15 to 20)
#    0.000    0.571    2.857    4.286    2.000   11.429 
#    2.571    0.000    0.000    0.000    0.000    0.000 
#    0.000    0.000    0.000    0.000    0.000    0.000 
#
# Total GULP energy -78082.568668 kJ/mol
# GULP energy per Si atom -5577.326333 kJ/mol
# Density = 2.361331 g / cm^3
# Si number density = 23.667174 Si / 1000 Ang^3
#
#
#
# Elastic Constant Matrix: (Units=GPa)
#
#
# Indices 1 2 3 4 5 6 
#
# 1 56.7676 34.2122 14.6960 0.0000 -13.6289 0.0000
# 2 34.2122 114.1835 3.5988 0.0000 1.3376 0.0000
# 3 14.6960 3.5988 90.2161 0.0000 8.5309 0.0000
# 4 0.0000 0.0000 0.0000 47.0576 0.0000 19.0936
# 5 -13.6289 1.3376 8.5309 0.0000 50.2266 0.0000
# 6 0.0000 0.0000 0.0000 19.0936 0.0000 31.9509
#
#
#
# Elastic Compliance Matrix: (Units=1/GPa)
#
#
# Indices 1 2 3 4 5 6 
#
# 1 0.025181 -0.007493 -0.004541 0.000000 0.007803 0.000000
# 2 -0.007493 0.011000 0.001018 0.000000 -0.002499 0.000000
# 3 -0.004541 0.001018 0.012097 0.000000 -0.003314 0.000000
# 4 0.000000 0.000000 0.000000 0.028053 0.000000 -0.016764
# 5 0.007803 -0.002499 -0.003314 0.000000 0.022657 0.000000
# 6 0.000000 0.000000 0.000000 -0.016764 0.000000 0.041316
#
#
# Mechanical properties :
#
#
# Convention : Reuss Voigt Hill
#
# Bulk Modulus (GPa) = 38.10094 40.68680 39.39387
# Shear Modulus (GPa) = 29.22556 39.75768 34.49162
#
# Velocity S-wave (km/s) = 3.51786 4.10306 3.82168
# Velocity P-wave (km/s) = 5.71263 6.29884 6.01288
#
# Compressibility (1/GPa) = 0.02624607
#
# Stress axis : x y z
#
# Youngs Moduli (GPa) = 39.71321 90.90819 82.66542
#
# Poissons Ratio (x) = 0.68118 0.37537
# Poissons Ratio (y) = 0.29757 -0.08416
# Poissons Ratio (z) = 0.18033 -0.09255
#
# Static dielectric constant tensor:
#      x y z
#    x 1.959670 0.000000 0.112550 
#    y 0.000000 1.869680 0.000000 
#    z 0.112550 0.000000 1.947970 
# 
# From -- ./inp_files/343.got.cif
#   From: 2010.05.17/outbox.cif.g08.bks.cpg/sg7_cif.got.tgz:343.got - 2010.06.03 19:44:50.
