data_PCOD9131307
_publ_section_title
;
Structure prediction by ZEFSAII (Michael W. Deem and Ramdas Pophale) SiO2 
 PCOD9131307
Probable space group: P C
;
_chemical_formula_sum "Si O2"
_cell_formula_units_Z 16
_cell_length_a 11.316180
_cell_length_b 13.119954
_cell_length_c 5.467238
_cell_angle_alpha 90.000000
_cell_angle_beta 61.107719
_cell_angle_gamma 90.000000
_cell_volume 710.674915
_symmetry_space_group_name_H-M "P C"
_symmetry_group_IT_number 7
_symmetry_cell_setting 'monoclinic'
loop_
_space_group_symop_operation_xyz
x,y,z
x,-y,1/2+z
loop_
_atom_site_type_symbol
_atom_site_label
_atom_site_fract_x
_atom_site_fract_y
_atom_site_fract_z
Si Si1 0.269590 0.622681 0.485700
Si Si2 0.551556 0.938270 0.203301
Si Si3 0.377549 0.605630 0.877719
Si Si4 0.695050 0.559739 0.559613
Si Si5 0.858154 0.767084 0.396638
Si Si6 0.030352 0.757992 0.724432
Si Si7 0.257912 0.068064 0.996950
Si Si8 0.836372 0.008518 0.918443
O O1 0.337149 0.661038 0.669051
O O2 0.296261 0.501356 0.459248
O O3 0.114459 0.653079 0.640363
O O4 0.337551 0.660953 0.167104
O O5 0.408787 0.879378 0.346077
O O6 0.539338 0.999996 0.465526
O O7 0.716015 0.924646 0.038819
O O8 0.533764 0.575934 0.720955
O O9 0.731022 0.500036 0.273591
O O10 0.761888 0.670222 0.492889
O O11 0.945393 0.763869 0.558932
O O12 0.781808 0.875792 0.473014
O O13 0.945373 0.763878 0.059855
O O14 0.142732 0.846607 0.612077
O O15 0.247556 0.000009 0.257319
O O16 0.916269 0.000001 0.088541
#
# Coordination Sequence:
#
# PCOD9131307 Si02
#       8
#     2   2   2   2   2   2   2   2
#     4  10  20  40  66  96 128 168 211 283 325 405
#     4   8  16  34  56  88 123 156 214 268 333 376
#     4  10  19  42  69  96 126 159 226 270 359 382
#     4  12  23  48  71 100 137 180 227 291 346 406
#     4  12  28  45  65 104 140 187 235 266 340 424
#     4  12  26  45  62 101 144 177 235 268 330 424
#     4  10  21  40  64  93 130 181 219 282 337 393
#     4  10  21  42  67  96 132 180 227 286 332 400
#
# _framework density 22.513809999999999
#
# number of rings (size 3 to 8) (size 9 to 14) (size 15 to 20)
#    0.000    1.500    2.500    3.000    0.000    3.000 
#   27.000    0.000    0.000    0.000    0.000    0.000 
#    0.000    0.000    0.000    0.000    0.000    0.000 
#
# Total GULP energy -89164.553960 kJ/mol
# GULP energy per Si atom -5572.784623 kJ/mol
# Density = 2.246257 g / cm^3
# Si number density = 22.513810 Si / 1000 Ang^3
#
#
#
# Elastic Constant Matrix: (Units=GPa)
#
#
# Indices 1 2 3 4 5 6 
#
# 1 107.9535 39.3692 57.3521 0.0000 19.8660 0.0000
# 2 39.3692 77.9652 34.2434 0.0000 -4.4067 0.0000
# 3 57.3521 34.2434 186.7310 0.0000 48.1668 0.0000
# 4 0.0000 0.0000 0.0000 -309.4495 0.0000 584.1096
# 5 19.8660 -4.4067 48.1668 0.0000 61.2761 0.0000
# 6 0.0000 0.0000 0.0000 584.1096 0.0000 -984.0436
#
#
#
# Elastic Compliance Matrix: (Units=1/GPa)
#
#
# Indices 1 2 3 4 5 6 
#
# 1 0.013090 -0.005810 -0.002198 0.000000 -0.002934 0.000000
# 2 -0.005810 0.017264 -0.002744 0.000000 0.005282 0.000000
# 3 -0.002198 -0.002744 0.008029 0.000000 -0.005796 0.000000
# 4 0.000000 0.000000 0.000000 0.026834 0.000000 0.015928
# 5 -0.002934 0.005282 -0.005796 0.000000 0.022206 0.000000
# 6 0.000000 0.000000 0.000000 0.015928 0.000000 0.008438
#
#
# Mechanical properties :
#
#
# Convention : Reuss Voigt Hill
#
# Bulk Modulus (GPa) = 59.24925 70.50880 64.87903
# Shear Modulus (GPa) = 40.65349 -230.33107 -94.83879
#
# Velocity S-wave (km/s) = 4.25398 -10.12564 -6.49740
# Velocity P-wave (km/s) = 7.10651 10.26250 5.23529
#
# Compressibility (1/GPa) = 0.01687785
#
# Stress axis : x y z
#
# Youngs Moduli (GPa) = 76.39529 57.92451 124.55497
#
# Poissons Ratio (x) = 0.33655 0.27379
# Poissons Ratio (y) = 0.44387 0.34176
# Poissons Ratio (z) = 0.16793 0.15894
#
# Static dielectric constant tensor:
#      x y z
#    x 1.846270 0.000000 -0.014180 
#    y 0.000000 1.930010 0.000000 
#    z -0.014180 0.000000 1.830090 
# 
# From -- ./inp_files/1115.got.cif
#   From: 2010.05.17/outbox.cif.g08.bks.cpg/sg7_cif.got.tgz:1115.got - 2010.06.03 19:44:50.
