data_PCOD9131304
_publ_section_title
;
Structure prediction by ZEFSAII (Michael W. Deem and Ramdas Pophale) SiO2 
 PCOD9131304
Probable space group: P C
;
_chemical_formula_sum "Si O2"
_cell_formula_units_Z 14
_cell_length_a 9.328402
_cell_length_b 13.739252
_cell_length_c 5.469446
_cell_angle_alpha 90.000000
_cell_angle_beta 126.687914
_cell_angle_gamma 90.000000
_cell_volume 562.127472
_symmetry_space_group_name_H-M "P C"
_symmetry_group_IT_number 7
_symmetry_cell_setting 'monoclinic'
loop_
_space_group_symop_operation_xyz
x,y,z
x,-y,1/2+z
loop_
_atom_site_type_symbol
_atom_site_label
_atom_site_fract_x
_atom_site_fract_y
_atom_site_fract_z
Si Si1 0.903290 0.949883 0.416740
Si Si2 0.723851 0.589434 0.329599
Si Si3 0.501645 0.973435 0.515006
Si Si4 0.345409 0.211042 0.978604
Si Si5 0.131950 0.450561 0.248352
Si Si6 0.149984 0.782561 0.780275
Si Si7 0.590283 0.619728 0.694494
O O1 0.968197 0.840431 0.533932
O O2 0.967779 0.012226 0.718026
O O3 0.689282 0.969347 0.193101
O O4 0.686905 0.647164 0.539304
O O5 0.587698 0.497714 0.188899
O O6 0.916127 0.539616 0.531406
O O7 0.696161 0.645896 0.050171
O O8 0.511865 0.858724 0.578837
O O9 0.406828 0.986787 0.159781
O O10 0.206871 0.193985 0.616604
O O11 0.279229 0.189165 0.184514
O O12 0.408305 0.321895 0.025097
O O13 0.197332 0.500082 0.564881
O O14 0.152250 0.334468 0.268542
#
# Coordination Sequence:
#
# PCOD9131304 Si02
#       7
#     2   2   2   2   2   2   2
#     4  10  23  45  72 106 135 182 233 297 353 424
#     4  10  19  39  65  94 123 169 230 295 338 384
#     4  10  23  44  70 103 134 179 227 292 351 422
#     4  12  26  45  65 102 142 185 231 286 361 438
#     4  12  23  46  68  99 139 188 239 297 347 412
#     4  12  28  45  67 105 145 192 232 290 361 437
#     4  10  20  38  63  93 128 169 222 285 345 393
#
# _framework density 24.905386
#
# number of rings (size 3 to 8) (size 9 to 14) (size 15 to 20)
#    0.000    1.143    2.857    3.429    0.000    8.000 
#   15.429    0.000    0.000    0.000    0.000    0.000 
#    0.000    0.000    0.000    0.000    0.000    0.000 
#
# Total GULP energy -78211.286800 kJ/mol
# GULP energy per Si atom -5586.520486 kJ/mol
# Density = 2.484870 g / cm^3
# Si number density = 24.905386 Si / 1000 Ang^3
#
#
#
# Elastic Constant Matrix: (Units=GPa)
#
#
# Indices 1 2 3 4 5 6 
#
# 1 77.8226 18.6639 55.1198 0.0000 -27.4639 0.0000
# 2 18.6639 108.0908 27.4836 0.0000 -5.0547 0.0000
# 3 55.1198 27.4836 167.9907 0.0000 -61.2480 0.0000
# 4 0.0000 0.0000 0.0000 38.0463 0.0000 5.8631
# 5 -27.4639 -5.0547 -61.2480 0.0000 61.0843 0.0000
# 6 0.0000 0.0000 0.0000 5.8631 0.0000 29.9939
#
#
#
# Elastic Compliance Matrix: (Units=1/GPa)
#
#
# Indices 1 2 3 4 5 6 
#
# 1 0.017468 -0.001797 -0.004143 0.000000 0.003551 0.000000
# 2 -0.001797 0.009897 -0.001617 0.000000 -0.001610 0.000000
# 3 -0.004143 -0.001617 0.010795 0.000000 0.008827 0.000000
# 4 0.000000 0.000000 0.000000 0.027100 0.000000 -0.005297
# 5 0.003551 -0.001610 0.008827 0.000000 0.026685 0.000000
# 6 0.000000 0.000000 0.000000 -0.005297 0.000000 0.034376
#
#
# Mechanical properties :
#
#
# Convention : Reuss Voigt Hill
#
# Bulk Modulus (GPa) = 43.38748 61.82654 52.60701
# Shear Modulus (GPa) = 33.53076 42.66734 38.09905
#
# Velocity S-wave (km/s) = 3.67321 4.14355 3.91545
# Velocity P-wave (km/s) = 5.95388 6.91161 6.45055
#
# Compressibility (1/GPa) = 0.02304812
#
# Stress axis : x y z
#
# Youngs Moduli (GPa) = 57.24704 101.03564 92.63630
#
# Poissons Ratio (x) = 0.18154 0.38378
# Poissons Ratio (y) = 0.10286 0.14976
# Poissons Ratio (z) = 0.23716 0.16334
#
# Static dielectric constant tensor:
#      x y z
#    x 1.980570 0.000000 -0.022200 
#    y 0.000000 2.003980 0.000000 
#    z -0.022200 0.000000 2.025020 
# 
# From -- ./inp_files/561.got.cif
#   From: 2010.05.17/outbox.cif.g08.bks.cpg/sg7_cif.got.tgz:561.got - 2010.06.03 19:44:50.
