data_PCOD9131765
_publ_section_title
;
Structure prediction by ZEFSAII (Michael W. Deem and Ramdas Pophale) SiO2 
 PCOD9131765
Probable space group: C M
;
_chemical_formula_sum "Si O2"
_cell_formula_units_Z 24
_cell_length_a 7.886857
_cell_length_b 13.700750
_cell_length_c 8.856764
_cell_angle_alpha 90.000000
_cell_angle_beta 92.230533
_cell_angle_gamma 90.000000
_cell_volume 956.300095
_symmetry_space_group_name_H-M "C M"
_symmetry_group_IT_number 8
_symmetry_cell_setting 'monoclinic'
loop_
_space_group_symop_operation_xyz
x,y,z
x,-y,z
1/2+x,1/2+y,z
1/2+x,1/2-y,z
loop_
_atom_site_type_symbol
_atom_site_label
_atom_site_fract_x
_atom_site_fract_y
_atom_site_fract_z
Si Si1 0.091850 0.607064 0.647270
Si Si2 0.725280 0.276083 0.152889
Si Si3 0.900973 0.607055 0.938254
Si Si4 0.904193 0.117442 0.994665
Si Si5 0.593846 0.326438 0.711651
Si Si6 0.242867 0.106286 0.440399
O O1 0.174055 0.500000 0.615520
O O2 0.142248 0.720571 0.644787
O O3 0.053316 0.603665 0.825911
O O4 0.919259 0.607064 0.540534
O O5 0.572539 0.344258 0.087862
O O6 0.735904 0.301800 0.328298
O O7 0.751637 0.167538 0.085970
O O8 0.891795 0.323193 0.079036
O O9 0.871032 0.500000 0.995330
O O10 0.747860 0.637460 0.821465
O O11 0.895737 0.000000 0.989718
O O12 0.937832 0.159508 0.824104
O O13 0.593539 0.389186 0.559997
O O14 0.233523 0.000000 0.361898
#
# Coordination Sequence:
#
# PCOD9131765 Si02
#       6
#     4   4   4   4   4   4
#     4   9  18  33  54  83 116 152 202 250 301 371
#     4  11  22  40  65  94 127 166 209 266 319 379
#     4   9  17  34  57  81 112 153 204 252 299 366
#     4  11  24  44  67  95 129 169 217 266 317 381
#     4  10  18  35  61  84 120 162 207 261 311 371
#     4  10  21  36  60  89 118 162 207 255 319 380
#
# _framework density 25.096724999999999
#
# number of rings (size 3 to 8) (size 9 to 14) (size 15 to 20)
#    0.000    2.000    1.667    5.000    2.333    0.000 
#    0.000    6.667    0.000    0.000    0.000    0.000 
#    0.000    0.000    0.000    0.000    0.000    0.000 
#
# Total GULP energy -66833.538706 kJ/mol
# GULP energy per Si atom -5569.461559 kJ/mol
# Density = 2.503960 g / cm^3
# Si number density = 25.096725 Si / 1000 Ang^3
#
#
#
# Elastic Constant Matrix: (Units=GPa)
#
#
# Indices 1 2 3 4 5 6 
#
# 1 61.0582 0.7057 17.2349 0.0000 -1.8019 0.0000
# 2 0.7057 143.9698 38.1308 0.0000 7.3044 0.0000
# 3 17.2349 38.1308 152.0506 0.0000 -13.8085 0.0000
# 4 0.0000 0.0000 0.0000 30.6543 0.0000 -5.0671
# 5 -1.8019 7.3044 -13.8085 0.0000 19.1993 0.0000
# 6 0.0000 0.0000 0.0000 -5.0671 0.0000 30.7124
#
#
#
# Elastic Compliance Matrix: (Units=1/GPa)
#
#
# Indices 1 2 3 4 5 6 
#
# 1 0.016947 0.000460 -0.002041 0.000000 -0.000053 0.000000
# 2 0.000460 0.007828 -0.002441 0.000000 -0.004691 0.000000
# 3 -0.002041 -0.002441 0.008011 0.000000 0.006499 0.000000
# 4 0.000000 0.000000 0.000000 0.033536 0.000000 0.005533
# 5 -0.000053 -0.004691 0.006499 0.000000 0.058539 0.000000
# 6 0.000000 0.000000 0.000000 0.005533 0.000000 0.033473
#
#
# Mechanical properties :
#
#
# Convention : Reuss Voigt Hill
#
# Bulk Modulus (GPa) = 40.41815 52.13568 46.27692
# Shear Modulus (GPa) = 28.63266 36.18035 32.40651
#
# Velocity S-wave (km/s) = 3.38137 3.80101 3.59732
# Velocity P-wave (km/s) = 5.60222 6.33108 5.97777
#
# Compressibility (1/GPa) = 0.02474136
#
# Stress axis : x y z
#
# Youngs Moduli (GPa) = 59.00718 127.74280 124.83601
#
# Poissons Ratio (x) = -0.05879 0.25481
# Poissons Ratio (y) = -0.02716 0.30476
# Poissons Ratio (z) = 0.12044 0.31186
#
# Static dielectric constant tensor:
#      x y z
#    x 2.145490 0.000000 -0.037830 
#    y 0.000000 2.112700 0.000000 
#    z -0.037830 0.000000 1.943430 
# 
# From -- ./inp_files/10165.got.cif
#   From: 2010.05.17/outbox.cif.g08.bks.cpg/sg8_6_cif.got.tgz:10165.got - 2010.06.03 19:46:02.
