data_PCOD9131103
_publ_section_title
;
Structure prediction by ZEFSAII (Michael W. Deem and Ramdas Pophale) SiO2 
 PCOD9131103
Probable space group: P M
;
_chemical_formula_sum "Si O2"
_cell_formula_units_Z 14
_cell_length_a 9.076130
_cell_length_b 11.572959
_cell_length_c 6.147385
_cell_angle_alpha 90.000000
_cell_angle_beta 101.545912
_cell_angle_gamma 90.000000
_cell_volume 632.640942
_symmetry_space_group_name_H-M "P M"
_symmetry_group_IT_number 6
_symmetry_cell_setting 'monoclinic'
loop_
_space_group_symop_operation_xyz
x,y,z
x,-y,z
loop_
_atom_site_type_symbol
_atom_site_label
_atom_site_fract_x
_atom_site_fract_y
_atom_site_fract_z
Si Si1 0.563980 0.866141 0.297900
Si Si2 0.383311 0.725144 0.587365
Si Si3 0.181777 0.125281 0.845626
Si Si4 0.871285 0.626331 0.859216
Si Si5 0.570748 0.369054 0.016753
Si Si6 0.123367 0.276755 0.214221
Si Si7 0.894438 0.811697 0.511788
O O1 0.482585 0.822296 0.494400
O O2 0.744745 0.870597 0.380788
O O3 0.519002 0.000000 0.229231
O O4 0.536485 0.751790 0.134571
O O5 0.273649 0.786022 0.727790
O O6 0.485655 0.641248 0.759946
O O7 0.267479 0.671069 0.377850
O O8 0.012260 0.122561 0.701975
O O9 0.249423 0.000000 0.840479
O O10 0.179013 0.166139 0.093357
O O11 0.864227 0.500000 0.762231
O O12 0.747266 0.636224 0.010706
O O13 0.837541 0.712198 0.655419
O O14 0.034963 0.647884 0.011306
O O15 0.540437 0.500000 0.099546
O O16 0.998663 0.236463 0.349834
#
# Coordination Sequence:
#
# PCOD9131103 Si02
#       7
#     2   2   2   2   2   2   2
#     4  12  25  42  69 105 138 175 225 281 338 398
#     4  11  24  43  65  97 137 177 220 274 336 399
#     4  10  22  41  65  93 132 178 220 272 332 400
#     4  10  21  41  68  96 129 173 226 275 328 398
#     4  11  25  45  68  99 138 179 225 277 336 400
#     4  10  22  41  64  94 130 167 221 272 335 391
#     4  10  21  41  63  98 131 169 220 275 332 394
#
# _framework density 22.129456999999999
#
# number of rings (size 3 to 8) (size 9 to 14) (size 15 to 20)
#    0.000    1.429    2.857    1.714    0.000    8.000 
#    0.000   10.000    0.000    0.000    0.000    0.000 
#    0.000    0.000    0.000    0.000    0.000    0.000 
#
# Total GULP energy -78070.141910 kJ/mol
# GULP energy per Si atom -5576.438708 kJ/mol
# Density = 2.207909 g / cm^3
# Si number density = 22.129457 Si / 1000 Ang^3
#
#
#
# Elastic Constant Matrix: (Units=GPa)
#
#
# Indices 1 2 3 4 5 6 
#
# 1 88.4414 9.8582 16.5726 0.0000 14.9206 0.0000
# 2 9.8582 138.2695 29.8189 0.0000 -1.3213 0.0000
# 3 16.5726 29.8189 73.1872 0.0000 12.5381 0.0000
# 4 0.0000 0.0000 0.0000 -4.7325 0.0000 -15.3902
# 5 14.9206 -1.3213 12.5381 0.0000 47.2371 0.0000
# 6 0.0000 0.0000 0.0000 -15.3902 0.0000 -0.4108
#
#
#
# Elastic Compliance Matrix: (Units=1/GPa)
#
#
# Indices 1 2 3 4 5 6 
#
# 1 0.012305 -0.000475 -0.002017 0.000000 -0.003365 0.000000
# 2 -0.000475 0.008005 -0.003372 0.000000 0.001269 0.000000
# 3 -0.002017 -0.003372 0.016135 0.000000 -0.003740 0.000000
# 4 0.000000 0.000000 0.000000 0.001749 0.000000 -0.065514
# 5 -0.003365 0.001269 -0.003740 0.000000 0.023261 0.000000
# 6 0.000000 0.000000 0.000000 -0.065514 0.000000 0.020145
#
#
# Mechanical properties :
#
#
# Convention : Reuss Voigt Hill
#
# Bulk Modulus (GPa) = 40.45334 45.82195 43.13765
# Shear Modulus (GPa) = 49.22928 24.66199 36.94563
#
# Velocity S-wave (km/s) = 4.72169 3.34195 4.09041
# Velocity P-wave (km/s) = 6.93151 5.97015 6.46871
#
# Compressibility (1/GPa) = 0.02471984
#
# Stress axis : x y z
#
# Youngs Moduli (GPa) = 81.26520 124.91710 61.97858
#
# Poissons Ratio (x) = 0.05928 0.12499
# Poissons Ratio (y) = 0.03857 0.20896
# Poissons Ratio (z) = 0.16388 0.42116
#
# Static dielectric constant tensor:
#      x y z
#    x 1.812540 0.000000 0.031180 
#    y 0.000000 1.827330 0.000000 
#    z 0.031180 0.000000 1.828030 
# 
# From -- ./inp_files/1011.got.cif
#   From: 2010.05.17/outbox.cif.g08.bks.cpg/sg6_1_cif.got.tgz:1011.got - 2010.06.03 19:42:10.
