data_PCOD9131196
_publ_section_title
;
Structure prediction by ZEFSAII (Michael W. Deem and Ramdas Pophale) SiO2 
 PCOD9131196
Probable space group: P M
;
_chemical_formula_sum "Si O2"
_cell_formula_units_Z 16
_cell_length_a 9.000000
_cell_length_b 9.000000
_cell_length_c 12.000000
_cell_angle_alpha 90.000000
_cell_angle_beta 50.000000
_cell_angle_gamma 90.000000
_cell_volume 744.595199
_symmetry_space_group_name_H-M "P M"
_symmetry_group_IT_number 6
_symmetry_cell_setting 'monoclinic'
loop_
_space_group_symop_operation_xyz
x,y,z
x,-y,z
loop_
_atom_site_type_symbol
_atom_site_label
_atom_site_fract_x
_atom_site_fract_y
_atom_site_fract_z
Si Si1 0.902740 0.162939 0.273730
Si Si2 0.155465 0.820172 0.707693
Si Si3 0.166767 0.827696 0.953142
Si Si4 0.501251 0.324533 0.923241
Si Si5 0.848034 0.171737 0.676641
Si Si6 0.523822 0.333721 0.155874
Si Si7 0.494182 0.168487 0.393348
Si Si8 0.061735 0.337941 0.390902
O O1 0.672931 0.162178 0.391419
O O2 0.983300 0.293814 0.308648
O O3 0.977945 0.000000 0.275286
O O4 0.964164 0.174786 0.115496
O O5 0.161466 0.765596 0.831049
O O6 0.319273 0.758744 0.545762
O O7 0.956244 0.795432 0.740071
O O8 0.182177 0.000000 0.699450
O O9 0.307193 0.743361 0.968744
O O10 0.229419 0.000000 0.916519
O O11 0.483340 0.500000 0.943634
O O12 0.664348 0.276582 0.758054
O O13 0.559045 0.263968 0.017695
O O14 0.993750 0.212386 0.508310
O O15 0.792054 0.000000 0.699264
O O16 0.608598 0.500000 0.119175
O O17 0.564956 0.247437 0.248245
O O18 0.290973 0.343552 0.272479
O O19 0.437888 0.000000 0.389306
O O20 0.991021 0.500000 0.461786
#
# Coordination Sequence:
#
# PCOD9131196 Si02
#       8
#     2   2   2   2   2   2   2   2
#     4  10  22  37  60  91 120 154 201 251 299 351
#     4   9  20  38  59  86 120 153 193 246 300 351
#     4  10  21  39  60  86 120 158 199 247 299 355
#     4  11  24  42  60  88 123 160 202 247 299 358
#     4  11  23  40  64  92 119 156 201 249 301 356
#     4  10  22  40  61  85 120 159 200 248 298 355
#     4  10  21  38  61  89 119 153 199 251 297 350
#     4  11  22  40  63  87 121 159 199 249 299 356
#
# _framework density 21.488185999999999
#
# number of rings (size 3 to 8) (size 9 to 14) (size 15 to 20)
#    0.000    1.750    2.500    1.125    3.500    2.000 
#    0.000    1.875    0.000    0.000    0.000    0.000 
#    0.000    0.000    0.000    0.000    0.000    0.000 
#
# Total GULP energy -89143.600373 kJ/mol
# GULP energy per Si atom -5571.475023 kJ/mol
# Density = 2.143928 g / cm^3
# Si number density = 21.488186 Si / 1000 Ang^3
#
#
#
# Elastic Constant Matrix: (Units=GPa)
#
#
# Indices 1 2 3 4 5 6 
#
# 1 48.1300 33.7977 33.7795 0.0000 6.5563 0.0000
# 2 33.7977 31.2925 12.3500 0.0000 -0.5058 0.0000
# 3 33.7795 12.3500 68.8580 0.0000 -0.6870 0.0000
# 4 0.0000 0.0000 0.0000 27.3529 0.0000 -15.6209
# 5 6.5563 -0.5058 -0.6870 0.0000 30.8623 0.0000
# 6 0.0000 0.0000 0.0000 -15.6209 0.0000 104.6491
#
#
#
# Elastic Compliance Matrix: (Units=1/GPa)
#
#
# Indices 1 2 3 4 5 6 
#
# 1 0.295097 -0.282429 -0.094803 0.000000 -0.069428 0.000000
# 2 -0.282429 0.304700 0.084568 0.000000 0.066874 0.000000
# 3 -0.094803 0.084568 0.046087 0.000000 0.022552 0.000000
# 4 0.000000 0.000000 0.000000 0.039966 0.000000 0.005966
# 5 -0.069428 0.066874 0.022552 0.000000 0.048749 0.000000
# 6 0.000000 0.000000 0.000000 0.005966 0.000000 0.010446
#
#
# Mechanical properties :
#
#
# Convention : Reuss Voigt Hill
#
# Bulk Modulus (GPa) = 16.51311 34.23721 25.37516
# Shear Modulus (GPa) = 3.70217 37.12975 20.41596
#
# Velocity S-wave (km/s) = 1.31401 4.16133 3.08572
# Velocity P-wave (km/s) = 3.16285 6.24952 4.95278
#
# Compressibility (1/GPa) = 0.06055794
#
# Stress axis : x y z
#
# Youngs Moduli (GPa) = 3.38871 3.28191 21.69795
#
# Poissons Ratio (x) = 0.92691 2.05703
# Poissons Ratio (y) = 0.95707 -1.83496
# Poissons Ratio (z) = 0.32126 -0.27755
#
# Static dielectric constant tensor:
#      x y z
#    x 1.799280 0.000000 -0.029100 
#    y 0.000000 1.784540 0.000000 
#    z -0.029100 0.000000 1.812700 
# 
# From -- ./inp_files/2721.got.cif
#   From: 2010.05.17/outbox.ucp.g08.bks.cvg/sg6_2_cif.got.tgz:2721.got - 2010.06.11 12:59:37.
