data_PCOD9131970
_publ_section_title
;
Structure prediction by ZEFSAII (Michael W. Deem and Ramdas Pophale) SiO2 
 PCOD9131970
Probable space group: C M
;
_chemical_formula_sum "Si O2"
_cell_formula_units_Z 32
_cell_length_a 20.551362
_cell_length_b 13.515775
_cell_length_c 15.611559
_cell_angle_alpha 90.000000
_cell_angle_beta 161.649182
_cell_angle_gamma 90.000000
_cell_volume 1365.243256
_symmetry_space_group_name_H-M "C M"
_symmetry_group_IT_number 8
_symmetry_cell_setting 'monoclinic'
loop_
_space_group_symop_operation_xyz
x,y,z
x,-y,z
1/2+x,1/2+y,z
1/2+x,1/2-y,z
loop_
_atom_site_type_symbol
_atom_site_label
_atom_site_fract_x
_atom_site_fract_y
_atom_site_fract_z
Si Si1 0.570560 0.882624 0.165930
Si Si2 0.420612 0.883230 0.159328
Si Si3 0.420182 0.688502 0.355901
Si Si4 0.113934 0.387428 0.838941
Si Si5 0.979118 0.886016 0.150701
Si Si6 0.264097 0.881020 0.648992
Si Si7 0.641211 0.882977 0.601158
Si Si8 0.478610 0.309010 0.623209
O O1 0.462701 0.844015 0.117120
O O2 0.811938 0.862836 0.472066
O O3 0.535972 0.000000 0.123647
O O4 0.475097 0.845491 0.956835
O O5 0.612798 0.871363 0.463705
O O6 0.376301 0.000000 0.100122
O O7 0.217140 0.831108 0.941355
O O8 0.597077 0.643464 0.514789
O O9 0.470284 0.805919 0.421851
O O10 0.445173 0.654698 0.484368
O O11 0.211727 0.651404 0.050195
O O12 0.043359 0.500000 0.759444
O O13 0.949971 0.308070 0.601078
O O14 0.296980 0.385953 0.995741
O O15 0.174723 0.842290 0.446918
O O16 0.033147 0.000000 0.199715
O O17 0.859168 0.852609 0.915495
O O18 0.272889 0.000000 0.650583
O O19 0.605638 0.000000 0.576932
#
# Coordination Sequence:
#
# PCOD9131970 Si02
#       8
#     4   4   4   4   4   4   4   4
#     4  10  22  39  62 100 136 168 220 279 332 396
#     4  10  21  39  62  94 134 173 214 271 335 395
#     4  11  20  34  63  94 124 171 220 268 326 397
#     4  10  21  37  60  95 135 173 219 275 332 397
#     4   8  15  30  56  89 121 163 214 258 318 388
#     4   9  18  35  59  89 128 169 214 273 326 380
#     4  10  19  33  59  95 129 169 224 274 327 401
#     4  12  22  37  68  98 129 174 222 270 337 402
#
# _framework density 23.439046000000001
#
# number of rings (size 3 to 8) (size 9 to 14) (size 15 to 20)
#    0.000    2.000    3.750    1.500    0.000    1.500 
#    0.000    1.250    0.000    1.500    3.250    0.000 
#    0.000    0.000    0.000    0.000    0.000    0.000 
#
# Total GULP energy -89309.702984 kJ/mol
# GULP energy per Si atom -5581.856437 kJ/mol
# Density = 2.338570 g / cm^3
# Si number density = 23.439046 Si / 1000 Ang^3
#
#
#
# Elastic Constant Matrix: (Units=GPa)
#
#
# Indices 1 2 3 4 5 6 
#
# 1 41.8660 0.1291 52.3893 0.0001 -12.7010 0.0003
# 2 0.1291 69.6865 23.7242 -0.0018 -20.6134 -0.0015
# 3 52.3893 23.7242 134.2683 -0.0016 -35.0427 -0.0016
# 4 0.0001 -0.0018 -0.0016 24.6168 -0.0025 -9.3605
# 5 -12.7010 -20.6134 -35.0427 -0.0025 33.9196 -0.0023
# 6 0.0003 -0.0015 -0.0016 -9.3605 -0.0023 15.9886
#
#
#
# Elastic Compliance Matrix: (Units=1/GPa)
#
#
# Indices 1 2 3 4 5 6 
#
# 1 0.049745 0.007459 -0.020104 -0.000002 0.002390 -0.000003
# 2 0.007459 0.018632 -0.003448 0.000004 0.010554 0.000005
# 3 -0.020104 -0.003448 0.018333 0.000004 0.009316 0.000006
# 4 -0.000002 0.000004 0.000004 0.052255 0.000012 0.030593
# 5 0.002390 0.010554 0.009316 0.000012 0.046415 0.000016
# 6 -0.000003 0.000005 0.000006 0.030593 0.000016 0.080455
#
#
# Mechanical properties :
#
#
# Convention : Reuss Voigt Hill
#
# Bulk Modulus (GPa) = 18.34069 44.25621 31.29845
# Shear Modulus (GPa) = 15.81306 26.21024 21.01165
#
# Velocity S-wave (km/s) = 2.60021 3.34762 2.99731
# Velocity P-wave (km/s) = 4.10568 5.81932 5.03593
#
# Compressibility (1/GPa) = 0.05452358
#
# Stress axis : x y z
#
# Youngs Moduli (GPa) = 20.10267 53.67172 54.54747
#
# Poissons Ratio (x) = -0.40034 1.09660
# Poissons Ratio (y) = -0.14995 0.18809
# Poissons Ratio (z) = 0.40414 0.18507
#
# Static dielectric constant tensor:
#      x y z
#    x 1.876800 0.000000 -0.028940 
#    y 0.000000 1.913020 0.000000 
#    z -0.028940 0.000000 1.928610 
# 
# From -- ./inp_files/27984.got.cif
#   From: 2010.05.17/outbox.cif.g08.bks.cpg/sg8_14_cif.got.tgz:27984.got - 2010.06.03 19:46:02.
