data_PCOD9131340
_publ_section_title
;
Structure prediction by ZEFSAII (Michael W. Deem and Ramdas Pophale) SiO2 
 PCOD9131340
Probable space group: P C
;
_chemical_formula_sum "Si O2"
_cell_formula_units_Z 14
_cell_length_a 15.793595
_cell_length_b 7.396534
_cell_length_c 5.414805
_cell_angle_alpha 90.000000
_cell_angle_beta 91.615184
_cell_angle_gamma 90.000000
_cell_volume 632.294623
_symmetry_space_group_name_H-M "P C"
_symmetry_group_IT_number 7
_symmetry_cell_setting 'monoclinic'
loop_
_space_group_symop_operation_xyz
x,y,z
x,-y,1/2+z
loop_
_atom_site_type_symbol
_atom_site_label
_atom_site_fract_x
_atom_site_fract_y
_atom_site_fract_z
Si Si1 0.369540 0.390851 0.008920
Si Si2 0.889863 0.289983 0.165100
Si Si3 0.526765 0.881201 0.580227
Si Si4 0.292867 0.952648 0.551425
Si Si5 0.717362 0.119133 0.063261
Si Si6 0.106004 0.095962 0.535373
Si Si7 0.959180 0.699413 0.169927
O O1 0.368792 0.531050 0.233662
O O2 0.453339 0.267930 0.050684
O O3 0.286906 0.262135 0.037268
O O4 0.924557 0.495556 0.188306
O O5 0.910505 0.211055 0.435864
O O6 0.791315 0.266160 0.099487
O O7 0.938400 0.213528 0.931010
O O8 0.622391 0.802673 0.571585
O O9 0.522407 0.016479 0.343983
O O10 0.339305 0.005405 0.306775
O O11 0.208074 0.074104 0.546073
O O12 0.726406 0.017438 0.799384
O O13 0.058038 0.278477 0.608074
O O14 0.081548 0.039017 0.257108
#
# Coordination Sequence:
#
# PCOD9131340 Si02
#       7
#     2   2   2   2   2   2   2
#     4  12  24  40  65 102 134 167 208 264 326 385
#     4  10  21  37  56  86 121 163 198 265 315 363
#     4  10  21  41  65  93 130 172 219 258 308 381
#     4  10  21  41  69  91 121 170 215 257 316 387
#     4  10  21  37  60  90 121 164 217 260 299 365
#     4  10  21  37  64  87 113 155 213 257 304 370
#     4  10  21  37  57  85 120 157 208 251 320 369
#
# _framework density 22.141575
#
# number of rings (size 3 to 8) (size 9 to 14) (size 15 to 20)
#    0.000    1.714    0.000    4.286    0.000    3.429 
#    5.143    0.000   75.429    0.000    0.000    0.000 
#    0.000    0.000    0.000    0.000    0.000    0.000 
#
# Total GULP energy -78025.507005 kJ/mol
# GULP energy per Si atom -5573.250500 kJ/mol
# Density = 2.209118 g / cm^3
# Si number density = 22.141575 Si / 1000 Ang^3
#
#
#
# Elastic Constant Matrix: (Units=GPa)
#
#
# Indices 1 2 3 4 5 6 
#
# 1 169.3874 26.4998 10.9242 0.0000 -87.5893 0.0000
# 2 26.4998 50.7555 -7.6831 0.0000 2.1720 0.0000
# 3 10.9242 -7.6831 179.1010 0.0000 -37.4823 0.0000
# 4 0.0000 0.0000 0.0000 30.4512 0.0000 0.9198
# 5 -87.5893 2.1720 -37.4823 0.0000 274.7236 0.0000
# 6 0.0000 0.0000 0.0000 0.9198 0.0000 43.7432
#
#
#
# Elastic Compliance Matrix: (Units=1/GPa)
#
#
# Indices 1 2 3 4 5 6 
#
# 1 0.007884 -0.004245 -0.000134 0.000000 0.002529 0.000000
# 2 -0.004245 0.022117 0.000914 0.000000 -0.001404 0.000000
# 3 -0.000134 0.000914 0.005786 0.000000 0.000740 0.000000
# 4 0.000000 0.000000 0.000000 0.032860 0.000000 -0.000691
# 5 0.002529 -0.001404 0.000740 0.000000 0.004558 0.000000
# 6 0.000000 0.000000 0.000000 -0.000691 0.000000 0.022875
#
#
# Mechanical properties :
#
#
# Convention : Reuss Voigt Hill
#
# Bulk Modulus (GPa) = 34.65304 50.96951 42.81128
# Shear Modulus (GPa) = 44.39370 94.41715 69.40543
#
# Velocity S-wave (km/s) = 4.48257 6.53720 5.60484
# Velocity P-wave (km/s) = 6.51736 8.94706 7.82706
#
# Compressibility (1/GPa) = 0.02885749
#
# Stress axis : x y z
#
# Youngs Moduli (GPa) = 126.83860 45.21419 172.84388
#
# Poissons Ratio (x) = 0.19192 0.02311
# Poissons Ratio (y) = 0.53840 -0.15797
# Poissons Ratio (z) = 0.01696 -0.04132
#
# Static dielectric constant tensor:
#      x y z
#    x 1.842640 0.000000 0.007880 
#    y 0.000000 1.815700 0.000000 
#    z 0.007880 0.000000 1.877360 
# 
# From -- ./inp_files/1236.got.cif
#   From: 2010.05.17/outbox.cif.g08.bks.cpg/sg7_cif.got.tgz:1236.got - 2010.06.03 19:44:50.
