data_PCOD9131013
_publ_section_title
;
Structure prediction by ZEFSAII (Michael W. Deem and Ramdas Pophale) SiO2 
 PCOD9131013
Probable space group: P M
;
_chemical_formula_sum "Si O2"
_cell_formula_units_Z 14
_cell_length_a 7.974338
_cell_length_b 17.810354
_cell_length_c 5.573518
_cell_angle_alpha 90.000000
_cell_angle_beta 121.979596
_cell_angle_gamma 90.000000
_cell_volume 671.450013
_symmetry_space_group_name_H-M "P M"
_symmetry_group_IT_number 6
_symmetry_cell_setting 'monoclinic'
loop_
_space_group_symop_operation_xyz
x,y,z
x,-y,z
loop_
_atom_site_type_symbol
_atom_site_label
_atom_site_fract_x
_atom_site_fract_y
_atom_site_fract_z
Si Si1 0.954500 0.815579 0.053200
Si Si2 0.547209 0.190435 0.499744
Si Si3 0.240840 0.087102 0.507194
Si Si4 0.034424 0.673838 0.420479
Si Si5 0.437543 0.353835 0.566890
Si Si6 0.281809 0.782955 0.919904
Si Si7 0.636072 0.410370 0.217970
O O1 0.026849 0.891624 0.234327
O O2 0.932559 0.745844 0.217104
O O3 0.771175 0.823399 0.739609
O O4 0.146032 0.792518 0.048755
O O5 0.418904 0.117378 0.472735
O O6 0.477514 0.263601 0.597815
O O7 0.502542 0.215185 0.192968
O O8 0.256660 0.143214 0.742550
O O9 0.259099 0.000000 0.573342
O O10 0.199857 0.633320 0.381390
O O11 0.183358 0.710604 0.726878
O O12 0.859145 0.622553 0.381977
O O13 0.532057 0.382794 0.387596
O O14 0.533831 0.386774 0.884825
O O15 0.639397 0.500000 0.226647
#
# Coordination Sequence:
#
# PCOD9131013 Si02
#       7
#     2   2   2   2   2   2   2
#     4  10  21  39  66  96 123 175 233 287 344 421
#     4  11  21  39  68  97 126 178 237 286 345 416
#     4  10  23  40  59  93 140 176 227 291 356 420
#     4  11  23  43  72  99 135 186 234 294 352 430
#     4  12  24  45  76 103 144 188 245 298 353 441
#     4  10  20  38  64 101 128 174 237 284 356 410
#     4  12  29  46  70 109 150 187 237 304 369 428
#
# _framework density 20.8504
#
# number of rings (size 3 to 8) (size 9 to 14) (size 15 to 20)
#    0.000    1.143    5.714    2.143    0.000    6.286 
#    0.000    0.000    0.000    0.000    0.000    0.000 
#    0.000    0.000    0.000    0.000    0.000    0.000 
#
# Total GULP energy -78073.970925 kJ/mol
# GULP energy per Si atom -5576.712209 kJ/mol
# Density = 2.080294 g / cm^3
# Si number density = 20.850400 Si / 1000 Ang^3
#
#
#
# Elastic Constant Matrix: (Units=GPa)
#
#
# Indices 1 2 3 4 5 6 
#
# 1 106.0584 44.5457 38.6983 0.0000 8.5708 0.0000
# 2 44.5457 135.4978 40.8257 0.0000 2.1827 0.0000
# 3 38.6983 40.8257 152.5494 0.0000 20.5185 0.0000
# 4 0.0000 0.0000 0.0000 17.8740 0.0000 2.0710
# 5 8.5708 2.1827 20.5185 0.0000 38.6560 0.0000
# 6 0.0000 0.0000 0.0000 2.0710 0.0000 27.0020
#
#
#
# Elastic Compliance Matrix: (Units=1/GPa)
#
#
# Indices 1 2 3 4 5 6 
#
# 1 0.011581 -0.003215 -0.001891 0.000000 -0.001382 0.000000
# 2 -0.003215 0.008940 -0.001728 0.000000 0.001125 0.000000
# 3 -0.001891 -0.001728 0.007999 0.000000 -0.003729 0.000000
# 4 0.000000 0.000000 0.000000 0.056449 0.000000 -0.004329
# 5 -0.001382 0.001125 -0.003729 0.000000 0.028091 0.000000
# 6 0.000000 0.000000 0.000000 -0.004329 0.000000 0.037366
#
#
# Mechanical properties :
#
#
# Convention : Reuss Voigt Hill
#
# Bulk Modulus (GPa) = 67.33919 71.36054 69.34987
# Shear Modulus (GPa) = 29.57769 34.70880 32.14325
#
# Velocity S-wave (km/s) = 3.77047 4.08445 3.93060
# Velocity P-wave (km/s) = 7.16392 7.51951 7.34387
#
# Compressibility (1/GPa) = 0.01485019
#
# Stress axis : x y z
#
# Youngs Moduli (GPa) = 86.34810 111.85944 125.01315
#
# Poissons Ratio (x) = 0.35965 0.23646
# Poissons Ratio (y) = 0.27762 0.21605
# Poissons Ratio (z) = 0.16333 0.19332
#
# Static dielectric constant tensor:
#      x y z
#    x 1.809920 0.000000 -0.044990 
#    y 0.000000 1.724970 0.000000 
#    z -0.044990 0.000000 1.831420 
# 
# From -- ./inp_files/1329.got.cif
#   From: 2010.05.17/outbox.cif.g08.bks.cpg/sg6_1_cif.got.tgz:1329.got - 2010.06.03 19:42:10.
