data_PCOD9131872
_publ_section_title
;
Structure prediction by ZEFSAII (Michael W. Deem and Ramdas Pophale) SiO2 
 PCOD9131872
Probable space group: C M
;
_chemical_formula_sum "Si O2"
_cell_formula_units_Z 32
_cell_length_a 17.154081
_cell_length_b 13.673848
_cell_length_c 18.725641
_cell_angle_alpha 90.000000
_cell_angle_beta 157.449163
_cell_angle_gamma 90.000000
_cell_volume 1684.471549
_symmetry_space_group_name_H-M "C M"
_symmetry_group_IT_number 8
_symmetry_cell_setting 'monoclinic'
loop_
_space_group_symop_operation_xyz
x,y,z
x,-y,z
1/2+x,1/2+y,z
1/2+x,1/2-y,z
loop_
_atom_site_type_symbol
_atom_site_label
_atom_site_fract_x
_atom_site_fract_y
_atom_site_fract_z
Si Si1 0.662550 0.114524 0.187730
Si Si2 0.745313 0.293148 0.885023
Si Si3 0.690507 0.204443 0.583708
Si Si4 0.086114 0.110927 0.892732
Si Si5 0.975863 0.888084 0.335311
Si Si6 0.040333 0.191888 0.235306
Si Si7 0.929352 0.727656 0.497824
Si Si8 0.043731 0.608294 0.318422
O O1 0.757068 0.126740 0.188308
O O2 0.812527 0.179725 0.363302
O O3 0.672675 0.000000 0.214556
O O4 0.432929 0.151556 0.005142
O O5 0.639466 0.359749 0.856267
O O6 0.579102 0.258057 0.688260
O O7 0.857861 0.207193 0.025177
O O8 0.628060 0.311138 0.501306
O O9 0.566032 0.184735 0.549913
O O10 0.629717 0.131271 0.468537
O O11 0.929180 0.186969 0.793266
O O12 0.008614 0.000000 0.830127
O O13 0.299800 0.112842 0.114319
O O14 0.976652 0.866134 0.251809
O O15 0.035909 0.000000 0.399346
O O16 0.247605 0.158966 0.372795
O O17 0.096922 0.301559 0.312201
O O18 0.102993 0.500000 0.343025
#
# Coordination Sequence:
#
# PCOD9131872 Si02
#       8
#     4   4   4   4   4   4   4   4
#     4   9  19  34  52  78 105 130 168 214 262 315
#     4  10  19  32  53  79 108 136 164 207 266 316
#     4  10  20  34  54  76 105 140 174 213 255 304
#     4  10  20  33  54  83 108 133 168 209 260 319
#     4   9  18  36  57  74 100 140 181 218 255 296
#     4   9  19  34  54  78 103 136 175 214 254 304
#     4  10  21  33  50  75 105 139 172 210 256 304
#     4   9  18  34  57  81 104 132 166 211 266 316
#
# _framework density 18.997056000000001
#
# number of rings (size 3 to 8) (size 9 to 14) (size 15 to 20)
#    0.000    2.500    0.000    2.250    0.000    9.000 
#    0.000    1.250    0.000   16.500    0.000    0.000 
#    0.000    0.000    0.000    0.000    0.000    0.000 
#
# Total GULP energy -89201.088033 kJ/mol
# GULP energy per Si atom -5575.068002 kJ/mol
# Density = 1.895382 g / cm^3
# Si number density = 18.997056 Si / 1000 Ang^3
#
#
#
# Elastic Constant Matrix: (Units=GPa)
#
#
# Indices 1 2 3 4 5 6 
#
# 1 80.1509 6.4269 29.8660 0.0042 21.0495 0.0012
# 2 6.4269 33.1399 3.7392 0.0066 17.9774 0.0018
# 3 29.8660 3.7392 59.6810 0.0113 4.8570 0.0009
# 4 0.0042 0.0066 0.0113 14.2191 -0.0006 6.6440
# 5 21.0495 17.9774 4.8570 -0.0006 36.7744 -0.0003
# 6 0.0012 0.0018 0.0009 6.6440 -0.0003 14.0535
#
#
#
# Elastic Compliance Matrix: (Units=1/GPa)
#
#
# Indices 1 2 3 4 5 6 
#
# 1 0.018233 0.003366 -0.008442 0.000000 -0.010967 -0.000002
# 2 0.003366 0.041740 -0.002509 -0.000021 -0.022000 0.000004
# 3 -0.008442 -0.002509 0.020869 -0.000016 0.003303 0.000008
# 4 0.000000 -0.000021 -0.000016 0.090269 0.000014 -0.042676
# 5 -0.010967 -0.022000 0.003303 0.000014 0.043789 -0.000002
# 6 -0.000002 0.000004 0.000008 -0.042676 -0.000002 0.091333
#
#
# Mechanical properties :
#
#
# Convention : Reuss Voigt Hill
#
# Bulk Modulus (GPa) = 15.22765 28.11512 21.67138
# Shear Modulus (GPa) = 14.56480 21.87203 18.21841
#
# Velocity S-wave (km/s) = 2.77192 3.39682 3.10015
# Velocity P-wave (km/s) = 4.27526 5.49694 4.92414
#
# Compressibility (1/GPa) = 0.06567001
#
# Stress axis : x y z
#
# Youngs Moduli (GPa) = 54.84708 23.95789 47.91798
#
# Poissons Ratio (x) = -0.08064 0.40454
# Poissons Ratio (y) = -0.18460 0.12023
# Poissons Ratio (z) = 0.46304 0.06011
#
# Static dielectric constant tensor:
#      x y z
#    x 1.685720 0.000000 0.014520 
#    y 0.000000 1.663410 0.000000 
#    z 0.014520 0.000000 1.659410 
# 
# From -- ./inp_files/29952.got.cif
#   From: 2010.05.17/outbox.cif.g08.bks.cpg/sg8_15_cif.got.tgz:29952.got - 2010.06.03 19:46:02.
