data_PCOD9131676
_publ_section_title
;
Structure prediction by ZEFSAII (Michael W. Deem and Ramdas Pophale) SiO2 
 PCOD9131676
Probable space group: C M
;
_chemical_formula_sum "Si O2"
_cell_formula_units_Z 32
_cell_length_a 11.463788
_cell_length_b 24.136887
_cell_length_c 11.513869
_cell_angle_alpha 90.000000
_cell_angle_beta 145.221919
_cell_angle_gamma 90.000000
_cell_volume 1817.229332
_symmetry_space_group_name_H-M "C M"
_symmetry_group_IT_number 8
_symmetry_cell_setting 'monoclinic'
loop_
_space_group_symop_operation_xyz
x,y,z
x,-y,z
1/2+x,1/2+y,z
1/2+x,1/2-y,z
loop_
_atom_site_type_symbol
_atom_site_label
_atom_site_fract_x
_atom_site_fract_y
_atom_site_fract_z
Si Si1 0.858420 0.184411 0.167380
Si Si2 0.277516 0.776595 0.406359
Si Si3 0.859121 0.148017 0.422131
Si Si4 0.105680 0.208236 0.019877
Si Si5 0.696964 0.835435 0.791652
Si Si6 0.023696 0.562777 0.234807
Si Si7 0.694063 0.063841 0.616762
Si Si8 0.603041 0.389362 0.833632
O O1 0.886666 0.149020 0.306602
O O2 0.686456 0.231681 0.048076
O O3 0.076430 0.212737 0.318183
O O4 0.788001 0.153510 0.993443
O O5 0.306789 0.711032 0.414815
O O6 0.232028 0.802654 0.241767
O O7 0.483759 0.803100 0.623639
O O8 0.673585 0.107728 0.302659
O O9 0.045314 0.129026 0.656426
O O10 0.141853 0.164410 0.946813
O O11 0.867994 0.201632 0.863298
O O12 0.666791 0.891756 0.695491
O O13 0.095661 0.500000 0.272443
O O14 0.028739 0.570692 0.378495
O O15 0.800055 0.572604 0.002450
O O16 0.908463 0.079141 0.729428
O O17 0.694472 0.000000 0.655304
#
# Coordination Sequence:
#
# PCOD9131676 Si02
#       8
#     4   4   4   4   4   4   4   4
#     4  10  21  35  51  76 110 144 176 210 257 316
#     4  10  20  34  53  78 107 141 176 216 260 311
#     4  10  22  34  51  78 108 138 173 214 257 310
#     4   9  19  33  51  78 108 134 173 218 263 313
#     4  10  20  34  55  79 107 141 176 216 262 311
#     4  10  20  35  55  77 102 133 172 220 267 310
#     4   9  19  35  55  80 105 131 172 222 266 309
#     4  10  18  32  55  80 103 134 171 214 266 314
#
# _framework density 17.609224999999999
#
# number of rings (size 3 to 8) (size 9 to 14) (size 15 to 20)
#    0.000    2.250    0.000    2.625    0.000   10.500 
#    0.000    0.625    0.000    0.750    0.000    0.000 
#    0.000    0.000    0.000    0.000    0.000    0.000 
#
# Total GULP energy -89247.652731 kJ/mol
# GULP energy per Si atom -5577.978296 kJ/mol
# Density = 1.756915 g / cm^3
# Si number density = 17.609225 Si / 1000 Ang^3
#
#
#
# Elastic Constant Matrix: (Units=GPa)
#
#
# Indices 1 2 3 4 5 6 
#
# 1 74.5058 43.9922 39.6966 0.0000 -20.9060 0.0000
# 2 43.9922 87.3966 48.3293 0.0000 -8.5597 0.0000
# 3 39.6966 48.3293 107.5682 0.0000 -6.6958 0.0000
# 4 0.0000 0.0000 0.0000 23.2040 0.0000 -2.9004
# 5 -20.9060 -8.5597 -6.6958 0.0000 19.5089 0.0000
# 6 0.0000 0.0000 0.0000 -2.9004 0.0000 20.6315
#
#
#
# Elastic Compliance Matrix: (Units=1/GPa)
#
#
# Indices 1 2 3 4 5 6 
#
# 1 0.028325 -0.009194 -0.004786 0.000000 0.024676 0.000000
# 2 -0.009194 0.018593 -0.005177 0.000000 -0.003472 0.000000
# 3 -0.004786 -0.005177 0.013210 0.000000 -0.002866 0.000000
# 4 0.000000 0.000000 0.000000 0.043867 0.000000 0.006167
# 5 0.024676 -0.003472 -0.002866 0.000000 0.075195 0.000000
# 6 0.000000 0.000000 0.000000 0.006167 0.000000 0.049336
#
#
# Mechanical properties :
#
#
# Convention : Reuss Voigt Hill
#
# Bulk Modulus (GPa) = 45.84250 59.27855 52.56052
# Shear Modulus (GPa) = 18.24082 21.83238 20.03660
#
# Velocity S-wave (km/s) = 3.22198 3.52494 3.37686
# Velocity P-wave (km/s) = 6.31912 7.09248 6.71694
#
# Compressibility (1/GPa) = 0.02181382
#
# Stress axis : x y z
#
# Youngs Moduli (GPa) = 35.30510 53.78461 75.70008
#
# Poissons Ratio (x) = 0.49450 0.36230
# Poissons Ratio (y) = 0.32460 0.39187
# Poissons Ratio (z) = 0.16897 0.27842
#
# Static dielectric constant tensor:
#      x y z
#    x 1.599470 0.000000 -0.011360 
#    y 0.000000 1.573700 0.000000 
#    z -0.011360 0.000000 1.614370 
# 
# From -- ./inp_files/3122.got.cif
#   From: 2010.05.17/outbox.cif.g08.bks.cpg/sg8_2_cif.got.tgz:3122.got - 2010.06.03 19:46:02.
