data_PCOD9131422
_publ_section_title
;
Structure prediction by ZEFSAII (Michael W. Deem and Ramdas Pophale) SiO2 
 PCOD9131422
Probable space group: P C
;
_chemical_formula_sum "Si O2"
_cell_formula_units_Z 14
_cell_length_a 7.461204
_cell_length_b 15.759237
_cell_length_c 5.653911
_cell_angle_alpha 90.000000
_cell_angle_beta 57.678265
_cell_angle_gamma 90.000000
_cell_volume 561.797930
_symmetry_space_group_name_H-M "P C"
_symmetry_group_IT_number 7
_symmetry_cell_setting 'monoclinic'
loop_
_space_group_symop_operation_xyz
x,y,z
x,-y,1/2+z
loop_
_atom_site_type_symbol
_atom_site_label
_atom_site_fract_x
_atom_site_fract_y
_atom_site_fract_z
Si Si1 0.062420 0.819147 0.826520
Si Si2 0.578492 0.548498 0.084643
Si Si3 0.363017 0.268470 0.765857
Si Si4 0.030457 0.509367 0.226033
Si Si5 0.373071 0.950514 0.784267
Si Si6 0.696522 0.168895 0.256639
Si Si7 0.929118 0.700831 0.296973
O O1 0.252332 0.763660 0.582148
O O2 0.170363 0.887994 0.917522
O O3 0.912423 0.860275 0.732264
O O4 0.915847 0.751943 0.064336
O O5 0.535386 0.492979 0.354500
O O6 0.478699 0.641189 0.194787
O O7 0.836699 0.556098 0.881471
O O8 0.514399 0.193847 0.569491
O O9 0.164923 0.280035 0.728355
O O10 0.146411 0.504344 0.395754
O O11 0.920184 0.600843 0.294507
O O12 0.591148 0.896916 0.652118
O O13 0.367424 0.996790 0.533213
O O14 0.757919 0.256661 0.086093
#
# Coordination Sequence:
#
# PCOD9131422 Si02
#       7
#     2   2   2   2   2   2   2
#     4  11  28  48  79 115 154 201 263 313 389 473
#     4  10  23  39  65 101 145 200 258 316 378 431
#     4  11  25  47  74 108 153 208 261 322 380 464
#     4  10  23  41  64 101 147 196 254 319 375 431
#     4  12  29  53  81 117 160 195 251 322 394 481
#     4  11  26  49  80 112 149 207 255 311 393 469
#     4  11  26  45  77 108 152 203 264 321 375 465
#
# _framework density 24.919993999999999
#
# number of rings (size 3 to 8) (size 9 to 14) (size 15 to 20)
#    0.000    1.143    1.429    2.571   16.000    2.286 
#    0.000    0.000    0.000    0.000    0.000    0.000 
#    0.000    0.000    0.000    0.000    0.000    0.000 
#
# Total GULP energy -78357.969958 kJ/mol
# GULP energy per Si atom -5596.997854 kJ/mol
# Density = 2.486327 g / cm^3
# Si number density = 24.919994 Si / 1000 Ang^3
#
#
#
# Elastic Constant Matrix: (Units=GPa)
#
#
# Indices 1 2 3 4 5 6 
#
# 1 120.9825 40.2406 26.4578 0.0000 29.1804 0.0000
# 2 40.2406 80.3243 8.1739 0.0000 23.2596 0.0000
# 3 26.4578 8.1739 119.2726 0.0000 32.8987 0.0000
# 4 0.0000 0.0000 0.0000 32.1733 0.0000 12.9516
# 5 29.1804 23.2596 32.8987 0.0000 45.0336 0.0000
# 6 0.0000 0.0000 0.0000 12.9516 0.0000 39.8395
#
#
#
# Elastic Compliance Matrix: (Units=1/GPa)
#
#
# Indices 1 2 3 4 5 6 
#
# 1 0.010863 -0.004128 -0.000969 0.000000 -0.004200 0.000000
# 2 -0.004128 0.016384 0.001740 0.000000 -0.007059 0.000000
# 3 -0.000969 0.001740 0.010713 0.000000 -0.008097 0.000000
# 4 0.000000 0.000000 0.000000 0.035762 0.000000 -0.011626
# 5 -0.004200 -0.007059 -0.008097 0.000000 0.034488 0.000000
# 6 0.000000 0.000000 0.000000 -0.011626 0.000000 0.028880
#
#
# Mechanical properties :
#
#
# Convention : Reuss Voigt Hill
#
# Bulk Modulus (GPa) = 32.00172 52.25823 42.12997
# Shear Modulus (GPa) = 32.42125 39.78976 36.10551
#
# Velocity S-wave (km/s) = 3.61087 4.00021 3.81051
# Velocity P-wave (km/s) = 5.50038 6.50780 6.02518
#
# Compressibility (1/GPa) = 0.03124832
#
# Stress axis : x y z
#
# Youngs Moduli (GPa) = 92.05311 61.03381 93.34211
#
# Poissons Ratio (x) = 0.25192 0.09040
# Poissons Ratio (y) = 0.37996 -0.16240
# Poissons Ratio (z) = 0.08915 -0.10619
#
# Static dielectric constant tensor:
#      x y z
#    x 2.010520 0.000000 0.053290 
#    y 0.000000 1.952990 0.000000 
#    z 0.053290 0.000000 1.983090 
# 
# From -- ./inp_files/701.got.cif
#   From: 2010.05.17/outbox.cif.g08.bks.cpg/sg7_cif.got.tgz:701.got - 2010.06.03 19:44:50.
