data_PCOD9131295
_publ_section_title
;
Structure prediction by ZEFSAII (Michael W. Deem and Ramdas Pophale) SiO2 
 PCOD9131295
Probable space group: P C
;
_chemical_formula_sum "Si O2"
_cell_formula_units_Z 16
_cell_length_a 8.051913
_cell_length_b 17.166711
_cell_length_c 5.635222
_cell_angle_alpha 90.000000
_cell_angle_beta 121.428321
_cell_angle_gamma 90.000000
_cell_volume 664.653757
_symmetry_space_group_name_H-M "P C"
_symmetry_group_IT_number 7
_symmetry_cell_setting 'monoclinic'
loop_
_space_group_symop_operation_xyz
x,y,z
x,-y,1/2+z
loop_
_atom_site_type_symbol
_atom_site_label
_atom_site_fract_x
_atom_site_fract_y
_atom_site_fract_z
Si Si1 0.875000 0.539358 0.747590
Si Si2 0.270614 0.038875 0.312480
Si Si3 0.898648 0.198026 0.561664
Si Si4 0.583533 0.694984 0.022247
Si Si5 0.437257 0.480430 0.394775
Si Si6 0.865974 0.285772 0.124422
Si Si7 0.212367 0.788980 0.613845
Si Si8 0.742058 0.039085 0.649586
O O1 0.936449 0.501869 0.539592
O O2 0.638812 0.529041 0.564343
O O3 0.917578 0.630867 0.777025
O O4 0.209260 0.127773 0.235725
O O5 0.506860 0.036930 0.482584
O O6 0.208136 0.004406 0.520942
O O7 0.781094 0.276736 0.543723
O O8 0.856102 0.203372 0.254924
O O9 0.812119 0.126452 0.641944
O O10 0.128326 0.200825 0.785408
O O11 0.656116 0.703121 0.346050
O O12 0.505635 0.608822 0.925505
O O13 0.421737 0.753159 0.806919
O O14 0.336658 0.493707 0.574926
O O15 0.053197 0.269287 0.101122
O O16 0.803774 0.990693 0.457730
#
# Coordination Sequence:
#
# PCOD9131295 Si02
#       8
#     2   2   2   2   2   2   2   2
#     4  10  19  38  69  96 132 183 238 283 347 415
#     4  10  23  45  72  98 138 189 236 290 352 419
#     4  11  25  43  69 101 139 184 231 287 358 421
#     4  11  23  44  70  95 141 184 230 295 346 423
#     4  10  19  37  67  98 126 181 240 277 345 413
#     4  11  25  42  70 102 141 186 233 293 357 422
#     4  11  27  44  65 110 140 184 235 291 359 423
#     4  10  23  43  72 102 133 183 241 286 346 426
#
# _framework density 24.072683999999999
#
# number of rings (size 3 to 8) (size 9 to 14) (size 15 to 20)
#    0.000    1.500    3.750    1.500    7.000    3.000 
#    0.000    1.250    0.000    0.000    0.000    0.000 
#    0.000    0.000    0.000    0.000    0.000    0.000 
#
# Total GULP energy -89301.638206 kJ/mol
# GULP energy per Si atom -5581.352388 kJ/mol
# Density = 2.401789 g / cm^3
# Si number density = 24.072684 Si / 1000 Ang^3
#
#
#
# Elastic Constant Matrix: (Units=GPa)
#
#
# Indices 1 2 3 4 5 6 
#
# 1 70.8949 18.2527 45.0976 0.0000 -9.7141 0.0000
# 2 18.2527 102.7901 60.9484 0.0000 -10.1840 0.0000
# 3 45.0976 60.9484 135.2235 0.0000 -8.2064 0.0000
# 4 0.0000 0.0000 0.0000 22.0620 0.0000 -17.6391
# 5 -9.7141 -10.1840 -8.2064 0.0000 37.8643 0.0000
# 6 0.0000 0.0000 0.0000 -17.6391 0.0000 23.0673
#
#
#
# Elastic Compliance Matrix: (Units=1/GPa)
#
#
# Indices 1 2 3 4 5 6 
#
# 1 0.018380 0.000814 -0.006280 0.000000 0.003573 0.000000
# 2 0.000814 0.013514 -0.006211 0.000000 0.002497 0.000000
# 3 -0.006280 -0.006211 0.012251 0.000000 -0.000626 0.000000
# 4 0.000000 0.000000 0.000000 0.116636 0.000000 0.089189
# 5 0.003573 0.002497 -0.000626 0.000000 0.027863 0.000000
# 6 0.000000 0.000000 0.000000 0.089189 0.000000 0.111553
#
#
# Mechanical properties :
#
#
# Convention : Reuss Voigt Hill
#
# Bulk Modulus (GPa) = 48.09710 61.94508 55.02109
# Shear Modulus (GPa) = 15.12943 28.90606 22.01774
#
# Velocity S-wave (km/s) = 2.50969 3.46899 3.02758
# Velocity P-wave (km/s) = 5.33117 6.46789 5.92684
#
# Compressibility (1/GPa) = 0.02079128
#
# Stress axis : x y z
#
# Youngs Moduli (GPa) = 54.40642 73.99595 81.62647
#
# Poissons Ratio (x) = -0.06021 0.51260
# Poissons Ratio (y) = -0.04427 0.50698
# Poissons Ratio (z) = 0.34166 0.45959
#
# Static dielectric constant tensor:
#      x y z
#    x 2.012920 0.000000 -0.172570 
#    y 0.000000 1.984970 0.000000 
#    z -0.172570 0.000000 2.218300 
# 
# From -- ./inp_files/767.got.cif
#   From: 2010.05.17/outbox.cif.g08.bks.cpg/sg7_cif.got.tgz:767.got - 2010.06.03 19:44:50.
