data_PCOD9131803
_publ_section_title
;
Structure prediction by ZEFSAII (Michael W. Deem and Ramdas Pophale) SiO2 
 PCOD9131803
Probable space group: C M
;
_chemical_formula_sum "Si O2"
_cell_formula_units_Z 28
_cell_length_a 8.352560
_cell_length_b 27.612493
_cell_length_c 8.747960
_cell_angle_alpha 90.000000
_cell_angle_beta 144.317730
_cell_angle_gamma 90.000000
_cell_volume 1176.837389
_symmetry_space_group_name_H-M "C M"
_symmetry_group_IT_number 8
_symmetry_cell_setting 'monoclinic'
loop_
_space_group_symop_operation_xyz
x,y,z
x,-y,z
1/2+x,1/2+y,z
1/2+x,1/2-y,z
loop_
_atom_site_type_symbol
_atom_site_label
_atom_site_fract_x
_atom_site_fract_y
_atom_site_fract_z
Si Si1 0.724520 0.102467 0.505200
Si Si2 0.945923 0.814238 0.883842
Si Si3 0.579985 0.830255 0.144094
Si Si4 0.950999 0.247582 0.614886
Si Si5 0.610068 0.338187 0.347804
Si Si6 0.249829 0.900294 0.700800
Si Si7 0.262567 0.500000 0.527252
Si Si8 0.902008 0.500000 0.949744
O O1 0.831008 0.137423 0.718592
O O2 0.522982 0.134108 0.245104
O O3 0.648406 0.049993 0.506956
O O4 0.956821 0.091614 0.555730
O O5 0.090728 0.783768 0.860114
O O6 0.697243 0.777250 0.728517
O O7 0.093431 0.828560 0.154504
O O8 0.736801 0.784955 0.349328
O O9 0.814593 0.840612 0.197471
O O10 0.332773 0.849585 0.846382
O O11 0.763008 0.290989 0.528783
O O12 0.748768 0.386659 0.521423
O O13 0.414615 0.949161 0.867517
O O14 0.596118 0.500000 0.790612
O O15 0.138404 0.500000 0.259306
#
# Coordination Sequence:
#
# PCOD9131803 Si02
#       8
#     4   4   4   4   4   4   2   2
#     4   9  21  38  66  95 132 170 226 283 345 405
#     4  11  25  42  60  94 132 179 227 283 335 415
#     4  10  20  39  63  90 128 167 221 281 325 405
#     4  11  24  41  63  88 129 180 230 271 342 398
#     4  11  24  38  61  88 131 171 217 279 336 407
#     4  10  21  40  66 101 129 176 225 287 347 415
#     4  10  18  40  67 111 129 185 226 294 349 423
#     4  10  20  38  73 103 143 173 238 290 353 421
#
# _framework density 23.792581999999999
#
# number of rings (size 3 to 8) (size 9 to 14) (size 15 to 20)
#    0.000    1.714    2.857    0.857    4.000    2.286 
#    0.000    0.714    0.000    2.571    0.000    0.000 
#    0.000    0.000    0.000    0.000    0.000    0.000 
#
# Total GULP energy -77979.902644 kJ/mol
# GULP energy per Si atom -5569.993046 kJ/mol
# Density = 2.373843 g / cm^3
# Si number density = 23.792582 Si / 1000 Ang^3
#
#
#
# Elastic Constant Matrix: (Units=GPa)
#
#
# Indices 1 2 3 4 5 6 
#
# 1 41.5407 41.7983 5.9071 0.0000 -13.7406 0.0000
# 2 41.7983 163.5488 52.5294 0.0000 -43.4999 0.0000
# 3 5.9071 52.5294 93.4607 0.0000 -34.4320 0.0000
# 4 0.0000 0.0000 0.0000 34.0489 0.0000 -12.3322
# 5 -13.7406 -43.4999 -34.4320 0.0000 35.5261 0.0000
# 6 0.0000 0.0000 0.0000 -12.3322 0.0000 20.5999
#
#
#
# Elastic Compliance Matrix: (Units=1/GPa)
#
#
# Indices 1 2 3 4 5 6 
#
# 1 0.034530 -0.008355 0.005700 0.000000 0.008650 0.000000
# 2 -0.008355 0.011239 -0.002970 0.000000 0.007651 0.000000
# 3 0.005700 -0.002970 0.017857 0.000000 0.015876 0.000000
# 4 0.000000 0.000000 0.000000 0.037501 0.000000 0.022450
# 5 0.008650 0.007651 0.015876 0.000000 0.056249 0.000000
# 6 0.000000 0.000000 0.000000 0.022450 0.000000 0.061984
#
#
# Mechanical properties :
#
#
# Convention : Reuss Voigt Hill
#
# Bulk Modulus (GPa) = 19.09244 55.44664 37.26954
# Shear Modulus (GPa) = 20.15577 31.25600 25.70588
#
# Velocity S-wave (km/s) = 2.91373 3.62841 3.29053
# Velocity P-wave (km/s) = 4.40020 6.39598 5.48955
#
# Compressibility (1/GPa) = 0.05237675
#
# Stress axis : x y z
#
# Youngs Moduli (GPa) = 28.96007 88.97899 55.99923
#
# Poissons Ratio (x) = 0.74344 -0.31921
# Poissons Ratio (y) = 0.24197 0.16630
# Poissons Ratio (z) = -0.16508 0.26425
#
# Static dielectric constant tensor:
#      x y z
#    x 2.109160 0.000000 0.099940 
#    y 0.000000 1.993660 0.000000 
#    z 0.099940 0.000000 2.092810 
# 
# From -- ./inp_files/1851.got.cif
#   From: 2010.05.17/outbox.cif.g08.bks.cpg/sg8_1_cif.got.tgz:1851.got - 2010.06.03 19:46:02.
