data_PCOD9131742
_publ_section_title
;
Structure prediction by ZEFSAII (Michael W. Deem and Ramdas Pophale) SiO2 
 PCOD9131742
Probable space group: C M
;
_chemical_formula_sum "Si O2"
_cell_formula_units_Z 32
_cell_length_a 21.248519
_cell_length_b 8.177678
_cell_length_c 26.224354
_cell_angle_alpha 90.000000
_cell_angle_beta 157.550356
_cell_angle_gamma 90.000000
_cell_volume 1740.125208
_symmetry_space_group_name_H-M "C M"
_symmetry_group_IT_number 8
_symmetry_cell_setting 'monoclinic'
loop_
_space_group_symop_operation_xyz
x,y,z
x,-y,z
1/2+x,1/2+y,z
1/2+x,1/2-y,z
loop_
_atom_site_type_symbol
_atom_site_label
_atom_site_fract_x
_atom_site_fract_y
_atom_site_fract_z
Si Si1 0.125000 0.194752 0.135180
Si Si2 0.341522 0.199725 0.101993
Si Si3 0.433968 0.306045 0.558232
Si Si4 0.582768 0.697514 0.826771
Si Si5 0.758075 0.302417 0.852151
Si Si6 0.398963 0.801887 0.260859
Si Si7 0.663587 0.802648 0.280113
Si Si8 0.267439 0.191932 0.536748
O O1 0.263954 0.256737 0.200281
O O2 0.152320 0.257755 0.212834
O O3 0.136671 0.000000 0.145179
O O4 0.941132 0.241213 0.980247
O O5 0.355177 0.253191 0.170594
O O6 0.502138 0.253484 0.190365
O O7 0.342252 0.000000 0.102374
O O8 0.178617 0.250929 0.949183
O O9 0.452563 0.500000 0.564103
O O10 0.616370 0.241070 0.707394
O O11 0.326804 0.239516 0.431242
O O12 0.328203 0.281826 0.530720
O O13 0.571424 0.500000 0.818334
O O14 0.694816 0.743602 0.861548
O O15 0.401948 0.766326 0.680584
O O16 0.760582 0.500000 0.852724
O O17 0.583181 0.745473 0.411633
O O18 0.398219 0.000000 0.260039
O O19 0.663814 0.000000 0.283765
O O20 0.271576 0.000000 0.529486
#
# Coordination Sequence:
#
# PCOD9131742 Si02
#       8
#     4   4   4   4   4   4   4   4
#     4  11  23  35  52  80 114 146 174 219 273 318
#     4   9  16  32  59  81  97 134 190 227 250 306
#     4   9  18  34  57  80 104 141 182 219 262 317
#     4   9  17  32  55  80 103 135 179 223 264 316
#     4   9  17  32  54  79 105 138 180 217 261 319
#     4  10  21  39  57  75 106 148 186 215 261 327
#     4  10  18  34  59  81 103 139 185 226 259 310
#     4  11  21  32  51  82 112 139 172 222 276 313
#
# _framework density 18.389479999999999
#
# number of rings (size 3 to 8) (size 9 to 14) (size 15 to 20)
#    0.000    2.250    2.500    2.250    0.000    3.500 
#    0.000    1.875    0.000    4.500    0.000    0.000 
#    0.000    0.000    0.000    0.000    0.000    0.000 
#
# Total GULP energy -89256.588142 kJ/mol
# GULP energy per Si atom -5578.536759 kJ/mol
# Density = 1.834763 g / cm^3
# Si number density = 18.389480 Si / 1000 Ang^3
#
#
#
# Elastic Constant Matrix: (Units=GPa)
#
#
# Indices 1 2 3 4 5 6 
#
# 1 105.0141 -3.1251 79.7122 0.0001 -2.0142 0.0000
# 2 -3.1251 -5.2719 1.1701 -0.0005 -6.9064 -0.0004
# 3 79.7122 1.1701 182.1873 -0.0002 -6.7156 -0.0008
# 4 0.0001 -0.0005 -0.0002 16.4853 -0.0005 6.8129
# 5 -2.0142 -6.9064 -6.7156 -0.0005 24.8307 -0.0004
# 6 0.0000 -0.0004 -0.0008 6.8129 -0.0004 13.4560
#
#
#
# Elastic Compliance Matrix: (Units=1/GPa)
#
#
# Indices 1 2 3 4 5 6 
#
# 1 0.013949 -0.006551 -0.006148 0.000000 -0.002353 -0.000001
# 2 -0.006551 -0.135899 0.002349 -0.000004 -0.037695 -0.000003
# 3 -0.006148 0.002349 0.008252 0.000000 0.002386 0.000001
# 4 0.000000 -0.000004 0.000000 0.076711 0.000000 -0.038839
# 5 -0.002353 -0.037695 0.002386 0.000000 0.030243 0.000000
# 6 -0.000001 -0.000003 0.000001 -0.038839 0.000000 0.093981
#
#
# Mechanical properties :
#
#
# Convention : Reuss Voigt Hill
#
# Bulk Modulus (GPa) = -7.44069 48.60486 20.58209
# Shear Modulus (GPa) = 79.19475 24.56589 51.88032
#
# Velocity S-wave (km/s) = 6.56953 3.65892 5.31726
# Velocity P-wave (km/s) = 7.31369 6.65871 6.99387
#
# Compressibility (1/GPa) = -0.13439623
#
# Stress axis : x y z
#
# Youngs Moduli (GPa) = 71.68987 -7.35841 121.18936
#
# Poissons Ratio (x) = -0.04820 0.74504
# Poissons Ratio (y) = 0.46961 -0.28472
# Poissons Ratio (z) = 0.44073 0.01729
#
# Static dielectric constant tensor:
#      x y z
#    x 1.607800 0.000000 -0.016390 
#    y 0.000000 1.645290 0.000000 
#    z -0.016390 0.000000 1.652990 
# 
# From -- ./inp_files/31320.got.cif
#   From: 2010.05.17/outbox.cif.g08.bks.cpg/sg8_16_cif.got.tgz:31320.got - 2010.06.03 19:46:02.
