data_PCOD9131666
_publ_section_title
;
Structure prediction by ZEFSAII (Michael W. Deem and Ramdas Pophale) SiO2 
 PCOD9131666
Probable space group: C M
;
_chemical_formula_sum "Si O2"
_cell_formula_units_Z 32
_cell_length_a 21.337957
_cell_length_b 7.710257
_cell_length_c 26.065088
_cell_angle_alpha 90.000000
_cell_angle_beta 22.515928
_cell_angle_gamma 90.000000
_cell_volume 1642.146521
_symmetry_space_group_name_H-M "C M"
_symmetry_group_IT_number 8
_symmetry_cell_setting 'monoclinic'
loop_
_space_group_symop_operation_xyz
x,y,z
x,-y,z
1/2+x,1/2+y,z
1/2+x,1/2-y,z
loop_
_atom_site_type_symbol
_atom_site_label
_atom_site_fract_x
_atom_site_fract_y
_atom_site_fract_z
Si Si1 0.643010 0.789291 0.404770
Si Si2 0.895647 0.208044 0.130011
Si Si3 0.578866 0.794821 0.836841
Si Si4 0.378902 0.213284 0.417650
Si Si5 0.092872 0.795030 0.560318
Si Si6 0.728461 0.791712 0.831470
Si Si7 0.745726 0.791132 0.135105
Si Si8 0.345575 0.202775 0.559046
O O1 0.800124 0.732594 0.252723
O O2 0.637569 0.726092 0.466890
O O3 0.483313 0.727016 0.493789
O O4 0.640266 0.000000 0.408964
O O5 0.804298 0.272037 0.147265
O O6 0.882315 0.000000 0.139436
O O7 0.085662 0.252844 0.979914
O O8 0.664841 0.725340 0.824098
O O9 0.670879 0.719642 0.718336
O O10 0.604300 0.000000 0.815972
O O11 0.386882 0.760319 0.988729
O O12 0.235064 0.275832 0.489268
O O13 0.561748 0.267100 0.263115
O O14 0.352032 0.272496 0.496610
O O15 0.376744 0.000000 0.418470
O O16 0.909166 0.723390 0.706768
O O17 0.083030 0.000000 0.578978
O O18 0.738491 0.000000 0.819417
O O19 0.743952 0.000000 0.138625
O O20 0.386562 0.000000 0.522768
#
# Coordination Sequence:
#
# PCOD9131666 Si02
#       8
#     4   4   4   4   4   4   4   4
#     4  10  19  32  52  78 104 130 169 215 254 296
#     4   9  17  30  51  76  99 125 165 214 253 288
#     4  10  19  31  48  76 108 134 163 207 257 302
#     4   9  18  34  56  77 100 132 173 215 251 295
#     4  10  20  35  53  75 105 138 168 205 255 306
#     4   9  18  31  47  72 104 133 164 201 249 303
#     4   9  16  31  53  76  98 128 171 213 252 295
#     4  10  18  32  54  78 100 130 173 216 251 291
#
# _framework density 19.486689999999999
#
# number of rings (size 3 to 8) (size 9 to 14) (size 15 to 20)
#    0.000    2.500    2.500    0.375    0.000    1.500 
#    0.000    3.125    0.000    6.000    0.000    0.000 
#    0.000    0.000    0.000    0.000    0.000    0.000 
#
# Total GULP energy -89249.100801 kJ/mol
# GULP energy per Si atom -5578.068800 kJ/mol
# Density = 1.944234 g / cm^3
# Si number density = 19.486690 Si / 1000 Ang^3
#
#
#
# Elastic Constant Matrix: (Units=GPa)
#
#
# Indices 1 2 3 4 5 6 
#
# 1 102.1756 -2.8412 71.4325 -0.0010 -12.7365 0.0003
# 2 -2.8412 26.4181 -8.5044 -0.0011 -7.7389 -0.0002
# 3 71.4325 -8.5044 164.5485 -0.0043 -9.4638 -0.0016
# 4 -0.0010 -0.0011 -0.0043 0.0356 -0.0010 -1.9260
# 5 -12.7365 -7.7389 -9.4638 -0.0010 25.7861 0.0003
# 6 0.0003 -0.0002 -0.0016 -1.9260 0.0003 12.4085
#
#
#
# Elastic Compliance Matrix: (Units=1/GPa)
#
#
# Indices 1 2 3 4 5 6 
#
# 1 0.014695 0.001237 -0.006003 0.000028 0.005426 0.000003
# 2 0.001237 0.043029 0.002518 -0.000292 0.014449 -0.000045
# 3 -0.006003 0.002518 0.008874 -0.000149 0.001047 -0.000022
# 4 0.000028 -0.000292 -0.000149 -3.796878 -0.000275 -0.589323
# 5 0.005426 0.014449 0.001047 -0.000275 0.046182 -0.000044
# 6 0.000003 -0.000045 -0.000022 -0.589323 -0.000044 -0.010880
#
#
# Mechanical properties :
#
#
# Convention : Reuss Voigt Hill
#
# Bulk Modulus (GPa) = 16.10268 45.92399 31.01334
# Shear Modulus (GPa) = -1.36248 23.18305 10.91029
#
# Velocity S-wave (km/s) = -0.83708 3.45293 2.36875
# Velocity P-wave (km/s) = 2.71055 6.28609 4.84056
#
# Compressibility (1/GPa) = 0.06210145
#
# Stress axis : x y z
#
# Youngs Moduli (GPa) = 68.05144 23.24013 112.69365
#
# Poissons Ratio (x) = -0.02876 0.67651
# Poissons Ratio (y) = -0.08421 -0.28373
# Poissons Ratio (z) = 0.40852 -0.05851
#
# Static dielectric constant tensor:
#      x y z
#    x 1.656770 0.000000 -0.010130 
#    y 0.000000 1.749620 0.000000 
#    z -0.010130 0.000000 1.694360 
# 
# From -- ./inp_files/15874.got.cif
#   From: 2010.05.17/outbox.cif.g08.bks.cpg/sg8_8_cif.got.tgz:15874.got - 2010.06.03 19:46:02.
