data_PCOD9131242
_publ_section_title
;
Structure prediction by ZEFSAII (Michael W. Deem and Ramdas Pophale) SiO2 
 PCOD9131242
Probable space group: P C
;
_chemical_formula_sum "Si O2"
_cell_formula_units_Z 16
_cell_length_a 7.930200
_cell_length_b 16.212670
_cell_length_c 5.591471
_cell_angle_alpha 90.000000
_cell_angle_beta 124.730698
_cell_angle_gamma 90.000000
_cell_volume 590.814930
_symmetry_space_group_name_H-M "P C"
_symmetry_group_IT_number 7
_symmetry_cell_setting 'monoclinic'
loop_
_space_group_symop_operation_xyz
x,y,z
x,-y,1/2+z
loop_
_atom_site_type_symbol
_atom_site_label
_atom_site_fract_x
_atom_site_fract_y
_atom_site_fract_z
Si Si1 0.590550 0.541386 0.872820
Si Si2 0.902050 0.631866 0.394107
Si Si3 0.436698 0.037713 0.876079
Si Si4 0.254093 0.213276 0.637213
Si Si5 0.888267 0.024486 0.722725
Si Si6 0.621941 0.680863 0.552786
Si Si7 0.706264 0.206830 0.505129
Si Si8 0.226503 0.747235 0.634327
O O1 0.523020 0.485420 0.587524
O O2 0.535710 0.629656 0.710568
O O3 0.829705 0.564304 0.142607
O O4 0.782587 0.621253 0.549270
O O5 0.140461 0.653260 0.596398
O O6 0.796904 0.719706 0.239172
O O7 0.368274 0.127992 0.753375
O O8 0.377493 0.981075 0.601845
O O9 0.683894 0.031717 0.071182
O O10 0.421728 0.287592 0.752806
O O11 0.151387 0.228865 0.808941
O O12 0.130561 0.212190 0.293775
O O13 0.801800 0.118184 0.640075
O O14 0.994915 0.001073 0.059629
O O15 0.731259 0.760450 0.753404
O O16 0.456900 0.213539 0.327844
#
# Coordination Sequence:
#
# PCOD9131242 Si02
#       8
#     2   2   2   2   2   2   2   2
#     4  11  23  42  67  96 131 170 205 249 320 388
#     4  11  24  40  70 100 125 164 215 263 314 384
#     4  10  18  30  55  88 115 171 219 252 315 372
#     4  11  22  39  62  98 129 165 221 271 306 376
#     4  10  19  31  56  85 116 170 218 254 315 372
#     4  10  21  39  68  98 124 164 211 263 309 379
#     4  10  22  39  63  95 129 167 217 273 309 371
#     4  11  23  38  63  92 123 161 206 267 324 362
#
# _framework density 27.081236000000001
#
# number of rings (size 3 to 8) (size 9 to 14) (size 15 to 20)
#    0.000    1.500    2.500    5.250    5.250    0.000 
#    0.000    0.000    0.000   28.500    0.000    0.000 
#    0.000    0.000    0.000    0.000    0.000    0.000 
#
# Total GULP energy -89210.827333 kJ/mol
# GULP energy per Si atom -5575.676708 kJ/mol
# Density = 2.701960 g / cm^3
# Si number density = 27.081236 Si / 1000 Ang^3
#
#
#
# Elastic Constant Matrix: (Units=GPa)
#
#
# Indices 1 2 3 4 5 6 
#
# 1 138.8956 12.5105 50.1753 0.0000 -25.8355 0.0000
# 2 12.5105 105.3100 28.7817 0.0000 -13.1024 0.0000
# 3 50.1753 28.7817 155.3646 0.0000 -37.0753 0.0000
# 4 0.0000 0.0000 0.0000 53.4513 0.0000 -7.3307
# 5 -25.8355 -13.1024 -37.0753 0.0000 55.0004 0.0000
# 6 0.0000 0.0000 0.0000 -7.3307 0.0000 22.8226
#
#
#
# Elastic Compliance Matrix: (Units=1/GPa)
#
#
# Indices 1 2 3 4 5 6 
#
# 1 0.008438 -0.000114 -0.002103 0.000000 0.002519 0.000000
# 2 -0.000114 0.010089 -0.001515 0.000000 0.001328 0.000000
# 3 -0.002103 -0.001515 0.008431 0.000000 0.004334 0.000000
# 4 0.000000 0.000000 0.000000 0.019571 0.000000 0.006286
# 5 0.002519 0.001328 0.004334 0.000000 0.022603 0.000000
# 6 0.000000 0.000000 0.000000 0.006286 0.000000 0.045835
#
#
# Mechanical properties :
#
#
# Convention : Reuss Voigt Hill
#
# Bulk Modulus (GPa) = 51.30044 64.72281 58.01162
# Shear Modulus (GPa) = 38.78118 46.79505 42.78811
#
# Velocity S-wave (km/s) = 3.78832 4.16137 3.97922
# Velocity P-wave (km/s) = 6.17410 6.85863 6.52534
#
# Compressibility (1/GPa) = 0.01949301
#
# Stress axis : x y z
#
# Youngs Moduli (GPa) = 118.50978 99.12080 118.61618
#
# Poissons Ratio (x) = 0.01133 0.24943
# Poissons Ratio (y) = 0.01355 0.17971
# Poissons Ratio (z) = 0.24921 0.15017
#
# Static dielectric constant tensor:
#      x y z
#    x 2.263990 0.000000 -0.038550 
#    y 0.000000 2.131220 0.000000 
#    z -0.038550 0.000000 2.200350 
# 
# From -- ./inp_files/871.got.cif
#   From: 2010.05.17/outbox.cif.g08.bks.cpg/sg7_cif.got.tgz:871.got - 2010.06.03 19:44:50.
