data_PCOD9131952
_publ_section_title
;
Structure prediction by ZEFSAII (Michael W. Deem and Ramdas Pophale) SiO2 
 PCOD9131952
Probable space group: C M
;
_chemical_formula_sum "Si O2"
_cell_formula_units_Z 32
_cell_length_a 20.710268
_cell_length_b 8.647419
_cell_length_c 12.608198
_cell_angle_alpha 90.000000
_cell_angle_beta 53.375393
_cell_angle_gamma 90.000000
_cell_volume 1812.188945
_symmetry_space_group_name_H-M "C M"
_symmetry_group_IT_number 8
_symmetry_cell_setting 'monoclinic'
loop_
_space_group_symop_operation_xyz
x,y,z
x,-y,z
1/2+x,1/2+y,z
1/2+x,1/2-y,z
loop_
_atom_site_type_symbol
_atom_site_label
_atom_site_fract_x
_atom_site_fract_y
_atom_site_fract_z
Si Si1 0.714760 0.313524 0.873520
Si Si2 0.098480 0.813566 0.801857
Si Si3 0.540399 0.183434 0.642990
Si Si4 0.294678 0.312912 0.146881
Si Si5 0.954735 0.188058 0.101891
Si Si6 0.362076 0.315442 0.848106
Si Si7 0.068339 0.188019 0.172405
Si Si8 0.617304 0.685421 0.354525
O O1 0.722211 0.500000 0.869222
O O2 0.674823 0.270867 0.800002
O O3 0.798954 0.238249 0.821032
O O4 0.648520 0.268863 0.027818
O O5 0.092104 0.741748 0.692706
O O6 0.097369 0.000000 0.794016
O O7 0.019052 0.768634 0.947666
O O8 0.449392 0.242268 0.748280
O O9 0.575776 0.248458 0.499288
O O10 0.541236 0.000000 0.639597
O O11 0.287288 0.500000 0.158618
O O12 0.365798 0.262516 0.156848
O O13 0.209703 0.238177 0.256138
O O14 0.324311 0.271653 0.999328
O O15 0.992318 0.240189 0.176762
O O16 0.954089 0.000000 0.103465
O O17 0.370892 0.500000 0.838278
O O18 0.074831 0.240115 0.286842
O O19 0.066896 0.000000 0.174359
O O20 0.613629 0.500000 0.361120
#
# Coordination Sequence:
#
# PCOD9131952 Si02
#       8
#     4   4   4   4   4   4   4   4
#     4   9  17  32  57  87 115 143 182 231 281 332
#     4   9  17  34  58  83 113 147 183 228 285 337
#     4  12  25  39  56  79 113 152 195 237 282 335
#     4  10  19  33  56  84 113 143 181 229 277 330
#     4   8  14  29  54  82 110 138 175 223 275 327
#     4  11  21  35  57  85 116 149 190 232 277 331
#     4   8  15  29  53  82 108 140 179 222 272 328
#     4  11  22  37  57  80 112 148 187 228 281 342
#
# _framework density 17.658201999999999
#
# number of rings (size 3 to 8) (size 9 to 14) (size 15 to 20)
#    0.000    2.250    2.500    3.375    0.000    1.000 
#    0.000    1.250    0.000    6.000    0.000    0.000 
#    0.000    0.000    0.000    0.000    0.000    0.000 
#
# Total GULP energy -89262.766298 kJ/mol
# GULP energy per Si atom -5578.922894 kJ/mol
# Density = 1.761801 g / cm^3
# Si number density = 17.658202 Si / 1000 Ang^3
#
#
#
# Elastic Constant Matrix: (Units=GPa)
#
#
# Indices 1 2 3 4 5 6 
#
# 1 152.0994 37.7332 68.7842 0.0000 21.7125 0.0000
# 2 37.7332 38.6855 36.3480 0.0000 3.9812 0.0000
# 3 68.7842 36.3480 107.9507 0.0000 17.1650 0.0000
# 4 0.0000 0.0000 0.0000 19.9797 0.0000 -5.4385
# 5 21.7125 3.9812 17.1650 0.0000 26.3921 0.0000
# 6 0.0000 0.0000 0.0000 -5.4385 0.0000 25.2006
#
#
#
# Elastic Compliance Matrix: (Units=1/GPa)
#
#
# Indices 1 2 3 4 5 6 
#
# 1 0.010598 -0.006200 -0.003823 0.000000 -0.005297 0.000000
# 2 -0.006200 0.041635 -0.011021 0.000000 0.005988 0.000000
# 3 -0.003823 -0.011021 0.016335 0.000000 -0.005817 0.000000
# 4 0.000000 0.000000 0.000000 0.053174 0.000000 0.011475
# 5 -0.005297 0.005988 -0.005817 0.000000 0.045128 0.000000
# 6 0.000000 0.000000 0.000000 0.011475 0.000000 0.042158
#
#
# Mechanical properties :
#
#
# Convention : Reuss Voigt Hill
#
# Bulk Modulus (GPa) = 37.76255 64.94072 51.35164
# Shear Modulus (GPa) = 19.23510 24.70583 21.97046
#
# Velocity S-wave (km/s) = 3.30404 3.74453 3.53116
# Velocity P-wave (km/s) = 5.99894 7.45330 6.76531
#
# Compressibility (1/GPa) = 0.02648126
#
# Stress axis : x y z
#
# Youngs Moduli (GPa) = 94.36008 24.01819 61.21851
#
# Poissons Ratio (x) = 0.14891 0.23403
# Poissons Ratio (y) = 0.58502 0.67466
# Poissons Ratio (z) = 0.36072 0.26469
#
# Static dielectric constant tensor:
#      x y z
#    x 1.619510 0.000000 0.019220 
#    y 0.000000 1.593600 0.000000 
#    z 0.019220 0.000000 1.570510 
# 
# From -- ./inp_files/23831.got.cif
#   From: 2010.05.17/outbox.cif.g08.bks.cpg/sg8_12_cif.got.tgz:23831.got - 2010.06.03 19:46:02.
