data_PCOD9131749
_publ_section_title
;
Structure prediction by ZEFSAII (Michael W. Deem and Ramdas Pophale) SiO2 
 PCOD9131749
Probable space group: C M
;
_chemical_formula_sum "Si O2"
_cell_formula_units_Z 32
_cell_length_a 10.308008
_cell_length_b 17.266622
_cell_length_c 12.099657
_cell_angle_alpha 90.000000
_cell_angle_beta 126.444598
_cell_angle_gamma 90.000000
_cell_volume 1732.384684
_symmetry_space_group_name_H-M "C M"
_symmetry_group_IT_number 8
_symmetry_cell_setting 'monoclinic'
loop_
_space_group_symop_operation_xyz
x,y,z
x,-y,z
1/2+x,1/2+y,z
1/2+x,1/2-y,z
loop_
_atom_site_type_symbol
_atom_site_label
_atom_site_fract_x
_atom_site_fract_y
_atom_site_fract_z
Si Si1 0.059680 0.174408 0.855310
Si Si2 0.672811 0.905472 0.261676
Si Si3 0.312733 0.092684 0.133093
Si Si4 0.828618 0.909052 0.566719
Si Si5 0.779389 0.813450 0.884908
Si Si6 0.236298 0.905871 0.342475
Si Si7 0.055672 0.409594 0.610808
Si Si8 0.372789 0.593528 0.150345
O O1 0.182546 0.239367 0.877160
O O2 0.962356 0.137020 0.703668
O O3 0.926403 0.204096 0.875781
O O4 0.170595 0.113737 0.977562
O O5 0.489050 0.878399 0.185053
O O6 0.784773 0.881125 0.421544
O O7 0.747489 0.883373 0.182087
O O8 0.671710 0.000000 0.264743
O O9 0.270702 0.121311 0.234942
O O10 0.323605 0.000000 0.145128
O O11 0.662569 0.905162 0.553212
O O12 0.874901 0.000000 0.585403
O O13 0.652368 0.864699 0.752256
O O14 0.840756 0.862779 0.020183
O O15 0.377745 0.878472 0.494531
O O16 0.053978 0.887285 0.281436
O O17 0.249000 0.000000 0.347659
O O18 0.045817 0.500000 0.636474
O O19 0.364358 0.500000 0.129493
#
# Coordination Sequence:
#
# PCOD9131749 Si02
#       8
#     4   4   4   4   4   4   4   4
#     4  11  24  39  56  79 113 151 188 229 271 326
#     4   9  18  33  58  90 116 137 174 233 286 325
#     4  10  18  34  61  87 108 139 186 231 273 326
#     4   9  17  35  61  85 107 141 186 228 274 326
#     4  11  24  40  55  78 114 152 188 227 273 327
#     4   9  16  31  58  89 109 130 181 237 276 320
#     4   9  17  34  62  86 105 139 187 233 272 323
#     4  10  20  36  59  86 114 143 180 230 281 325
#
# _framework density 18.471648999999999
#
# number of rings (size 3 to 8) (size 9 to 14) (size 15 to 20)
#    0.000    2.250    2.500    0.750    1.750    1.000 
#    2.250    2.500    0.000    0.000    0.000    0.000 
#    0.000    0.000    0.000    0.000    0.000    0.000 
#
# Total GULP energy -89249.642387 kJ/mol
# GULP energy per Si atom -5578.102649 kJ/mol
# Density = 1.842961 g / cm^3
# Si number density = 18.471649 Si / 1000 Ang^3
#
#
#
# Elastic Constant Matrix: (Units=GPa)
#
#
# Indices 1 2 3 4 5 6 
#
# 1 94.3911 15.1457 25.2634 0.0000 12.8515 0.0000
# 2 15.1457 16.0147 2.6941 0.0000 2.8523 0.0000
# 3 25.2634 2.6941 83.3699 0.0000 13.2588 0.0000
# 4 0.0000 0.0000 0.0000 -21.1052 0.0000 -5.1256
# 5 12.8515 2.8523 13.2588 0.0000 29.7231 0.0000
# 6 0.0000 0.0000 0.0000 -5.1256 0.0000 14.6932
#
#
#
# Elastic Compliance Matrix: (Units=1/GPa)
#
#
# Indices 1 2 3 4 5 6 
#
# 1 0.013847 -0.011943 -0.003272 0.000000 -0.003381 0.000000
# 2 -0.011943 0.073934 0.001654 0.000000 -0.002669 0.000000
# 3 -0.003272 0.001654 0.013705 0.000000 -0.004858 0.000000
# 4 0.000000 0.000000 0.000000 -0.043681 0.000000 -0.015238
# 5 -0.003381 -0.002669 -0.004858 0.000000 0.037529 0.000000
# 6 0.000000 0.000000 0.000000 -0.015238 0.000000 0.062743
#
#
# Mechanical properties :
#
#
# Convention : Reuss Voigt Hill
#
# Bulk Modulus (GPa) = 13.44714 31.10912 22.27813
# Shear Modulus (GPa) = 23.81099 14.70707 19.25903
#
# Velocity S-wave (km/s) = 3.59424 2.82476 3.23248
# Velocity P-wave (km/s) = 4.95181 5.24568 5.10086
#
# Compressibility (1/GPa) = 0.07436523
#
# Stress axis : x y z
#
# Youngs Moduli (GPa) = 72.21947 13.52549 72.96399
#
# Poissons Ratio (x) = 0.16153 0.23876
# Poissons Ratio (y) = 0.86250 -0.12070
# Poissons Ratio (z) = 0.23632 -0.02238
#
# Static dielectric constant tensor:
#      x y z
#    x 1.629830 0.000000 0.001830 
#    y 0.000000 1.645660 0.000000 
#    z 0.001830 0.000000 1.625750 
# 
# From -- ./inp_files/15335.got.cif
#   From: 2010.05.17/outbox.cif.g08.bks.cpg/sg8_8_cif.got.tgz:15335.got - 2010.06.03 19:46:02.
