data_PCOD9131507
_publ_section_title
;
Structure prediction by ZEFSAII (Michael W. Deem and Ramdas Pophale) SiO2 
 PCOD9131507
Probable space group: C M
;
_chemical_formula_sum "Si O2"
_cell_formula_units_Z 24
_cell_length_a 15.763054
_cell_length_b 8.115464
_cell_length_c 17.411859
_cell_angle_alpha 90.000000
_cell_angle_beta 35.918977
_cell_angle_gamma 90.000000
_cell_volume 1306.685257
_symmetry_space_group_name_H-M "C M"
_symmetry_group_IT_number 8
_symmetry_cell_setting 'monoclinic'
loop_
_space_group_symop_operation_xyz
x,y,z
x,-y,z
1/2+x,1/2+y,z
1/2+x,1/2-y,z
loop_
_atom_site_type_symbol
_atom_site_label
_atom_site_fract_x
_atom_site_fract_y
_atom_site_fract_z
Si Si1 0.952400 0.692579 0.939840
Si Si2 0.767802 0.680339 0.218066
Si Si3 0.946922 0.500000 0.670461
Si Si4 0.575437 0.176612 0.084717
Si Si5 0.169340 0.500000 0.370904
Si Si6 0.604875 0.500000 0.908116
Si Si7 0.896583 0.191102 0.807294
Si Si8 0.995499 0.000000 0.167969
O O1 0.003523 0.500000 0.904934
O O2 0.921930 0.748571 0.875724
O O3 0.051503 0.835214 0.904067
O O4 0.811700 0.697608 0.097454
O O5 0.702072 0.500000 0.280502
O O6 0.677676 0.834196 0.314442
O O7 0.925171 0.678740 0.146800
O O8 0.776210 0.500000 0.781675
O O9 0.970337 0.329652 0.700387
O O10 0.040685 0.500000 0.525237
O O11 0.563870 0.333162 0.147722
O O12 0.586550 0.000000 0.115929
O O13 0.720919 0.192959 0.927621
O O14 0.324253 0.500000 0.301392
O O15 0.539801 0.500000 0.043359
O O16 0.942362 0.000000 0.762836
#
# Coordination Sequence:
#
# PCOD9131507 Si02
#       8
#     4   4   2   4   2   2   4   2
#     4  11  20  33  58  89 112 144 184 245 285 330
#     4   9  17  32  55  82 108 142 189 229 281 326
#     4  12  24  38  54  88 119 151 188 232 280 341
#     4   9  16  28  49  79 112 131 178 234 268 322
#     4  10  20  34  56  80 114 148 184 232 272 339
#     4  12  20  36  60  86 109 149 196 234 282 327
#     4  11  21  33  54  88 120 144 184 233 288 332
#     4  10  16  32  58  78 108 136 188 224 272 317
#
# _framework density 18.367084999999999
#
# number of rings (size 3 to 8) (size 9 to 14) (size 15 to 20)
#    0.000    1.667    6.667    0.000    0.000    1.333 
#    0.000    0.000    0.000    4.000    0.000    0.000 
#    0.000    0.000    0.000    0.000    0.000    0.000 
#
# Total GULP energy -66825.749091 kJ/mol
# GULP energy per Si atom -5568.812424 kJ/mol
# Density = 1.832528 g / cm^3
# Si number density = 18.367085 Si / 1000 Ang^3
#
#
#
# Elastic Constant Matrix: (Units=GPa)
#
#
# Indices 1 2 3 4 5 6 
#
# 1 55.4430 25.8600 19.4952 0.0000 8.7419 0.0000
# 2 25.8600 217.4460 47.5087 0.0000 15.6412 0.0000
# 3 19.4952 47.5087 76.2510 0.0000 8.1407 0.0000
# 4 0.0000 0.0000 0.0000 19.4691 0.0000 3.9431
# 5 8.7419 15.6412 8.1407 0.0000 14.3767 0.0000
# 6 0.0000 0.0000 0.0000 3.9431 0.0000 18.6201
#
#
#
# Elastic Compliance Matrix: (Units=1/GPa)
#
#
# Indices 1 2 3 4 5 6 
#
# 1 0.021380 -0.001012 -0.003795 0.000000 -0.009751 0.000000
# 2 -0.001012 0.005617 -0.002825 0.000000 -0.003896 0.000000
# 3 -0.003795 -0.002825 0.016253 0.000000 -0.003822 0.000000
# 4 0.000000 0.000000 0.000000 0.053665 0.000000 -0.011364
# 5 -0.009751 -0.003896 -0.003822 0.000000 0.081888 0.000000
# 6 0.000000 0.000000 0.000000 -0.011364 0.000000 0.056112
#
#
# Mechanical properties :
#
#
# Convention : Reuss Voigt Hill
#
# Bulk Modulus (GPa) = 35.73156 59.42975 47.58066
# Shear Modulus (GPa) = 19.26727 27.57827 23.42277
#
# Velocity S-wave (km/s) = 3.24236 3.87913 3.57495
# Velocity P-wave (km/s) = 5.78909 7.24503 6.55759
#
# Compressibility (1/GPa) = 0.02798646
#
# Stress axis : x y z
#
# Youngs Moduli (GPa) = 46.77185 178.04335 61.52769
#
# Poissons Ratio (x) = 0.18022 0.23348
# Poissons Ratio (y) = 0.04734 0.17380
# Poissons Ratio (z) = 0.17748 0.50293
#
# Static dielectric constant tensor:
#      x y z
#    x 1.657890 0.000000 -0.008050 
#    y 0.000000 1.750330 0.000000 
#    z -0.008050 0.000000 1.574330 
# 
# From -- ./inp_files/15774.got.cif
#   From: 2010.05.17/outbox.cif.g08.bks.cpg/sg8_8_cif.got.tgz:15774.got - 2010.06.03 19:46:02.
