data_PCOD9131915
_publ_section_title
;
Structure prediction by ZEFSAII (Michael W. Deem and Ramdas Pophale) SiO2 
 PCOD9131915
Probable space group: C M
;
_chemical_formula_sum "Si O2"
_cell_formula_units_Z 24
_cell_length_a 18.277390
_cell_length_b 9.123730
_cell_length_c 24.181756
_cell_angle_alpha 90.000000
_cell_angle_beta 19.617844
_cell_angle_gamma 90.000000
_cell_volume 1353.891683
_symmetry_space_group_name_H-M "C M"
_symmetry_group_IT_number 8
_symmetry_cell_setting 'monoclinic'
loop_
_space_group_symop_operation_xyz
x,y,z
x,-y,z
1/2+x,1/2+y,z
1/2+x,1/2-y,z
loop_
_atom_site_type_symbol
_atom_site_label
_atom_site_fract_x
_atom_site_fract_y
_atom_site_fract_z
Si Si1 0.384330 0.826150 0.682860
Si Si2 0.949976 0.830429 0.041969
Si Si3 0.345705 0.673771 0.319245
Si Si4 0.296499 0.670975 0.023595
Si Si5 0.714821 0.173651 0.693271
Si Si6 0.174864 0.174427 0.329206
O O1 0.641635 0.802334 0.506452
O O2 0.310545 0.725568 0.684340
O O3 0.356040 0.000000 0.687872
O O4 0.209981 0.799093 0.855323
O O5 0.871867 0.816815 0.033982
O O6 0.811737 0.726481 0.179368
O O7 0.918294 0.000000 0.081536
O O8 0.376372 0.500000 0.291695
O O9 0.568132 0.748642 0.178891
O O10 0.269251 0.741513 0.315324
O O11 0.274988 0.500000 0.025710
O O12 0.486945 0.742464 0.850812
O O13 0.915717 0.208228 0.509297
O O14 0.676346 0.000000 0.720326
O O15 0.193444 0.000000 0.324566
#
# Coordination Sequence:
#
# PCOD9131915 Si02
#       6
#     4   4   4   4   4   4
#     4   8  16  31  50  72  97 129 166 202 243 293
#     4   9  18  33  52  73  99 132 167 204 247 293
#     4  10  19  33  54  76 100 131 166 204 248 295
#     4  10  20  34  52  75 102 130 165 207 249 294
#     4   9  17  30  49  72  97 129 168 204 241 291
#     4  10  20  33  51  76 103 131 166 205 244 292
#
# _framework density 17.726676999999999
#
# number of rings (size 3 to 8) (size 9 to 14) (size 15 to 20)
#    0.000    2.667    0.000    3.000    0.000    6.000 
#    0.000    1.667    0.000    6.000    0.000    0.000 
#    0.000    0.000    0.000    0.000    0.000    0.000 
#
# Total GULP energy -66842.845303 kJ/mol
# GULP energy per Si atom -5570.237109 kJ/mol
# Density = 1.768633 g / cm^3
# Si number density = 17.726677 Si / 1000 Ang^3
#
#
#
# Elastic Constant Matrix: (Units=GPa)
#
#
# Indices 1 2 3 4 5 6 
#
# 1 12.7162 21.8990 35.2911 0.0089 -4.5180 -0.0032
# 2 21.8990 94.4004 90.8960 0.0315 -4.0735 -0.0008
# 3 35.2911 90.8960 190.4092 -0.0014 -11.2811 -0.0041
# 4 0.0089 0.0315 -0.0014 34.0337 -0.0020 -1.3602
# 5 -4.5180 -4.0735 -11.2811 -0.0020 28.2459 -0.0037
# 6 -0.0032 -0.0008 -0.0041 -1.3602 -0.0037 25.4137
#
#
#
# Elastic Compliance Matrix: (Units=1/GPa)
#
#
# Indices 1 2 3 4 5 6 
#
# 1 0.183910 -0.018654 -0.024170 -0.000030 0.017073 0.000019
# 2 -0.018654 0.021520 -0.006974 -0.000016 -0.002665 -0.000004
# 3 -0.024170 -0.006974 0.013082 0.000013 0.000353 0.000000
# 4 -0.000030 -0.000016 0.000013 0.029446 0.000001 0.001576
# 5 0.017073 -0.002665 0.000353 0.000001 0.037891 0.000008
# 6 0.000019 -0.000004 0.000000 0.001576 0.000008 0.039433
#
#
# Mechanical properties :
#
#
# Convention : Reuss Voigt Hill
#
# Bulk Modulus (GPa) = 8.40925 65.96644 37.18785
# Shear Modulus (GPa) = 10.76389 27.50131 19.13260
#
# Velocity S-wave (km/s) = 2.46685 3.94306 3.28885
# Velocity P-wave (km/s) = 3.58719 7.61736 5.95366
#
# Compressibility (1/GPa) = 0.11891664
#
# Stress axis : x y z
#
# Youngs Moduli (GPa) = 5.43744 46.46766 76.44293
#
# Poissons Ratio (x) = 0.86679 1.84765
# Poissons Ratio (y) = 0.10143 0.53310
# Poissons Ratio (z) = 0.13142 0.32406
#
# Static dielectric constant tensor:
#      x y z
#    x 1.581090 0.000000 -0.000230 
#    y 0.000000 1.590600 0.000010 
#    z -0.000230 0.000010 1.654870 
# 
# From -- ./inp_files/14192.got.cif
#   From: 2010.05.17/outbox.cif.g08.bks.cpg/sg8_8_cif.got.tgz:14192.got - 2010.06.03 19:46:02.
