data_PCOD9131189
_publ_section_title
;
Structure prediction by ZEFSAII (Michael W. Deem and Ramdas Pophale) SiO2 
 PCOD9131189
Probable space group: P M
;
_chemical_formula_sum "Si O2"
_cell_formula_units_Z 16
_cell_length_a 12.000000
_cell_length_b 9.000000
_cell_length_c 9.000000
_cell_angle_alpha 90.000000
_cell_angle_beta 120.000000
_cell_angle_gamma 90.000000
_cell_volume 841.776692
_symmetry_space_group_name_H-M "P M"
_symmetry_group_IT_number 6
_symmetry_cell_setting 'monoclinic'
loop_
_space_group_symop_operation_xyz
x,y,z
x,-y,z
loop_
_atom_site_type_symbol
_atom_site_label
_atom_site_fract_x
_atom_site_fract_y
_atom_site_fract_z
Si Si1 0.558330 0.164722 0.237230
Si Si2 0.841594 0.667932 0.728069
Si Si3 0.334283 0.178766 0.626586
Si Si4 0.336679 0.326965 0.952438
Si Si5 0.090134 0.823936 0.826197
Si Si6 0.080052 0.677482 0.490662
Si Si7 0.588337 0.830087 0.613270
Si Si8 0.797701 0.668078 0.338735
O O1 0.464982 0.294879 0.126717
O O2 0.569216 0.166719 0.422434
O O3 0.693432 0.204278 0.250841
O O4 0.512909 0.000000 0.161927
O O5 0.870032 0.500000 0.792198
O O6 0.713141 0.728596 0.719081
O O7 0.819824 0.666084 0.533490
O O8 0.965245 0.771323 0.831384
O O9 0.198181 0.248296 0.482690
O O10 0.457403 0.216885 0.607740
O O11 0.323482 0.000000 0.627624
O O12 0.352945 0.248007 0.803101
O O13 0.309632 0.500000 0.914801
O O14 0.222797 0.247403 0.967763
O O15 0.082393 0.754032 0.655071
O O16 0.096885 0.000000 0.821759
O O17 0.099554 0.500000 0.516789
O O18 0.932075 0.698472 0.345644
O O19 0.616024 0.000000 0.678483
O O20 0.755000 0.500000 0.271470
#
# Coordination Sequence:
#
# PCOD9131189 Si02
#       8
#     2   2   2   2   2   2   2   2
#     4  10  19  32  50  72  97 126 160 198 241 288
#     4   9  16  27  45  69  96 124 157 197 239 282
#     4  10  19  32  50  73 100 129 162 198 239 287
#     4  11  21  33  49  71  99 129 162 200 242 287
#     4  10  17  27  45  68  94 123 158 200 242 281
#     4   9  16  27  44  68  96 124 158 198 239 282
#     4   9  19  33  50  73 100 129 161 198 239 286
#     4   8  15  27  43  66  94 122 154 195 237 279
#
# _framework density 19.007415999999999
#
# number of rings (size 3 to 8) (size 9 to 14) (size 15 to 20)
#    0.000    2.500    0.000    6.000    0.000    5.000 
#    0.000    0.000    0.000    1.500    0.000    5.250 
#    0.000    0.000    0.000    0.000    0.000    0.000 
#
# Total GULP energy -89095.246306 kJ/mol
# GULP energy per Si atom -5568.452894 kJ/mol
# Density = 1.896415 g / cm^3
# Si number density = 19.007416 Si / 1000 Ang^3
#
#
#
# Elastic Constant Matrix: (Units=GPa)
#
#
# Indices 1 2 3 4 5 6 
#
# 1 162.6996 74.1625 6.6515 0.0000 19.1388 0.0000
# 2 74.1625 115.8193 11.4604 0.0000 13.4174 0.0000
# 3 6.6515 11.4604 1.8285 0.0000 9.3335 0.0000
# 4 0.0000 0.0000 0.0000 15.5715 0.0000 10.6079
# 5 19.1388 13.4174 9.3335 0.0000 13.7212 0.0000
# 6 0.0000 0.0000 0.0000 10.6079 0.0000 33.4100
#
#
#
# Elastic Compliance Matrix: (Units=1/GPa)
#
#
# Indices 1 2 3 4 5 6 
#
# 1 0.008418 -0.004226 -0.014039 0.000000 0.001940 0.000000
# 2 -0.004226 0.011746 0.012016 0.000000 -0.013765 0.000000
# 3 -0.014039 0.012016 -0.195238 0.000000 0.140639 0.000000
# 4 0.000000 0.000000 0.000000 0.081944 0.000000 -0.026018
# 5 0.001940 -0.013765 0.140639 0.000000 -0.012033 0.000000
# 6 0.000000 0.000000 0.000000 -0.026018 0.000000 0.038192
#
#
# Mechanical properties :
#
#
# Convention : Reuss Voigt Hill
#
# Bulk Modulus (GPa) = -5.33127 51.65514 23.16194
# Shear Modulus (GPa) = -42.73637 25.07873 -8.82882
#
# Velocity S-wave (km/s) = -4.74688 3.63632 -2.15755
# Velocity P-wave (km/s) = 5.73191 6.69819 2.45061
#
# Compressibility (1/GPa) = -0.18757257
#
# Stress axis : x y z
#
# Youngs Moduli (GPa) = 118.78761 85.13634 -5.12195
#
# Poissons Ratio (x) = 0.35980 -0.07191
# Poissons Ratio (y) = 0.50201 0.06155
# Poissons Ratio (z) = 1.66769 -1.02300
#
# Static dielectric constant tensor:
#      x y z
#    x 1.695930 0.000000 0.062700 
#    y 0.000000 1.612220 0.000000 
#    z 0.062700 0.000000 1.707440 
# 
# From -- ./inp_files/3656.got.cif
#   From: 2010.05.17/outbox.ucp.g08.bks.cvg/sg6_2_cif.got.tgz:3656.got - 2010.06.11 12:59:37.
