data_PCOD9131699
_publ_section_title
;
Structure prediction by ZEFSAII (Michael W. Deem and Ramdas Pophale) SiO2 
 PCOD9131699
Probable space group: C M
;
_chemical_formula_sum "Si O2"
_cell_formula_units_Z 32
_cell_length_a 8.871458
_cell_length_b 20.463311
_cell_length_c 8.823365
_cell_angle_alpha 90.000000
_cell_angle_beta 56.318608
_cell_angle_gamma 90.000000
_cell_volume 1332.903050
_symmetry_space_group_name_H-M "C M"
_symmetry_group_IT_number 8
_symmetry_cell_setting 'monoclinic'
loop_
_space_group_symop_operation_xyz
x,y,z
x,-y,z
1/2+x,1/2+y,z
1/2+x,1/2-y,z
loop_
_atom_site_type_symbol
_atom_site_label
_atom_site_fract_x
_atom_site_fract_y
_atom_site_fract_z
Si Si1 0.968710 0.800417 0.897280
Si Si2 0.907427 0.929158 0.081016
Si Si3 0.396388 0.426672 0.448886
Si Si4 0.340209 0.153902 0.626659
Si Si5 0.800196 0.427529 0.365857
Si Si6 0.834554 0.572725 0.881569
Si Si7 0.843114 0.675077 0.147544
Si Si8 0.971240 0.792175 0.530348
O O1 0.966469 0.790165 0.716746
O O2 0.179111 0.813940 0.812530
O O3 0.920245 0.739305 0.028246
O O4 0.862246 0.865106 0.009449
O O5 0.874086 0.920056 0.279892
O O6 0.831275 0.000000 0.076425
O O7 0.126022 0.935089 0.946149
O O8 0.323490 0.500000 0.531957
O O9 0.610681 0.432101 0.378731
O O10 0.351205 0.355486 0.547761
O O11 0.258473 0.103852 0.550989
O O12 0.446470 0.107189 0.683485
O O13 0.423807 0.218441 0.507277
O O14 0.874406 0.500000 0.337388
O O15 0.934014 0.374318 0.217596
O O16 0.898632 0.500000 0.887556
O O17 0.824652 0.623838 0.021670
O O18 0.163377 0.803740 0.340187
#
# Coordination Sequence:
#
# PCOD9131699 Si02
#       8
#     4   4   4   4   4   4   4   4
#     4  11  23  38  55  88 118 151 191 235 287 342
#     4   9  18  32  55  83 110 145 189 235 282 328
#     4   9  17  32  55  82 112 144 186 238 282 326
#     4  11  22  36  58  88 117 151 189 233 289 342
#     4  10  19  34  56  87 116 144 191 244 284 326
#     4  10  18  33  56  83 112 144 191 241 280 324
#     4  11  21  37  58  84 117 152 185 236 287 337
#     4  11  22  38  55  87 120 149 190 236 287 341
#
# _framework density 24.007746000000001
#
# number of rings (size 3 to 8) (size 9 to 14) (size 15 to 20)
#    0.000    1.750    6.250    0.750    1.750    1.000 
#    0.000    0.000    0.000    3.000    0.000    0.000 
#    0.000    0.000    0.000    0.000    0.000    0.000 
#
# Total GULP energy -89075.455725 kJ/mol
# GULP energy per Si atom -5567.215983 kJ/mol
# Density = 2.395310 g / cm^3
# Si number density = 24.007746 Si / 1000 Ang^3
#
#
#
# Elastic Constant Matrix: (Units=GPa)
#
#
# Indices 1 2 3 4 5 6 
#
# 1 26.0974 10.2254 7.0255 0.0000 -12.8278 0.0000
# 2 10.2254 240.6604 75.8199 0.0000 -13.7954 0.0000
# 3 7.0255 75.8199 105.9338 0.0000 -1.8200 0.0000
# 4 0.0000 0.0000 0.0000 30.8632 0.0000 7.2293
# 5 -12.8278 -13.7954 -1.8200 0.0000 13.2419 0.0000
# 6 0.0000 0.0000 0.0000 7.2293 0.0000 14.8362
#
#
#
# Elastic Compliance Matrix: (Units=1/GPa)
#
#
# Indices 1 2 3 4 5 6 
#
# 1 0.076090 0.002972 -0.005868 0.000000 0.076000 0.000000
# 2 0.002972 0.005844 -0.004236 0.000000 0.008386 0.000000
# 3 -0.005868 -0.004236 0.012717 0.000000 -0.008349 0.000000
# 4 0.000000 0.000000 0.000000 0.036576 0.000000 -0.017822
# 5 0.076000 0.008386 -0.008349 0.000000 0.156730 0.000000
# 6 0.000000 0.000000 0.000000 -0.017822 0.000000 0.076087
#
#
# Mechanical properties :
#
#
# Convention : Reuss Voigt Hill
#
# Bulk Modulus (GPa) = 12.43961 62.09258 37.26609
# Shear Modulus (GPa) = 12.34252 30.42964 21.38608
#
# Velocity S-wave (km/s) = 2.26985 3.56405 2.98786
# Velocity P-wave (km/s) = 3.47309 6.54647 5.24017
#
# Compressibility (1/GPa) = 0.08038840
#
# Stress axis : x y z
#
# Youngs Moduli (GPa) = 13.14233 171.11166 78.63298
#
# Poissons Ratio (x) = -0.50859 0.46141
# Poissons Ratio (y) = -0.03906 0.33308
# Poissons Ratio (z) = 0.07712 0.72481
#
# Static dielectric constant tensor:
#      x y z
#    x 2.019810 0.000000 -0.000840 
#    y 0.000000 2.065320 0.000000 
#    z -0.000840 0.000000 1.963800 
# 
# From -- ./inp_files/11051.got.cif
#   From: 2010.05.17/outbox.cif.g08.bks.cpg/sg8_6_cif.got.tgz:11051.got - 2010.06.03 19:46:02.
