data_PCOD9131939
_publ_section_title
;
Structure prediction by ZEFSAII (Michael W. Deem and Ramdas Pophale) SiO2 
 PCOD9131939
Probable space group: C M
;
_chemical_formula_sum "Si O2"
_cell_formula_units_Z 32
_cell_length_a 20.640413
_cell_length_b 8.795661
_cell_length_c 25.735512
_cell_angle_alpha 90.000000
_cell_angle_beta 156.910371
_cell_angle_gamma 90.000000
_cell_volume 1832.292178
_symmetry_space_group_name_H-M "C M"
_symmetry_group_IT_number 8
_symmetry_cell_setting 'monoclinic'
loop_
_space_group_symop_operation_xyz
x,y,z
x,-y,z
1/2+x,1/2+y,z
1/2+x,1/2-y,z
loop_
_atom_site_type_symbol
_atom_site_label
_atom_site_fract_x
_atom_site_fract_y
_atom_site_fract_z
Si Si1 0.060210 0.182185 0.266950
Si Si2 0.830242 0.181074 0.190593
Si Si3 0.848694 0.818592 0.550837
Si Si4 0.186833 0.183489 0.745863
Si Si5 0.156007 0.182061 0.500072
Si Si6 0.044431 0.184855 0.529525
Si Si7 0.661494 0.182666 0.235907
Si Si8 0.536509 0.680285 0.035451
O O1 0.221944 0.241181 0.416965
O O2 0.060512 0.255683 0.210628
O O3 0.905358 0.221629 0.189821
O O4 0.067737 0.000000 0.268917
O O5 0.669549 0.268908 0.090389
O O6 0.979647 0.209506 0.341631
O O7 0.797066 0.000000 0.167221
O O8 0.793331 0.763616 0.566747
O O9 0.035087 0.779912 0.672392
O O10 0.829252 0.000000 0.531801
O O11 0.128997 0.231971 0.645490
O O12 0.207091 0.000000 0.760579
O O13 0.356373 0.259629 0.887457
O O14 0.138798 0.232508 0.546860
O O15 0.183470 0.000000 0.518456
O O16 0.852803 0.231940 0.384764
O O17 0.042601 0.000000 0.527934
O O18 0.594134 0.245254 0.132117
O O19 0.657677 0.000000 0.232306
O O20 0.536157 0.500000 0.040468
#
# Coordination Sequence:
#
# PCOD9131939 Si02
#       8
#     4   4   4   4   4   4   4   4
#     4  10  20  34  56  87 117 145 185 235 284 333
#     4   9  18  35  57  80 113 153 186 224 281 342
#     4  10  19  33  55  83 113 148 189 230 280 337
#     4  10  21  39  59  79 109 154 195 228 279 346
#     4   9  17  32  56  84 113 143 180 232 286 335
#     4   9  17  34  59  84 108 142 190 229 274 335
#     4  11  20  37  61  85 114 148 190 236 281 338
#     4  12  25  38  55  84 117 151 193 238 283 334
#
# _framework density 17.464464
#
# number of rings (size 3 to 8) (size 9 to 14) (size 15 to 20)
#    0.000    2.000    2.500    3.000    0.000    3.500 
#    0.000    1.875    0.000    4.500    0.000    0.000 
#    0.000    0.000    0.000    0.000    0.000    0.000 
#
# Total GULP energy -89310.609330 kJ/mol
# GULP energy per Si atom -5581.913083 kJ/mol
# Density = 1.742471 g / cm^3
# Si number density = 17.464464 Si / 1000 Ang^3
#
#
#
# Elastic Constant Matrix: (Units=GPa)
#
#
# Indices 1 2 3 4 5 6 
#
# 1 156.9838 54.6855 77.5732 0.0000 14.0853 0.0000
# 2 54.6855 59.6711 50.2080 -0.0012 12.8579 -0.0001
# 3 77.5732 50.2080 110.0045 -0.0005 7.7670 0.0000
# 4 0.0000 -0.0012 -0.0005 21.0454 0.0005 2.2881
# 5 14.0853 12.8579 7.7670 0.0005 24.9425 0.0001
# 6 0.0000 -0.0001 0.0000 2.2881 0.0001 31.4286
#
#
#
# Elastic Compliance Matrix: (Units=1/GPa)
#
#
# Indices 1 2 3 4 5 6 
#
# 1 0.010924 -0.005263 -0.005171 0.000000 -0.001846 0.000000
# 2 -0.005263 0.032656 -0.010444 0.000002 -0.010610 0.000000
# 3 -0.005171 -0.010444 0.017298 0.000000 0.002918 0.000000
# 4 0.000000 0.000002 0.000000 0.047895 -0.000002 -0.003487
# 5 -0.001846 -0.010610 0.002918 -0.000002 0.045695 0.000000
# 6 0.000000 0.000000 0.000000 -0.003487 0.000000 0.032072
#
#
# Mechanical properties :
#
#
# Convention : Reuss Voigt Hill
#
# Bulk Modulus (GPa) = 52.29697 76.84366 64.57031
# Shear Modulus (GPa) = 21.30634 25.09615 23.20124
#
# Velocity S-wave (km/s) = 3.49661 3.79487 3.64879
# Velocity P-wave (km/s) = 6.80526 7.95594 7.40299
#
# Compressibility (1/GPa) = 0.01912157
#
# Stress axis : x y z
#
# Youngs Moduli (GPa) = 91.53836 30.62247 57.80910
#
# Poissons Ratio (x) = 0.16115 0.29895
# Poissons Ratio (y) = 0.48173 0.60378
# Poissons Ratio (z) = 0.47338 0.31983
#
# Static dielectric constant tensor:
#      x y z
#    x 1.606610 0.000000 0.005940 
#    y 0.000000 1.584870 0.000000 
#    z 0.005940 0.000000 1.560810 
# 
# From -- ./inp_files/31328.got.cif
#   From: 2010.05.17/outbox.cif.g08.bks.cpg/sg8_16_cif.got.tgz:31328.got - 2010.06.03 19:46:02.
