data_PCOD9131944
_publ_section_title
;
Structure prediction by ZEFSAII (Michael W. Deem and Ramdas Pophale) SiO2 
 PCOD9131944
Probable space group: C M
;
_chemical_formula_sum "Si O2"
_cell_formula_units_Z 32
_cell_length_a 20.434112
_cell_length_b 8.788225
_cell_length_c 12.468271
_cell_angle_alpha 90.000000
_cell_angle_beta 126.101308
_cell_angle_gamma 90.000000
_cell_volume 1809.097042
_symmetry_space_group_name_H-M "C M"
_symmetry_group_IT_number 8
_symmetry_cell_setting 'monoclinic'
loop_
_space_group_symop_operation_xyz
x,y,z
x,-y,z
1/2+x,1/2+y,z
1/2+x,1/2-y,z
loop_
_atom_site_type_symbol
_atom_site_label
_atom_site_fract_x
_atom_site_fract_y
_atom_site_fract_z
Si Si1 0.328780 0.817751 0.156620
Si Si2 0.916595 0.317893 0.911165
Si Si3 0.731076 0.317629 0.685086
Si Si4 0.690466 0.182061 0.869539
Si Si5 0.978908 0.181240 0.194009
Si Si6 0.713132 0.680629 0.238008
Si Si7 0.157197 0.681018 0.398188
Si Si8 0.578511 0.181208 0.954564
O O1 0.416079 0.746128 0.220669
O O2 0.288971 0.784354 0.233737
O O3 0.331797 0.000000 0.145730
O O4 0.267112 0.748954 0.008894
O O5 0.917614 0.500000 0.933725
O O6 0.826194 0.276940 0.788985
O O7 0.985007 0.286030 0.888037
O O8 0.943433 0.233789 0.045064
O O9 0.724650 0.500000 0.673471
O O10 0.688247 0.256554 0.751087
O O11 0.693893 0.244642 0.543326
O O12 0.612919 0.215766 0.869925
O O13 0.699165 0.000000 0.868841
O O14 0.067661 0.250793 0.294327
O O15 0.982757 0.000000 0.202823
O O16 0.710390 0.500000 0.253436
O O17 0.710279 0.765603 0.347817
O O18 0.634381 0.730939 0.093625
O O19 0.152285 0.500000 0.396033
O O20 0.591244 0.000000 0.984611
#
# Coordination Sequence:
#
# PCOD9131944 Si02
#       8
#     4   4   4   4   4   4   4   4
#     4  10  20  35  57  86 119 153 191 240 292 341
#     4  10  20  36  59  86 116 152 192 237 288 341
#     4  11  23  39  59  83 117 156 197 242 292 348
#     4  10  19  33  55  85 118 152 193 238 287 341
#     4  12  23  36  59  89 118 149 196 247 290 344
#     4  10  20  35  57  86 117 151 193 239 289 344
#     4  12  25  41  60  82 117 158 198 242 297 353
#     4   9  18  33  56  85 116 151 190 235 285 340
#
# _framework density 17.688383000000002
#
# number of rings (size 3 to 8) (size 9 to 14) (size 15 to 20)
#    0.000    1.500    2.500    3.750    0.000    2.500 
#    0.000    1.250    0.000    6.000    0.000    0.000 
#    0.000    0.000    0.000    0.000    0.000    0.000 
#
# Total GULP energy -89383.251150 kJ/mol
# GULP energy per Si atom -5586.453197 kJ/mol
# Density = 1.764812 g / cm^3
# Si number density = 17.688383 Si / 1000 Ang^3
#
#
#
# Elastic Constant Matrix: (Units=GPa)
#
#
# Indices 1 2 3 4 5 6 
#
# 1 135.5723 67.1517 66.3947 0.0000 -14.5201 0.0000
# 2 67.1517 94.8200 61.9397 0.0000 -7.8457 0.0000
# 3 66.3947 61.9397 109.6054 0.0000 -15.8569 0.0000
# 4 0.0000 0.0000 0.0000 30.7370 0.0000 -3.5308
# 5 -14.5201 -7.8457 -15.8569 0.0000 24.7979 0.0000
# 6 0.0000 0.0000 0.0000 -3.5308 0.0000 30.2003
#
#
#
# Elastic Compliance Matrix: (Units=1/GPa)
#
#
# Indices 1 2 3 4 5 6 
#
# 1 0.012603 -0.006300 -0.003631 0.000000 0.003065 0.000000
# 2 -0.006300 0.019883 -0.007761 0.000000 -0.002361 0.000000
# 3 -0.003631 -0.007761 0.016580 0.000000 0.006021 0.000000
# 4 0.000000 0.000000 0.000000 0.032977 0.000000 0.003855
# 5 0.003065 -0.002361 0.006021 0.000000 0.045223 0.000000
# 6 0.000000 0.000000 0.000000 0.003855 0.000000 0.033563
#
#
# Mechanical properties :
#
#
# Convention : Reuss Voigt Hill
#
# Bulk Modulus (GPa) = 73.09189 81.21888 77.15539
# Shear Modulus (GPa) = 24.90368 26.78114 25.84241
#
# Velocity S-wave (km/s) = 3.75629 3.89530 3.82643
# Velocity P-wave (km/s) = 7.76045 8.13925 7.95211
#
# Compressibility (1/GPa) = 0.01368141
#
# Stress axis : x y z
#
# Youngs Moduli (GPa) = 79.34550 50.29524 60.31375
#
# Poissons Ratio (x) = 0.31687 0.21898
# Poissons Ratio (y) = 0.49990 0.46810
# Poissons Ratio (z) = 0.28808 0.39035
#
# Static dielectric constant tensor:
#      x y z
#    x 1.627970 0.000000 -0.007810 
#    y 0.000000 1.590540 0.000000 
#    z -0.007810 0.000000 1.557710 
# 
# From -- ./inp_files/23729.got.cif
#   From: 2010.05.17/outbox.cif.g08.bks.cpg/sg8_12_cif.got.tgz:23729.got - 2010.06.03 19:46:02.
