data_PCOD9131986
_publ_section_title
;
Structure prediction by ZEFSAII (Michael W. Deem and Ramdas Pophale) SiO2 
 PCOD9131986
Probable space group: C M
;
_chemical_formula_sum "Si O2"
_cell_formula_units_Z 32
_cell_length_a 28.598532
_cell_length_b 8.671637
_cell_length_c 14.072653
_cell_angle_alpha 90.000000
_cell_angle_beta 149.987717
_cell_angle_gamma 90.000000
_cell_volume 1745.629345
_symmetry_space_group_name_H-M "C M"
_symmetry_group_IT_number 8
_symmetry_cell_setting 'monoclinic'
loop_
_space_group_symop_operation_xyz
x,y,z
x,-y,z
1/2+x,1/2+y,z
1/2+x,1/2-y,z
loop_
_atom_site_type_symbol
_atom_site_label
_atom_site_fract_x
_atom_site_fract_y
_atom_site_fract_z
Si Si1 0.390030 0.182754 0.646620
Si Si2 0.778055 0.186488 0.943185
Si Si3 0.156468 0.681239 0.907236
Si Si4 0.174585 0.185782 0.577821
Si Si5 0.463588 0.319680 0.596913
Si Si6 0.772863 0.321038 0.267358
Si Si7 0.850395 0.185304 0.782092
Si Si8 0.963027 0.187035 0.168841
O O1 0.463594 0.272040 0.708863
O O2 0.293839 0.205495 0.416132
O O3 0.381830 0.246532 0.737104
O O4 0.409610 0.000000 0.679709
O O5 0.735003 0.227426 0.968907
O O6 0.712712 0.256267 0.746201
O O7 0.775614 0.000000 0.930433
O O8 0.884465 0.235389 0.107444
O O9 0.138351 0.500000 0.866459
O O10 0.060766 0.771842 0.722705
O O11 0.196258 0.719736 0.081139
O O12 0.248497 0.251929 0.632042
O O13 0.068385 0.239807 0.372791
O O14 0.177103 0.000000 0.579083
O O15 0.445260 0.500000 0.554408
O O16 0.374443 0.224191 0.402938
O O17 0.751912 0.500000 0.215107
O O18 0.847896 0.000000 0.773465
O O19 0.920610 0.230732 0.991453
O O20 0.965946 0.000000 0.175925
#
# Coordination Sequence:
#
# PCOD9131986 Si02
#       8
#     4   4   4   4   4   4   4   4
#     4   9  19  37  57  80 112 144 180 233 279 323
#     4   9  20  37  55  78 110 143 178 225 274 326
#     4  11  21  35  57  83 112 149 189 231 280 334
#     4  10  19  34  56  81 108 140 179 227 274 325
#     4  10  20  36  56  78 109 148 187 227 276 330
#     4   9  20  37  55  78 111 144 182 234 278 326
#     4  10  19  35  57  79 108 145 181 220 272 333
#     4   8  17  35  55  77 106 139 176 217 267 325
#
# _framework density 18.331496999999999
#
# number of rings (size 3 to 8) (size 9 to 14) (size 15 to 20)
#    0.750    1.750    0.000    3.375    0.000    2.000 
#    2.250    7.500    0.000    0.000    0.000    0.000 
#    0.000    0.000    0.000    0.000    0.000    0.000 
#
# Total GULP energy -89115.619328 kJ/mol
# GULP energy per Si atom -5569.726208 kJ/mol
# Density = 1.828977 g / cm^3
# Si number density = 18.331497 Si / 1000 Ang^3
#
#
#
# Elastic Constant Matrix: (Units=GPa)
#
#
# Indices 1 2 3 4 5 6 
#
# 1 52.1130 12.6441 4.3589 0.0000 3.7304 0.0000
# 2 12.6441 27.8270 -5.7023 0.0000 -0.3943 0.0000
# 3 4.3589 -5.7023 72.1686 0.0000 16.9493 0.0000
# 4 0.0000 0.0000 0.0000 27.1937 0.0000 0.2654
# 5 3.7304 -0.3943 16.9493 0.0000 15.2239 0.0000
# 6 0.0000 0.0000 0.0000 0.2654 0.0000 27.3010
#
#
#
# Elastic Compliance Matrix: (Units=1/GPa)
#
#
# Indices 1 2 3 4 5 6 
#
# 1 0.022108 -0.010335 -0.001106 0.000000 -0.004454 0.000000
# 2 -0.010335 0.041466 0.004135 0.000000 -0.000997 0.000000
# 3 -0.001106 0.004135 0.019175 0.000000 -0.020970 0.000000
# 4 0.000000 0.000000 0.000000 0.036777 0.000000 -0.000357
# 5 -0.004454 -0.000997 -0.020970 0.000000 0.090098 0.000000
# 6 0.000000 0.000000 0.000000 -0.000357 0.000000 0.036632
#
#
# Mechanical properties :
#
#
# Convention : Reuss Voigt Hill
#
# Bulk Modulus (GPa) = 14.67663 19.41221 17.04442
# Shear Modulus (GPa) = 17.63167 23.33092 20.48130
#
# Velocity S-wave (km/s) = 3.10469 3.57139 3.34619
# Velocity P-wave (km/s) = 4.56900 5.25538 4.92416
#
# Compressibility (1/GPa) = 0.06813551
#
# Stress axis : x y z
#
# Youngs Moduli (GPa) = 45.23252 24.11638 52.15154
#
# Poissons Ratio (x) = 0.24925 0.05768
# Poissons Ratio (y) = 0.46749 -0.21563
# Poissons Ratio (z) = 0.05002 -0.09971
#
# Static dielectric constant tensor:
#      x y z
#    x 1.639520 0.000000 0.001360 
#    y 0.000000 1.610290 0.000000 
#    z 0.001360 0.000000 1.632610 
# 
# From -- ./inp_files/28330.got.cif
#   From: 2010.05.17/outbox.cif.g08.bks.cpg/sg8_15_cif.got.tgz:28330.got - 2010.06.03 19:46:02.
