data_PCOD9131372
_publ_section_title
;
Structure prediction by ZEFSAII (Michael W. Deem and Ramdas Pophale) SiO2 
 PCOD9131372
Probable space group: P C
;
_chemical_formula_sum "Si O2"
_cell_formula_units_Z 10
_cell_length_a 6.641429
_cell_length_b 13.348318
_cell_length_c 5.065616
_cell_angle_alpha 90.000000
_cell_angle_beta 74.309002
_cell_angle_gamma 90.000000
_cell_volume 432.341342
_symmetry_space_group_name_H-M "P C"
_symmetry_group_IT_number 7
_symmetry_cell_setting 'monoclinic'
loop_
_space_group_symop_operation_xyz
x,y,z
x,-y,1/2+z
loop_
_atom_site_type_symbol
_atom_site_label
_atom_site_fract_x
_atom_site_fract_y
_atom_site_fract_z
Si Si1 0.649450 0.218506 0.779260
Si Si2 0.051647 0.794755 0.824115
Si Si3 0.449773 0.068609 0.207635
Si Si4 0.562770 0.437700 0.758219
Si Si5 0.219394 0.703679 0.265274
O O1 0.685011 0.337826 0.801095
O O2 0.423303 0.223353 0.714307
O O3 0.833197 0.177068 0.533592
O O4 0.605170 0.157310 0.059921
O O5 0.216082 0.885672 0.771967
O O6 0.054671 0.748281 0.531143
O O7 0.146103 0.711164 0.992297
O O8 0.480558 0.015604 0.473583
O O9 0.606715 0.475407 0.449374
O O10 0.320429 0.399906 0.830213
#
# Coordination Sequence:
#
# PCOD9131372 Si02
#       5
#     2   2   2   2   2
#     4   9  24  41  68  88 138 166 208 268 318 368
#     4  11  21  42  64  93 121 177 205 261 322 368
#     4  11  24  41  64  96 127 164 217 263 315 383
#     4  10  21  40  65  93 130 171 208 256 316 374
#     4   9  22  38  63  88 128 164 208 260 305 371
#
# _framework density 23.129874999999998
#
# number of rings (size 3 to 8) (size 9 to 14) (size 15 to 20)
#    1.200    0.800    0.000    3.600    0.000    8.000 
#    0.000    6.000    0.000    0.000    0.000    0.000 
#    0.000    0.000    0.000    0.000    0.000    0.000 
#
# Total GULP energy -55806.085131 kJ/mol
# GULP energy per Si atom -5580.608513 kJ/mol
# Density = 2.307723 g / cm^3
# Si number density = 23.129875 Si / 1000 Ang^3
#
#
#
# Elastic Constant Matrix: (Units=GPa)
#
#
# Indices 1 2 3 4 5 6 
#
# 1 55.6287 15.6941 28.8002 0.0000 -23.1853 0.0000
# 2 15.6941 85.7994 22.5997 0.0000 0.3127 0.0000
# 3 28.8002 22.5997 106.8205 0.0000 -18.6667 0.0000
# 4 0.0000 0.0000 0.0000 38.0349 0.0000 -2.9440
# 5 -23.1853 0.3127 -18.6667 0.0000 49.1549 0.0000
# 6 0.0000 0.0000 0.0000 -2.9440 0.0000 13.0816
#
#
#
# Elastic Compliance Matrix: (Units=1/GPa)
#
#
# Indices 1 2 3 4 5 6 
#
# 1 0.025573 -0.003580 -0.004312 0.000000 0.010448 0.000000
# 2 -0.003580 0.012905 -0.002222 0.000000 -0.002614 0.000000
# 3 -0.004312 -0.002222 0.011397 0.000000 0.002309 0.000000
# 4 0.000000 0.000000 0.000000 0.026758 0.000000 0.006022
# 5 0.010448 -0.002614 0.002309 0.000000 0.026165 0.000000
# 6 0.000000 0.000000 0.000000 0.006022 0.000000 0.077799
#
#
# Mechanical properties :
#
#
# Convention : Reuss Voigt Hill
#
# Bulk Modulus (GPa) = 33.72914 42.49297 38.11106
# Shear Modulus (GPa) = 23.72968 32.13126 27.93047
#
# Velocity S-wave (km/s) = 3.20649 3.73120 3.47875
# Velocity P-wave (km/s) = 5.32193 6.08061 5.71387
#
# Compressibility (1/GPa) = 0.02964795
#
# Stress axis : x y z
#
# Youngs Moduli (GPa) = 39.10372 77.49109 87.73871
#
# Poissons Ratio (x) = 0.27743 0.37830
# Poissons Ratio (y) = 0.14000 0.19494
# Poissons Ratio (z) = 0.16860 0.17217
#
# Static dielectric constant tensor:
#      x y z
#    x 1.906470 0.000000 -0.007080 
#    y 0.000000 1.896600 0.000000 
#    z -0.007080 0.000000 1.818110 
# 
# From -- ./inp_files/138.got.cif
#   From: 2010.05.17/outbox.cif.g08.bks.cpg/sg7_cif.got.tgz:138.got - 2010.06.03 19:44:50.
