data_PCOD9131355
_publ_section_title
;
Structure prediction by ZEFSAII (Michael W. Deem and Ramdas Pophale) SiO2 
 PCOD9131355
Probable space group: P C
;
_chemical_formula_sum "Si O2"
_cell_formula_units_Z 16
_cell_length_a 8.360589
_cell_length_b 16.312015
_cell_length_c 5.457525
_cell_angle_alpha 90.000000
_cell_angle_beta 122.932277
_cell_angle_gamma 90.000000
_cell_volume 624.689999
_symmetry_space_group_name_H-M "P C"
_symmetry_group_IT_number 7
_symmetry_cell_setting 'monoclinic'
loop_
_space_group_symop_operation_xyz
x,y,z
x,-y,1/2+z
loop_
_atom_site_type_symbol
_atom_site_label
_atom_site_fract_x
_atom_site_fract_y
_atom_site_fract_z
Si Si1 0.507080 0.803149 0.634660
Si Si2 0.969658 0.707750 0.781415
Si Si3 0.884438 0.873204 0.017439
Si Si4 0.456926 0.530005 0.275664
Si Si5 0.577905 0.704617 0.198941
Si Si6 0.137011 0.815888 0.605103
Si Si7 0.013053 0.464737 0.499693
Si Si8 0.212242 0.012917 0.334167
O O1 0.658428 0.877714 0.786037
O O2 0.517479 0.766453 0.370230
O O3 0.288247 0.822147 0.513148
O O4 0.558403 0.741128 0.907168
O O5 0.931198 0.793709 0.886202
O O6 0.796047 0.686379 0.458214
O O7 0.142972 0.730036 0.745438
O O8 0.003784 0.633565 0.991343
O O9 0.020170 0.955352 0.132998
O O10 0.931255 0.836607 0.323662
O O11 0.536469 0.527790 0.621868
O O12 0.474090 0.619031 0.167045
O O13 0.235259 0.510448 0.150686
O O14 0.172414 0.891210 0.811779
O O15 0.928400 0.502814 0.673994
O O16 0.319350 0.004806 0.170065
#
# Coordination Sequence:
#
# PCOD9131355 Si02
#       8
#     2   2   2   2   2   2   2   2
#     4  11  25  40  66  96 134 168 228 265 328 392
#     4  11  23  41  70  91 136 172 223 273 336 386
#     4  10  23  44  64 100 134 175 218 277 330 393
#     4  10  21  39  60  85 127 168 209 270 335 388
#     4  11  24  42  62  99 127 170 222 277 323 398
#     4  11  23  41  70  98 130 183 216 275 332 393
#     4  10  24  39  60  94 127 166 220 272 325 394
#     4  10  21  40  66  93 133 170 216 267 327 390
#
# _framework density 25.612704999999998
#
# number of rings (size 3 to 8) (size 9 to 14) (size 15 to 20)
#    0.000    1.500    2.500    1.500    5.250    2.000 
#    0.000    5.000    0.000    0.000    0.000    0.000 
#    0.000    0.000    0.000    0.000    0.000    0.000 
#
# Total GULP energy -89250.136120 kJ/mol
# GULP energy per Si atom -5578.133508 kJ/mol
# Density = 2.555441 g / cm^3
# Si number density = 25.612705 Si / 1000 Ang^3
#
#
#
# Elastic Constant Matrix: (Units=GPa)
#
#
# Indices 1 2 3 4 5 6 
#
# 1 75.0246 22.8795 19.0205 0.0000 -11.3482 0.0000
# 2 22.8795 77.9230 7.9594 0.0000 -0.5119 0.0000
# 3 19.0205 7.9594 108.3129 0.0000 -23.0874 0.0000
# 4 0.0000 0.0000 0.0000 40.5940 0.0000 -1.3515
# 5 -11.3482 -0.5119 -23.0874 0.0000 37.0451 0.0000
# 6 0.0000 0.0000 0.0000 -1.3515 0.0000 30.8380
#
#
#
# Elastic Compliance Matrix: (Units=1/GPa)
#
#
# Indices 1 2 3 4 5 6 
#
# 1 0.015648 -0.004403 -0.001632 0.000000 0.003715 0.000000
# 2 -0.004403 0.014177 -0.000593 0.000000 -0.001523 0.000000
# 3 -0.001632 -0.000593 0.010903 0.000000 0.006287 0.000000
# 4 0.000000 0.000000 0.000000 0.024670 0.000000 0.001081
# 5 0.003715 -0.001523 0.006287 0.000000 0.032029 0.000000
# 6 0.000000 0.000000 0.000000 0.001081 0.000000 0.032475
#
#
# Mechanical properties :
#
#
# Convention : Reuss Voigt Hill
#
# Bulk Modulus (GPa) = 36.40382 40.10881 38.25631
# Shear Modulus (GPa) = 32.82671 35.78885 34.30778
#
# Velocity S-wave (km/s) = 3.58391 3.74211 3.66387
# Velocity P-wave (km/s) = 5.60088 5.86216 5.73301
#
# Compressibility (1/GPa) = 0.02746965
#
# Stress axis : x y z
#
# Youngs Moduli (GPa) = 63.90768 70.53868 91.71990
#
# Poissons Ratio (x) = 0.31060 0.14972
# Poissons Ratio (y) = 0.28140 0.05440
# Poissons Ratio (z) = 0.10432 0.04184
#
# Static dielectric constant tensor:
#      x y z
#    x 2.104080 0.000000 0.004330 
#    y 0.000000 2.024320 0.000000 
#    z 0.004330 0.000000 2.060690 
# 
# From -- ./inp_files/658.got.cif
#   From: 2010.05.17/outbox.cif.g08.bks.cpg/sg7_cif.got.tgz:658.got - 2010.06.03 19:44:50.
