data_PCOD9131766
_publ_section_title
;
Structure prediction by ZEFSAII (Michael W. Deem and Ramdas Pophale) SiO2 
 PCOD9131766
Probable space group: C M
;
_chemical_formula_sum "Si O2"
_cell_formula_units_Z 32
_cell_length_a 24.410211
_cell_length_b 8.165832
_cell_length_c 25.337602
_cell_angle_alpha 90.000000
_cell_angle_beta 161.698929
_cell_angle_gamma 90.000000
_cell_volume 1585.919883
_symmetry_space_group_name_H-M "C M"
_symmetry_group_IT_number 8
_symmetry_cell_setting 'monoclinic'
loop_
_space_group_symop_operation_xyz
x,y,z
x,-y,z
1/2+x,1/2+y,z
1/2+x,1/2-y,z
loop_
_atom_site_type_symbol
_atom_site_label
_atom_site_fract_x
_atom_site_fract_y
_atom_site_fract_z
Si Si1 0.199980 0.198014 0.700930
Si Si2 0.079759 0.299594 0.015249
Si Si3 0.459161 0.697421 0.384331
Si Si4 0.273324 0.697107 0.972467
Si Si5 0.557042 0.802682 0.873479
Si Si6 0.147966 0.695264 0.338107
Si Si7 0.527815 0.804297 0.652502
Si Si8 0.678084 0.196268 0.485829
O O1 0.399760 0.254604 0.877254
O O2 0.086091 0.257306 0.546803
O O3 0.112003 0.249918 0.674707
O O4 0.201806 0.000000 0.700591
O O5 0.078591 0.500000 0.014157
O O6 0.081693 0.244988 0.955865
O O7 0.259469 0.246279 0.206624
O O8 0.459663 0.500000 0.387241
O O9 0.535457 0.745266 0.397322
O O10 0.262810 0.500000 0.963253
O O11 0.197935 0.757800 0.959743
O O12 0.147213 0.757572 0.810414
O O13 0.474083 0.744634 0.150249
O O14 0.366005 0.756681 0.677831
O O15 0.567679 0.000000 0.884769
O O16 0.141991 0.500000 0.334258
O O17 0.329768 0.746125 0.478329
O O18 0.146413 0.757927 0.397372
O O19 0.527515 0.000000 0.654529
O O20 0.679066 0.000000 0.485882
#
# Coordination Sequence:
#
# PCOD9131766 Si02
#       8
#     4   4   4   4   4   4   4   4
#     4  10  21  38  59  85 117 154 200 245 292 347
#     4   9  18  34  59  88 112 145 193 238 281 341
#     4  10  20  37  62  86 116 156 196 237 284 349
#     4  10  22  39  63  91 118 154 200 249 299 352
#     4  10  18  35  61  87 116 152 193 238 292 355
#     4  11  24  40  61  89 123 161 198 241 299 360
#     4  11  24  42  63  87 118 156 203 253 301 351
#     4  11  22  35  56  89 124 154 189 239 298 351
#
# _framework density 20.177565000000001
#
# number of rings (size 3 to 8) (size 9 to 14) (size 15 to 20)
#    0.000    1.750    2.500    1.875    0.000    5.500 
#    0.000    2.500    0.000    0.000    0.000    0.000 
#    0.000    0.000    0.000    0.000    0.000    0.000 
#
# Total GULP energy -89401.315443 kJ/mol
# GULP energy per Si atom -5587.582215 kJ/mol
# Density = 2.013164 g / cm^3
# Si number density = 20.177565 Si / 1000 Ang^3
#
#
#
# Elastic Constant Matrix: (Units=GPa)
#
#
# Indices 1 2 3 4 5 6 
#
# 1 114.6570 -1.7690 18.3351 -0.0099 33.9381 -0.0017
# 2 -1.7690 0.3705 -19.7635 -0.0083 0.5432 -0.0017
# 3 18.3351 -19.7635 44.9538 -0.0331 44.8383 -0.0062
# 4 -0.0099 -0.0083 -0.0331 9.5736 -0.0027 2.7989
# 5 33.9381 0.5432 44.8383 -0.0027 22.0523 -0.0010
# 6 -0.0017 -0.0017 -0.0062 2.7989 -0.0010 23.9962
#
#
#
# Elastic Compliance Matrix: (Units=1/GPa)
#
#
# Indices 1 2 3 4 5 6 
#
# 1 0.013167 -0.027296 -0.002111 -0.000022 -0.015299 0.000000
# 2 -0.027296 0.158838 -0.041795 -0.000002 0.123076 0.000004
# 3 -0.002111 -0.041795 -0.000452 -0.000039 0.005196 0.000002
# 4 -0.000022 -0.000002 -0.000039 0.108141 0.000125 -0.012613
# 5 -0.015299 0.123076 0.005196 0.000125 0.055295 -0.000003
# 6 0.000000 0.000004 0.000002 -0.012613 -0.000003 0.043144
#
#
# Mechanical properties :
#
#
# Convention : Reuss Voigt Hill
#
# Bulk Modulus (GPa) = 34.30512 17.06516 25.68514
# Shear Modulus (GPa) = 9.42945 22.00302 15.71624
#
# Velocity S-wave (km/s) = 2.16411 3.30581 2.79390
# Velocity P-wave (km/s) = 4.82525 4.80073 4.81301
#
# Compressibility (1/GPa) = 0.02915017
#
# Stress axis : x y z
#
# Youngs Moduli (GPa) = 75.95003 6.29571 -2213.79761
#
# Poissons Ratio (x) = 0.17185 -4.67258
# Poissons Ratio (y) = 2.07312 -92.52559
# Poissons Ratio (z) = 0.16030 0.26313
#
# Static dielectric constant tensor:
#      x y z
#    x 1.696130 0.000000 -0.003670 
#    y 0.000000 1.708420 0.000000 
#    z -0.003670 0.000000 1.720290 
# 
# From -- ./inp_files/32441.got.cif
#   From: 2010.05.17/outbox.cif.g08.bks.cpg/sg8_17_cif.got.tgz:32441.got - 2010.06.03 19:46:02.
