data_PCOD9131570
_publ_section_title
;
Structure prediction by ZEFSAII (Michael W. Deem and Ramdas Pophale) SiO2 
 PCOD9131570
Probable space group: C M
;
_chemical_formula_sum "Si O2"
_cell_formula_units_Z 22
_cell_length_a 13.028376
_cell_length_b 10.666855
_cell_length_c 11.406131
_cell_angle_alpha 90.000000
_cell_angle_beta 145.610099
_cell_angle_gamma 90.000000
_cell_volume 895.315898
_symmetry_space_group_name_H-M "C M"
_symmetry_group_IT_number 8
_symmetry_cell_setting 'monoclinic'
loop_
_space_group_symop_operation_xyz
x,y,z
x,-y,z
1/2+x,1/2+y,z
1/2+x,1/2-y,z
loop_
_atom_site_type_symbol
_atom_site_label
_atom_site_fract_x
_atom_site_fract_y
_atom_site_fract_z
Si Si1 0.403860 0.358083 0.294020
Si Si2 0.269013 0.500000 0.540444
Si Si3 0.552692 0.266885 0.991447
Si Si4 0.051497 0.000000 0.636762
Si Si5 0.263194 0.770275 0.507649
Si Si6 0.844830 0.000000 0.878757
Si Si7 0.453186 0.000000 0.926341
Si Si8 0.466211 0.000000 0.652577
O O1 0.334564 0.500000 0.197377
O O2 0.469949 0.380317 0.490120
O O3 0.585651 0.336069 0.392555
O O4 0.260737 0.245633 0.144634
O O5 0.483230 0.500000 0.704099
O O6 0.199690 0.629026 0.420945
O O7 0.247509 0.500000 0.659101
O O8 0.413284 0.258400 0.751081
O O9 0.476401 0.378414 0.999733
O O10 0.539608 0.131634 0.040036
O O11 0.259928 0.000000 0.805979
O O12 0.362875 0.871783 0.518707
O O13 0.675529 0.000000 0.808302
O O14 0.441895 0.000000 0.772241
#
# Coordination Sequence:
#
# PCOD9131570 Si02
#       8
#     4   2   4   2   4   2   2   2
#     4  10  18  35  68  87 116 153 215 257 283 364
#     4  10  24  36  60  90 130 164 190 250 318 364
#     4  10  19  37  61  88 122 160 198 253 308 358
#     4  10  19  37  62  95 114 157 217 247 297 369
#     4  10  20  39  60  92 120 163 202 255 305 363
#     4  10  24  37  56  99 131 160 200 248 324 376
#     4  10  17  36  64  84 113 161 210 256 286 362
#     4  10  18  36  62  84 124 156 209 249 295 369
#
# _framework density 24.572334999999999
#
# number of rings (size 3 to 8) (size 9 to 14) (size 15 to 20)
#    0.545    1.455    5.455    0.000    2.545    0.727 
#    0.000    3.636    8.000    1.091    0.000    0.000 
#    0.000    0.000    0.000    0.000    0.000    0.000 
#
# Total GULP energy -61315.151246 kJ/mol
# GULP energy per Si atom -5574.104659 kJ/mol
# Density = 2.451641 g / cm^3
# Si number density = 24.572335 Si / 1000 Ang^3
#
#
#
# Elastic Constant Matrix: (Units=GPa)
#
#
# Indices 1 2 3 4 5 6 
#
# 1 109.9642 30.8285 29.6061 0.0000 27.6848 0.0000
# 2 30.8285 220.6424 8.6893 0.0000 25.6741 0.0000
# 3 29.6061 8.6893 76.4558 0.0000 18.2263 0.0000
# 4 0.0000 0.0000 0.0000 -21.0782 0.0000 15.0939
# 5 27.6848 25.6741 18.2263 0.0000 57.1265 0.0000
# 6 0.0000 0.0000 0.0000 15.0939 0.0000 15.9493
#
#
#
# Elastic Compliance Matrix: (Units=1/GPa)
#
#
# Indices 1 2 3 4 5 6 
#
# 1 0.011255 -0.000982 -0.003303 0.000000 -0.003959 0.000000
# 2 -0.000982 0.004868 0.000254 0.000000 -0.001793 0.000000
# 3 -0.003303 0.000254 0.015126 0.000000 -0.003340 0.000000
# 4 0.000000 0.000000 0.000000 -0.028279 0.000000 0.026762
# 5 -0.003959 -0.001793 -0.003340 0.000000 0.021295 0.000000
# 6 0.000000 0.000000 0.000000 0.026762 0.000000 0.037372
#
#
# Mechanical properties :
#
#
# Convention : Reuss Voigt Hill
#
# Bulk Modulus (GPa) = 43.12518 60.59003 51.85760
# Shear Modulus (GPa) = 64.57622 32.92875 48.75248
#
# Velocity S-wave (km/s) = 5.13197 3.66467 4.45909
# Velocity P-wave (km/s) = 7.25979 6.52823 6.90371
#
# Compressibility (1/GPa) = 0.02318831
#
# Stress axis : x y z
#
# Youngs Moduli (GPa) = 88.84766 205.42168 66.11292
#
# Poissons Ratio (x) = 0.20168 0.21836
# Poissons Ratio (y) = 0.08723 -0.01682
# Poissons Ratio (z) = 0.29345 -0.05226
#
# Static dielectric constant tensor:
#      x y z
#    x 1.996240 0.000000 -0.020190 
#    y 0.000000 2.095060 0.000000 
#    z -0.020190 0.000000 1.952650 
# 
# From -- ./inp_files/26775.got.cif
#   From: 2010.05.17/outbox.cif.g08.bks.cpg/sg8_14_cif.got.tgz:26775.got - 2010.06.03 19:46:02.
