data_PCOD9131108
_publ_section_title
;
Structure prediction by ZEFSAII (Michael W. Deem and Ramdas Pophale) SiO2 
 PCOD9131108
Probable space group: P M
;
_chemical_formula_sum "Si O2"
_cell_formula_units_Z 14
_cell_length_a 4.978605
_cell_length_b 15.723571
_cell_length_c 8.254226
_cell_angle_alpha 90.000000
_cell_angle_beta 57.233915
_cell_angle_gamma 90.000000
_cell_volume 543.341537
_symmetry_space_group_name_H-M "P M"
_symmetry_group_IT_number 6
_symmetry_cell_setting 'monoclinic'
loop_
_space_group_symop_operation_xyz
x,y,z
x,-y,z
loop_
_atom_site_type_symbol
_atom_site_label
_atom_site_fract_x
_atom_site_fract_y
_atom_site_fract_z
Si Si1 0.929510 0.596829 0.559370
Si Si2 0.307169 0.903202 0.131532
Si Si3 0.419868 0.254047 0.296469
Si Si4 0.912864 0.093429 0.693629
Si Si5 0.310667 0.257176 0.982579
Si Si6 0.531550 0.808484 0.584389
Si Si7 0.175067 0.407032 0.835327
O O1 0.045525 0.500000 0.476015
O O2 0.547794 0.595584 0.655967
O O3 0.141414 0.675603 0.422011
O O4 0.973781 0.604149 0.738924
O O5 0.347384 0.847697 0.281708
O O6 0.130063 0.832721 0.075710
O O7 0.190153 0.000000 0.182739
O O8 0.639543 0.908378 0.922055
O O9 0.503469 0.275103 0.083140
O O10 0.614862 0.246812 0.399870
O O11 0.173978 0.161189 0.663442
O O12 0.744096 0.113060 0.575641
O O13 0.062176 0.000000 0.639885
O O14 0.112778 0.337937 0.993651
O O15 0.524950 0.241059 0.755661
O O16 0.114288 0.500000 0.924055
#
# Coordination Sequence:
#
# PCOD9131108 Si02
#       7
#     2   2   2   2   2   2   2
#     4  10  22  41  66  97 129 164 210 268 323 382
#     4   8  19  39  59  93 127 166 213 265 310 369
#     4  10  22  38  68  94 129 171 210 269 315 389
#     4  10  22  42  66  87 126 174 220 269 323 374
#     4   9  21  40  65  95 126 173 209 267 314 384
#     4  11  22  41  63  93 125 167 217 267 321 381
#     4  10  21  41  69  95 128 167 210 263 325 387
#
# _framework density 25.766482
#
# number of rings (size 3 to 8) (size 9 to 14) (size 15 to 20)
#    0.857    1.429    1.429    0.429    4.000    2.286 
#    5.143    0.000    0.000    5.143    0.000    0.000 
#    0.000    0.000    0.000    0.000    0.000    0.000 
#
# Total GULP energy -78000.052245 kJ/mol
# GULP energy per Si atom -5571.432303 kJ/mol
# Density = 2.570784 g / cm^3
# Si number density = 25.766482 Si / 1000 Ang^3
#
#
#
# Elastic Constant Matrix: (Units=GPa)
#
#
# Indices 1 2 3 4 5 6 
#
# 1 86.0716 19.9716 48.5042 0.0000 3.0047 0.0000
# 2 19.9716 186.7651 36.2320 0.0000 7.8203 0.0000
# 3 48.5042 36.2320 113.3059 0.0000 31.9883 0.0000
# 4 0.0000 0.0000 0.0000 44.8921 0.0000 9.1014
# 5 3.0047 7.8203 31.9883 0.0000 39.6448 0.0000
# 6 0.0000 0.0000 0.0000 9.1014 0.0000 26.1961
#
#
#
# Elastic Compliance Matrix: (Units=1/GPa)
#
#
# Indices 1 2 3 4 5 6 
#
# 1 0.016260 -0.000336 -0.008448 0.000000 0.005651 0.000000
# 2 -0.000336 0.005722 -0.001780 0.000000 0.000333 0.000000
# 3 -0.008448 -0.001780 0.016487 0.000000 -0.012312 0.000000
# 4 0.000000 0.000000 0.000000 0.023964 0.000000 -0.008326
# 5 0.005651 0.000333 -0.012312 0.000000 0.034664 0.000000
# 6 0.000000 0.000000 0.000000 -0.008326 0.000000 0.041066
#
#
# Mechanical properties :
#
#
# Convention : Reuss Voigt Hill
#
# Bulk Modulus (GPa) = 57.66973 66.17312 61.92143
# Shear Modulus (GPa) = 30.29002 40.90892 35.59947
#
# Velocity S-wave (km/s) = 3.43236 3.98889 3.72105
# Velocity P-wave (km/s) = 6.17563 6.85220 6.52269
#
# Compressibility (1/GPa) = 0.01734012
#
# Stress axis : x y z
#
# Youngs Moduli (GPa) = 61.50087 174.77676 60.65360
#
# Poissons Ratio (x) = 0.05880 0.51242
# Poissons Ratio (y) = 0.02069 0.10793
# Poissons Ratio (z) = 0.51958 0.31102
#
# Static dielectric constant tensor:
#      x y z
#    x 1.998390 0.000000 -0.043690 
#    y 0.000000 2.176230 0.000000 
#    z -0.043690 0.000000 2.050330 
# 
# From -- ./inp_files/2261.got.cif
#   From: 2010.05.17/outbox.cif.g08.bks.cpg/sg6_2_cif.got.tgz:2261.got - 2010.06.03 19:42:10.
