data_PCOD9131852
_publ_section_title
;
Structure prediction by ZEFSAII (Michael W. Deem and Ramdas Pophale) SiO2 
 PCOD9131852
Probable space group: C M
;
_chemical_formula_sum "Si O2"
_cell_formula_units_Z 32
_cell_length_a 22.693899
_cell_length_b 8.039070
_cell_length_c 22.402294
_cell_angle_alpha 90.000000
_cell_angle_beta 161.542269
_cell_angle_gamma 90.000000
_cell_volume 1293.972764
_symmetry_space_group_name_H-M "C M"
_symmetry_group_IT_number 8
_symmetry_cell_setting 'monoclinic'
loop_
_space_group_symop_operation_xyz
x,y,z
x,-y,z
1/2+x,1/2+y,z
1/2+x,1/2-y,z
loop_
_atom_site_type_symbol
_atom_site_label
_atom_site_fract_x
_atom_site_fract_y
_atom_site_fract_z
Si Si1 0.842760 0.800021 0.528630
Si Si2 0.897490 0.811295 0.840487
Si Si3 0.411737 0.305039 0.110948
Si Si4 0.286245 0.683277 0.229992
Si Si5 0.417885 0.702738 0.988212
Si Si6 0.361078 0.802783 0.418909
Si Si7 0.934446 0.317722 0.258114
Si Si8 0.377669 0.309810 0.688885
O O1 0.637931 0.715966 0.328074
O O2 0.933816 0.760733 0.552166
O O3 0.939716 0.740466 0.683623
O O4 0.820165 0.000000 0.511595
O O5 0.118696 0.813091 0.064983
O O6 0.833794 0.740242 0.843951
O O7 0.820975 0.000000 0.761167
O O8 0.891785 0.730863 0.768731
O O9 0.369949 0.500000 0.074913
O O10 0.345289 0.238306 0.982910
O O11 0.350504 0.217330 0.112766
O O12 0.208139 0.500000 0.165770
O O13 0.424296 0.729375 0.416311
O O14 0.381397 0.689075 0.257510
O O15 0.403045 0.500000 0.973525
O O16 0.639357 0.741935 0.203797
O O17 0.383246 0.000000 0.439226
O O18 0.878060 0.500000 0.224801
O O19 0.156056 0.318035 0.466103
O O20 0.450513 0.500000 0.764424
#
# Coordination Sequence:
#
# PCOD9131852 Si02
#       8
#     4   4   4   4   4   4   4   4
#     4   9  15  25  42  68  96 122 154 196 236 276
#     4   9  16  31  51  71  96 128 158 190 233 285
#     4   9  15  25  41  65  92 120 155 197 237 277
#     4  11  21  32  47  71  97 124 157 198 241 286
#     4   7  12  22  41  65  88 113 147 186 227 269
#     4   9  16  28  45  66  90 121 157 196 237 279
#     4  10  19  32  48  69  94 125 161 197 236 285
#     4   8  16  29  49  73  97 125 159 192 231 281
#
# _framework density 24.730042000000001
#
# number of rings (size 3 to 8) (size 9 to 14) (size 15 to 20)
#    0.000    3.000    0.000    4.875    0.000    0.000 
#    0.000    4.375    0.000    1.500    0.000    5.250 
#    0.000    0.000    0.000    0.000    0.000    0.000 
#
# Total GULP energy -89163.918988 kJ/mol
# GULP energy per Si atom -5572.744937 kJ/mol
# Density = 2.467375 g / cm^3
# Si number density = 24.730042 Si / 1000 Ang^3
#
#
#
# Elastic Constant Matrix: (Units=GPa)
#
#
# Indices 1 2 3 4 5 6 
#
# 1 192.2117 16.3459 39.4192 0.0007 -88.6343 0.0003
# 2 16.3459 67.1293 -3.9753 0.0007 -5.8741 0.0007
# 3 39.4192 -3.9753 102.8826 0.0023 -30.9658 0.0025
# 4 0.0007 0.0007 0.0023 2.1915 0.0010 -2.2235
# 5 -88.6343 -5.8741 -30.9658 0.0010 55.3018 0.0010
# 6 0.0003 0.0007 0.0025 -2.2235 0.0010 19.7463
#
#
#
# Elastic Compliance Matrix: (Units=1/GPa)
#
#
# Indices 1 2 3 4 5 6 
#
# 1 0.020671 -0.001902 0.002306 -0.000029 0.034219 -0.000006
# 2 -0.001902 0.015352 0.001077 -0.000006 -0.000816 -0.000001
# 3 0.002306 0.001077 0.012057 -0.000023 0.010561 -0.000005
# 4 -0.000029 -0.000006 -0.000023 0.515159 -0.000071 0.058008
# 5 0.034219 -0.000816 0.010561 -0.000071 0.078753 -0.000014
# 6 -0.000006 -0.000001 -0.000005 0.058008 -0.000014 0.057174
#
#
# Mechanical properties :
#
#
# Convention : Reuss Voigt Hill
#
# Bulk Modulus (GPa) = 19.59260 51.75591 35.67426
# Shear Modulus (GPa) = 7.01046 36.14350 21.57698
#
# Velocity S-wave (km/s) = 1.68551 3.82713 2.95702
# Velocity P-wave (km/s) = 3.42458 6.36420 5.11032
#
# Compressibility (1/GPa) = 0.05103967
#
# Stress axis : x y z
#
# Youngs Moduli (GPa) = 48.37734 65.13697 82.94197
#
# Poissons Ratio (x) = 0.12392 -0.19125
# Poissons Ratio (y) = 0.09204 -0.08930
# Poissons Ratio (z) = -0.11155 -0.07013
#
# Static dielectric constant tensor:
#      x y z
#    x 2.156640 0.000000 0.014300 
#    y 0.000000 1.887120 0.000000 
#    z 0.014300 0.000000 2.004350 
# 
# From -- ./inp_files/24257.got.cif
#   From: 2010.05.17/outbox.cif.g08.bks.cpg/sg8_13_cif.got.tgz:24257.got - 2010.06.03 19:46:02.
