data_PCOD9131364
_publ_section_title
;
Structure prediction by ZEFSAII (Michael W. Deem and Ramdas Pophale) SiO2 
 PCOD9131364
Probable space group: P C
;
_chemical_formula_sum "Si O2"
_cell_formula_units_Z 16
_cell_length_a 7.703109
_cell_length_b 15.899803
_cell_length_c 5.554089
_cell_angle_alpha 90.000000
_cell_angle_beta 123.569664
_cell_angle_gamma 90.000000
_cell_volume 566.796611
_symmetry_space_group_name_H-M "P C"
_symmetry_group_IT_number 7
_symmetry_cell_setting 'monoclinic'
loop_
_space_group_symop_operation_xyz
x,y,z
x,-y,1/2+z
loop_
_atom_site_type_symbol
_atom_site_label
_atom_site_fract_x
_atom_site_fract_y
_atom_site_fract_z
Si Si1 0.282130 0.472193 0.598030
Si Si2 0.756606 0.027054 0.844645
Si Si3 0.230615 0.968581 0.233193
Si Si4 0.394220 0.795083 0.551088
Si Si5 0.403692 0.708915 0.057342
Si Si6 0.863735 0.223749 0.907137
Si Si7 0.851422 0.266338 0.398396
Si Si8 0.787268 0.462101 0.278340
O O1 0.350396 0.535921 0.433492
O O2 0.324777 0.385623 0.489164
O O3 0.033380 0.483984 0.441009
O O4 0.651138 0.004019 0.017439
O O5 0.800250 0.126132 0.862758
O O6 0.978164 0.978161 0.025223
O O7 0.298160 0.885089 0.423876
O O8 0.286115 0.036058 0.489902
O O9 0.350452 0.741047 0.281172
O O10 0.649482 0.794798 0.748177
O O11 0.342519 0.760407 0.773925
O O12 0.656338 0.718011 0.245538
O O13 0.967506 0.247097 0.734894
O O14 0.966764 0.245888 0.239360
O O15 0.779753 0.363044 0.330494
O O16 0.705069 0.512619 0.449408
#
# Coordination Sequence:
#
# PCOD9131364 Si02
#       8
#     2   2   2   2   2   2   2   2
#     4  10  21  40  64  91 127 165 209 255 305 371
#     4  10  21  40  62  88 122 161 210 259 312 368
#     4  10  21  40  62  88 122 161 210 259 312 368
#     4  10  21  40  61  88 131 156 212 255 311 376
#     4  10  21  40  61  93 125 167 203 257 316 366
#     4  10  21  40  61  88 131 156 212 255 311 376
#     4  10  21  40  61  93 125 167 203 257 316 366
#     4  10  21  40  64  91 127 165 209 255 305 371
#
# _framework density 28.228822999999998
#
# number of rings (size 3 to 8) (size 9 to 14) (size 15 to 20)
#    0.000    2.000    0.000    3.000    0.000    0.000 
#   13.500   30.000    0.000    0.000    0.000    0.000 
#    0.000    0.000    0.000    0.000    0.000    0.000 
#
# Total GULP energy -89666.961596 kJ/mol
# GULP energy per Si atom -5604.185100 kJ/mol
# Density = 2.816457 g / cm^3
# Si number density = 28.228823 Si / 1000 Ang^3
#
#
#
# Elastic Constant Matrix: (Units=GPa)
#
#
# Indices 1 2 3 4 5 6 
#
# 1 134.2279 -1.9255 76.2444 0.0000 -52.2297 0.0000
# 2 -1.9255 88.9104 24.6826 0.0000 -37.9668 0.0000
# 3 76.2444 24.6826 199.4413 0.0000 -56.0179 0.0000
# 4 0.0000 0.0000 0.0000 51.5129 0.0000 -13.9904
# 5 -52.2297 -37.9668 -56.0179 0.0000 65.3206 0.0000
# 6 0.0000 0.0000 0.0000 -13.9904 0.0000 36.3905
#
#
#
# Elastic Compliance Matrix: (Units=1/GPa)
#
#
# Indices 1 2 3 4 5 6 
#
# 1 0.013929 0.006426 -0.002559 0.000000 0.012677 0.000000
# 2 0.006426 0.018017 -0.000398 0.000000 0.015269 0.000000
# 3 -0.002559 -0.000398 0.007116 0.000000 0.003825 0.000000
# 4 0.000000 0.000000 0.000000 0.021676 0.000000 0.008333
# 5 0.012677 0.015269 0.003825 0.000000 0.037601 0.000000
# 6 0.000000 0.000000 0.000000 0.008333 0.000000 0.030683
#
#
# Mechanical properties :
#
#
# Convention : Reuss Voigt Hill
#
# Bulk Modulus (GPa) = 21.73926 68.95362 45.34644
# Shear Modulus (GPa) = 36.38527 52.21665 44.30096
#
# Velocity S-wave (km/s) = 3.59408 4.30555 3.96580
# Velocity P-wave (km/s) = 4.99410 7.01404 6.08842
#
# Compressibility (1/GPa) = 0.04599972
#
# Stress axis : x y z
#
# Youngs Moduli (GPa) = 71.79308 55.50273 140.52886
#
# Poissons Ratio (x) = -0.35665 0.35966
# Poissons Ratio (y) = -0.46132 0.05586
# Poissons Ratio (z) = 0.18374 0.02206
#
# Static dielectric constant tensor:
#      x y z
#    x 2.311950 0.000000 0.003980 
#    y 0.000000 2.109220 0.000000 
#    z 0.003980 0.000000 2.272440 
# 
# From -- ./inp_files/758.got.cif
#   From: 2010.05.17/outbox.cif.g08.bks.cpg/sg7_cif.got.tgz:758.got - 2010.06.03 19:44:50.
