data_PCOD9131128
_publ_section_title
;
Structure prediction by ZEFSAII (Michael W. Deem and Ramdas Pophale) SiO2 
 PCOD9131128
Probable space group: P M
;
_chemical_formula_sum "Si O2"
_cell_formula_units_Z 16
_cell_length_a 9.850469
_cell_length_b 8.791310
_cell_length_c 12.060527
_cell_angle_alpha 90.000000
_cell_angle_beta 50.770250
_cell_angle_gamma 90.000000
_cell_volume 809.027661
_symmetry_space_group_name_H-M "P M"
_symmetry_group_IT_number 6
_symmetry_cell_setting 'monoclinic'
loop_
_space_group_symop_operation_xyz
x,y,z
x,-y,z
loop_
_atom_site_type_symbol
_atom_site_label
_atom_site_fract_x
_atom_site_fract_y
_atom_site_fract_z
Si Si1 0.605080 0.178822 0.760540
Si Si2 0.334352 0.318524 0.735669
Si Si3 0.972893 0.316938 0.550269
Si Si4 0.465315 0.672811 0.042822
Si Si5 0.309929 0.182675 0.502068
Si Si6 0.056189 0.674927 0.263743
Si Si7 0.626692 0.818723 0.172523
Si Si8 0.023081 0.179553 0.043199
O O1 0.507407 0.254318 0.706891
O O2 0.791637 0.254270 0.691117
O O3 0.623697 0.000000 0.733617
O O4 0.487125 0.215824 0.928229
O O5 0.342080 0.500000 0.727894
O O6 0.317607 0.251473 0.621096
O O7 0.168555 0.267526 0.896410
O O8 0.981987 0.500000 0.551235
O O9 0.141145 0.247553 0.524453
O O10 0.968770 0.271553 0.422390
O O11 0.509380 0.500000 0.985559
O O12 0.263091 0.674085 0.182316
O O13 0.578858 0.727292 0.087194
O O14 0.485876 0.219807 0.341211
O O15 0.296217 0.000000 0.516105
O O16 0.002752 0.500000 0.268476
O O17 0.028126 0.772378 0.168918
O O18 0.826269 0.789126 0.103405
O O19 0.608500 0.000000 0.160363
O O20 0.058587 0.000000 0.013572
#
# Coordination Sequence:
#
# PCOD9131128 Si02
#       8
#     2   2   2   2   2   2   2   2
#     4  12  26  44  67  96 129 170 216 267 322 384
#     4  12  26  45  66  93 130 173 217 267 322 383
#     4  11  24  44  67  97 131 170 215 265 321 383
#     4  11  22  41  68  96 127 166 214 266 321 382
#     4  11  24  44  67  95 131 173 216 265 320 382
#     4  10  22  41  66  95 128 165 212 266 321 381
#     4  10  24  43  65  96 131 169 215 263 319 382
#     4  11  24  42  66  96 129 170 217 265 320 383
#
# _framework density 19.776827000000001
#
# number of rings (size 3 to 8) (size 9 to 14) (size 15 to 20)
#    0.000    1.000    2.500    3.750    3.500    3.000 
#    0.000    0.000    0.000    0.000    0.000    0.000 
#    0.000    0.000    0.000    0.000    0.000    0.000 
#
# Total GULP energy -89478.409979 kJ/mol
# GULP energy per Si atom -5592.400624 kJ/mol
# Density = 1.973181 g / cm^3
# Si number density = 19.776827 Si / 1000 Ang^3
#
#
#
# Elastic Constant Matrix: (Units=GPa)
#
#
# Indices 1 2 3 4 5 6 
#
# 1 89.1114 45.6037 0.0689 0.0000 8.6636 0.0000
# 2 45.6037 87.7899 15.1189 0.0000 4.9839 0.0000
# 3 0.0689 15.1189 38.4496 0.0000 5.3930 0.0000
# 4 0.0000 0.0000 0.0000 38.6675 0.0000 -0.0261
# 5 8.6636 4.9839 5.3930 0.0000 36.9681 0.0000
# 6 0.0000 0.0000 0.0000 -0.0261 0.0000 39.3331
#
#
#
# Elastic Compliance Matrix: (Units=1/GPa)
#
#
# Indices 1 2 3 4 5 6 
#
# 1 0.016038 -0.008821 0.003880 0.000000 -0.003135 0.000000
# 2 -0.008821 0.017104 -0.006816 0.000000 0.000756 0.000000
# 3 0.003880 -0.006816 0.029279 0.000000 -0.004262 0.000000
# 4 0.000000 0.000000 0.000000 0.025862 0.000000 0.000017
# 5 -0.003135 0.000756 -0.004262 0.000000 0.028305 0.000000
# 6 0.000000 0.000000 0.000000 0.000017 0.000000 0.025424
#
#
# Mechanical properties :
#
#
# Convention : Reuss Voigt Hill
#
# Bulk Modulus (GPa) = 25.70274 37.43707 31.56990
# Shear Modulus (GPa) = 28.01194 33.29769 30.65482
#
# Velocity S-wave (km/s) = 3.76759 4.10771 3.94132
# Velocity P-wave (km/s) = 5.65252 6.43961 6.05886
#
# Compressibility (1/GPa) = 0.03890636
#
# Stress axis : x y z
#
# Youngs Moduli (GPa) = 62.35115 58.46546 34.15427
#
# Poissons Ratio (x) = 0.51575 -0.13251
# Poissons Ratio (y) = 0.55003 0.23279
# Poissons Ratio (z) = -0.24191 0.39849
#
# Static dielectric constant tensor:
#      x y z
#    x 1.658510 0.000000 -0.001960 
#    y 0.000000 1.666860 0.000000 
#    z -0.001960 0.000000 1.668140 
# 
# From -- ./inp_files/3735.got.cif
#   From: 2010.05.17/outbox.cif.g08.bks.cpg/sg6_2_cif.got.tgz:3735.got - 2010.06.03 19:42:10.
