data_PCOD9131504
_publ_section_title
;
Structure prediction by ZEFSAII (Michael W. Deem and Ramdas Pophale) SiO2 
 PCOD9131504
Probable space group: C M
;
_chemical_formula_sum "Si O2"
_cell_formula_units_Z 32
_cell_length_a 13.576327
_cell_length_b 13.950706
_cell_length_c 11.556133
_cell_angle_alpha 90.000000
_cell_angle_beta 143.592686
_cell_angle_gamma 90.000000
_cell_volume 1299.055057
_symmetry_space_group_name_H-M "C M"
_symmetry_group_IT_number 8
_symmetry_cell_setting 'monoclinic'
loop_
_space_group_symop_operation_xyz
x,y,z
x,-y,z
1/2+x,1/2+y,z
1/2+x,1/2-y,z
loop_
_atom_site_type_symbol
_atom_site_label
_atom_site_fract_x
_atom_site_fract_y
_atom_site_fract_z
Si Si1 0.746700 0.886088 0.299000
Si Si2 0.701778 0.390318 0.835508
Si Si3 0.935297 0.384186 0.849611
Si Si4 0.979500 0.814055 0.336409
Si Si5 0.492751 0.790452 0.655579
Si Si6 0.315818 0.613371 0.964607
Si Si7 0.175176 0.889356 0.315033
Si Si8 0.031149 0.391026 0.311158
O O1 0.687180 0.870181 0.373917
O O2 0.913309 0.852253 0.393998
O O3 0.749842 0.000000 0.290822
O O4 0.591724 0.852760 0.075116
O O5 0.642035 0.500000 0.776143
O O6 0.776973 0.362622 0.780992
O O7 0.562238 0.315796 0.740726
O O8 0.862935 0.389286 0.073290
O O9 0.940342 0.500000 0.841056
O O10 0.953693 0.336367 0.743464
O O11 0.117511 0.873664 0.394741
O O12 0.832317 0.831687 0.102669
O O13 0.322669 0.816830 0.427635
O O14 0.021344 0.702447 0.380621
O O15 0.650550 0.847293 0.751737
O O16 0.302004 0.500000 0.972395
O O17 0.499226 0.629078 0.083606
O O18 0.224501 0.000000 0.344696
O O19 0.044921 0.500000 0.370897
#
# Coordination Sequence:
#
# PCOD9131504 Si02
#       8
#     4   4   4   4   4   4   4   4
#     4   9  15  26  49  76 100 127 166 210 253 295
#     4   9  18  31  47  75 108 134 167 211 248 295
#     4   9  16  27  48  77 101 124 167 214 250 293
#     4  10  16  31  48  72 103 135 161 206 250 298
#     4  12  18  31  56  74  99 142 169 198 257 305
#     4   9  17  29  49  78 104 127 164 210 254 298
#     4   9  19  30  48  79 106 126 164 212 255 298
#     4   9  17  29  49  77 103 135 172 205 247 300
#
# _framework density 24.633289000000001
#
# number of rings (size 3 to 8) (size 9 to 14) (size 15 to 20)
#    0.750    1.750    2.500    3.375    0.000    0.000 
#    0.000    1.875    0.000    7.500    0.000    0.000 
#    0.000    0.000    0.000    0.000    0.000    0.000 
#
# Total GULP energy -89370.945025 kJ/mol
# GULP energy per Si atom -5585.684064 kJ/mol
# Density = 2.457722 g / cm^3
# Si number density = 24.633289 Si / 1000 Ang^3
#
#
#
# Elastic Constant Matrix: (Units=GPa)
#
#
# Indices 1 2 3 4 5 6 
#
# 1 54.8885 34.0918 20.0669 0.0000 18.6719 0.0000
# 2 34.0918 151.5498 35.3538 0.0000 30.7035 0.0000
# 3 20.0669 35.3538 124.4167 0.0001 41.8264 0.0000
# 4 0.0000 0.0000 0.0001 13.7025 0.0000 20.2370
# 5 18.6719 30.7035 41.8264 0.0000 38.6081 0.0000
# 6 0.0000 0.0000 0.0000 20.2370 0.0000 43.0229
#
#
#
# Elastic Compliance Matrix: (Units=1/GPa)
#
#
# Indices 1 2 3 4 5 6 
#
# 1 0.023287 -0.003527 0.000141 0.000000 -0.008610 0.000000
# 2 -0.003527 0.008403 -0.000229 0.000000 -0.004729 0.000000
# 3 0.000141 -0.000229 0.012648 0.000000 -0.013588 0.000000
# 4 0.000000 0.000000 0.000000 0.239035 0.000000 -0.112437
# 5 -0.008610 -0.004729 -0.013588 0.000000 0.048546 0.000000
# 6 0.000000 0.000000 0.000000 -0.112437 0.000000 0.076131
#
#
# Mechanical properties :
#
#
# Convention : Reuss Voigt Hill
#
# Bulk Modulus (GPa) = 26.94910 56.65333 41.80121
# Shear Modulus (GPa) = 11.69179 35.15621 23.42400
#
# Velocity S-wave (km/s) = 2.18097 3.78191 3.08703
# Velocity P-wave (km/s) = 4.16005 6.48992 5.45092
#
# Compressibility (1/GPa) = 0.03710699
#
# Stress axis : x y z
#
# Youngs Moduli (GPa) = 42.94288 118.99905 79.06413
#
# Poissons Ratio (x) = 0.41971 -0.01113
# Poissons Ratio (y) = 0.15146 0.01813
# Poissons Ratio (z) = -0.00604 0.02729
#
# Static dielectric constant tensor:
#      x y z
#    x 1.898960 0.000000 -0.035830 
#    y 0.000000 1.952280 0.000000 
#    z -0.035830 0.000000 2.133160 
# 
# From -- ./inp_files/31488.got.cif
#   From: 2010.05.17/outbox.cif.g08.bks.cpg/sg8_16_cif.got.tgz:31488.got - 2010.06.03 19:46:02.
