data_PCOD9131610
_publ_section_title
;
Structure prediction by ZEFSAII (Michael W. Deem and Ramdas Pophale) SiO2 
 PCOD9131610
Probable space group: C M
;
_chemical_formula_sum "Si O2"
_cell_formula_units_Z 32
_cell_length_a 20.948725
_cell_length_b 7.558452
_cell_length_c 12.519931
_cell_angle_alpha 90.000000
_cell_angle_beta 53.925764
_cell_angle_gamma 90.000000
_cell_volume 1602.288269
_symmetry_space_group_name_H-M "C M"
_symmetry_group_IT_number 8
_symmetry_cell_setting 'monoclinic'
loop_
_space_group_symop_operation_xyz
x,y,z
x,-y,z
1/2+x,1/2+y,z
1/2+x,1/2-y,z
loop_
_atom_site_type_symbol
_atom_site_label
_atom_site_fract_x
_atom_site_fract_y
_atom_site_fract_z
Si Si1 0.063430 0.282780 0.338940
Si Si2 0.652727 0.210238 0.041826
Si Si3 0.101822 0.291424 0.538357
Si Si4 0.884876 0.708917 0.526081
Si Si5 0.585550 0.286583 0.884036
Si Si6 0.829166 0.215332 0.820517
Si Si7 0.724396 0.286413 0.589084
Si Si8 0.965418 0.797209 0.835487
O O1 0.063184 0.500000 0.337694
O O2 0.114889 0.220945 0.188188
O O3 0.097138 0.229822 0.421246
O O4 0.972668 0.220907 0.420523
O O5 0.661896 0.000000 0.046372
O O6 0.596299 0.239325 0.996053
O O7 0.739975 0.278961 0.927251
O O8 0.083767 0.500000 0.557469
O O9 0.184802 0.262987 0.515982
O O10 0.034490 0.203550 0.677811
O O11 0.889187 0.500000 0.499010
O O12 0.861418 0.729913 0.673189
O O13 0.811760 0.781199 0.529053
O O14 0.584452 0.500000 0.876966
O O15 0.662720 0.224896 0.741455
O O16 0.508237 0.218730 0.897519
O O17 0.888588 0.280488 0.854322
O O18 0.830243 0.000000 0.820031
O O19 0.726093 0.500000 0.593012
O O20 0.945145 0.000000 0.881890
#
# Coordination Sequence:
#
# PCOD9131610 Si02
#       8
#     4   4   4   4   4   4   4   4
#     4   9  19  34  51  73 101 135 168 201 249 300
#     4  10  20  34  51  73 103 134 165 204 251 299
#     4  10  18  30  51  75  99 128 166 207 246 294
#     4  10  18  33  54  73  98 133 170 206 245 295
#     4   9  17  31  49  71  99 130 166 203 247 299
#     4  10  19  31  51  77 101 128 167 212 248 287
#     4   9  18  31  50  74 101 129 160 206 255 295
#     4   9  18  32  49  72 102 131 162 205 253 295
#
# _framework density 19.971437000000002
#
# number of rings (size 3 to 8) (size 9 to 14) (size 15 to 20)
#    0.000    2.500    2.500    1.125    0.000    2.500 
#    0.000    3.125    0.000    1.500    0.000    0.000 
#    0.000    0.000    0.000    0.000    0.000    0.000 
#
# Total GULP energy -89257.561004 kJ/mol
# GULP energy per Si atom -5578.597563 kJ/mol
# Density = 1.992598 g / cm^3
# Si number density = 19.971437 Si / 1000 Ang^3
#
#
#
# Elastic Constant Matrix: (Units=GPa)
#
#
# Indices 1 2 3 4 5 6 
#
# 1 147.2329 -11.5619 39.3727 0.0000 9.9111 0.0000
# 2 -11.5619 44.9268 -12.6130 0.0000 -2.8472 -0.0001
# 3 39.3727 -12.6130 75.1905 0.0000 6.1046 0.0000
# 4 0.0000 0.0000 0.0000 12.4713 0.0000 3.5890
# 5 9.9111 -2.8472 6.1046 0.0000 25.7595 0.0000
# 6 0.0000 -0.0001 0.0000 3.5890 0.0000 10.0806
#
#
#
# Elastic Compliance Matrix: (Units=1/GPa)
#
#
# Indices 1 2 3 4 5 6 
#
# 1 0.008041 0.000843 -0.003901 0.000000 -0.002076 0.000000
# 2 0.000843 0.023519 0.003384 0.000000 0.001473 0.000000
# 3 -0.003901 0.003384 0.016067 0.000000 -0.001933 0.000000
# 4 0.000000 0.000000 0.000000 0.089338 0.000000 -0.031807
# 5 -0.002076 0.001473 -0.001933 0.000000 0.040240 0.000000
# 6 0.000000 0.000000 0.000000 -0.031807 0.000000 0.110525
#
#
# Mechanical properties :
#
#
# Convention : Reuss Voigt Hill
#
# Bulk Modulus (GPa) = 20.71285 33.08287 26.89786
# Shear Modulus (GPa) = 16.49240 26.47244 21.48242
#
# Velocity S-wave (km/s) = 2.87679 3.64471 3.28328
# Velocity P-wave (km/s) = 4.62907 5.85773 5.27926
#
# Compressibility (1/GPa) = 0.04827920
#
# Stress axis : x y z
#
# Youngs Moduli (GPa) = 124.36251 42.51921 62.24050
#
# Poissons Ratio (x) = -0.03583 0.24278
# Poissons Ratio (y) = -0.10480 -0.21064
# Poissons Ratio (z) = 0.48510 -0.14390
#
# Static dielectric constant tensor:
#      x y z
#    x 1.734460 0.000000 -0.006100 
#    y 0.000000 1.818360 0.000000 
#    z -0.006100 0.000000 1.656820 
# 
# From -- ./inp_files/22927.got.cif
#   From: 2010.05.17/outbox.cif.g08.bks.cpg/sg8_12_cif.got.tgz:22927.got - 2010.06.03 19:46:02.
