data_PCOD9131731
_publ_section_title
;
Structure prediction by ZEFSAII (Michael W. Deem and Ramdas Pophale) SiO2 
 PCOD9131731
Probable space group: C M
;
_chemical_formula_sum "Si O2"
_cell_formula_units_Z 28
_cell_length_a 14.765571
_cell_length_b 13.789891
_cell_length_c 13.715838
_cell_angle_alpha 90.000000
_cell_angle_beta 151.784324
_cell_angle_gamma 90.000000
_cell_volume 1320.393648
_symmetry_space_group_name_H-M "C M"
_symmetry_group_IT_number 8
_symmetry_cell_setting 'monoclinic'
loop_
_space_group_symop_operation_xyz
x,y,z
x,-y,z
1/2+x,1/2+y,z
1/2+x,1/2-y,z
loop_
_atom_site_type_symbol
_atom_site_label
_atom_site_fract_x
_atom_site_fract_y
_atom_site_fract_z
Si Si1 0.675870 0.891295 0.897890
Si Si2 0.774168 0.798164 0.677438
Si Si3 0.468448 0.894284 0.911611
Si Si4 0.958116 0.229751 0.262495
Si Si5 0.182544 0.886627 0.095316
Si Si6 0.374103 0.611077 0.378021
Si Si7 0.936202 0.683874 0.498839
O O1 0.575324 0.889243 0.908375
O O2 0.508962 0.862044 0.666266
O O3 0.741223 0.000000 0.939078
O O4 0.861204 0.821591 0.078396
O O5 0.833770 0.697512 0.786043
O O6 0.672996 0.770587 0.478325
O O7 0.604317 0.842645 0.580694
O O8 0.964155 0.861795 0.860477
O O9 0.375433 0.000000 0.831614
O O10 0.642748 0.887908 0.152419
O O11 0.814362 0.316972 0.154026
O O12 0.944144 0.149830 0.337610
O O13 0.244076 0.854152 0.263688
O O14 0.220671 0.000000 0.119515
O O15 0.431626 0.500000 0.451147
O O16 0.430999 0.699380 0.501517
#
# Coordination Sequence:
#
# PCOD9131731 Si02
#       7
#     4   4   4   4   4   4   4
#     4  10  19  36  55  80 116 143 169 220 279 326
#     4  10  18  34  54  80 103 140 185 222 258 314
#     4   9  16  31  58  80 101 137 181 222 267 311
#     4   9  19  33  55  77 105 138 182 229 265 315
#     4  10  19  35  55  76 105 144 185 222 262 317
#     4   8  14  30  53  74 100 140 178 216 259 308
#     4  10  21  33  54  81 116 142 174 221 270 327
#
# _framework density 21.205798000000001
#
# number of rings (size 3 to 8) (size 9 to 14) (size 15 to 20)
#    0.000    2.857    4.286    1.714    0.000    5.714 
#    2.571    0.714    0.000    0.000    0.000    0.000 
#    0.000    0.000    0.000    0.000    0.000    0.000 
#
# Total GULP energy -77991.575207 kJ/mol
# GULP energy per Si atom -5570.826800 kJ/mol
# Density = 2.115753 g / cm^3
# Si number density = 21.205798 Si / 1000 Ang^3
#
#
#
# Elastic Constant Matrix: (Units=GPa)
#
#
# Indices 1 2 3 4 5 6 
#
# 1 10.8093 8.8745 17.8892 0.0004 4.7139 0.0002
# 2 8.8745 145.3368 43.7160 0.0006 -8.1368 0.0005
# 3 17.8892 43.7160 138.5750 0.0006 2.8910 0.0005
# 4 0.0004 0.0006 0.0006 21.5131 0.0006 -5.2527
# 5 4.7139 -8.1368 2.8910 0.0006 20.8339 0.0004
# 6 0.0002 0.0005 0.0005 -5.2527 0.0004 1.9446
#
#
#
# Elastic Compliance Matrix: (Units=1/GPa)
#
#
# Indices 1 2 3 4 5 6 
#
# 1 0.135367 -0.005433 -0.015122 -0.000006 -0.030652 -0.000021
# 2 -0.005433 0.008055 -0.001937 -0.000002 0.004644 -0.000007
# 3 -0.015122 -0.001937 0.009752 0.000000 0.001312 -0.000001
# 4 -0.000006 -0.000002 0.000000 0.136518 -0.000010 0.368752
# 5 -0.030652 0.004644 0.001312 -0.000010 0.056566 -0.000038
# 6 -0.000021 -0.000007 -0.000001 0.368752 -0.000038 1.510288
#
#
# Mechanical properties :
#
#
# Convention : Reuss Voigt Hill
#
# Bulk Modulus (GPa) = 9.24290 48.40896 28.82593
# Shear Modulus (GPa) = 2.58052 23.80776 13.19414
#
# Velocity S-wave (km/s) = 1.10433 3.35431 2.49709
# Velocity P-wave (km/s) = 2.44830 6.15464 4.68368
#
# Compressibility (1/GPa) = 0.10819111
#
# Stress axis : x y z
#
# Youngs Moduli (GPa) = 7.38731 124.14916 102.54372
#
# Poissons Ratio (x) = 0.67456 1.55062
# Poissons Ratio (y) = 0.04014 0.19858
# Poissons Ratio (z) = 0.11171 0.24042
#
# Static dielectric constant tensor:
#      x y z
#    x 1.806200 0.000000 0.000380 
#    y 0.000000 1.775170 0.000000 
#    z 0.000380 0.000000 1.842650 
# 
# From -- ./inp_files/29932.got.cif
#   From: 2010.05.17/outbox.cif.g08.bks.cpg/sg8_15_cif.got.tgz:29932.got - 2010.06.03 19:46:02.
