data_PCOD9131045
_publ_section_title
;
Structure prediction by ZEFSAII (Michael W. Deem and Ramdas Pophale) SiO2 
 PCOD9131045
Probable space group: P M
;
_chemical_formula_sum "Si O2"
_cell_formula_units_Z 16
_cell_length_a 7.218606
_cell_length_b 17.378444
_cell_length_c 8.694435
_cell_angle_alpha 90.000000
_cell_angle_beta 143.337775
_cell_angle_gamma 90.000000
_cell_volume 651.253470
_symmetry_space_group_name_H-M "P M"
_symmetry_group_IT_number 6
_symmetry_cell_setting 'monoclinic'
loop_
_space_group_symop_operation_xyz
x,y,z
x,-y,z
loop_
_atom_site_type_symbol
_atom_site_label
_atom_site_fract_x
_atom_site_fract_y
_atom_site_fract_z
Si Si1 0.339400 0.811208 0.521860
Si Si2 0.775682 0.585462 0.225741
Si Si3 0.711794 0.668179 0.485702
Si Si4 0.711681 0.728428 0.007836
Si Si5 0.157662 0.586325 0.995356
Si Si6 0.966107 0.082742 0.472572
Si Si7 0.889766 0.087799 0.782968
Si Si8 0.448071 0.194000 0.129835
O O1 0.552808 0.874335 0.580900
O O2 0.028994 0.777788 0.237800
O O3 0.220804 0.858285 0.590366
O O4 0.544734 0.745122 0.736733
O O5 0.908227 0.500000 0.301146
O O6 0.412326 0.577965 0.027827
O O7 0.887512 0.632074 0.452490
O O8 0.799557 0.640158 0.096101
O O9 0.911161 0.646482 0.765631
O O10 0.621982 0.754940 0.377268
O O11 0.383962 0.622775 0.273787
O O12 0.483578 0.751833 0.001776
O O13 0.040465 0.500000 0.950869
O O14 0.948821 0.077785 0.642416
O O15 0.017466 0.000000 0.435374
O O16 0.640987 0.119090 0.209080
O O17 0.133961 0.156290 0.984344
O O18 0.919800 0.000000 0.871278
#
# Coordination Sequence:
#
# PCOD9131045 Si02
#       8
#     2   2   2   2   2   2   2   2
#     4  11  24  43  62  91 128 162 208 261 311 371
#     4   8  17  29  52  86 121 155 202 250 296 365
#     4   9  18  27  49  79 120 157 192 247 304 350
#     4  10  22  38  62  91 129 163 205 256 315 368
#     4   9  16  27  45  79 120 156 196 247 297 354
#     4  10  22  40  61  89 122 163 207 261 316 371
#     4  11  24  42  65  92 121 168 214 259 319 379
#     4  10  21  36  62  87 125 162 208 257 312 372
#
# _framework density 24.568007000000001
#
# number of rings (size 3 to 8) (size 9 to 14) (size 15 to 20)
#    0.750    1.500    1.250    1.500    8.750    0.000 
#    0.000    1.250    0.000    0.000    0.000   12.250 
#    0.000    0.000    0.000    0.000    0.000    0.000 
#
# Total GULP energy -89254.519850 kJ/mol
# GULP energy per Si atom -5578.407491 kJ/mol
# Density = 2.451209 g / cm^3
# Si number density = 24.568007 Si / 1000 Ang^3
#
#
#
# Elastic Constant Matrix: (Units=GPa)
#
#
# Indices 1 2 3 4 5 6 
#
# 1 59.9208 18.3648 4.6143 0.0000 21.3828 0.0000
# 2 18.3648 109.1825 2.1141 0.0000 17.3888 0.0000
# 3 4.6143 2.1141 75.2916 0.0000 11.4774 0.0000
# 4 0.0000 0.0000 0.0000 39.0995 0.0000 11.7466
# 5 21.3828 17.3888 11.4774 0.0000 21.1390 0.0000
# 6 0.0000 0.0000 0.0000 11.7466 0.0000 37.8594
#
#
#
# Elastic Compliance Matrix: (Units=1/GPa)
#
#
# Indices 1 2 3 4 5 6 
#
# 1 0.026608 -0.000009 0.002694 0.000000 -0.028370 0.000000
# 2 -0.000009 0.010627 0.001127 0.000000 -0.009344 0.000000
# 3 0.002694 0.001127 0.014873 0.000000 -0.011727 0.000000
# 4 0.000000 0.000000 0.000000 0.028205 0.000000 -0.008751
# 5 -0.028370 -0.009344 -0.011727 0.000000 0.090056 0.000000
# 6 0.000000 0.000000 0.000000 -0.008751 0.000000 0.029129
#
#
# Mechanical properties :
#
#
# Convention : Reuss Voigt Hill
#
# Bulk Modulus (GPa) = 16.74197 32.73127 24.73662
# Shear Modulus (GPa) = 23.60887 34.23968 28.92428
#
# Velocity S-wave (km/s) = 3.10330 3.73724 3.43492
# Velocity P-wave (km/s) = 4.43508 5.65458 5.08154
#
# Compressibility (1/GPa) = 0.05973014
#
# Stress axis : x y z
#
# Youngs Moduli (GPa) = 37.58276 94.10120 67.23770
#
# Poissons Ratio (x) = 0.00089 -0.18116
# Poissons Ratio (y) = 0.00035 -0.07575
# Poissons Ratio (z) = -0.10126 -0.10601
#
# Static dielectric constant tensor:
#      x y z
#    x 1.992960 0.000000 -0.009470 
#    y 0.000000 1.997350 0.000000 
#    z -0.009470 0.000000 1.990240 
# 
# From -- ./inp_files/4847.got.cif
#   From: 2010.05.17/outbox.cif.g08.bks.cpg/sg6_3_cif.got.tgz:4847.got - 2010.06.03 19:42:10.
