data_PCOD9131525
_publ_section_title
;
Structure prediction by ZEFSAII (Michael W. Deem and Ramdas Pophale) SiO2 
 PCOD9131525
Probable space group: C M
;
_chemical_formula_sum "Si O2"
_cell_formula_units_Z 32
_cell_length_a 18.002933
_cell_length_b 8.692063
_cell_length_c 17.439443
_cell_angle_alpha 90.000000
_cell_angle_beta 141.011096
_cell_angle_gamma 90.000000
_cell_volume 1716.985633
_symmetry_space_group_name_H-M "C M"
_symmetry_group_IT_number 8
_symmetry_cell_setting 'monoclinic'
loop_
_space_group_symop_operation_xyz
x,y,z
x,-y,z
1/2+x,1/2+y,z
1/2+x,1/2-y,z
loop_
_atom_site_type_symbol
_atom_site_label
_atom_site_fract_x
_atom_site_fract_y
_atom_site_fract_z
Si Si1 0.577230 0.182782 0.291800
Si Si2 0.759114 0.317564 0.538890
Si Si3 0.250180 0.816649 0.297469
Si Si4 0.392748 0.318250 0.044298
Si Si5 0.469576 0.815674 0.804613
Si Si6 0.560360 0.816561 0.047367
Si Si7 0.430513 0.684208 0.544433
Si Si8 0.139757 0.181211 0.813744
O O1 0.637274 0.234608 0.419465
O O2 0.661764 0.255856 0.293648
O O3 0.448498 0.245000 0.166212
O O4 0.580519 0.000000 0.287833
O O5 0.740223 0.500000 0.518995
O O6 0.851502 0.265589 0.546778
O O7 0.832252 0.281523 0.674782
O O8 0.376638 0.745975 0.421924
O O9 0.186620 0.757889 0.169630
O O10 0.254764 0.000000 0.303064
O O11 0.410642 0.500000 0.061440
O O12 0.466735 0.247813 0.033269
O O13 0.257664 0.276068 0.921707
O O14 0.551129 0.721565 0.811819
O O15 0.484785 0.000000 0.802507
O O16 0.511639 0.783236 0.923964
O O17 0.570038 0.000000 0.064555
O O18 0.412860 0.500000 0.535004
O O19 0.565300 0.716584 0.676551
O O20 0.167632 0.000000 0.835799
#
# Coordination Sequence:
#
# PCOD9131525 Si02
#       8
#     4   4   4   4   4   4   4   4
#     4  10  17  27  44  67  94 123 158 199 242 283
#     4   9  15  26  44  68  95 121 155 196 238 282
#     4  10  17  26  43  68  95 123 158 200 242 280
#     4  11  21  33  50  72  99 130 164 201 243 288
#     4   9  19  33  51  74 100 131 162 197 240 288
#     4  10  19  33  51  72 100 131 164 199 240 288
#     4   9  16  27  44  67  93 122 156 195 239 284
#     4  10  20  33  51  74 100 129 161 199 242 289
#
# _framework density 18.637312999999999
#
# number of rings (size 3 to 8) (size 9 to 14) (size 15 to 20)
#    0.000    2.250    0.000    7.875    0.000    3.000 
#    0.000    0.000    0.000    1.500    0.000    7.000 
#    0.000    0.000    0.000    0.000    0.000    0.000 
#
# Total GULP energy -89169.059192 kJ/mol
# GULP energy per Si atom -5573.066199 kJ/mol
# Density = 1.859489 g / cm^3
# Si number density = 18.637313 Si / 1000 Ang^3
#
#
#
# Elastic Constant Matrix: (Units=GPa)
#
#
# Indices 1 2 3 4 5 6 
#
# 1 5.9751 9.3877 20.4249 0.0000 -0.0050 0.0000
# 2 9.3877 95.5857 63.7423 0.0000 -4.8530 0.0000
# 3 20.4249 63.7423 187.1850 0.0000 -5.8802 0.0000
# 4 0.0000 0.0000 0.0000 34.9020 0.0000 3.5542
# 5 -0.0050 -4.8530 -5.8802 0.0000 20.8065 0.0000
# 6 0.0000 0.0000 0.0000 3.5542 0.0000 15.1236
#
#
#
# Elastic Compliance Matrix: (Units=1/GPa)
#
#
# Indices 1 2 3 4 5 6 
#
# 1 0.274698 -0.009422 -0.027073 0.000000 -0.009783 0.000000
# 2 -0.009422 0.013931 -0.003646 0.000000 0.002217 0.000000
# 3 -0.027073 -0.003646 0.009596 0.000000 0.001855 0.000000
# 4 0.000000 0.000000 0.000000 0.029354 0.000000 -0.006899
# 5 -0.009783 0.002217 0.001855 0.000000 0.049101 0.000000
# 6 0.000000 0.000000 0.000000 -0.006899 0.000000 0.067743
#
#
# Mechanical properties :
#
#
# Convention : Reuss Voigt Hill
#
# Bulk Modulus (GPa) = 4.58834 52.87284 28.73059
# Shear Modulus (GPa) = 8.37026 27.17914 17.77470
#
# Velocity S-wave (km/s) = 2.12153 3.82294 3.09158
# Velocity P-wave (km/s) = 2.91006 6.92224 5.30970
#
# Compressibility (1/GPa) = 0.21794359
#
# Stress axis : x y z
#
# Youngs Moduli (GPa) = 3.64037 71.78088 104.20614
#
# Poissons Ratio (x) = 0.67629 2.82116
# Poissons Ratio (y) = 0.03430 0.37997
# Poissons Ratio (z) = 0.09856 0.26174
#
# Static dielectric constant tensor:
#      x y z
#    x 1.628850 0.000000 -0.006830 
#    y 0.000000 1.621060 0.000000 
#    z -0.006830 0.000000 1.744760 
# 
# From -- ./inp_files/23721.got.cif
#   From: 2010.05.17/outbox.cif.g08.bks.cpg/sg8_12_cif.got.tgz:23721.got - 2010.06.03 19:46:02.
