data_PCOD9131715
_publ_section_title
;
Structure prediction by ZEFSAII (Michael W. Deem and Ramdas Pophale) SiO2 
 PCOD9131715
Probable space group: C M
;
_chemical_formula_sum "Si O2"
_cell_formula_units_Z 24
_cell_length_a 15.989449
_cell_length_b 8.758098
_cell_length_c 9.355507
_cell_angle_alpha 90.000000
_cell_angle_beta 88.735928
_cell_angle_gamma 90.000000
_cell_volume 1309.799811
_symmetry_space_group_name_H-M "C M"
_symmetry_group_IT_number 8
_symmetry_cell_setting 'monoclinic'
loop_
_space_group_symop_operation_xyz
x,y,z
x,-y,z
1/2+x,1/2+y,z
1/2+x,1/2-y,z
loop_
_atom_site_type_symbol
_atom_site_label
_atom_site_fract_x
_atom_site_fract_y
_atom_site_fract_z
Si Si1 0.100650 0.680910 0.023570
Si Si2 0.262680 0.181020 0.861224
Si Si3 0.827705 0.823484 0.271997
Si Si4 0.747129 0.178041 0.554102
Si Si5 0.161040 0.177962 0.300435
Si Si6 0.927822 0.819893 0.999617
O O1 0.109192 0.500000 0.022137
O O2 0.103060 0.742415 0.186554
O O3 0.178961 0.754066 0.938103
O O4 0.012629 0.732787 0.960514
O O5 0.256937 0.223789 0.694275
O O6 0.345841 0.259659 0.921622
O O7 0.267089 0.000000 0.881586
O O8 0.827657 0.810197 0.443725
O O9 0.754742 0.705868 0.233026
O O10 0.799118 0.000000 0.244894
O O11 0.906412 0.798994 0.169407
O O12 0.672795 0.238956 0.452876
O O13 0.734948 0.000000 0.589780
O O14 0.142675 0.000000 0.316106
O O15 0.938292 0.000000 0.972887
#
# Coordination Sequence:
#
# PCOD9131715 Si02
#       6
#     4   4   4   4   4   4
#     4  12  24  39  59  87 120 158 200 245 292 347
#     4  12  23  38  60  88 120 157 197 243 296 353
#     4   8  17  34  58  83 112 146 188 233 290 343
#     4   9  18  35  59  85 115 157 194 234 293 352
#     4  10  18  33  58  86 113 146 194 240 284 340
#     4  11  22  39  62  89 118 154 197 245 295 349
#
# _framework density 18.323409999999999
#
# number of rings (size 3 to 8) (size 9 to 14) (size 15 to 20)
#    1.000    0.667    1.667    5.000    0.000    0.667 
#    0.000    1.667    0.000    2.000    0.000    0.000 
#    0.000    0.000    0.000    0.000    0.000    0.000 
#
# Total GULP energy -66829.605454 kJ/mol
# GULP energy per Si atom -5569.133788 kJ/mol
# Density = 1.828171 g / cm^3
# Si number density = 18.323410 Si / 1000 Ang^3
#
#
#
# Elastic Constant Matrix: (Units=GPa)
#
#
# Indices 1 2 3 4 5 6 
#
# 1 87.0346 24.6238 30.5644 0.0000 5.8059 0.0000
# 2 24.6238 103.6967 22.7666 0.0000 -4.1418 0.0000
# 3 30.5644 22.7666 85.7616 0.0000 4.2150 0.0000
# 4 0.0000 0.0000 0.0000 30.3636 0.0000 3.2447
# 5 5.8059 -4.1418 4.2150 0.0000 8.5157 0.0000
# 6 0.0000 0.0000 0.0000 3.2447 0.0000 26.0649
#
#
#
# Elastic Compliance Matrix: (Units=1/GPa)
#
#
# Indices 1 2 3 4 5 6 
#
# 1 0.014288 -0.002914 -0.003864 0.000000 -0.009246 0.000000
# 2 -0.002914 0.011196 -0.002356 0.000000 0.008598 0.000000
# 3 -0.003864 -0.002356 0.013929 0.000000 -0.005406 0.000000
# 4 0.000000 0.000000 0.000000 0.033378 0.000000 -0.004155
# 5 -0.009246 0.008598 -0.005406 0.000000 0.130591 0.000000
# 6 0.000000 0.000000 0.000000 -0.004155 0.000000 0.038883
#
#
# Mechanical properties :
#
#
# Convention : Reuss Voigt Hill
#
# Bulk Modulus (GPa) = 47.29436 48.04473 47.66954
# Shear Modulus (GPa) = 18.68591 26.22471 22.45531
#
# Velocity S-wave (km/s) = 3.19687 3.78724 3.50451
# Velocity P-wave (km/s) = 6.28439 6.73807 6.51518
#
# Compressibility (1/GPa) = 0.02114417
#
# Stress axis : x y z
#
# Youngs Moduli (GPa) = 69.98997 89.31643 71.79498
#
# Poissons Ratio (x) = 0.26024 0.27742
# Poissons Ratio (y) = 0.20393 0.16917
# Poissons Ratio (z) = 0.27045 0.21046
#
# Static dielectric constant tensor:
#      x y z
#    x 1.627440 0.000000 -0.004330 
#    y 0.000000 1.610350 0.000000 
#    z -0.004330 0.000000 1.665020 
# 
# From -- ./inp_files/12116.got.cif
#   From: 2010.05.17/outbox.cif.g08.bks.cpg/sg8_7_cif.got.tgz:12116.got - 2010.06.03 19:46:02.
