data_PCOD9131883
_publ_section_title
;
Structure prediction by ZEFSAII (Michael W. Deem and Ramdas Pophale) SiO2 
 PCOD9131883
Probable space group: C M
;
_chemical_formula_sum "Si O2"
_cell_formula_units_Z 32
_cell_length_a 20.739953
_cell_length_b 8.585359
_cell_length_c 25.785169
_cell_angle_alpha 90.000000
_cell_angle_beta 156.853566
_cell_angle_gamma 90.000000
_cell_volume 1804.761625
_symmetry_space_group_name_H-M "C M"
_symmetry_group_IT_number 8
_symmetry_cell_setting 'monoclinic'
loop_
_space_group_symop_operation_xyz
x,y,z
x,-y,z
1/2+x,1/2+y,z
1/2+x,1/2-y,z
loop_
_atom_site_type_symbol
_atom_site_label
_atom_site_fract_x
_atom_site_fract_y
_atom_site_fract_z
Si Si1 0.090720 0.687171 0.650690
Si Si2 0.889582 0.187966 0.321174
Si Si3 0.067417 0.186769 0.283103
Si Si4 0.904965 0.686991 0.828253
Si Si5 0.262978 0.815053 0.118367
Si Si6 0.289319 0.686763 0.360065
Si Si7 0.371452 0.189064 0.581323
Si Si8 0.270046 0.810268 0.617221
O O1 0.098524 0.500000 0.655169
O O2 0.264047 0.757517 0.763283
O O3 0.951763 0.742647 0.507241
O O4 0.021754 0.737704 0.655985
O O5 0.820378 0.261705 0.217906
O O6 0.791515 0.228736 0.301033
O O7 0.079275 0.233929 0.470720
O O8 0.886521 0.000000 0.312780
O O9 0.135432 0.253104 0.279351
O O10 0.204297 0.233135 0.427484
O O11 0.893418 0.247331 0.173703
O O12 0.065794 0.000000 0.279356
O O13 0.910509 0.500000 0.832324
O O14 0.848303 0.741661 0.729017
O O15 0.081964 0.752016 0.973324
O O16 0.264674 0.000000 0.116604
O O17 0.299946 0.500000 0.371704
O O18 0.363547 0.243465 0.634557
O O19 0.373110 0.000000 0.583582
O O20 0.272885 0.000000 0.619907
#
# Coordination Sequence:
#
# PCOD9131883 Si02
#       8
#     4   4   4   4   4   4   4   4
#     4  10  19  32  53  83 116 150 186 233 286 339
#     4  10  19  36  60  85 114 149 192 238 283 340
#     4  10  19  35  58  83 114 152 189 233 287 343
#     4  11  22  38  59  81 110 154 193 233 288 347
#     4  12  25  39  56  83 117 153 192 241 291 346
#     4  10  19  33  56  87 118 148 188 240 287 335
#     4   8  15  29  54  83 109 137 178 229 277 327
#     4   9  16  32  58  85 108 139 188 235 279 333
#
# _framework density 17.730874
#
# number of rings (size 3 to 8) (size 9 to 14) (size 15 to 20)
#    0.000    2.000    2.500    3.375    0.000    1.000 
#    0.000    1.250    0.000    4.500    0.000    0.000 
#    0.000    0.000    0.000    0.000    0.000    0.000 
#
# Total GULP energy -89296.496276 kJ/mol
# GULP energy per Si atom -5581.031017 kJ/mol
# Density = 1.769052 g / cm^3
# Si number density = 17.730874 Si / 1000 Ang^3
#
#
#
# Elastic Constant Matrix: (Units=GPa)
#
#
# Indices 1 2 3 4 5 6 
#
# 1 156.5548 36.5306 75.4951 -0.0001 18.6955 0.0001
# 2 36.5306 50.7335 26.3459 0.0001 2.6133 -0.0001
# 3 75.4951 26.3459 113.7982 -0.0001 11.1426 0.0001
# 4 -0.0001 0.0001 -0.0001 22.3219 0.0007 5.7302
# 5 18.6955 2.6133 11.1426 0.0007 26.9293 0.0000
# 6 0.0001 -0.0001 0.0001 5.7302 0.0000 27.3264
#
#
#
# Elastic Compliance Matrix: (Units=1/GPa)
#
#
# Indices 1 2 3 4 5 6 
#
# 1 0.010706 -0.004566 -0.005587 0.000000 -0.004678 0.000000
# 2 -0.004566 0.024352 -0.002801 0.000000 0.001966 0.000000
# 3 -0.005587 -0.002801 0.013274 0.000000 -0.001342 0.000000
# 4 0.000000 0.000000 0.000000 0.047348 -0.000001 -0.009929
# 5 -0.004678 0.001966 -0.001342 -0.000001 0.040746 0.000000
# 6 0.000000 0.000000 0.000000 -0.009929 0.000000 0.038677
#
#
# Mechanical properties :
#
#
# Convention : Reuss Voigt Hill
#
# Bulk Modulus (GPa) = 44.59744 66.42552 55.51148
# Shear Modulus (GPa) = 23.98241 27.49652 25.73946
#
# Velocity S-wave (km/s) = 3.68173 3.94225 3.81422
# Velocity P-wave (km/s) = 6.57880 7.63324 7.12555
#
# Compressibility (1/GPa) = 0.02242281
#
# Stress axis : x y z
#
# Youngs Moduli (GPa) = 93.40551 41.06414 75.33534
#
# Poissons Ratio (x) = 0.18752 0.42092
# Poissons Ratio (y) = 0.42653 0.21101
# Poissons Ratio (z) = 0.52188 0.11502
#
# Static dielectric constant tensor:
#      x y z
#    x 1.623270 0.000000 0.005700 
#    y 0.000000 1.600560 0.000000 
#    z 0.005700 0.000000 1.568630 
# 
# From -- ./inp_files/24321.got.cif
#   From: 2010.05.17/outbox.cif.g08.bks.cpg/sg8_13_cif.got.tgz:24321.got - 2010.06.03 19:46:02.
