data_PCOD9131379
_publ_section_title
;
Structure prediction by ZEFSAII (Michael W. Deem and Ramdas Pophale) SiO2 
 PCOD9131379
Probable space group: P C
;
_chemical_formula_sum "Si O2"
_cell_formula_units_Z 16
_cell_length_a 9.024082
_cell_length_b 17.722103
_cell_length_c 5.201661
_cell_angle_alpha 90.000000
_cell_angle_beta 54.890625
_cell_angle_gamma 90.000000
_cell_volume 680.523564
_symmetry_space_group_name_H-M "P C"
_symmetry_group_IT_number 7
_symmetry_cell_setting 'monoclinic'
loop_
_space_group_symop_operation_xyz
x,y,z
x,-y,1/2+z
loop_
_atom_site_type_symbol
_atom_site_label
_atom_site_fract_x
_atom_site_fract_y
_atom_site_fract_z
Si Si1 0.200350 0.616166 0.729470
Si Si2 0.961716 0.845299 0.904591
Si Si3 0.613608 0.948770 0.238158
Si Si4 0.501924 0.457333 0.691325
Si Si5 0.488776 0.326367 0.347755
Si Si6 0.175617 0.248557 0.855299
Si Si7 0.255124 0.053625 0.301860
Si Si8 0.885136 0.689695 0.238896
O O1 0.284097 0.551221 0.466329
O O2 0.341850 0.625458 0.826292
O O3 0.210431 0.694817 0.560142
O O4 0.990755 0.616863 0.020091
O O5 0.093125 0.829628 0.532189
O O6 0.094707 0.886728 0.967236
O O7 0.790563 0.898432 0.055151
O O8 0.894573 0.762708 0.047462
O O9 0.439297 0.904475 0.523900
O O10 0.611102 0.015254 0.456045
O O11 0.568443 0.509123 0.391871
O O12 0.540732 0.373041 0.553734
O O13 0.371399 0.251459 0.522865
O O14 0.677786 0.318743 0.018553
O O15 0.018859 0.286677 0.839407
O O16 0.244688 0.007158 0.577193
#
# Coordination Sequence:
#
# PCOD9131379 Si02
#       8
#     2   2   2   2   2   2   2   2
#     4   9  20  41  64  89 130 168 210 263 319 374
#     4  11  23  37  64  89 124 164 222 257 323 390
#     4  10  23  41  62  92 126 164 210 268 325 377
#     4  11  21  39  70  98 128 173 217 260 322 383
#     4  10  21  42  67  91 140 168 212 269 323 375
#     4   9  22  38  60  94 126 171 210 263 321 379
#     4  10  23  42  64  89 125 166 207 268 327 381
#     4  10  23  40  63  98 127 172 216 270 324 379
#
# _framework density 23.511310000000002
#
# number of rings (size 3 to 8) (size 9 to 14) (size 15 to 20)
#    0.000    2.000    1.250    0.750    3.500    8.000 
#    2.250    1.250    0.000    0.000    0.000    0.000 
#    0.000    0.000    0.000    0.000    0.000    0.000 
#
# Total GULP energy -89144.071064 kJ/mol
# GULP energy per Si atom -5571.504441 kJ/mol
# Density = 2.345780 g / cm^3
# Si number density = 23.511310 Si / 1000 Ang^3
#
#
#
# Elastic Constant Matrix: (Units=GPa)
#
#
# Indices 1 2 3 4 5 6 
#
# 1 49.1467 4.4111 42.4440 0.0000 -10.2226 0.0000
# 2 4.4111 22.8203 34.3873 0.0000 -11.8823 0.0000
# 3 42.4440 34.3873 127.4754 0.0000 -13.9952 0.0000
# 4 0.0000 0.0000 0.0000 47.9367 0.0000 17.1191
# 5 -10.2226 -11.8823 -13.9952 0.0000 56.2999 0.0000
# 6 0.0000 0.0000 0.0000 17.1191 0.0000 28.9586
#
#
#
# Elastic Compliance Matrix: (Units=1/GPa)
#
#
# Indices 1 2 3 4 5 6 
#
# 1 0.033965 0.021632 -0.016414 0.000000 0.006652 0.000000
# 2 0.021632 0.094789 -0.030991 0.000000 0.016230 0.000000
# 3 -0.016414 -0.030991 0.021203 0.000000 -0.004250 0.000000
# 4 0.000000 0.000000 0.000000 0.026443 0.000000 -0.015632
# 5 0.006652 0.016230 -0.004250 0.000000 0.021339 0.000000
# 6 0.000000 0.000000 0.000000 -0.015632 0.000000 0.043773
#
#
# Mechanical properties :
#
#
# Convention : Reuss Voigt Hill
#
# Bulk Modulus (GPa) = 10.16133 40.21413 25.18773
# Shear Modulus (GPa) = 15.34395 34.51903 24.93149
#
# Velocity S-wave (km/s) = 2.55741 3.83585 3.25992
# Velocity P-wave (km/s) = 3.61272 6.06297 4.99056
#
# Compressibility (1/GPa) = 0.09841232
#
# Stress axis : x y z
#
# Youngs Moduli (GPa) = 29.44222 10.54973 47.16269
#
# Poissons Ratio (x) = -0.22822 0.77413
# Poissons Ratio (y) = -0.63691 1.46161
# Poissons Ratio (z) = 0.48327 0.32695
#
# Static dielectric constant tensor:
#      x y z
#    x 1.969420 0.000000 0.034360 
#    y 0.000000 1.951380 0.000000 
#    z 0.034360 0.000000 2.000430 
# 
# From -- ./inp_files/907.got.cif
#   From: 2010.05.17/outbox.cif.g08.bks.cpg/sg7_cif.got.tgz:907.got - 2010.06.03 19:44:50.
