data_PCOD9131469
_publ_section_title
;
Structure prediction by ZEFSAII (Michael W. Deem and Ramdas Pophale) SiO2 
 PCOD9131469
Probable space group: P C
;
_chemical_formula_sum "Si O2"
_cell_formula_units_Z 14
_cell_length_a 5.671277
_cell_length_b 18.578976
_cell_length_c 5.546637
_cell_angle_alpha 90.000000
_cell_angle_beta 104.225869
_cell_angle_gamma 90.000000
_cell_volume 566.507998
_symmetry_space_group_name_H-M "P C"
_symmetry_group_IT_number 7
_symmetry_cell_setting 'monoclinic'
loop_
_space_group_symop_operation_xyz
x,y,z
x,-y,1/2+z
loop_
_atom_site_type_symbol
_atom_site_label
_atom_site_fract_x
_atom_site_fract_y
_atom_site_fract_z
Si Si1 0.594170 0.955696 0.343920
Si Si2 0.071059 0.122790 0.771021
Si Si3 0.022806 0.350343 0.253794
Si Si4 0.401213 0.541467 0.941130
Si Si5 0.338420 0.742654 0.525248
Si Si6 0.633146 0.671831 0.236733
Si Si7 0.775096 0.220484 0.426110
O O1 0.328775 0.915345 0.279206
O O2 0.856332 0.915583 0.369073
O O3 0.593001 0.994558 0.603323
O O4 0.937888 0.150710 0.494336
O O5 0.142298 0.198343 0.911611
O O6 0.127811 0.425125 0.371216
O O7 0.253515 0.303981 0.227014
O O8 0.908831 0.295966 0.414931
O O9 0.844729 0.350557 0.977594
O O10 0.434695 0.489832 0.180995
O O11 0.585633 0.606674 0.043724
O O12 0.393754 0.682645 0.340817
O O13 0.578285 0.785223 0.668135
O O14 0.652091 0.754393 0.144208
#
# Coordination Sequence:
#
# PCOD9131469 Si02
#       7
#     2   2   2   2   2   2   2
#     4  12  31  57  81 117 172 224 265 322 382 472
#     4  12  27  49  85 118 158 212 278 322 402 482
#     4  11  25  43  75 101 154 188 256 331 413 455
#     4  12  28  46  70 100 146 211 268 316 392 500
#     4  11  24  45  75 116 152 191 253 336 410 462
#     4  11  24  47  68 106 151 196 248 340 405 464
#     4  11  25  43  78 114 147 192 252 339 408 461
#
# _framework density 24.712800999999999
#
# number of rings (size 3 to 8) (size 9 to 14) (size 15 to 20)
#    0.000    0.571    2.857    3.429   10.000    1.143 
#    0.000    0.000    0.000    0.000    0.000    0.000 
#    0.000    0.000    0.000    0.000    0.000    0.000 
#
# Total GULP energy -78175.352777 kJ/mol
# GULP energy per Si atom -5583.953770 kJ/mol
# Density = 2.465655 g / cm^3
# Si number density = 24.712801 Si / 1000 Ang^3
#
#
#
# Elastic Constant Matrix: (Units=GPa)
#
#
# Indices 1 2 3 4 5 6 
#
# 1 113.4043 44.2038 20.4489 0.0000 8.8020 0.0000
# 2 44.2038 77.9238 39.3336 0.0000 2.3042 0.0000
# 3 20.4489 39.3336 104.4629 0.0000 19.8727 0.0000
# 4 0.0000 0.0000 0.0000 41.5654 0.0000 9.5272
# 5 8.8020 2.3042 19.8727 0.0000 37.7748 0.0000
# 6 0.0000 0.0000 0.0000 9.5272 0.0000 57.7897
#
#
#
# Elastic Compliance Matrix: (Units=1/GPa)
#
#
# Indices 1 2 3 4 5 6 
#
# 1 0.011571 -0.006916 0.000858 0.000000 -0.002725 0.000000
# 2 -0.006916 0.020179 -0.007019 0.000000 0.004073 0.000000
# 3 0.000858 -0.007019 0.013339 0.000000 -0.006789 0.000000
# 4 0.000000 0.000000 0.000000 0.025003 0.000000 -0.004122
# 5 -0.002725 0.004073 -0.006789 0.000000 0.030431 0.000000
# 6 0.000000 0.000000 0.000000 -0.004122 0.000000 0.017984
#
#
# Mechanical properties :
#
#
# Convention : Reuss Voigt Hill
#
# Bulk Modulus (GPa) = 52.81504 55.97372 54.39438
# Shear Modulus (GPa) = 33.11852 40.21295 36.66574
#
# Velocity S-wave (km/s) = 3.66476 4.03825 3.85603
# Velocity P-wave (km/s) = 6.27098 6.66649 6.47176
#
# Compressibility (1/GPa) = 0.01893400
#
# Stress axis : x y z
#
# Youngs Moduli (GPa) = 86.42532 49.55698 74.96621
#
# Poissons Ratio (x) = 0.34273 -0.06429
# Poissons Ratio (y) = 0.59771 0.52619
# Poissons Ratio (z) = -0.07411 0.34784
#
# Static dielectric constant tensor:
#      x y z
#    x 2.104430 0.000000 0.002800 
#    y 0.000000 1.940440 0.000000 
#    z 0.002800 0.000000 1.978680 
# 
# From -- ./inp_files/208.got.cif
#   From: 2010.05.17/outbox.cif.g08.bks.cpg/sg7_cif.got.tgz:208.got - 2010.06.03 19:44:50.
