data_PCOD9131345
_publ_section_title
;
Structure prediction by ZEFSAII (Michael W. Deem and Ramdas Pophale) SiO2 
 PCOD9131345
Probable space group: P C
;
_chemical_formula_sum "Si O2"
_cell_formula_units_Z 14
_cell_length_a 17.772142
_cell_length_b 7.584274
_cell_length_c 5.461027
_cell_angle_alpha 90.000000
_cell_angle_beta 50.934905
_cell_angle_gamma 90.000000
_cell_volume 571.519017
_symmetry_space_group_name_H-M "P C"
_symmetry_group_IT_number 7
_symmetry_cell_setting 'monoclinic'
loop_
_space_group_symop_operation_xyz
x,y,z
x,-y,1/2+z
loop_
_atom_site_type_symbol
_atom_site_label
_atom_site_fract_x
_atom_site_fract_y
_atom_site_fract_z
Si Si1 0.125000 0.901265 0.056990
Si Si2 0.568380 0.888945 0.693630
Si Si3 0.723318 0.396225 0.895056
Si Si4 0.373796 0.705991 0.180201
Si Si5 0.296670 0.696486 0.837569
Si Si6 0.927276 0.477407 0.978870
Si Si7 0.891027 0.094007 0.049131
O O1 0.008878 0.887978 0.305284
O O2 0.149211 0.031476 0.234552
O O3 0.184819 0.724865 0.995919
O O4 0.485553 0.738952 0.890640
O O5 0.558593 0.015331 0.950977
O O6 0.670378 0.789574 0.497852
O O7 0.695733 0.497952 0.203138
O O8 0.840512 0.381336 0.655439
O O9 0.352237 0.782465 0.493273
O O10 0.336564 0.503306 0.275847
O O11 0.317784 0.779803 0.058475
O O12 0.984178 0.501069 0.111965
O O13 0.865408 0.298327 0.105338
O O14 0.862095 0.999058 0.357818
#
# Coordination Sequence:
#
# PCOD9131345 Si02
#       7
#     2   2   2   2   2   2   2
#     4  10  21  37  61  90 129 166 207 261 313 362
#     4  12  26  43  66  98 127 164 214 268 320 374
#     4  10  23  43  69  91 131 165 208 259 317 383
#     4  10  23  38  60  87 126 161 216 254 319 371
#     4  10  21  39  58  90 121 174 205 261 308 378
#     4  10  21  42  63  99 125 168 211 256 314 380
#     4  10  21  40  65  97 131 168 209 263 315 368
#
# _framework density 24.496126
#
# number of rings (size 3 to 8) (size 9 to 14) (size 15 to 20)
#    0.000    1.714    0.000    3.429    4.000    3.429 
#    5.143   17.143    0.000    0.000    0.000    0.000 
#    0.000    0.000    0.000    0.000    0.000    0.000 
#
# Total GULP energy -78206.770739 kJ/mol
# GULP energy per Si atom -5586.197910 kJ/mol
# Density = 2.444037 g / cm^3
# Si number density = 24.496126 Si / 1000 Ang^3
#
#
#
# Elastic Constant Matrix: (Units=GPa)
#
#
# Indices 1 2 3 4 5 6 
#
# 1 97.7597 22.3019 60.1314 0.0000 36.6091 0.0000
# 2 22.3019 70.8228 24.5825 0.0000 13.3741 0.0000
# 3 60.1314 24.5825 122.2606 0.0000 54.4831 0.0000
# 4 0.0000 0.0000 0.0000 32.9479 0.0000 -3.5501
# 5 36.6091 13.3741 54.4831 0.0000 71.8408 0.0000
# 6 0.0000 0.0000 0.0000 -3.5501 0.0000 39.3716
#
#
#
# Elastic Compliance Matrix: (Units=1/GPa)
#
#
# Indices 1 2 3 4 5 6 
#
# 1 0.015450 -0.002282 -0.005771 0.000000 -0.003071 0.000000
# 2 -0.002282 0.015545 -0.001861 0.000000 -0.000320 0.000000
# 3 -0.005771 -0.001861 0.014994 0.000000 -0.008084 0.000000
# 4 0.000000 0.000000 0.000000 0.030649 0.000000 0.002764
# 5 -0.003071 -0.000320 -0.008084 0.000000 0.021675 0.000000
# 6 0.000000 0.000000 0.000000 0.002764 0.000000 0.025648
#
#
# Mechanical properties :
#
#
# Convention : Reuss Voigt Hill
#
# Bulk Modulus (GPa) = 38.22424 56.09718 47.16071
# Shear Modulus (GPa) = 32.78505 41.08721 36.93613
#
# Velocity S-wave (km/s) = 3.66235 4.09992 3.88730
# Velocity P-wave (km/s) = 5.78980 6.73518 6.28030
#
# Compressibility (1/GPa) = 0.02616141
#
# Stress axis : x y z
#
# Youngs Moduli (GPa) = 64.72628 64.33121 66.69187
#
# Poissons Ratio (x) = 0.14680 0.38488
# Poissons Ratio (y) = 0.14770 0.12409
# Poissons Ratio (z) = 0.37354 0.11969
#
# Static dielectric constant tensor:
#      x y z
#    x 1.962970 0.000000 0.040390 
#    y 0.000000 1.937710 0.000000 
#    z 0.040390 0.000000 1.977940 
# 
# From -- ./inp_files/1395.got.cif
#   From: 2010.05.17/outbox.cif.g08.bks.cpg/sg7_cif.got.tgz:1395.got - 2010.06.03 19:44:50.
