data_PCOD9131893
_publ_section_title
;
Structure prediction by ZEFSAII (Michael W. Deem and Ramdas Pophale) SiO2 
 PCOD9131893
Probable space group: C M
;
_chemical_formula_sum "Si O2"
_cell_formula_units_Z 32
_cell_length_a 20.872484
_cell_length_b 8.960980
_cell_length_c 25.650456
_cell_angle_alpha 90.000000
_cell_angle_beta 157.296184
_cell_angle_gamma 90.000000
_cell_volume 1851.720583
_symmetry_space_group_name_H-M "C M"
_symmetry_group_IT_number 8
_symmetry_cell_setting 'monoclinic'
loop_
_space_group_symop_operation_xyz
x,y,z
x,-y,z
1/2+x,1/2+y,z
1/2+x,1/2-y,z
loop_
_atom_site_type_symbol
_atom_site_label
_atom_site_fract_x
_atom_site_fract_y
_atom_site_fract_z
Si Si1 0.851870 0.821021 0.183250
Si Si2 0.730659 0.321667 0.475538
Si Si3 0.309320 0.821193 0.038544
Si Si4 0.207756 0.321059 0.773792
Si Si5 0.086685 0.178680 0.061642
Si Si6 0.549117 0.678367 0.757151
Si Si7 0.129765 0.322234 0.207157
Si Si8 0.377487 0.821967 0.471042
O O1 0.821594 0.763189 0.102082
O O2 0.718458 0.750842 0.121774
O O3 0.040206 0.777719 0.340323
O O4 0.842360 0.000000 0.177280
O O5 0.746319 0.500000 0.493831
O O6 0.864351 0.242017 0.612455
O O7 0.783339 0.289234 0.455106
O O8 0.469075 0.787828 0.122352
O O9 0.308027 0.000000 0.046830
O O10 0.146595 0.780863 0.882897
O O11 0.196124 0.500000 0.773305
O O12 0.152099 0.242803 0.785464
O O13 0.069565 0.283781 0.626689
O O14 0.397058 0.283746 0.903202
O O15 0.113743 0.240326 0.140114
O O16 0.103233 0.000000 0.073706
O O17 0.546702 0.500000 0.751554
O O18 0.134770 0.500000 0.202828
O O19 0.289340 0.266528 0.358947
O O20 0.363747 0.000000 0.451340
#
# Coordination Sequence:
#
# PCOD9131893 Si02
#       8
#     4   4   4   4   4   4   4   4
#     4  11  23  39  59  82 113 151 189 231 279 334
#     4   9  19  35  54  80 113 147 183 226 278 333
#     4  10  21  36  55  84 117 145 184 233 277 327
#     4   9  19  35  55  80 112 147 183 227 279 333
#     4  11  23  39  59  82 113 152 188 228 283 338
#     4  10  19  32  55  85 113 143 182 231 277 323
#     4  11  21  35  56  85 116 145 185 234 276 325
#     4   9  17  33  55  82 111 142 184 228 277 331
#
# _framework density 17.281224999999999
#
# number of rings (size 3 to 8) (size 9 to 14) (size 15 to 20)
#    0.000    2.000    2.500    2.250    0.000    5.000 
#    0.000    1.250    0.000    1.500    0.000    0.000 
#    0.000    0.000    0.000    0.000    0.000    0.000 
#
# Total GULP energy -89309.037590 kJ/mol
# GULP energy per Si atom -5581.814849 kJ/mol
# Density = 1.724189 g / cm^3
# Si number density = 17.281225 Si / 1000 Ang^3
#
#
#
# Elastic Constant Matrix: (Units=GPa)
#
#
# Indices 1 2 3 4 5 6 
#
# 1 95.8394 48.4034 80.8132 -0.0015 8.5196 0.0000
# 2 48.4034 45.8286 64.3834 -0.0018 3.0604 0.0001
# 3 80.8132 64.3834 187.1892 -0.0019 4.4587 0.0002
# 4 -0.0015 -0.0018 -0.0019 29.3010 0.0004 -2.0767
# 5 8.5196 3.0604 4.4587 0.0004 24.1997 0.0002
# 6 0.0000 0.0001 0.0002 -2.0767 0.0002 30.9402
#
#
#
# Elastic Compliance Matrix: (Units=1/GPa)
#
#
# Indices 1 2 3 4 5 6 
#
# 1 0.023887 -0.020446 -0.003155 0.000000 -0.005242 0.000000
# 2 -0.020446 0.059897 -0.011817 0.000002 0.001801 0.000000
# 3 -0.003155 -0.011817 0.010754 0.000000 0.000624 0.000000
# 4 0.000000 0.000002 0.000000 0.034292 -0.000001 0.002302
# 5 -0.005242 0.001801 0.000624 -0.000001 0.042826 0.000000
# 6 0.000000 0.000000 0.000000 0.002302 0.000000 0.032475
#
#
# Mechanical properties :
#
#
# Convention : Reuss Voigt Hill
#
# Bulk Modulus (GPa) = 42.19326 79.56191 60.87758
# Shear Modulus (GPa) = 17.67609 25.90533 21.79071
#
# Velocity S-wave (km/s) = 3.20167 3.87595 3.55483
# Velocity P-wave (km/s) = 6.17546 8.13450 7.22172
#
# Compressibility (1/GPa) = 0.02370047
#
# Stress axis : x y z
#
# Youngs Moduli (GPa) = 41.86387 16.69531 92.98887
#
# Poissons Ratio (x) = 0.34136 0.29339
# Poissons Ratio (y) = 0.85596 1.09888
# Poissons Ratio (z) = 0.13208 0.19729
#
# Static dielectric constant tensor:
#      x y z
#    x 1.545260 0.000000 0.004780 
#    y 0.000000 1.574000 0.000000 
#    z 0.004780 0.000000 1.602670 
# 
# From -- ./inp_files/31629.got.cif
#   From: 2010.05.17/outbox.cif.g08.bks.cpg/sg8_16_cif.got.tgz:31629.got - 2010.06.03 19:46:02.
