data_PCOD9131584
_publ_section_title
;
Structure prediction by ZEFSAII (Michael W. Deem and Ramdas Pophale) SiO2 
 PCOD9131584
Probable space group: C M
;
_chemical_formula_sum "Si O2"
_cell_formula_units_Z 24
_cell_length_a 19.051169
_cell_length_b 7.929752
_cell_length_c 25.131250
_cell_angle_alpha 90.000000
_cell_angle_beta 19.517327
_cell_angle_gamma 90.000000
_cell_volume 1268.414757
_symmetry_space_group_name_H-M "C M"
_symmetry_group_IT_number 8
_symmetry_cell_setting 'monoclinic'
loop_
_space_group_symop_operation_xyz
x,y,z
x,-y,z
1/2+x,1/2+y,z
1/2+x,1/2-y,z
loop_
_atom_site_type_symbol
_atom_site_label
_atom_site_fract_x
_atom_site_fract_y
_atom_site_fract_z
Si Si1 0.387630 0.700845 0.539150
Si Si2 0.366089 0.792964 0.217114
Si Si3 0.307818 0.806475 0.373475
Si Si4 0.188745 0.796394 0.569461
Si Si5 0.844858 0.694442 0.682452
Si Si6 0.213913 0.296329 0.884823
O O1 0.387068 0.500000 0.544155
O O2 0.630851 0.759165 0.368566
O O3 0.285084 0.749367 0.556859
O O4 0.273991 0.772270 0.672933
O O5 0.405779 0.732909 0.249467
O O6 0.367948 0.000000 0.217104
O O7 0.537441 0.737387 0.051969
O O8 0.318098 0.731166 0.425366
O O9 0.056466 0.803015 0.540783
O O10 0.380325 0.000000 0.325031
O O11 0.946801 0.739425 0.736506
O O12 0.186464 0.000000 0.567028
O O13 0.906802 0.500000 0.643081
O O14 0.688587 0.738010 0.841989
O O15 0.211556 0.500000 0.886764
#
# Coordination Sequence:
#
# PCOD9131584 Si02
#       6
#     4   4   4   4   4   4
#     4  10  19  32  50  70  95 126 159 194 234 280
#     4   8  15  30  52  72  90 122 162 193 228 277
#     4   8  15  30  50  70  93 124 159 190 228 280
#     4   9  17  29  47  71  98 126 156 192 232 275
#     4  10  18  29  47  70  95 123 159 196 231 277
#     4   9  17  32  52  71  95 125 157 193 233 279
#
# _framework density 18.921257000000001
#
# number of rings (size 3 to 8) (size 9 to 14) (size 15 to 20)
#    0.000    3.000    0.000    4.000    0.000    2.667 
#    0.000    5.833    0.000    2.000    0.000    0.000 
#    0.000    0.000    0.000    0.000    0.000    0.000 
#
# Total GULP energy -66823.877906 kJ/mol
# GULP energy per Si atom -5568.656492 kJ/mol
# Density = 1.887819 g / cm^3
# Si number density = 18.921257 Si / 1000 Ang^3
#
#
#
# Elastic Constant Matrix: (Units=GPa)
#
#
# Indices 1 2 3 4 5 6 
#
# 1 187.1931 9.9098 74.3054 -0.0028 44.7465 -0.0001
# 2 9.9098 31.8894 11.0349 0.0051 3.0596 -0.0003
# 3 74.3054 11.0349 97.8766 -0.0016 45.2831 0.0009
# 4 -0.0028 0.0051 -0.0016 2.5502 0.0010 0.5681
# 5 44.7465 3.0596 45.2831 0.0010 37.4458 -0.0001
# 6 -0.0001 -0.0003 0.0009 0.5681 -0.0001 27.4632
#
#
#
# Elastic Compliance Matrix: (Units=1/GPa)
#
#
# Indices 1 2 3 4 5 6 
#
# 1 0.008064 -0.000748 -0.003650 0.000010 -0.005162 0.000000
# 2 -0.000748 0.032973 -0.005259 -0.000073 0.004560 0.000002
# 3 -0.003650 -0.005259 0.025797 0.000033 -0.026406 -0.000002
# 4 0.000010 -0.000073 0.000033 0.393946 -0.000056 -0.008149
# 5 -0.005162 0.004560 -0.026406 -0.000056 0.064433 0.000002
# 6 0.000000 0.000002 -0.000002 -0.008149 0.000002 0.036581
#
#
# Mechanical properties :
#
#
# Convention : Reuss Voigt Hill
#
# Bulk Modulus (GPa) = 21.04319 56.38435 38.71377
# Shear Modulus (GPa) = 8.37592 28.27245 18.32419
#
# Velocity S-wave (km/s) = 2.10626 3.86970 3.11536
# Velocity P-wave (km/s) = 4.13046 7.05906 5.78321
#
# Compressibility (1/GPa) = 0.04752132
#
# Stress axis : x y z
#
# Youngs Moduli (GPa) = 124.00338 30.32768 38.76359
#
# Poissons Ratio (x) = 0.02268 0.14148
# Poissons Ratio (y) = 0.09273 0.20387
# Poissons Ratio (z) = 0.45258 0.15950
#
# Static dielectric constant tensor:
#      x y z
#    x 1.686230 0.000000 0.041740 
#    y 0.000000 1.683070 0.000000 
#    z 0.041740 0.000000 1.653020 
# 
# From -- ./inp_files/14190.got.cif
#   From: 2010.05.17/outbox.cif.g08.bks.cpg/sg8_8_cif.got.tgz:14190.got - 2010.06.03 19:46:02.
