data_PCOD9131079
_publ_section_title
;
Structure prediction by ZEFSAII (Michael W. Deem and Ramdas Pophale) SiO2 
 PCOD9131079
Probable space group: P M
;
_chemical_formula_sum "Si O2"
_cell_formula_units_Z 14
_cell_length_a 9.052206
_cell_length_b 15.551918
_cell_length_c 5.096857
_cell_angle_alpha 90.000000
_cell_angle_beta 118.248561
_cell_angle_gamma 90.000000
_cell_volume 632.075184
_symmetry_space_group_name_H-M "P M"
_symmetry_group_IT_number 6
_symmetry_cell_setting 'monoclinic'
loop_
_space_group_symop_operation_xyz
x,y,z
x,-y,z
loop_
_atom_site_type_symbol
_atom_site_label
_atom_site_fract_x
_atom_site_fract_y
_atom_site_fract_z
Si Si1 0.842110 0.596345 0.554560
Si Si2 0.299014 0.907785 0.125144
Si Si3 0.418371 0.257292 0.999184
Si Si4 0.298090 0.598477 0.294635
Si Si5 0.073640 0.717889 0.424569
Si Si6 0.066913 0.904517 0.427565
Si Si7 0.623521 0.367148 0.878485
O O1 0.908427 0.500000 0.655132
O O2 0.713023 0.590778 0.201787
O O3 0.976897 0.664037 0.562707
O O4 0.744381 0.626733 0.731256
O O5 0.417703 0.827402 0.172562
O O6 0.217927 0.905922 0.342945
O O7 0.382586 0.000000 0.151864
O O8 0.144880 0.902768 0.786491
O O9 0.383682 0.340378 0.151095
O O10 0.577127 0.272989 0.949338
O O11 0.254742 0.253461 0.681533
O O12 0.267266 0.500000 0.189243
O O13 0.130509 0.648714 0.250681
O O14 0.442632 0.595836 0.641041
O O15 0.985280 0.810295 0.299300
O O16 0.983043 0.000000 0.327984
#
# Coordination Sequence:
#
# PCOD9131079 Si02
#       7
#     2   2   2   2   2   2   2
#     4  12  25  41  58  82 117 161 201 239 286 344
#     4   9  17  31  56  88 117 143 182 236 291 342
#     4  10  21  39  62  89 118 150 194 243 292 342
#     4  11  21  37  59  86 117 155 195 241 287 340
#     4  10  23  37  58  90 120 147 193 247 296 334
#     4   9  17  32  56  85 116 147 183 231 290 350
#     4  11  25  41  60  80 115 163 203 233 281 352
#
# _framework density 22.149263000000001
#
# number of rings (size 3 to 8) (size 9 to 14) (size 15 to 20)
#    0.000    1.714    2.857    1.714    2.000    3.429 
#    0.000    0.000    0.000    1.714    0.000    0.000 
#    0.000    0.000    0.000    0.000    0.000    0.000 
#
# Total GULP energy -78035.753266 kJ/mol
# GULP energy per Si atom -5573.982376 kJ/mol
# Density = 2.209885 g / cm^3
# Si number density = 22.149263 Si / 1000 Ang^3
#
#
#
# Elastic Constant Matrix: (Units=GPa)
#
#
# Indices 1 2 3 4 5 6 
#
# 1 96.9131 68.6240 20.1357 0.0000 -25.1536 0.0000
# 2 68.6240 209.4264 2.7531 0.0000 -25.6829 0.0000
# 3 20.1357 2.7531 69.1294 0.0000 -14.6965 0.0000
# 4 0.0000 0.0000 0.0000 22.4034 0.0000 -29.3474
# 5 -25.1536 -25.6829 -14.6965 0.0000 36.4326 0.0000
# 6 0.0000 0.0000 0.0000 -29.3474 0.0000 96.6665
#
#
#
# Elastic Compliance Matrix: (Units=1/GPa)
#
#
# Indices 1 2 3 4 5 6 
#
# 1 0.015695 -0.004294 -0.002997 0.000000 0.006600 0.000000
# 2 -0.004294 0.006427 0.001452 0.000000 0.002152 0.000000
# 3 -0.002997 0.001452 0.016471 0.000000 0.005599 0.000000
# 4 0.000000 0.000000 0.000000 0.074109 0.000000 0.022499
# 5 0.006600 0.002152 0.005599 0.000000 0.035780 0.000000
# 6 0.000000 0.000000 0.000000 0.022499 0.000000 0.017175
#
#
# Mechanical properties :
#
#
# Convention : Reuss Voigt Hill
#
# Bulk Modulus (GPa) = 37.15515 62.05496 49.60506
# Shear Modulus (GPa) = 26.83743 50.03089 38.43416
#
# Velocity S-wave (km/s) = 3.48467 4.75785 4.17013
# Velocity P-wave (km/s) = 5.74473 7.63285 6.75508
#
# Compressibility (1/GPa) = 0.02691417
#
# Stress axis : x y z
#
# Youngs Moduli (GPa) = 63.71498 155.59869 60.71248
#
# Poissons Ratio (x) = 0.66815 0.18198
# Poissons Ratio (y) = 0.27360 -0.08817
# Poissons Ratio (z) = 0.19098 -0.22597
#
# Static dielectric constant tensor:
#      x y z
#    x 1.787710 0.000000 0.011470 
#    y 0.000000 1.941940 0.000000 
#    z 0.011470 0.000000 1.871760 
# 
# From -- ./inp_files/1195.got.cif
#   From: 2010.05.17/outbox.cif.g08.bks.cpg/sg6_1_cif.got.tgz:1195.got - 2010.06.03 19:42:10.
