data_PCOD9131097
_publ_section_title
;
Structure prediction by ZEFSAII (Michael W. Deem and Ramdas Pophale) SiO2 
 PCOD9131097
Probable space group: P M
;
_chemical_formula_sum "Si O2"
_cell_formula_units_Z 14
_cell_length_a 5.325971
_cell_length_b 17.329991
_cell_length_c 6.371583
_cell_angle_alpha 90.000000
_cell_angle_beta 74.398460
_cell_angle_gamma 90.000000
_cell_volume 566.422916
_symmetry_space_group_name_H-M "P M"
_symmetry_group_IT_number 6
_symmetry_cell_setting 'monoclinic'
loop_
_space_group_symop_operation_xyz
x,y,z
x,-y,z
loop_
_atom_site_type_symbol
_atom_site_label
_atom_site_fract_x
_atom_site_fract_y
_atom_site_fract_z
Si Si1 0.973530 0.911627 0.752490
Si Si2 0.700737 0.839797 0.451865
Si Si3 0.542782 0.412490 0.537607
Si Si4 0.317217 0.210750 0.893698
Si Si5 0.445861 0.918268 0.155111
Si Si6 0.954836 0.411633 0.814428
Si Si7 0.637929 0.297153 0.150654
O O1 0.905939 0.893227 0.525615
O O2 0.099218 0.828598 0.792854
O O3 0.089259 0.000000 0.744425
O O4 0.712598 0.917208 0.955652
O O5 0.557131 0.795544 0.674378
O O6 0.510790 0.899624 0.378431
O O7 0.743525 0.777232 0.256125
O O8 0.568642 0.500000 0.451420
O O9 0.785629 0.399676 0.639919
O O10 0.529838 0.353152 0.352196
O O11 0.263352 0.407383 0.712948
O O12 0.284830 0.147684 0.084525
O O13 0.419695 0.279242 0.023384
O O14 0.317996 0.000000 0.156843
O O15 0.892744 0.500000 0.898361
O O16 0.868765 0.343849 0.987811
#
# Coordination Sequence:
#
# PCOD9131097 Si02
#       7
#     2   2   2   2   2   2   2
#     4  10  21  40  65  90 125 176 231 292 349 413
#     4  10  22  41  58  92 131 172 225 280 353 426
#     4  10  23  47  76 108 143 189 243 290 351 429
#     4  10  22  41  58  93 131 170 226 284 350 423
#     4   9  19  37  60  85 118 165 219 279 345 414
#     4  10  23  47  75 109 146 187 242 294 348 427
#     4  11  23  45  65 105 142 191 228 291 365 424
#
# _framework density 24.716515999999999
#
# number of rings (size 3 to 8) (size 9 to 14) (size 15 to 20)
#    0.000    2.000    0.000    2.143    0.000    5.143 
#   33.429    4.286    0.000    0.000    0.000    0.000 
#    0.000    0.000    0.000    0.000    0.000    0.000 
#
# Total GULP energy -78061.752251 kJ/mol
# GULP energy per Si atom -5575.839447 kJ/mol
# Density = 2.466026 g / cm^3
# Si number density = 24.716516 Si / 1000 Ang^3
#
#
#
# Elastic Constant Matrix: (Units=GPa)
#
#
# Indices 1 2 3 4 5 6 
#
# 1 83.1150 19.6421 24.0679 0.0000 27.0353 0.0000
# 2 19.6421 106.8062 52.8925 0.0000 8.4697 0.0000
# 3 24.0679 52.8925 105.5690 0.0000 22.1303 0.0000
# 4 0.0000 0.0000 0.0000 -1.3999 0.0000 -73.6254
# 5 27.0353 8.4697 22.1303 0.0000 38.9316 0.0000
# 6 0.0000 0.0000 0.0000 -73.6254 0.0000 -90.9074
#
#
#
# Elastic Compliance Matrix: (Units=1/GPa)
#
#
# Indices 1 2 3 4 5 6 
#
# 1 0.016011 -0.001851 -0.000541 0.000000 -0.010409 0.000000
# 2 -0.001851 0.012698 -0.006392 0.000000 0.002157 0.000000
# 3 -0.000541 -0.006392 0.014109 0.000000 -0.006254 0.000000
# 4 0.000000 0.000000 0.000000 0.017174 0.000000 -0.013909
# 5 -0.010409 0.002157 -0.006254 0.000000 0.036000 0.000000
# 6 0.000000 0.000000 0.000000 -0.013909 0.000000 0.000264
#
#
# Mechanical properties :
#
#
# Convention : Reuss Voigt Hill
#
# Bulk Modulus (GPa) = 39.60354 54.29945 46.95150
# Shear Modulus (GPa) = 40.90292 2.58405 21.74349
#
# Velocity S-wave (km/s) = 4.07244 1.02359 2.96922
# Velocity P-wave (km/s) = 6.17826 4.83876 5.54908
#
# Compressibility (1/GPa) = 0.02525027
#
# Stress axis : x y z
#
# Youngs Moduli (GPa) = 62.45591 78.75549 70.87557
#
# Poissons Ratio (x) = 0.14580 0.03833
# Poissons Ratio (y) = 0.11563 0.45302
# Poissons Ratio (z) = 0.03378 0.50339
#
# Static dielectric constant tensor:
#      x y z
#    x 2.113010 0.000000 -0.056160 
#    y 0.000000 2.058520 0.000000 
#    z -0.056160 0.000000 1.930240 
# 
# From -- ./inp_files/416.got.cif
#   From: 2010.05.17/outbox.cif.g08.bks.cpg/sg6_1_cif.got.tgz:416.got - 2010.06.03 19:42:10.
