data_PCOD9131034
_publ_section_title
;
Structure prediction by ZEFSAII (Michael W. Deem and Ramdas Pophale) SiO2 
 PCOD9131034
Probable space group: P M
;
_chemical_formula_sum "Si O2"
_cell_formula_units_Z 16
_cell_length_a 7.173175
_cell_length_b 7.483408
_cell_length_c 12.788790
_cell_angle_alpha 90.000000
_cell_angle_beta 90.335906
_cell_angle_gamma 90.000000
_cell_volume 686.487830
_symmetry_space_group_name_H-M "P M"
_symmetry_group_IT_number 6
_symmetry_cell_setting 'monoclinic'
loop_
_space_group_symop_operation_xyz
x,y,z
x,-y,z
loop_
_atom_site_type_symbol
_atom_site_label
_atom_site_fract_x
_atom_site_fract_y
_atom_site_fract_z
Si Si1 0.912940 0.209445 0.828510
Si Si2 0.574535 0.703812 0.693776
Si Si3 0.750541 0.218876 0.245214
Si Si4 0.235724 0.788461 0.420012
Si Si5 0.014696 0.218211 0.057079
Si Si6 0.679559 0.209478 0.469768
Si Si7 0.328811 0.781913 0.199009
Si Si8 0.156812 0.206596 0.642126
O O1 0.702167 0.222947 0.786687
O O2 0.041310 0.288465 0.736743
O O3 0.962116 0.000000 0.835525
O O4 0.950774 0.283444 0.943770
O O5 0.531141 0.500000 0.716205
O O6 0.692238 0.713287 0.585750
O O7 0.375921 0.794756 0.672757
O O8 0.884682 0.275659 0.152809
O O9 0.782741 0.277541 0.365801
O O10 0.541729 0.273256 0.211437
O O11 0.755792 0.000000 0.249749
O O12 0.459031 0.774467 0.441045
O O13 0.216268 0.720260 0.302231
O O14 0.142575 0.713939 0.524973
O O15 0.190050 0.000000 0.416632
O O16 0.222410 0.269555 0.093691
O O17 0.005369 0.000000 0.056033
O O18 0.721999 0.000000 0.480486
O O19 0.329229 0.000000 0.203366
O O20 0.096042 0.000000 0.632224
#
# Coordination Sequence:
#
# PCOD9131034 Si02
#       8
#     2   2   2   2   2   2   2   2
#     4  10  21  35  52  77 107 139 178 221 260 302
#     4  11  22  35  53  76 105 141 176 216 264 311
#     4   8  14  25  44  70 100 130 158 200 256 307
#     4   7  11  22  42  68  95 121 154 198 249 303
#     4   9  17  27  42  70 102 130 165 207 252 300
#     4   8  14  28  50  75 102 131 165 205 253 311
#     4   8  13  22  37  61  93 123 152 194 248 299
#     4   9  18  34  55  77 102 135 174 217 264 311
#
# _framework density 23.307041000000002
#
# number of rings (size 3 to 8) (size 9 to 14) (size 15 to 20)
#    0.000    3.250    0.000    3.375    0.000    2.500 
#    0.000    7.500    0.000    0.750    0.000    7.875 
#    0.000    0.000    0.000    0.000    0.000    0.000 
#
# Total GULP energy -89278.250123 kJ/mol
# GULP energy per Si atom -5579.890633 kJ/mol
# Density = 2.325399 g / cm^3
# Si number density = 23.307041 Si / 1000 Ang^3
#
#
#
# Elastic Constant Matrix: (Units=GPa)
#
#
# Indices 1 2 3 4 5 6 
#
# 1 63.6595 -10.1570 47.0530 0.0000 7.6424 0.0000
# 2 -10.1570 58.2469 7.6064 0.0000 -8.3566 0.0000
# 3 47.0530 7.6064 154.3874 0.0000 30.9095 0.0000
# 4 0.0000 0.0000 0.0000 -84.9060 0.0000 -10.7893
# 5 7.6424 -8.3566 30.9095 0.0000 33.0556 0.0000
# 6 0.0000 0.0000 0.0000 -10.7893 0.0000 -46.6833
#
#
#
# Elastic Compliance Matrix: (Units=1/GPa)
#
#
# Indices 1 2 3 4 5 6 
#
# 1 0.021728 0.005259 -0.007556 0.000000 0.003372 0.000000
# 2 0.005259 0.019710 -0.004095 0.000000 0.007596 0.000000
# 3 -0.007556 -0.004095 0.010875 0.000000 -0.009457 0.000000
# 4 0.000000 0.000000 0.000000 -0.012134 0.000000 0.002804
# 5 0.003372 0.007596 -0.009457 0.000000 0.040236 0.000000
# 6 0.000000 0.000000 0.000000 0.002804 0.000000 -0.022069
#
#
# Mechanical properties :
#
#
# Convention : Reuss Voigt Hill
#
# Bulk Modulus (GPa) = 25.29716 40.58874 32.94295
# Shear Modulus (GPa) = 59.30774 -4.25398 27.52688
#
# Velocity S-wave (km/s) = 5.04990 -1.35246 3.44038
# Velocity P-wave (km/s) = 6.69921 3.87476 5.47235
#
# Compressibility (1/GPa) = 0.03953013
#
# Stress axis : x y z
#
# Youngs Moduli (GPa) = 46.02347 50.73599 91.95114
#
# Poissons Ratio (x) = -0.26684 0.69481
# Poissons Ratio (y) = -0.24206 0.37651
# Poissons Ratio (z) = 0.34777 0.20775
#
# Static dielectric constant tensor:
#      x y z
#    x 1.902680 0.000000 -0.003780 
#    y 0.000000 1.900740 0.000000 
#    z -0.003780 0.000000 1.878930 
# 
# From -- ./inp_files/4570.got.cif
#   From: 2010.05.17/outbox.cif.g08.bks.cpg/sg6_3_cif.got.tgz:4570.got - 2010.06.03 19:42:10.
