data_PCOD9131521
_publ_section_title
;
Structure prediction by ZEFSAII (Michael W. Deem and Ramdas Pophale) SiO2 
 PCOD9131521
Probable space group: C M
;
_chemical_formula_sum "Si O2"
_cell_formula_units_Z 32
_cell_length_a 9.025392
_cell_length_b 27.746733
_cell_length_c 10.051146
_cell_angle_alpha 90.000000
_cell_angle_beta 149.500046
_cell_angle_gamma 90.000000
_cell_volume 1277.502601
_symmetry_space_group_name_H-M "C M"
_symmetry_group_IT_number 8
_symmetry_cell_setting 'monoclinic'
loop_
_space_group_symop_operation_xyz
x,y,z
x,-y,z
1/2+x,1/2+y,z
1/2+x,1/2-y,z
loop_
_atom_site_type_symbol
_atom_site_label
_atom_site_fract_x
_atom_site_fract_y
_atom_site_fract_z
Si Si1 0.610640 0.284592 0.066770
Si Si2 0.665313 0.619825 0.971331
Si Si3 0.857628 0.663882 0.754763
Si Si4 0.748930 0.185377 0.268868
Si Si5 0.864523 0.100692 0.026245
Si Si6 0.187514 0.443327 0.469745
Si Si7 0.884298 0.449182 0.525184
Si Si8 0.415205 0.770394 0.562564
O O1 0.682222 0.321907 0.005512
O O2 0.751098 0.231069 0.165587
O O3 0.754806 0.300770 0.320572
O O4 0.263672 0.276403 0.815261
O O5 0.492970 0.611873 0.980390
O O6 0.965309 0.589669 0.213403
O O7 0.467268 0.590529 0.713481
O O8 0.839986 0.712298 0.651042
O O9 0.520220 0.649389 0.480321
O O10 0.954478 0.662126 0.984061
O O11 0.130880 0.638440 0.897555
O O12 0.799724 0.216363 0.442493
O O13 0.135102 0.090726 0.330459
O O14 0.646511 0.056373 0.830517
O O15 0.237030 0.500000 0.465939
O O16 0.027021 0.447887 0.489171
O O17 0.733767 0.500000 0.427989
#
# Coordination Sequence:
#
# PCOD9131521 Si02
#       8
#     4   4   4   4   4   4   4   4
#     4  10  18  33  43  63  86 113 153 196 223 267
#     4  10  17  26  43  56  80 115 148 190 218 253
#     4  12  20  32  50  66  89 121 154 202 227 262
#     4  10  22  32  45  68  91 112 152 205 230 274
#     4  10  19  25  43  63  77 110 162 181 217 264
#     4   9  17  25  36  57  81 108 146 186 223 252
#     4   9  17  28  37  54  85 112 141 191 221 248
#     4  10  20  33  47  63  90 115 153 197 229 268
#
# _framework density 25.048874000000001
#
# number of rings (size 3 to 8) (size 9 to 14) (size 15 to 20)
#    0.750    1.250    2.500    3.000    3.500    3.000 
#    0.000    0.000    0.000    0.000    0.000    0.000 
#    0.000    0.000    0.000    0.000    0.000   87.500 
#
# Total GULP energy -89139.475187 kJ/mol
# GULP energy per Si atom -5571.217199 kJ/mol
# Density = 2.499186 g / cm^3
# Si number density = 25.048874 Si / 1000 Ang^3
#
#
#
# Elastic Constant Matrix: (Units=GPa)
#
#
# Indices 1 2 3 4 5 6 
#
# 1 51.8643 -1.3572 32.0504 0.0000 -4.9254 0.0000
# 2 -1.3572 59.9305 12.6419 0.0000 7.6796 0.0000
# 3 32.0504 12.6419 199.3606 0.0000 19.1335 0.0000
# 4 0.0000 0.0000 0.0000 34.9339 0.0000 8.2926
# 5 -4.9254 7.6796 19.1335 0.0000 35.2183 0.0000
# 6 0.0000 0.0000 0.0000 8.2926 0.0000 18.8906
#
#
#
# Elastic Compliance Matrix: (Units=1/GPa)
#
#
# Indices 1 2 3 4 5 6 
#
# 1 0.022354 0.000711 -0.004140 0.000000 0.005220 0.000000
# 2 0.000711 0.017301 -0.000906 0.000000 -0.003181 0.000000
# 3 -0.004140 -0.000906 0.006093 0.000000 -0.003692 0.000000
# 4 0.000000 0.000000 0.000000 0.031955 0.000000 -0.014028
# 5 0.005220 -0.003181 -0.003692 0.000000 0.031824 0.000000
# 6 0.000000 0.000000 0.000000 -0.014028 0.000000 0.059094
#
#
# Mechanical properties :
#
#
# Convention : Reuss Voigt Hill
#
# Bulk Modulus (GPa) = 26.97069 44.20284 35.58677
# Shear Modulus (GPa) = 26.36418 35.66323 31.01370
#
# Velocity S-wave (km/s) = 3.24776 3.77735 3.52252
# Velocity P-wave (km/s) = 4.98543 6.05883 5.54815
#
# Compressibility (1/GPa) = 0.03707729
#
# Stress axis : x y z
#
# Youngs Moduli (GPa) = 44.73529 57.80075 164.11336
#
# Poissons Ratio (x) = -0.04107 0.67940
# Poissons Ratio (y) = -0.03179 0.14869
# Poissons Ratio (z) = 0.18520 0.05237
#
# Static dielectric constant tensor:
#      x y z
#    x 2.019410 0.000000 0.017320 
#    y 0.000000 2.101440 0.000000 
#    z 0.017320 0.000000 2.008580 
# 
# From -- ./inp_files/27119.got.cif
#   From: 2010.05.17/outbox.cif.g08.bks.cpg/sg8_14_cif.got.tgz:27119.got - 2010.06.03 19:46:02.
