data_PCOD9131736
_publ_section_title
;
Structure prediction by ZEFSAII (Michael W. Deem and Ramdas Pophale) SiO2 
 PCOD9131736
Probable space group: C M
;
_chemical_formula_sum "Si O2"
_cell_formula_units_Z 32
_cell_length_a 19.869424
_cell_length_b 7.432034
_cell_length_c 12.446522
_cell_angle_alpha 90.000000
_cell_angle_beta 128.298121
_cell_angle_gamma 90.000000
_cell_volume 1442.441278
_symmetry_space_group_name_H-M "C M"
_symmetry_group_IT_number 8
_symmetry_cell_setting 'monoclinic'
loop_
_space_group_symop_operation_xyz
x,y,z
x,-y,z
1/2+x,1/2+y,z
1/2+x,1/2-y,z
loop_
_atom_site_type_symbol
_atom_site_label
_atom_site_fract_x
_atom_site_fract_y
_atom_site_fract_z
Si Si1 0.130850 0.221058 0.495330
Si Si2 0.300540 0.784459 0.790756
Si Si3 0.960919 0.785376 0.794842
Si Si4 0.360725 0.280899 0.489345
Si Si5 0.941949 0.215635 0.349449
Si Si6 0.168205 0.796176 0.301946
Si Si7 0.150460 0.221168 0.042978
Si Si8 0.803603 0.286256 0.038790
O O1 0.216168 0.281096 0.642590
O O2 0.127857 0.285006 0.368756
O O3 0.040133 0.276186 0.455188
O O4 0.134044 0.000000 0.496158
O O5 0.387866 0.749352 0.811552
O O6 0.292116 0.000000 0.787528
O O7 0.304044 0.716052 0.917114
O O8 0.926892 0.722936 0.645984
O O9 0.968608 0.000000 0.795307
O O10 0.055990 0.719665 0.914215
O O11 0.354777 0.500000 0.484657
O O12 0.387799 0.219948 0.397894
O O13 0.268752 0.203933 0.427208
O O14 0.892151 0.259100 0.190705
O O15 0.944189 0.000000 0.358648
O O16 0.161654 0.716021 0.176930
O O17 0.134258 0.000000 0.259622
O O18 0.226118 0.282373 0.038095
O O19 0.154397 0.000000 0.047735
O O20 0.790399 0.500000 0.017357
#
# Coordination Sequence:
#
# PCOD9131736 Si02
#       8
#     4   4   4   4   4   4   4   4
#     4   9  19  34  55  80 105 139 181 219 259 313
#     4  10  21  37  56  79 108 141 178 220 265 314
#     4  10  21  36  56  80 108 141 178 219 264 315
#     4  10  20  34  54  81 108 136 174 223 270 307
#     4  10  21  36  56  80 108 141 178 219 264 315
#     4  10  18  34  58  77 100 140 184 219 258 313
#     4   9  19  34  55  80 105 139 181 219 259 313
#     4  10  21  37  56  79 108 141 178 220 265 314
#
# _framework density 22.184612000000001
#
# number of rings (size 3 to 8) (size 9 to 14) (size 15 to 20)
#    0.000    2.250    2.500    0.000    3.500    0.500 
#    0.000    2.500    0.000    0.000    0.000    0.000 
#    0.000    0.000    0.000    0.000    0.000    0.000 
#
# Total GULP energy -89342.510829 kJ/mol
# GULP energy per Si atom -5583.906927 kJ/mol
# Density = 2.213412 g / cm^3
# Si number density = 22.184612 Si / 1000 Ang^3
#
#
#
# Elastic Constant Matrix: (Units=GPa)
#
#
# Indices 1 2 3 4 5 6 
#
# 1 65.2383 -8.8152 12.7146 0.0000 -0.1766 0.0000
# 2 -8.8152 69.6427 -4.8494 0.0000 -3.6919 0.0000
# 3 12.7146 -4.8494 116.3070 0.0000 -3.7914 0.0000
# 4 0.0000 0.0000 0.0000 5.2753 0.0000 23.0373
# 5 -0.1766 -3.6919 -3.7914 0.0000 45.4887 0.0000
# 6 0.0000 0.0000 0.0000 23.0373 0.0000 -26.4130
#
#
#
# Elastic Compliance Matrix: (Units=1/GPa)
#
#
# Indices 1 2 3 4 5 6 
#
# 1 0.015909 0.001902 -0.001657 0.000000 0.000078 0.000000
# 2 0.001902 0.014696 0.000445 0.000000 0.001237 0.000000
# 3 -0.001657 0.000445 0.008823 0.000000 0.000765 0.000000
# 4 0.000000 0.000000 0.000000 0.039419 0.000000 0.034381
# 5 0.000078 0.001237 0.000765 0.000000 0.022148 0.000000
# 6 0.000000 0.000000 0.000000 0.034381 0.000000 -0.007873
#
#
# Mechanical properties :
#
#
# Convention : Reuss Voigt Hill
#
# Bulk Modulus (GPa) = 24.50483 27.69865 26.10174
# Shear Modulus (GPa) = 47.46345 21.67939 34.57142
#
# Velocity S-wave (km/s) = 4.63047 3.12945 3.95188
# Velocity P-wave (km/s) = 6.29747 5.05674 5.71090
#
# Compressibility (1/GPa) = 0.04080828
#
# Stress axis : x y z
#
# Youngs Moduli (GPa) = 62.85872 68.04390 113.34526
#
# Poissons Ratio (x) = -0.12945 0.18784
# Poissons Ratio (y) = -0.11958 -0.05045
# Poissons Ratio (z) = 0.10417 -0.03029
#
# Static dielectric constant tensor:
#      x y z
#    x 1.768690 0.000000 -0.018810 
#    y 0.000000 1.864620 0.000000 
#    z -0.018810 0.000000 1.799290 
# 
# From -- ./inp_files/23126.got.cif
#   From: 2010.05.17/outbox.cif.g08.bks.cpg/sg8_12_cif.got.tgz:23126.got - 2010.06.03 19:46:02.
