data_PCOD9131658
_publ_section_title
;
Structure prediction by ZEFSAII (Michael W. Deem and Ramdas Pophale) SiO2 
 PCOD9131658
Probable space group: C M
;
_chemical_formula_sum "Si O2"
_cell_formula_units_Z 32
_cell_length_a 20.808019
_cell_length_b 7.516304
_cell_length_c 20.805517
_cell_angle_alpha 90.000000
_cell_angle_beta 150.742887
_cell_angle_gamma 90.000000
_cell_volume 1590.311454
_symmetry_space_group_name_H-M "C M"
_symmetry_group_IT_number 8
_symmetry_cell_setting 'monoclinic'
loop_
_space_group_symop_operation_xyz
x,y,z
x,-y,z
1/2+x,1/2+y,z
1/2+x,1/2-y,z
loop_
_atom_site_type_symbol
_atom_site_label
_atom_site_fract_x
_atom_site_fract_y
_atom_site_fract_z
Si Si1 0.528500 0.706103 0.926290
Si Si2 0.242646 0.792024 0.724489
Si Si3 0.180952 0.283427 0.443886
Si Si4 0.023806 0.715740 0.426862
Si Si5 0.259758 0.287045 0.375786
Si Si6 0.052794 0.217453 0.667689
Si Si7 0.476180 0.282892 0.740265
Si Si8 0.733413 0.712937 0.208765
O O1 0.566930 0.500000 0.951612
O O2 0.379827 0.709282 0.822906
O O3 0.527495 0.783784 0.853438
O O4 0.627281 0.783512 0.065367
O O5 0.134476 0.772054 0.574157
O O6 0.172119 0.720983 0.727285
O O7 0.270000 0.000000 0.757844
O O8 0.177331 0.500000 0.440323
O O9 0.069160 0.224854 0.395587
O O10 0.180983 0.223086 0.369925
O O11 0.323594 0.232315 0.596889
O O12 0.022330 0.500000 0.426256
O O13 0.880122 0.780755 0.321693
O O14 0.266008 0.500000 0.386382
O O15 0.411645 0.224525 0.515173
O O16 0.202708 0.245856 0.256546
O O17 0.052444 0.270656 0.742097
O O18 0.053567 0.000000 0.666388
O O19 0.476969 0.500000 0.742227
O O20 0.737708 0.500000 0.205700
#
# Coordination Sequence:
#
# PCOD9131658 Si02
#       8
#     4   4   4   4   4   4   4   4
#     4  10  20  35  52  71 100 138 169 200 244 295
#     4  11  20  31  50  78 103 126 164 210 250 294
#     4   8  14  26  50  76  94 122 167 208 242 284
#     4  10  18  32  52  75 101 129 166 209 244 287
#     4   9  16  30  51  73 100 132 162 200 248 293
#     4   8  15  27  47  75 100 121 158 207 248 287
#     4   8  13  26  49  71  93 126 163 201 244 284
#     4  10  21  33  49  75 105 134 165 199 246 302
#
# _framework density 20.121845
#
# number of rings (size 3 to 8) (size 9 to 14) (size 15 to 20)
#    0.000    2.750    2.500    1.875    0.000    0.500 
#    0.000    1.875    0.000    6.000    0.000    0.000 
#    0.000    0.000    0.000    0.000    0.000    0.000 
#
# Total GULP energy -89237.397244 kJ/mol
# GULP energy per Si atom -5577.337328 kJ/mol
# Density = 2.007605 g / cm^3
# Si number density = 20.121845 Si / 1000 Ang^3
#
#
#
# Elastic Constant Matrix: (Units=GPa)
#
#
# Indices 1 2 3 4 5 6 
#
# 1 157.3785 -5.3336 61.0119 0.0000 -32.2239 0.0000
# 2 -5.3336 50.7664 -6.3211 0.0000 -2.5234 0.0000
# 3 61.0119 -6.3211 106.7229 0.0000 -28.2071 0.0000
# 4 0.0000 0.0000 0.0000 -24.0099 0.0000 -23.0376
# 5 -32.2239 -2.5234 -28.2071 0.0000 30.3471 0.0000
# 6 0.0000 0.0000 0.0000 -23.0376 0.0000 3.2906
#
#
#
# Elastic Compliance Matrix: (Units=1/GPa)
#
#
# Indices 1 2 3 4 5 6 
#
# 1 0.009030 0.000850 -0.003393 0.000000 0.006506 0.000000
# 2 0.000850 0.020232 0.001850 0.000000 0.004304 0.000000
# 3 -0.003393 0.001850 0.013930 0.000000 0.009499 0.000000
# 4 0.000000 0.000000 0.000000 -0.005397 0.000000 -0.037783
# 5 0.006506 0.004304 0.009499 0.000000 0.049047 0.000000
# 6 0.000000 0.000000 0.000000 -0.037783 0.000000 0.039378
#
#
# Mechanical properties :
#
#
# Convention : Reuss Voigt Hill
#
# Bulk Modulus (GPa) = 23.91989 45.95358 34.93674
# Shear Modulus (GPa) = 35.32557 19.62626 27.47592
#
# Velocity S-wave (km/s) = 4.19451 3.12648 3.69925
# Velocity P-wave (km/s) = 5.94743 5.99336 5.97044
#
# Compressibility (1/GPa) = 0.04180621
#
# Stress axis : x y z
#
# Youngs Moduli (GPa) = 110.73862 49.42745 71.78904
#
# Poissons Ratio (x) = -0.04200 0.24355
# Poissons Ratio (y) = -0.09409 -0.13282
# Poissons Ratio (z) = 0.37569 -0.09145
#
# Static dielectric constant tensor:
#      x y z
#    x 1.735440 0.000000 -0.019350 
#    y 0.000000 1.791990 0.000000 
#    z -0.019350 0.000000 1.679850 
# 
# From -- ./inp_files/16948.got.cif
#   From: 2010.05.17/outbox.cif.g08.bks.cpg/sg8_9_cif.got.tgz:16948.got - 2010.06.03 19:46:02.
