data_PCOD9131467
_publ_section_title
;
Structure prediction by ZEFSAII (Michael W. Deem and Ramdas Pophale) SiO2 
 PCOD9131467
Probable space group: P C
;
_chemical_formula_sum "Si O2"
_cell_formula_units_Z 12
_cell_length_a 5.299435
_cell_length_b 17.440373
_cell_length_c 4.897685
_cell_angle_alpha 90.000000
_cell_angle_beta 87.027784
_cell_angle_gamma 90.000000
_cell_volume 452.055316
_symmetry_space_group_name_H-M "P C"
_symmetry_group_IT_number 7
_symmetry_cell_setting 'monoclinic'
loop_
_space_group_symop_operation_xyz
x,y,z
x,-y,1/2+z
loop_
_atom_site_type_symbol
_atom_site_label
_atom_site_fract_x
_atom_site_fract_y
_atom_site_fract_z
Si Si1 0.352280 0.652547 0.292020
Si Si2 0.138798 0.949267 0.431469
Si Si3 0.717532 0.553285 0.044222
Si Si4 0.722247 0.159156 0.048547
Si Si5 0.403328 0.183376 0.572389
Si Si6 0.856740 0.322273 0.143434
O O1 0.323602 0.728685 0.109262
O O2 0.594500 0.663649 0.486457
O O3 0.100712 0.645940 0.478560
O O4 0.425634 0.579367 0.106170
O O5 0.230331 0.874973 0.253775
O O6 0.853021 0.922985 0.523755
O O7 0.212959 0.983145 0.719878
O O8 0.778028 0.490879 0.814626
O O9 0.832207 0.633084 0.929566
O O10 0.478767 0.161746 0.261460
O O11 0.656208 0.178722 0.741821
O O12 0.884079 0.230132 0.157768
#
# Coordination Sequence:
#
# PCOD9131467 Si02
#       6
#     2   2   2   2   2   2
#     4  11  25  49  77 109 147 200 253 304 367 449
#     4  12  26  44  68 108 142 182 238 308 368 428
#     4  12  26  50  74 116 152 194 246 316 376 436
#     4  11  24  45  71 101 139 192 243 297 360 442
#     4  11  24  45  71 101 139 192 243 297 360 442
#     4  11  25  49  77 109 147 200 253 304 367 449
#
# _framework density 26.545428000000001
#
# number of rings (size 3 to 8) (size 9 to 14) (size 15 to 20)
#    0.000    0.667    5.000    2.000    0.000    6.667 
#    0.000    0.000    0.000    0.000    0.000    0.000 
#    0.000    0.000    0.000    0.000    0.000    0.000 
#
# Total GULP energy -67080.953044 kJ/mol
# GULP energy per Si atom -5590.079420 kJ/mol
# Density = 2.648501 g / cm^3
# Si number density = 26.545428 Si / 1000 Ang^3
#
#
#
# Elastic Constant Matrix: (Units=GPa)
#
#
# Indices 1 2 3 4 5 6 
#
# 1 85.9113 22.1840 42.9664 0.0000 -24.2190 0.0000
# 2 22.1840 105.9469 31.2471 0.0000 -9.2027 0.0000
# 3 42.9664 31.2471 177.5896 0.0000 -25.0899 0.0000
# 4 0.0000 0.0000 0.0000 49.3927 0.0000 -23.7403
# 5 -24.2190 -9.2027 -25.0899 0.0000 38.7232 0.0000
# 6 0.0000 0.0000 0.0000 -23.7403 0.0000 40.3352
#
#
#
# Elastic Compliance Matrix: (Units=1/GPa)
#
#
# Indices 1 2 3 4 5 6 
#
# 1 0.015462 -0.001883 -0.002319 0.000000 0.007721 0.000000
# 2 -0.001883 0.010250 -0.001288 0.000000 0.000424 0.000000
# 3 -0.002319 -0.001288 0.006792 0.000000 0.002644 0.000000
# 4 0.000000 0.000000 0.000000 0.028233 0.000000 0.016617
# 5 0.007721 0.000424 0.002644 0.000000 0.032467 0.000000
# 6 0.000000 0.000000 0.000000 0.016617 0.000000 0.034573
#
#
# Mechanical properties :
#
#
# Convention : Reuss Voigt Hill
#
# Bulk Modulus (GPa) = 46.45900 62.47146 54.46523
# Shear Modulus (GPa) = 34.26257 43.89357 39.07807
#
# Velocity S-wave (km/s) = 3.59655 4.07077 3.84098
# Velocity P-wave (km/s) = 5.89802 6.75868 6.34296
#
# Compressibility (1/GPa) = 0.02152435
#
# Stress axis : x y z
#
# Youngs Moduli (GPa) = 64.67283 97.56430 147.22695
#
# Poissons Ratio (x) = 0.18372 0.34140
# Poissons Ratio (y) = 0.12179 0.18963
# Poissons Ratio (z) = 0.14997 0.12566
#
# Static dielectric constant tensor:
#      x y z
#    x 2.168090 0.000000 0.027270 
#    y 0.000000 2.112150 0.000000 
#    z 0.027270 0.000000 2.001220 
# 
# From -- ./inp_files/193.got.cif
#   From: 2010.05.17/outbox.cif.g08.bks.cpg/sg7_cif.got.tgz:193.got - 2010.06.03 19:44:50.
