data_PCOD9131503
_publ_section_title
;
Structure prediction by ZEFSAII (Michael W. Deem and Ramdas Pophale) SiO2 
 PCOD9131503
Probable space group: C M
;
_chemical_formula_sum "Si O2"
_cell_formula_units_Z 26
_cell_length_a 7.717308
_cell_length_b 21.869043
_cell_length_c 10.266515
_cell_angle_alpha 90.000000
_cell_angle_beta 43.635592
_cell_angle_gamma 90.000000
_cell_volume 1195.670027
_symmetry_space_group_name_H-M "C M"
_symmetry_group_IT_number 8
_symmetry_cell_setting 'monoclinic'
loop_
_space_group_symop_operation_xyz
x,y,z
x,-y,z
1/2+x,1/2+y,z
1/2+x,1/2-y,z
loop_
_atom_site_type_symbol
_atom_site_label
_atom_site_fract_x
_atom_site_fract_y
_atom_site_fract_z
Si Si1 0.786600 0.932918 0.654750
Si Si2 0.461237 0.802982 0.426881
Si Si3 0.295915 0.932999 0.090444
Si Si4 0.412086 0.665353 0.371006
Si Si5 0.992257 0.500000 0.462945
Si Si6 0.622462 0.095127 0.164089
Si Si7 0.114253 0.899491 0.726311
O O1 0.834961 0.880020 0.527954
O O2 0.982078 0.927216 0.668079
O O3 0.819363 0.000000 0.575470
O O4 0.512636 0.928883 0.865621
O O5 0.474503 0.731087 0.397099
O O6 0.687764 0.821444 0.396188
O O7 0.508225 0.839479 0.267212
O O8 0.215776 0.832632 0.629187
O O9 0.441988 0.931222 0.149480
O O10 0.122859 0.873711 0.181502
O O11 0.169408 0.000000 0.145742
O O12 0.843641 0.445596 0.627053
O O13 0.102816 0.552963 0.301790
O O14 0.901283 0.100438 0.952745
#
# Coordination Sequence:
#
# PCOD9131503 Si02
#       7
#     4   4   4   4   2   4   4
#     4  10  21  39  65  95 125 165 205 251 312 370
#     4  11  26  41  62  91 121 170 214 255 318 362
#     4  10  21  39  65  95 125 165 205 251 312 370
#     4  12  24  43  63  87 126 168 212 265 304 372
#     4  10  16  30  60  94 122 156 196 238 296 360
#     4  10  20  38  64  94 126 159 205 254 303 370
#     4  10  20  38  64  94 126 159 205 254 303 370
#
# _framework density 21.745128000000001
#
# number of rings (size 3 to 8) (size 9 to 14) (size 15 to 20)
#    0.000    1.538    1.538    4.615    0.000    2.462 
#   11.077    0.000    0.000    0.000    0.000    0.000 
#    0.000    0.000    0.000    0.000    0.000    0.000 
#
# Total GULP energy -72467.749213 kJ/mol
# GULP energy per Si atom -5574.442247 kJ/mol
# Density = 2.169564 g / cm^3
# Si number density = 21.745128 Si / 1000 Ang^3
#
#
#
# Elastic Constant Matrix: (Units=GPa)
#
#
# Indices 1 2 3 4 5 6 
#
# 1 33.8798 17.6707 0.5185 0.0000 -6.8131 0.0000
# 2 17.6707 207.4094 40.5436 0.0000 -11.4296 0.0000
# 3 0.5185 40.5436 95.9794 0.0000 -12.5451 0.0000
# 4 0.0000 0.0000 0.0000 16.9166 0.0000 -4.4198
# 5 -6.8131 -11.4296 -12.5451 0.0000 20.1992 0.0000
# 6 0.0000 0.0000 0.0000 -4.4198 0.0000 21.4955
#
#
#
# Elastic Compliance Matrix: (Units=1/GPa)
#
#
# Indices 1 2 3 4 5 6 
#
# 1 0.033119 -0.002678 0.002410 0.000000 0.011152 0.000000
# 2 -0.002678 0.005528 -0.002209 0.000000 0.000853 0.000000
# 3 0.002410 -0.002209 0.012279 0.000000 0.007189 0.000000
# 4 0.000000 0.000000 0.000000 0.062469 0.000000 0.012845
# 5 0.011152 0.000853 0.007189 0.000000 0.058216 0.000000
# 6 0.000000 0.000000 0.000000 0.012845 0.000000 0.049162
#
#
# Mechanical properties :
#
#
# Convention : Reuss Voigt Hill
#
# Bulk Modulus (GPa) = 21.75286 50.52601 36.13943
# Shear Modulus (GPa) = 20.74241 30.29132 25.51687
#
# Velocity S-wave (km/s) = 3.09186 3.73636 3.42928
# Velocity P-wave (km/s) = 4.77194 6.47301 5.68644
#
# Compressibility (1/GPa) = 0.04597097
#
# Stress axis : x y z
#
# Youngs Moduli (GPa) = 30.19435 180.88317 81.44132
#
# Poissons Ratio (x) = 0.48444 -0.19628
# Poissons Ratio (y) = 0.08087 0.17994
# Poissons Ratio (z) = -0.07277 0.39964
#
# Static dielectric constant tensor:
#      x y z
#    x 1.871700 0.000000 -0.031010 
#    y 0.000000 1.845040 0.000000 
#    z -0.031010 0.000000 1.781750 
# 
# From -- ./inp_files/19231.got.cif
#   From: 2010.05.17/outbox.cif.g08.bks.cpg/sg8_10_cif.got.tgz:19231.got - 2010.06.03 19:46:02.
