data_PCOD9131665
_publ_section_title
;
Structure prediction by ZEFSAII (Michael W. Deem and Ramdas Pophale) SiO2 
 PCOD9131665
Probable space group: C M
;
_chemical_formula_sum "Si O2"
_cell_formula_units_Z 26
_cell_length_a 19.941769
_cell_length_b 7.562329
_cell_length_c 9.461256
_cell_angle_alpha 90.000000
_cell_angle_beta 40.082359
_cell_angle_gamma 90.000000
_cell_volume 918.709973
_symmetry_space_group_name_H-M "C M"
_symmetry_group_IT_number 8
_symmetry_cell_setting 'monoclinic'
loop_
_space_group_symop_operation_xyz
x,y,z
x,-y,z
1/2+x,1/2+y,z
1/2+x,1/2-y,z
loop_
_atom_site_type_symbol
_atom_site_label
_atom_site_fract_x
_atom_site_fract_y
_atom_site_fract_z
Si Si1 0.677360 0.701379 0.642330
Si Si2 0.001980 0.211808 0.242543
Si Si3 0.157759 0.500000 0.462381
Si Si4 0.285876 0.795967 0.741969
Si Si5 0.631025 0.299926 0.291768
Si Si6 0.918096 0.287517 0.781186
Si Si7 0.886777 0.209211 0.157595
O O1 0.634364 0.500000 0.715238
O O2 0.623932 0.845196 0.631334
O O3 0.708774 0.776018 0.746429
O O4 0.790263 0.689648 0.381342
O O5 0.899564 0.288803 0.482666
O O6 0.101016 0.259217 0.179691
O O7 0.984461 0.244908 0.104246
O O8 0.995764 0.000000 0.266851
O O9 0.183798 0.654299 0.302495
O O10 0.253961 0.000000 0.802915
O O11 0.317432 0.737759 0.848588
O O12 0.674417 0.500000 0.228822
O O13 0.516155 0.306051 0.551316
O O14 0.938342 0.500000 0.732069
O O15 0.905622 0.247379 0.964949
O O16 0.853969 0.000000 0.223269
#
# Coordination Sequence:
#
# PCOD9131665 Si02
#       7
#     4   4   2   4   4   4   4
#     4  10  20  36  55  80 108 145 182 224 270 315
#     4   8  16  29  50  75 105 136 175 224 273 315
#     4  12  22  36  56  80 116 144 194 216 256 336
#     4   8  16  29  50  75 105 136 175 224 273 315
#     4  10  20  36  55  80 108 145 182 224 270 315
#     4  10  18  32  53  84 114 139 174 227 280 325
#     4  10  18  32  53  84 114 139 174 227 280 325
#
# _framework density 28.300554999999999
#
# number of rings (size 3 to 8) (size 9 to 14) (size 15 to 20)
#    0.000    2.462    1.538    1.385    2.154    1.231 
#    0.000    0.000    0.000    3.692    0.000    8.615 
#    0.000    0.000    0.000    0.000    0.000    0.000 
#
# Total GULP energy -72585.748696 kJ/mol
# GULP energy per Si atom -5583.519130 kJ/mol
# Density = 2.823614 g / cm^3
# Si number density = 28.300555 Si / 1000 Ang^3
#
#
#
# Elastic Constant Matrix: (Units=GPa)
#
#
# Indices 1 2 3 4 5 6 
#
# 1 105.0837 69.4963 55.9657 0.0000 32.5334 0.0000
# 2 69.4963 151.1376 39.7830 0.0000 22.0846 0.0000
# 3 55.9657 39.7830 183.6575 0.0000 67.0291 0.0000
# 4 0.0000 0.0000 0.0000 25.7268 0.0000 4.9362
# 5 32.5334 22.0846 67.0291 0.0000 79.0084 0.0000
# 6 0.0000 0.0000 0.0000 4.9362 0.0000 38.2619
#
#
#
# Elastic Compliance Matrix: (Units=1/GPa)
#
#
# Indices 1 2 3 4 5 6 
#
# 1 0.015769 -0.006208 -0.002497 0.000000 -0.002639 0.000000
# 2 -0.006208 0.009513 -0.000190 0.000000 0.000059 0.000000
# 3 -0.002497 -0.000190 0.008477 0.000000 -0.006110 0.000000
# 4 0.000000 0.000000 0.000000 0.039856 0.000000 -0.005142
# 5 -0.002639 0.000059 -0.006110 0.000000 0.018911 0.000000
# 6 0.000000 0.000000 0.000000 -0.005142 0.000000 0.026799
#
#
# Mechanical properties :
#
#
# Convention : Reuss Voigt Hill
#
# Bulk Modulus (GPa) = 62.62578 85.59656 74.11117
# Shear Modulus (GPa) = 35.10283 46.90835 41.00559
#
# Velocity S-wave (km/s) = 3.52569 4.07566 3.81061
# Velocity P-wave (km/s) = 6.22502 7.24288 6.75315
#
# Compressibility (1/GPa) = 0.01596787
#
# Stress axis : x y z
#
# Youngs Moduli (GPa) = 63.41615 105.12482 117.96316
#
# Poissons Ratio (x) = 0.65260 0.29458
# Poissons Ratio (y) = 0.39368 0.02244
# Poissons Ratio (z) = 0.15837 0.02000
#
# Static dielectric constant tensor:
#      x y z
#    x 2.912270 0.000000 -0.184520 
#    y 0.000000 1.825750 0.000000 
#    z -0.184520 0.000000 2.301710 
# 
# From -- ./inp_files/14497.got.cif
#   From: 2010.05.17/outbox.cif.g08.bks.cpg/sg8_8_cif.got.tgz:14497.got - 2010.06.03 19:46:02.
