data_PCOD9131850
_publ_section_title
;
Structure prediction by ZEFSAII (Michael W. Deem and Ramdas Pophale) SiO2 
 PCOD9131850
Probable space group: C M
;
_chemical_formula_sum "Si O2"
_cell_formula_units_Z 28
_cell_length_a 16.073354
_cell_length_b 18.724360
_cell_length_c 9.902219
_cell_angle_alpha 90.000000
_cell_angle_beta 153.913191
_cell_angle_gamma 90.000000
_cell_volume 1310.492361
_symmetry_space_group_name_H-M "C M"
_symmetry_group_IT_number 8
_symmetry_cell_setting 'monoclinic'
loop_
_space_group_symop_operation_xyz
x,y,z
x,-y,z
1/2+x,1/2+y,z
1/2+x,1/2-y,z
loop_
_atom_site_type_symbol
_atom_site_label
_atom_site_fract_x
_atom_site_fract_y
_atom_site_fract_z
Si Si1 0.517730 0.649372 0.600910
Si Si2 0.744488 0.806288 0.711610
Si Si3 0.316040 0.787496 0.547908
Si Si4 0.841410 0.264971 0.140778
Si Si5 0.060908 0.917331 0.173723
Si Si6 0.652032 0.850322 0.165380
Si Si7 0.298340 0.080717 0.798101
O O1 0.415747 0.705899 0.352561
O O2 0.339396 0.605085 0.398322
O O3 0.675736 0.611130 0.741318
O O4 0.650760 0.692777 0.898814
O O5 0.783867 0.745455 0.653940
O O6 0.520678 0.817132 0.388144
O O7 0.809172 0.772452 0.948541
O O8 0.856251 0.880554 0.859944
O O9 0.189951 0.852589 0.306291
O O10 0.252422 0.718875 0.373547
O O11 0.522005 0.823014 0.852774
O O12 0.150353 0.918081 0.455696
O O13 0.069884 0.000000 0.139076
O O14 0.495200 0.883309 0.036632
O O15 0.347967 0.000000 0.900627
#
# Coordination Sequence:
#
# PCOD9131850 Si02
#       7
#     4   4   4   4   4   4   4
#     4  11  21  37  58  92 120 154 195 258 298 359
#     4  11  16  33  58  85 119 163 199 251 299 360
#     4  11  19  35  57  90 123 156 204 254 296 362
#     4  10  19  31  56  86 119 149 198 247 305 352
#     4  10  19  33  57  89 122 158 202 248 304 365
#     4  11  22  36  62  89 121 157 204 248 304 360
#     4  10  22  39  59  87 119 161 206 248 304 366
#
# _framework density 21.366015000000001
#
# number of rings (size 3 to 8) (size 9 to 14) (size 15 to 20)
#    0.000    1.429    4.286    4.286    0.000    0.571 
#    0.000    2.857    0.000    0.857    0.000    0.000 
#    0.000    0.000    0.000    0.000    0.000    0.000 
#
# Total GULP energy -77953.565343 kJ/mol
# GULP energy per Si atom -5568.111810 kJ/mol
# Density = 2.131738 g / cm^3
# Si number density = 21.366015 Si / 1000 Ang^3
#
#
#
# Elastic Constant Matrix: (Units=GPa)
#
#
# Indices 1 2 3 4 5 6 
#
# 1 57.2581 31.9055 35.3156 0.0000 16.2763 0.0000
# 2 31.9055 105.2754 53.7375 0.0000 29.2763 0.0000
# 3 35.3156 53.7375 166.6104 0.0000 35.0949 0.0000
# 4 0.0000 0.0000 0.0000 24.3710 0.0000 -3.3261
# 5 16.2763 29.2763 35.0949 0.0000 41.4260 0.0000
# 6 0.0000 0.0000 0.0000 -3.3261 0.0000 8.5762
#
#
#
# Elastic Compliance Matrix: (Units=1/GPa)
#
#
# Indices 1 2 3 4 5 6 
#
# 1 0.022586 -0.004563 -0.002588 0.000000 -0.003457 0.000000
# 2 -0.004563 0.013666 -0.002171 0.000000 -0.006026 0.000000
# 3 -0.002588 -0.002171 0.008172 0.000000 -0.004372 0.000000
# 4 0.000000 0.000000 0.000000 0.043326 0.000000 0.016803
# 5 -0.003457 -0.006026 -0.004372 0.000000 0.033460 0.000000
# 6 0.000000 0.000000 0.000000 0.016803 0.000000 0.123118
#
#
# Mechanical properties :
#
#
# Convention : Reuss Voigt Hill
#
# Bulk Modulus (GPa) = 38.78946 63.45123 51.12035
# Shear Modulus (GPa) = 18.41187 28.75364 23.58276
#
# Velocity S-wave (km/s) = 2.93872 3.67245 3.32588
# Velocity P-wave (km/s) = 5.45059 6.90972 6.22307
#
# Compressibility (1/GPa) = 0.02578020
#
# Stress axis : x y z
#
# Youngs Moduli (GPa) = 44.27513 73.17580 122.37427
#
# Poissons Ratio (x) = 0.33389 0.31665
# Poissons Ratio (y) = 0.20202 0.26571
# Poissons Ratio (z) = 0.11456 0.15888
#
# Static dielectric constant tensor:
#      x y z
#    x 2.015060 0.000000 0.044100 
#    y 0.000000 1.806300 0.000000 
#    z 0.044100 0.000000 1.806860 
# 
# From -- ./inp_files/23448.got.cif
#   From: 2010.05.17/outbox.cif.g08.bks.cpg/sg8_12_cif.got.tgz:23448.got - 2010.06.03 19:46:02.
