data_PCOD9131792
_publ_section_title
;
Structure prediction by ZEFSAII (Michael W. Deem and Ramdas Pophale) SiO2 
 PCOD9131792
Probable space group: C M
;
_chemical_formula_sum "Si O2"
_cell_formula_units_Z 24
_cell_length_a 14.138828
_cell_length_b 17.767972
_cell_length_c 9.658689
_cell_angle_alpha 90.000000
_cell_angle_beta 155.668982
_cell_angle_gamma 90.000000
_cell_volume 999.711732
_symmetry_space_group_name_H-M "C M"
_symmetry_group_IT_number 8
_symmetry_cell_setting 'monoclinic'
loop_
_space_group_symop_operation_xyz
x,y,z
x,-y,z
1/2+x,1/2+y,z
1/2+x,1/2-y,z
loop_
_atom_site_type_symbol
_atom_site_label
_atom_site_fract_x
_atom_site_fract_y
_atom_site_fract_z
Si Si1 0.771450 0.766288 0.194740
Si Si2 0.496248 0.000000 0.641888
Si Si3 0.754479 0.667676 0.910683
Si Si4 0.856942 0.500000 0.164671
Si Si5 0.331487 0.843591 0.706471
Si Si6 0.553014 0.000000 0.014519
Si Si7 0.112057 0.873187 0.165368
Si Si8 0.394582 0.500000 0.724204
O O1 0.687654 0.696465 0.175256
O O2 0.976385 0.817744 0.530285
O O3 0.836618 0.725840 0.137884
O O4 0.536026 0.812889 0.882965
O O5 0.328406 0.929595 0.442829
O O6 0.548601 0.000000 0.546264
O O7 0.657957 0.000000 0.995998
O O8 0.831314 0.690879 0.858703
O O9 0.834811 0.581607 0.056474
O O10 0.625998 0.500000 0.945178
O O11 0.100097 0.846138 0.307665
O O12 0.392952 0.928967 0.816131
O O13 0.711621 0.000000 0.359706
O O14 0.905397 0.923398 0.828828
#
# Coordination Sequence:
#
# PCOD9131792 Si02
#       8
#     4   2   4   2   4   2   4   2
#     4  12  24  43  66 100 137 188 221 285 357 408
#     4   8  16  34  65  88 131 180 226 275 343 405
#     4  12  26  43  72 101 142 187 236 286 351 414
#     4  10  19  41  65  97 132 186 232 289 334 410
#     4  11  25  42  68 101 140 177 236 287 342 421
#     4  10  21  40  67 106 129 185 236 290 347 410
#     4   9  19  39  62  93 135 177 220 280 341 407
#     4  10  18  37  73  97 132 189 230 280 358 415
#
# _framework density 24.006919
#
# number of rings (size 3 to 8) (size 9 to 14) (size 15 to 20)
#    0.000    1.667    5.000    2.000    2.333    0.000 
#    0.000    0.000    0.000    2.000    0.000    0.000 
#    0.000    0.000    0.000    0.000    0.000    0.000 
#
# Total GULP energy -66840.112214 kJ/mol
# GULP energy per Si atom -5570.009351 kJ/mol
# Density = 2.395228 g / cm^3
# Si number density = 24.006919 Si / 1000 Ang^3
#
#
#
# Elastic Constant Matrix: (Units=GPa)
#
#
# Indices 1 2 3 4 5 6 
#
# 1 89.2562 39.5850 39.5544 0.0000 -33.0733 0.0000
# 2 39.5850 133.9666 54.7670 0.0000 -20.5317 0.0000
# 3 39.5544 54.7670 142.4769 0.0000 -52.4343 0.0000
# 4 0.0000 0.0000 0.0000 32.7354 0.0000 2.2851
# 5 -33.0733 -20.5317 -52.4343 0.0000 48.7267 0.0000
# 6 0.0000 0.0000 0.0000 2.2851 0.0000 76.0037
#
#
#
# Elastic Compliance Matrix: (Units=1/GPa)
#
#
# Indices 1 2 3 4 5 6 
#
# 1 0.016270 -0.003479 0.000571 0.000000 0.010192 0.000000
# 2 -0.003479 0.009601 -0.003485 0.000000 -0.002066 0.000000
# 3 0.000571 -0.003485 0.012918 0.000000 0.012820 0.000000
# 4 0.000000 0.000000 0.000000 0.030612 0.000000 -0.000920
# 5 0.010192 -0.002066 0.012820 0.000000 0.040365 0.000000
# 6 0.000000 0.000000 0.000000 -0.000920 0.000000 0.013185
#
#
# Mechanical properties :
#
#
# Convention : Reuss Voigt Hill
#
# Bulk Modulus (GPa) = 38.45701 70.39028 54.42365
# Shear Modulus (GPa) = 34.62512 46.94604 40.78558
#
# Velocity S-wave (km/s) = 3.80188 4.42692 4.12625
# Velocity P-wave (km/s) = 5.94359 7.45082 6.73947
#
# Compressibility (1/GPa) = 0.02600306
#
# Stress axis : x y z
#
# Youngs Moduli (GPa) = 61.46231 104.16044 77.41361
#
# Poissons Ratio (x) = 0.36238 -0.04423
# Poissons Ratio (y) = 0.21383 0.26978
# Poissons Ratio (z) = -0.03512 0.36299
#
# Static dielectric constant tensor:
#      x y z
#    x 1.972900 0.000000 -0.064450 
#    y 0.000000 1.138010 0.000000 
#    z -0.064450 0.000000 2.061520 
# 
# From -- ./inp_files/13593.got.cif
#   From: 2010.05.17/outbox.cif.g08.bks.cpg/sg8_7_cif.got.tgz:13593.got - 2010.06.03 19:46:02.
