data_PCOD9131544
_publ_section_title
;
Structure prediction by ZEFSAII (Michael W. Deem and Ramdas Pophale) SiO2 
 PCOD9131544
Probable space group: C M
;
_chemical_formula_sum "Si O2"
_cell_formula_units_Z 32
_cell_length_a 20.986684
_cell_length_b 7.525579
_cell_length_c 30.396246
_cell_angle_alpha 90.000000
_cell_angle_beta 19.622548
_cell_angle_gamma 90.000000
_cell_volume 1612.178765
_symmetry_space_group_name_H-M "C M"
_symmetry_group_IT_number 8
_symmetry_cell_setting 'monoclinic'
loop_
_space_group_symop_operation_xyz
x,y,z
x,-y,z
1/2+x,1/2+y,z
1/2+x,1/2-y,z
loop_
_atom_site_type_symbol
_atom_site_label
_atom_site_fract_x
_atom_site_fract_y
_atom_site_fract_z
Si Si1 0.738710 0.782343 0.382890
Si Si2 0.160108 0.288856 0.625192
Si Si3 0.701280 0.790627 0.169317
Si Si4 0.057569 0.714154 0.412137
Si Si5 0.402178 0.716753 0.124983
Si Si6 0.293388 0.782030 0.915900
Si Si7 0.175298 0.213525 0.087779
Si Si8 0.762278 0.206282 0.463835
O O1 0.600976 0.725056 0.433462
O O2 0.697008 0.717850 0.459342
O O3 0.954650 0.728453 0.230904
O O4 0.738727 0.000000 0.383817
O O5 0.130122 0.500000 0.640077
O O6 0.355630 0.265764 0.524229
O O7 0.188561 0.214408 0.557403
O O8 0.980994 0.219523 0.768839
O O9 0.848915 0.726976 0.110119
O O10 0.756792 0.762693 0.082487
O O11 0.492124 0.710877 0.313271
O O12 0.675999 0.000000 0.192712
O O13 0.064753 0.500000 0.407603
O O14 0.228965 0.773835 0.269027
O O15 0.406452 0.500000 0.122997
O O16 0.603233 0.773857 0.013779
O O17 0.295045 0.000000 0.915285
O O18 0.277857 0.724064 0.976871
O O19 0.172367 0.000000 0.088193
O O20 0.705174 0.000000 0.500656
#
# Coordination Sequence:
#
# PCOD9131544 Si02
#       8
#     4   4   4   4   4   4   4   4
#     4   8  14  26  48  71  88 117 164 203 228 272
#     4  10  20  32  49  74 102 128 159 200 242 285
#     4  10  18  28  47  75 100 120 153 202 249 284
#     4  10  17  30  51  72  95 126 165 201 238 285
#     4   9  16  28  49  74  95 123 165 203 235 279
#     4   9  17  32  52  71  95 131 168 198 232 284
#     4   9  16  30  51  71  93 124 162 198 237 284
#     4   9  17  30  47  70  98 127 160 195 235 283
#
# _framework density 19.848915999999999
#
# number of rings (size 3 to 8) (size 9 to 14) (size 15 to 20)
#    0.000    2.750    2.500    1.125    0.000    0.000 
#    0.000    4.375    0.000    6.750    0.000    0.000 
#    0.000    0.000    0.000    0.000    0.000    0.000 
#
# Total GULP energy -89237.588619 kJ/mol
# GULP energy per Si atom -5577.349289 kJ/mol
# Density = 1.980374 g / cm^3
# Si number density = 19.848916 Si / 1000 Ang^3
#
#
#
# Elastic Constant Matrix: (Units=GPa)
#
#
# Indices 1 2 3 4 5 6 
#
# 1 202.1365 2.5273 100.8527 0.0021 30.8553 -0.0423
# 2 2.5273 49.3550 0.9719 -0.0088 3.9659 -0.0014
# 3 100.8527 0.9719 138.1486 -0.0006 17.2570 0.0231
# 4 0.0021 -0.0088 -0.0006 4.5961 0.0010 -5.7893
# 5 30.8553 3.9659 17.2570 0.0010 27.7539 0.0208
# 6 -0.0423 -0.0014 0.0231 -5.7893 0.0208 16.7233
#
#
#
# Elastic Compliance Matrix: (Units=1/GPa)
#
#
# Indices 1 2 3 4 5 6 
#
# 1 0.008660 0.000164 -0.005549 0.000078 -0.006201 0.000064
# 2 0.000164 0.020507 0.000135 0.000084 -0.003197 0.000035
# 3 -0.005549 0.000135 0.011406 -0.000056 -0.000943 -0.000048
# 4 0.000078 0.000084 -0.000056 0.385808 -0.000177 0.133560
# 5 -0.006201 -0.003197 -0.000943 -0.000177 0.043968 -0.000131
# 6 0.000064 0.000035 -0.000048 0.133560 -0.000131 0.106033
#
#
# Mechanical properties :
#
#
# Convention : Reuss Voigt Hill
#
# Bulk Modulus (GPa) = 33.25034 66.48266 49.86650
# Shear Modulus (GPa) = 8.37651 28.83387 18.60519
#
# Velocity S-wave (km/s) = 2.05653 3.81552 3.06492
# Velocity P-wave (km/s) = 4.73573 7.27860 6.14024
#
# Compressibility (1/GPa) = 0.03007488
#
# Stress axis : x y z
#
# Youngs Moduli (GPa) = 115.47168 48.76329 87.67228
#
# Poissons Ratio (x) = -0.00800 0.48647
# Poissons Ratio (y) = -0.01895 -0.01186
# Poissons Ratio (z) = 0.64072 -0.00660
#
# Static dielectric constant tensor:
#      x y z
#    x 1.722160 0.000000 0.029780 
#    y 0.000000 1.760110 -0.000010 
#    z 0.029780 -0.000010 1.656070 
# 
# From -- ./inp_files/23065.got.cif
#   From: 2010.05.17/outbox.cif.g08.bks.cpg/sg8_12_cif.got.tgz:23065.got - 2010.06.03 19:46:02.
