data_PCOD9131723
_publ_section_title
;
Structure prediction by ZEFSAII (Michael W. Deem and Ramdas Pophale) SiO2 
 PCOD9131723
Probable space group: C M
;
_chemical_formula_sum "Si O2"
_cell_formula_units_Z 24
_cell_length_a 12.162861
_cell_length_b 14.685987
_cell_length_c 9.311774
_cell_angle_alpha 90.000000
_cell_angle_beta 34.853590
_cell_angle_gamma 90.000000
_cell_volume 950.546522
_symmetry_space_group_name_H-M "C M"
_symmetry_group_IT_number 8
_symmetry_cell_setting 'monoclinic'
loop_
_space_group_symop_operation_xyz
x,y,z
x,-y,z
1/2+x,1/2+y,z
1/2+x,1/2-y,z
loop_
_atom_site_type_symbol
_atom_site_label
_atom_site_fract_x
_atom_site_fract_y
_atom_site_fract_z
Si Si1 0.000000 0.210149 0.887760
Si Si2 0.036612 0.598743 0.137587
Si Si3 0.836890 0.898656 0.319312
Si Si4 0.435166 0.266565 0.448934
Si Si5 0.925697 0.399590 0.919251
Si Si6 0.995394 0.897671 0.622098
O O1 0.206117 0.247612 0.723600
O O2 0.882332 0.292562 0.937464
O O3 0.056356 0.132454 0.714268
O O4 0.869590 0.165249 0.148711
O O5 0.977959 0.500000 0.260622
O O6 0.997115 0.678160 0.293385
O O7 0.949803 0.604648 0.068656
O O8 0.264804 0.596580 0.869407
O O9 0.953955 0.851868 0.320838
O O10 0.623967 0.904027 0.614426
O O11 0.901478 0.000000 0.214900
O O12 0.535174 0.309844 0.480547
O O13 0.835601 0.500000 0.983998
O O14 0.061290 0.000000 0.513820
#
# Coordination Sequence:
#
# PCOD9131723 Si02
#       6
#     4   4   4   4   4   4
#     4  11  22  36  62  96 123 155 207 261 306 353
#     4  10  20  38  63  87 118 163 205 245 304 368
#     4  10  18  33  59  85 116 159 205 244 292 363
#     4  11  21  40  61  90 123 164 200 256 312 361
#     4   9  18  36  60  85 116 161 204 242 297 364
#     4  11  23  41  63  91 126 164 207 248 305 375
#
# _framework density 25.248631
#
# number of rings (size 3 to 8) (size 9 to 14) (size 15 to 20)
#    0.000    1.667    5.000    1.000    0.000    4.000 
#    0.000    2.500    0.000    1.000    0.000    0.000 
#    0.000    0.000    0.000    0.000    0.000    0.000 
#
# Total GULP energy -66970.550602 kJ/mol
# GULP energy per Si atom -5580.879217 kJ/mol
# Density = 2.519116 g / cm^3
# Si number density = 25.248631 Si / 1000 Ang^3
#
#
#
# Elastic Constant Matrix: (Units=GPa)
#
#
# Indices 1 2 3 4 5 6 
#
# 1 51.0546 17.0017 23.0655 -0.0024 0.8140 0.0014
# 2 17.0017 200.6820 73.4651 -0.0003 3.3489 0.0004
# 3 23.0655 73.4651 127.5520 0.0002 8.0471 0.0009
# 4 -0.0024 -0.0003 0.0002 1.7065 0.0008 22.2927
# 5 0.8140 3.3489 8.0471 0.0008 34.6620 -0.0009
# 6 0.0014 0.0004 0.0009 22.2927 -0.0009 26.2186
#
#
#
# Elastic Compliance Matrix: (Units=1/GPa)
#
#
# Indices 1 2 3 4 5 6 
#
# 1 0.021374 -0.000499 -0.003602 -0.000004 0.000382 0.000003
# 2 -0.000499 0.006328 -0.003569 0.000000 0.000229 0.000000
# 3 -0.003602 -0.003569 0.010676 0.000000 -0.002049 0.000000
# 4 -0.000004 0.000000 0.000000 -0.057977 0.000003 0.049296
# 5 0.000382 0.000229 -0.002049 0.000003 0.029295 -0.000001
# 6 0.000003 0.000000 0.000000 0.049296 -0.000001 -0.003773
#
#
# Mechanical properties :
#
#
# Convention : Reuss Voigt Hill
#
# Bulk Modulus (GPa) = 43.40454 67.37257 55.38855
# Shear Modulus (GPa) = 172.76256 30.23451 101.49853
#
# Velocity S-wave (km/s) = 8.28089 3.46420 6.34720
# Velocity P-wave (km/s) = 10.42396 6.53778 8.70062
#
# Compressibility (1/GPa) = 0.02303907
#
# Stress axis : x y z
#
# Youngs Moduli (GPa) = 46.78544 158.02960 93.66651
#
# Poissons Ratio (x) = 0.07878 0.33740
# Poissons Ratio (y) = 0.02332 0.33429
# Poissons Ratio (z) = 0.16853 0.56400
#
# Static dielectric constant tensor:
#      x y z
#    x 2.015370 0.000000 -0.060230 
#    y 0.000000 1.992460 0.000000 
#    z -0.060230 0.000000 2.048640 
# 
# From -- ./inp_files/13191.got.cif
#   From: 2010.05.17/outbox.cif.g08.bks.cpg/sg8_7_cif.got.tgz:13191.got - 2010.06.03 19:46:02.
