data_PCOD9131463
_publ_section_title
;
Structure prediction by ZEFSAII (Michael W. Deem and Ramdas Pophale) SiO2 
 PCOD9131463
Probable space group: P C
;
_chemical_formula_sum "Si O2"
_cell_formula_units_Z 16
_cell_length_a 13.173689
_cell_length_b 9.609881
_cell_length_c 6.162930
_cell_angle_alpha 90.000000
_cell_angle_beta 132.616024
_cell_angle_gamma 90.000000
_cell_volume 574.164096
_symmetry_space_group_name_H-M "P C"
_symmetry_group_IT_number 7
_symmetry_cell_setting 'monoclinic'
loop_
_space_group_symop_operation_xyz
x,y,z
x,-y,1/2+z
loop_
_atom_site_type_symbol
_atom_site_label
_atom_site_fract_x
_atom_site_fract_y
_atom_site_fract_z
Si Si1 0.946180 0.149698 0.541370
Si Si2 0.325252 0.350302 0.333811
Si Si3 0.236561 0.091098 0.965255
Si Si4 0.675162 0.064022 0.354043
Si Si5 0.877743 0.320058 0.062580
Si Si6 0.596270 0.435978 0.521138
Si Si7 0.034871 0.591098 0.409926
Si Si8 0.393688 0.179942 0.812600
O O1 0.829396 0.121746 0.547758
O O2 0.875128 0.185238 0.210126
O O3 0.076888 0.047881 0.726688
O O4 0.011707 0.301279 0.683986
O O5 0.442036 0.378255 0.327422
O O6 0.396305 0.314762 0.665056
O O7 0.259725 0.198720 0.191196
O O8 0.194544 0.452119 0.148493
O O9 0.270416 0.183318 0.805192
O O10 0.350039 0.969622 0.141844
O O11 0.663577 0.010205 0.589871
O O12 0.543308 0.164167 0.135234
O O13 0.921392 0.469623 0.233336
O O14 0.728123 0.335832 0.739947
O O15 0.001016 0.316682 0.069989
O O16 0.607855 0.489794 0.285310
#
# Coordination Sequence:
#
# PCOD9131463 Si02
#       8
#     2   2   2   2   2   2   2   2
#     4  11  27  43  73 105 138 195 240 298 358 435
#     4  11  27  43  73 105 138 195 240 298 358 435
#     4  11  24  44  71 102 142 186 245 294 366 421
#     4  12  28  48  74 109 149 191 241 300 357 429
#     4  12  23  47  71 100 146 191 235 302 361 430
#     4  12  28  48  74 109 149 191 241 300 357 429
#     4  11  24  44  71 102 142 186 245 294 366 421
#     4  12  23  47  71 100 146 191 235 302 361 430
#
# _framework density 27.866596000000001
#
# number of rings (size 3 to 8) (size 9 to 14) (size 15 to 20)
#    0.000    0.500    5.000    1.500    7.000    1.000 
#    0.000    0.000    0.000    0.000    0.000    0.000 
#    0.000    0.000    0.000    0.000    0.000    0.000 
#
# Total GULP energy -89298.246804 kJ/mol
# GULP energy per Si atom -5581.140425 kJ/mol
# Density = 2.780317 g / cm^3
# Si number density = 27.866596 Si / 1000 Ang^3
#
#
#
# Elastic Constant Matrix: (Units=GPa)
#
#
# Indices 1 2 3 4 5 6 
#
# 1 151.0101 21.0853 36.5938 0.0000 11.0603 0.0000
# 2 21.0853 78.2524 42.0248 0.0000 5.8539 0.0000
# 3 36.5938 42.0248 130.3933 0.0000 8.9926 0.0000
# 4 0.0000 0.0000 0.0000 46.5588 0.0000 -14.0954
# 5 11.0603 5.8539 8.9926 0.0000 69.5230 0.0000
# 6 0.0000 0.0000 0.0000 -14.0954 0.0000 48.0681
#
#
#
# Elastic Compliance Matrix: (Units=1/GPa)
#
#
# Indices 1 2 3 4 5 6 
#
# 1 0.007223 -0.000998 -0.001647 0.000000 -0.000852 0.000000
# 2 -0.000998 0.015622 -0.004717 0.000000 -0.000546 0.000000
# 3 -0.001647 -0.004717 0.009693 0.000000 -0.000595 0.000000
# 4 0.000000 0.000000 0.000000 0.023571 0.000000 0.006912
# 5 -0.000852 -0.000546 -0.000595 0.000000 0.014642 0.000000
# 6 0.000000 0.000000 0.000000 0.006912 0.000000 0.022831
#
#
# Mechanical properties :
#
#
# Convention : Reuss Voigt Hill
#
# Bulk Modulus (GPa) = 56.13601 62.11818 59.12710
# Shear Modulus (GPa) = 43.76636 50.16011 46.96324
#
# Velocity S-wave (km/s) = 3.96734 4.24725 4.10968
# Velocity P-wave (km/s) = 6.41675 6.81116 6.61689
#
# Compressibility (1/GPa) = 0.01781388
#
# Stress axis : x y z
#
# Youngs Moduli (GPa) = 138.44919 64.01103 103.17254
#
# Poissons Ratio (x) = 0.06390 0.16988
# Poissons Ratio (y) = 0.13820 0.48668
# Poissons Ratio (z) = 0.22797 0.30195
#
# Static dielectric constant tensor:
#      x y z
#    x 2.058510 0.000000 -0.138420 
#    y 0.000000 2.217540 0.000000 
#    z -0.138420 0.000000 2.348670 
# 
# From -- ./inp_files/1107.got.cif
#   From: 2010.05.17/outbox.cif.g08.bks.cpg/sg7_cif.got.tgz:1107.got - 2010.06.03 19:44:50.
