data_PCOD9131721
_publ_section_title
;
Structure prediction by ZEFSAII (Michael W. Deem and Ramdas Pophale) SiO2 
 PCOD9131721
Probable space group: C M
;
_chemical_formula_sum "Si O2"
_cell_formula_units_Z 32
_cell_length_a 12.971840
_cell_length_b 17.666892
_cell_length_c 19.269314
_cell_angle_alpha 90.000000
_cell_angle_beta 156.621544
_cell_angle_gamma 90.000000
_cell_volume 1752.276719
_symmetry_space_group_name_H-M "C M"
_symmetry_group_IT_number 8
_symmetry_cell_setting 'monoclinic'
loop_
_space_group_symop_operation_xyz
x,y,z
x,-y,z
1/2+x,1/2+y,z
1/2+x,1/2-y,z
loop_
_atom_site_type_symbol
_atom_site_label
_atom_site_fract_x
_atom_site_fract_y
_atom_site_fract_z
Si Si1 0.667150 0.826019 0.197080
Si Si2 0.151320 0.090778 0.552458
Si Si3 0.585048 0.745265 0.286900
Si Si4 0.822805 0.414923 0.900731
Si Si5 0.548105 0.288230 0.999016
Si Si6 0.336313 0.415282 0.118916
Si Si7 0.239542 0.587329 0.893422
Si Si8 0.600863 0.307967 0.660626
O O1 0.669307 0.768444 0.261932
O O2 0.925740 0.876066 0.364281
O O3 0.431694 0.885128 0.041149
O O4 0.620593 0.773603 0.102140
O O5 0.434537 0.104072 0.695068
O O6 0.134603 0.136833 0.614882
O O7 0.123027 0.000000 0.546378
O O8 0.506589 0.657431 0.243729
O O9 0.826135 0.766442 0.484231
O O10 0.330663 0.797885 0.140498
O O11 0.727631 0.500000 0.846373
O O12 0.615983 0.359314 0.738658
O O13 0.069414 0.414226 0.998851
O O14 0.416213 0.357578 0.957233
O O15 0.340738 0.250542 0.818014
O O16 0.448799 0.500000 0.199076
O O17 0.281093 0.405925 0.002485
O O18 0.289565 0.500000 0.906235
#
# Coordination Sequence:
#
# PCOD9131721 Si02
#       8
#     4   4   4   4   4   4   4   4
#     4  10  21  33  55  85 115 146 184 234 285 338
#     4  10  19  35  58  88 113 140 190 247 282 318
#     4  11  21  38  53  87 116 149 186 227 287 338
#     4  10  18  35  57  85 109 138 184 238 287 323
#     4  11  22  37  56  81 119 151 185 228 277 350
#     4  10  18  33  59  84 112 140 181 242 289 322
#     4  10  20  35  58  84 113 151 187 232 285 330
#     4  10  21  34  56  84 113 149 183 230 288 337
#
# _framework density 18.261955
#
# number of rings (size 3 to 8) (size 9 to 14) (size 15 to 20)
#    0.000    1.750    5.000    0.750    1.750    0.000 
#    0.000    4.375    0.000    0.000    0.000    0.000 
#    0.000    0.000    0.000    0.000    0.000    0.000 
#
# Total GULP energy -89155.195823 kJ/mol
# GULP energy per Si atom -5572.199739 kJ/mol
# Density = 1.822039 g / cm^3
# Si number density = 18.261955 Si / 1000 Ang^3
#
#
#
# Elastic Constant Matrix: (Units=GPa)
#
#
# Indices 1 2 3 4 5 6 
#
# 1 18.8100 31.8149 18.2359 -0.0090 0.6512 -0.0037
# 2 31.8149 112.0667 61.3622 0.0141 4.7475 0.0079
# 3 18.2359 61.3622 138.3019 0.0266 -3.9504 -0.0037
# 4 -0.0090 0.0141 0.0266 31.2352 -0.0090 3.5177
# 5 0.6512 4.7475 -3.9504 -0.0090 21.6670 -0.0012
# 6 -0.0037 0.0079 -0.0037 3.5177 -0.0012 28.6430
#
#
#
# Elastic Compliance Matrix: (Units=1/GPa)
#
#
# Indices 1 2 3 4 5 6 
#
# 1 0.102544 -0.028915 -0.000602 0.000042 0.003144 0.000016
# 2 -0.028915 0.020219 -0.005287 -0.000013 -0.004525 -0.000009
# 3 -0.000602 -0.005287 0.009740 -0.000006 0.002952 0.000003
# 4 0.000042 -0.000013 -0.000006 0.032464 0.000014 -0.003987
# 5 0.003144 -0.004525 0.002952 0.000014 0.047589 0.000002
# 6 0.000016 -0.000009 0.000003 -0.003987 0.000002 0.035402
#
#
# Mechanical properties :
#
#
# Convention : Reuss Voigt Hill
#
# Bulk Modulus (GPa) = 15.89973 54.66716 35.28345
# Shear Modulus (GPa) = 14.76965 26.82674 20.79819
#
# Velocity S-wave (km/s) = 2.84697 3.83691 3.37839
# Velocity P-wave (km/s) = 4.41954 7.04479 5.88054
#
# Compressibility (1/GPa) = 0.06289414
#
# Stress axis : x y z
#
# Youngs Moduli (GPa) = 9.75189 49.45885 102.66717
#
# Poissons Ratio (x) = 1.43010 0.06182
# Poissons Ratio (y) = 0.28198 0.54284
# Poissons Ratio (z) = 0.00587 0.26151
#
# Static dielectric constant tensor:
#      x y z
#    x 1.636900 0.000030 -0.006570 
#    y 0.000030 1.662490 0.000010 
#    z -0.006570 0.000010 1.648190 
# 
# From -- ./inp_files/13516.got.cif
#   From: 2010.05.17/outbox.cif.g08.bks.cpg/sg8_7_cif.got.tgz:13516.got - 2010.06.03 19:46:02.
