data_PCOD9131896
_publ_section_title
;
Structure prediction by ZEFSAII (Michael W. Deem and Ramdas Pophale) SiO2 
 PCOD9131896
Probable space group: C M
;
_chemical_formula_sum "Si O2"
_cell_formula_units_Z 28
_cell_length_a 9.436860
_cell_length_b 13.231205
_cell_length_c 13.155748
_cell_angle_alpha 90.000000
_cell_angle_beta 52.695690
_cell_angle_gamma 90.000000
_cell_volume 1306.601863
_symmetry_space_group_name_H-M "C M"
_symmetry_group_IT_number 8
_symmetry_cell_setting 'monoclinic'
loop_
_space_group_symop_operation_xyz
x,y,z
x,-y,z
1/2+x,1/2+y,z
1/2+x,1/2-y,z
loop_
_atom_site_type_symbol
_atom_site_label
_atom_site_fract_x
_atom_site_fract_y
_atom_site_fract_z
Si Si1 0.228910 0.228871 0.821510
Si Si2 0.941887 0.888263 0.647586
Si Si3 0.195989 0.878506 0.243811
Si Si4 0.311230 0.621411 0.483338
Si Si5 0.936124 0.377846 0.561655
Si Si6 0.840281 0.614350 0.386955
Si Si7 0.884083 0.376994 0.947487
O O1 0.392547 0.308629 0.753062
O O2 0.276666 0.160266 0.702479
O O3 0.259457 0.159566 0.907703
O O4 0.056587 0.302045 0.883176
O O5 0.832131 0.859827 0.593798
O O6 0.140774 0.892739 0.519250
O O7 0.891341 0.000000 0.703436
O O8 0.314684 0.838095 0.286892
O O9 0.989572 0.849125 0.345819
O O10 0.196080 0.000000 0.259722
O O11 0.277705 0.860294 0.098824
O O12 0.301315 0.500000 0.478248
O O13 0.123061 0.660160 0.526092
O O14 0.929446 0.500000 0.564682
O O15 0.936595 0.343474 0.444421
O O16 0.912310 0.500000 0.341169
O O17 0.923808 0.500000 0.920360
#
# Coordination Sequence:
#
# PCOD9131896 Si02
#       7
#     4   4   4   4   4   4   4
#     4  12  23  38  61  93 129 171 215 253 310 383
#     4   9  17  32  54  81 116 157 201 252 311 374
#     4   8  16  36  61  81 111 161 210 251 305 366
#     4   8  15  31  58  87 118 159 200 250 321 377
#     4  10  19  32  55  92 129 154 194 262 323 374
#     4   8  15  30  54  81 111 150 196 252 317 371
#     4  11  25  45  66  89 128 176 217 262 306 365
#
# _framework density 21.429635000000001
#
# number of rings (size 3 to 8) (size 9 to 14) (size 15 to 20)
#    0.000    2.571    0.000    4.286    0.000    1.143 
#    0.000    9.286    0.000    3.429    0.000    0.000 
#    0.000    5.714    0.000    0.000    0.000    0.000 
#
# Total GULP energy -78037.955766 kJ/mol
# GULP energy per Si atom -5574.139698 kJ/mol
# Density = 2.138086 g / cm^3
# Si number density = 21.429635 Si / 1000 Ang^3
#
#
#
# Elastic Constant Matrix: (Units=GPa)
#
#
# Indices 1 2 3 4 5 6 
#
# 1 98.8399 22.4540 12.9715 0.0000 -0.8114 0.0000
# 2 22.4540 114.4840 46.7770 0.0000 3.8092 0.0000
# 3 12.9715 46.7770 77.7886 0.0000 -6.7568 0.0000
# 4 0.0000 0.0000 0.0000 28.8989 0.0000 10.1472
# 5 -0.8114 3.8092 -6.7568 0.0000 21.0021 0.0000
# 6 0.0000 0.0000 0.0000 10.1472 0.0000 11.5745
#
#
#
# Elastic Compliance Matrix: (Units=1/GPa)
#
#
# Indices 1 2 3 4 5 6 
#
# 1 0.010623 -0.001853 -0.000609 0.000000 0.000550 0.000000
# 2 -0.001853 0.012325 -0.007513 0.000000 -0.004724 0.000000
# 3 -0.000609 -0.007513 0.018097 0.000000 0.007161 0.000000
# 4 0.000000 0.000000 0.000000 0.049993 0.000000 -0.043828
# 5 0.000550 -0.004724 0.007161 0.000000 0.050796 0.000000
# 6 0.000000 0.000000 0.000000 -0.043828 0.000000 0.124820
#
#
# Mechanical properties :
#
#
# Convention : Reuss Voigt Hill
#
# Bulk Modulus (GPa) = 47.40586 50.61305 49.00946
# Shear Modulus (GPa) = 17.02794 26.22242 21.62518
#
# Velocity S-wave (km/s) = 2.82192 3.50187 3.18012
# Velocity P-wave (km/s) = 5.72602 6.32616 6.03356
#
# Compressibility (1/GPa) = 0.02109444
#
# Stress axis : x y z
#
# Youngs Moduli (GPa) = 94.13740 81.13511 55.25842
#
# Poissons Ratio (x) = 0.15032 0.03368
# Poissons Ratio (y) = 0.17441 0.41515
# Poissons Ratio (z) = 0.05737 0.60956
#
# Static dielectric constant tensor:
#      x y z
#    x 1.869820 0.000000 0.025270 
#    y 0.000000 1.859090 0.000000 
#    z 0.025270 0.000000 1.741650 
# 
# From -- ./inp_files/18834.got.cif
#   From: 2010.05.17/outbox.cif.g08.bks.cpg/sg8_10_cif.got.tgz:18834.got - 2010.06.03 19:46:02.
