data_PCOD9131190
_publ_section_title
;
Structure prediction by ZEFSAII (Michael W. Deem and Ramdas Pophale) SiO2 
 PCOD9131190
Probable space group: P M
;
_chemical_formula_sum "Si O2"
_cell_formula_units_Z 16
_cell_length_a 9.000000
_cell_length_b 9.000000
_cell_length_c 21.000000
_cell_angle_alpha 90.000000
_cell_angle_beta 150.000000
_cell_angle_gamma 90.000000
_cell_volume 850.500000
_symmetry_space_group_name_H-M "P M"
_symmetry_group_IT_number 6
_symmetry_cell_setting 'monoclinic'
loop_
_space_group_symop_operation_xyz
x,y,z
x,-y,z
loop_
_atom_site_type_symbol
_atom_site_label
_atom_site_fract_x
_atom_site_fract_y
_atom_site_fract_z
Si Si1 0.602730 0.671094 0.248610
Si Si2 0.665109 0.819429 0.511260
Si Si3 0.230194 0.821702 0.466750
Si Si4 0.188669 0.827252 0.784317
Si Si5 0.690030 0.178394 0.054657
Si Si6 0.320708 0.322475 0.273504
Si Si7 0.749356 0.828016 0.744857
Si Si8 0.257297 0.669102 0.991552
O O1 0.688914 0.500000 0.293072
O O2 0.426371 0.728866 0.243710
O O3 0.903362 0.757367 0.345286
O O4 0.376354 0.672305 0.106543
O O5 0.419806 0.783109 0.474321
O O6 0.566622 0.737587 0.412306
O O7 0.987931 0.764968 0.653992
O O8 0.668181 0.000000 0.506197
O O9 0.431000 0.774376 0.601739
O O10 0.218430 0.000000 0.464557
O O11 0.965637 0.825111 0.762630
O O12 0.240561 0.000000 0.788577
O O13 0.502058 0.765752 0.923456
O O14 0.009102 0.250316 0.176365
O O15 0.710663 0.000000 0.061278
O O16 0.485110 0.228609 0.036982
O O17 0.293894 0.500000 0.265512
O O18 0.925844 0.730424 0.860548
O O19 0.728951 0.000000 0.757409
O O20 0.272768 0.500000 0.972607
#
# Coordination Sequence:
#
# PCOD9131190 Si02
#       8
#     2   2   2   2   2   2   2   2
#     4  10  23  38  49  67 103 142 174 208 249 295
#     4   9  17  33  56  80 102 128 162 205 253 302
#     4   9  18  33  56  81 103 128 165 209 254 301
#     4   7  13  28  51  76 102 125 153 198 251 299
#     4  10  19  34  56  80 102 129 165 209 256 302
#     4  11  23  37  49  69 103 140 174 210 248 295
#     4   8  15  30  51  78 106 129 158 205 254 298
#     4  10  19  33  54  79 103 133 169 206 249 300
#
# _framework density 18.812463000000001
#
# number of rings (size 3 to 8) (size 9 to 14) (size 15 to 20)
#    0.000    2.750    0.000    4.125    0.000    5.000 
#    0.000    6.875    0.000    6.000    0.000    0.000 
#    0.000    0.000    0.000    0.000    0.000    0.000 
#
# Total GULP energy -89097.807034 kJ/mol
# GULP energy per Si atom -5568.612940 kJ/mol
# Density = 1.876965 g / cm^3
# Si number density = 18.812463 Si / 1000 Ang^3
#
#
#
# Elastic Constant Matrix: (Units=GPa)
#
#
# Indices 1 2 3 4 5 6 
#
# 1 12.2494 8.0771 -1.4514 0.0000 -20.1400 0.0000
# 2 8.0771 28.8307 17.5868 0.0000 -12.0508 0.0000
# 3 -1.4514 17.5868 64.1862 0.0000 -36.5159 0.0000
# 4 0.0000 0.0000 0.0000 -57.6020 0.0000 -68.3568
# 5 -20.1400 -12.0508 -36.5159 0.0000 -7.0525 0.0000
# 6 0.0000 0.0000 0.0000 -68.3568 0.0000 -34.0748
#
#
#
# Elastic Compliance Matrix: (Units=1/GPa)
#
#
# Indices 1 2 3 4 5 6 
#
# 1 0.041909 -0.017372 -0.011530 0.000000 -0.030299 0.000000
# 2 -0.017372 0.048588 -0.008291 0.000000 0.009517 0.000000
# 3 -0.011530 -0.008291 0.011248 0.000000 -0.011148 0.000000
# 4 0.000000 0.000000 0.000000 0.012574 0.000000 -0.025225
# 5 -0.030299 0.009517 -0.011148 0.000000 -0.013808 0.000000
# 6 0.000000 0.000000 0.000000 -0.025225 0.000000 0.021256
#
#
# Mechanical properties :
#
#
# Convention : Reuss Voigt Hill
#
# Bulk Modulus (GPa) = 36.55124 17.07680 26.81402
# Shear Modulus (GPa) = 24.35764 -14.34227 5.00768
#
# Velocity S-wave (km/s) = 3.60218 -2.76412 1.63330
# Velocity P-wave (km/s) = 6.06403 1.04406 4.22388
#
# Compressibility (1/GPa) = 0.02735885
#
# Stress axis : x y z
#
# Youngs Moduli (GPa) = 23.86112 20.58124 88.90163
#
# Poissons Ratio (x) = 0.35755 1.02500
# Poissons Ratio (y) = 0.41453 0.73711
# Poissons Ratio (z) = 0.27511 0.17064
#
# Static dielectric constant tensor:
#      x y z
#    x 1.647970 0.000000 -0.049510 
#    y 0.000000 1.618540 0.000000 
#    z -0.049510 0.000000 1.694660 
# 
# From -- ./inp_files/4287.got.cif
#   From: 2010.05.17/outbox.ucp.g08.bks.cvg/sg6_3_cif.got.tgz:4287.got - 2010.06.11 12:59:37.
