data_PCOD9131265
_publ_section_title
;
Structure prediction by ZEFSAII (Michael W. Deem and Ramdas Pophale) SiO2 
 PCOD9131265
Probable space group: P C
;
_chemical_formula_sum "Si O2"
_cell_formula_units_Z 14
_cell_length_a 10.153695
_cell_length_b 16.196846
_cell_length_c 5.566811
_cell_angle_alpha 90.000000
_cell_angle_beta 41.238389
_cell_angle_gamma 90.000000
_cell_volume 603.495340
_symmetry_space_group_name_H-M "P C"
_symmetry_group_IT_number 7
_symmetry_cell_setting 'monoclinic'
loop_
_space_group_symop_operation_xyz
x,y,z
x,-y,1/2+z
loop_
_atom_site_type_symbol
_atom_site_label
_atom_site_fract_x
_atom_site_fract_y
_atom_site_fract_z
Si Si1 0.114660 0.519096 0.714250
Si Si2 0.265309 0.700601 0.438477
Si Si3 0.927985 0.222367 0.081377
Si Si4 0.556960 0.543244 0.593884
Si Si5 0.645568 0.282693 0.097824
Si Si6 0.521723 0.187035 0.869725
Si Si7 0.772828 0.049946 0.341295
O O1 0.009807 0.506513 0.602944
O O2 0.185590 0.613387 0.636351
O O3 0.313231 0.461213 0.431266
O O4 0.479805 0.689655 0.019377
O O5 0.321102 0.767808 0.564664
O O6 0.112152 0.735446 0.453860
O O7 0.856811 0.258597 0.923986
O O8 0.936770 0.122793 0.079234
O O9 0.727138 0.234937 0.515239
O O10 0.608865 0.491606 0.285651
O O11 0.645407 0.634490 0.441620
O O12 0.549375 0.199047 0.115771
O O13 0.565212 0.101634 0.672602
O O14 0.787520 0.997691 0.076044
#
# Coordination Sequence:
#
# PCOD9131265 Si02
#       7
#     2   2   2   2   2   2   2
#     4  10  19  34  56  85 123 169 209 260 319 351
#     4  11  21  39  63  92 126 165 218 265 304 384
#     4   9  24  39  62  95 122 166 210 255 325 379
#     4  10  19  32  58  86 120 172 216 258 317 357
#     4  11  20  39  64  89 128 168 219 262 310 380
#     4   9  22  38  66  92 120 165 212 249 324 380
#     4  10  21  43  69  89 131 167 198 263 327 389
#
# _framework density 23.198191999999999
#
# number of rings (size 3 to 8) (size 9 to 14) (size 15 to 20)
#    0.857    1.143    2.857    2.571    2.000    1.143 
#    0.000    2.857    0.000    0.000    0.000    0.000 
#    0.000    0.000    0.000    0.000    0.000    0.000 
#
# Total GULP energy -77990.785754 kJ/mol
# GULP energy per Si atom -5570.770411 kJ/mol
# Density = 2.314539 g / cm^3
# Si number density = 23.198192 Si / 1000 Ang^3
#
#
#
# Elastic Constant Matrix: (Units=GPa)
#
#
# Indices 1 2 3 4 5 6 
#
# 1 144.5868 58.7392 28.8203 0.0000 16.4747 0.0000
# 2 58.7392 113.2487 10.8537 0.0000 15.6253 0.0000
# 3 28.8203 10.8537 55.2437 0.0000 1.6858 0.0000
# 4 0.0000 0.0000 0.0000 9.4834 0.0000 16.9843
# 5 16.4747 15.6253 1.6858 0.0000 36.9415 0.0000
# 6 0.0000 0.0000 0.0000 16.9843 0.0000 35.7266
#
#
#
# Elastic Compliance Matrix: (Units=1/GPa)
#
#
# Indices 1 2 3 4 5 6 
#
# 1 0.009783 -0.004352 -0.004177 0.000000 -0.002331 0.000000
# 2 -0.004352 0.011480 0.000104 0.000000 -0.002920 0.000000
# 3 -0.004177 0.000104 0.020233 0.000000 0.000896 0.000000
# 4 0.000000 0.000000 0.000000 0.709667 0.000000 -0.337373
# 5 -0.002331 -0.002920 0.000896 0.000000 0.029304 0.000000
# 6 0.000000 0.000000 0.000000 -0.337373 0.000000 0.188376
#
#
# Mechanical properties :
#
#
# Convention : Reuss Voigt Hill
#
# Bulk Modulus (GPa) = 40.57566 56.65616 48.61591
# Shear Modulus (GPa) = 5.03065 30.74135 17.88600
#
# Velocity S-wave (km/s) = 1.47420 3.64423 2.77972
# Velocity P-wave (km/s) = 4.51957 6.49483 5.59506
#
# Compressibility (1/GPa) = 0.02464532
#
# Stress axis : x y z
#
# Youngs Moduli (GPa) = 102.22266 87.10602 49.42388
#
# Poissons Ratio (x) = 0.37908 0.20646
# Poissons Ratio (y) = 0.44487 -0.00514
# Poissons Ratio (z) = 0.42702 -0.00906
#
# Static dielectric constant tensor:
#      x y z
#    x 1.999370 0.000000 0.145270 
#    y 0.000000 1.974710 0.000000 
#    z 0.145270 0.000000 1.980110 
# 
# From -- ./inp_files/905.got.cif
#   From: 2010.05.17/outbox.cif.g08.bks.cpg/sg7_cif.got.tgz:905.got - 2010.06.03 19:44:50.
