data_PCOD9131802
_publ_section_title
;
Structure prediction by ZEFSAII (Michael W. Deem and Ramdas Pophale) SiO2 
 PCOD9131802
Probable space group: C M
;
_chemical_formula_sum "Si O2"
_cell_formula_units_Z 20
_cell_length_a 8.758790
_cell_length_b 18.040793
_cell_length_c 8.092076
_cell_angle_alpha 90.000000
_cell_angle_beta 43.616472
_cell_angle_gamma 90.000000
_cell_volume 882.064462
_symmetry_space_group_name_H-M "C M"
_symmetry_group_IT_number 8
_symmetry_cell_setting 'monoclinic'
loop_
_space_group_symop_operation_xyz
x,y,z
x,-y,z
1/2+x,1/2+y,z
1/2+x,1/2-y,z
loop_
_atom_site_type_symbol
_atom_site_label
_atom_site_fract_x
_atom_site_fract_y
_atom_site_fract_z
Si Si1 0.745260 0.417589 0.456530
Si Si2 0.563944 0.583513 0.972512
Si Si3 0.123486 0.334973 0.299256
Si Si4 0.890570 0.800761 0.625309
Si Si5 0.953951 0.335998 0.787706
O O1 0.748947 0.500000 0.385344
O O2 0.679184 0.420574 0.702479
O O3 0.561402 0.366221 0.519732
O O4 0.986980 0.380878 0.271274
O O5 0.480055 0.500000 0.074944
O O6 0.742062 0.611443 0.968020
O O7 0.379860 0.646475 0.089576
O O8 0.073774 0.363037 0.525558
O O9 0.007528 0.254047 0.398431
O O10 0.647817 0.827780 0.766927
O O11 0.875108 0.746621 0.796516
#
# Coordination Sequence:
#
# PCOD9131802 Si02
#       5
#     4   4   4   4   4
#     4  10  20  37  60  85 117 149 189 238 285 338
#     4  10  20  36  60  86 112 154 191 232 288 336
#     4   9  18  37  56  83 114 148 190 229 276 349
#     4  10  18  40  55  84 114 147 195 227 289 334
#     4   9  19  36  56  82 113 150 189 234 277 341
#
# _framework density 22.67408
#
# number of rings (size 3 to 8) (size 9 to 14) (size 15 to 20)
#    1.200    1.200    2.000    0.600    0.000    1.600 
#   14.400    0.000    0.000    0.000    0.000    0.000 
#    0.000    0.000    0.000    0.000    0.000    0.000 
#
# Total GULP energy -55734.882533 kJ/mol
# GULP energy per Si atom -5573.488253 kJ/mol
# Density = 2.262247 g / cm^3
# Si number density = 22.674080 Si / 1000 Ang^3
#
#
#
# Elastic Constant Matrix: (Units=GPa)
#
#
# Indices 1 2 3 4 5 6 
#
# 1 117.3813 43.2213 23.2564 0.0000 -47.1725 0.0000
# 2 43.2213 116.7468 12.7002 0.0000 -16.6964 0.0000
# 3 23.2564 12.7002 33.0742 0.0000 -7.9994 0.0000
# 4 0.0000 0.0000 0.0000 11.0299 0.0000 -7.7744
# 5 -47.1725 -16.6964 -7.9994 0.0000 32.6261 0.0000
# 6 0.0000 0.0000 0.0000 -7.7744 0.0000 35.0408
#
#
#
# Elastic Compliance Matrix: (Units=1/GPa)
#
#
# Indices 1 2 3 4 5 6 
#
# 1 0.023579 -0.003531 -0.007883 0.000000 0.030352 0.000000
# 2 -0.003531 0.009979 -0.001434 0.000000 -0.000350 0.000000
# 3 -0.007883 -0.001434 0.035499 0.000000 -0.003427 0.000000
# 4 0.000000 0.000000 0.000000 0.107469 0.000000 0.023844
# 5 0.030352 -0.000350 -0.003427 0.000000 0.073515 0.000000
# 6 0.000000 0.000000 0.000000 0.023844 0.000000 0.033828
#
#
# Mechanical properties :
#
#
# Convention : Reuss Voigt Hill
#
# Bulk Modulus (GPa) = 23.06159 47.28426 35.17292
# Shear Modulus (GPa) = 15.43128 28.27431 21.85280
#
# Velocity S-wave (km/s) = 2.61160 3.53510 3.10785
# Velocity P-wave (km/s) = 4.39169 6.12876 5.33145
#
# Compressibility (1/GPa) = 0.04336215
#
# Stress axis : x y z
#
# Youngs Moduli (GPa) = 42.41114 100.21418 28.16944
#
# Poissons Ratio (x) = 0.35385 0.22205
# Poissons Ratio (y) = 0.14975 0.04038
# Poissons Ratio (z) = 0.33432 0.14367
#
# Static dielectric constant tensor:
#      x y z
#    x 1.820030 0.000000 0.044420 
#    y 0.000000 1.853170 0.000000 
#    z 0.044420 0.000000 1.929940 
# 
# From -- ./inp_files/1163.got.cif
#   From: 2010.05.17/outbox.cif.g08.bks.cpg/sg8_1_cif.got.tgz:1163.got - 2010.06.03 19:46:02.
