data_PCOD9131277
_publ_section_title
;
Structure prediction by ZEFSAII (Michael W. Deem and Ramdas Pophale) SiO2 
 PCOD9131277
Probable space group: P C
;
_chemical_formula_sum "Si O2"
_cell_formula_units_Z 14
_cell_length_a 7.678130
_cell_length_b 15.410552
_cell_length_c 5.581162
_cell_angle_alpha 90.000000
_cell_angle_beta 121.020445
_cell_angle_gamma 90.000000
_cell_volume 565.940438
_symmetry_space_group_name_H-M "P C"
_symmetry_group_IT_number 7
_symmetry_cell_setting 'monoclinic'
loop_
_space_group_symop_operation_xyz
x,y,z
x,-y,1/2+z
loop_
_atom_site_type_symbol
_atom_site_label
_atom_site_fract_x
_atom_site_fract_y
_atom_site_fract_z
Si Si1 0.185320 0.820144 0.179080
Si Si2 0.863327 0.051702 0.638961
Si Si3 0.832623 0.732015 0.650229
Si Si4 0.289827 0.511646 0.604331
Si Si5 0.737597 0.548934 0.417878
Si Si6 0.539990 0.843870 0.138287
Si Si7 0.460770 0.296558 0.213903
O O1 0.348404 0.878746 0.149875
O O2 0.318649 0.755152 0.430049
O O3 0.036247 0.875276 0.240831
O O4 0.044181 0.765862 0.898665
O O5 0.641510 0.096070 0.510013
O O6 0.881548 0.001814 0.398947
O O7 0.832734 0.645314 0.489865
O O8 0.720501 0.812208 0.440462
O O9 0.687800 0.705331 0.768917
O O10 0.177196 0.502577 0.273225
O O11 0.380610 0.607424 0.679120
O O12 0.487387 0.448125 0.744710
O O13 0.781658 0.499700 0.200680
O O14 0.463371 0.756181 0.960050
#
# Coordination Sequence:
#
# PCOD9131277 Si02
#       7
#     2   2   2   2   2   2   2
#     4  11  28  47  75 116 150 196 255 310 379 466
#     4  12  29  53  81 113 153 195 243 315 392 468
#     4  11  22  44  72 103 153 204 254 314 373 447
#     4  10  19  35  63  99 142 198 250 309 373 411
#     4  10  19  34  64  99 141 202 254 308 374 413
#     4  11  26  47  79 110 146 200 254 301 385 464
#     4  11  23  42  74 104 149 203 252 313 372 449
#
# _framework density 24.737586
#
# number of rings (size 3 to 8) (size 9 to 14) (size 15 to 20)
#    0.000    1.143    4.286    2.571    8.000    1.143 
#    0.000    1.429    0.000    0.000    0.000    0.000 
#    0.000    0.000    0.000    0.000    0.000    0.000 
#
# Total GULP energy -78421.929960 kJ/mol
# GULP energy per Si atom -5601.566426 kJ/mol
# Density = 2.468128 g / cm^3
# Si number density = 24.737586 Si / 1000 Ang^3
#
#
#
# Elastic Constant Matrix: (Units=GPa)
#
#
# Indices 1 2 3 4 5 6 
#
# 1 156.1381 35.0527 51.0806 0.0000 -8.8166 0.0000
# 2 35.0527 45.2161 32.6994 0.0000 8.3548 0.0000
# 3 51.0806 32.6994 137.6875 0.0000 -21.5052 0.0000
# 4 0.0000 0.0000 0.0000 30.2269 0.0000 -16.4642
# 5 -8.8166 8.3548 -21.5052 0.0000 37.9991 0.0000
# 6 0.0000 0.0000 0.0000 -16.4642 0.0000 9.1659
#
#
#
# Elastic Compliance Matrix: (Units=1/GPa)
#
#
# Indices 1 2 3 4 5 6 
#
# 1 0.008306 -0.005993 -0.001263 0.000000 0.002530 0.000000
# 2 -0.005993 0.035363 -0.008344 0.000000 -0.013888 0.000000
# 3 -0.001263 -0.008344 0.010919 0.000000 0.007721 0.000000
# 4 0.000000 0.000000 0.000000 1.530852 0.000000 2.749782
# 5 0.002530 -0.013888 0.007721 0.000000 0.034327 0.000000
# 6 0.000000 0.000000 0.000000 2.749782 0.000000 5.048377
#
#
# Mechanical properties :
#
#
# Convention : Reuss Voigt Hill
#
# Bulk Modulus (GPa) = 42.75846 64.07856 53.41851
# Shear Modulus (GPa) = 0.74547 30.15896 15.45222
#
# Velocity S-wave (km/s) = 0.54955 3.49543 2.50200
# Velocity P-wave (km/s) = 4.21011 6.50002 5.47610
#
# Compressibility (1/GPa) = 0.02338719
#
# Stress axis : x y z
#
# Youngs Moduli (GPa) = 120.39326 28.27854 91.58441
#
# Poissons Ratio (x) = 0.16948 0.11567
# Poissons Ratio (y) = 0.72155 0.76417
# Poissons Ratio (z) = 0.15205 0.23595
#
# Static dielectric constant tensor:
#      x y z
#    x 1.964100 0.000000 -0.030350 
#    y 0.000000 1.958590 0.000000 
#    z -0.030350 0.000000 1.979910 
# 
# From -- ./inp_files/777.got.cif
#   From: 2010.05.17/outbox.cif.g08.bks.cpg/sg7_cif.got.tgz:777.got - 2010.06.03 19:44:50.
