data_PCOD9131747
_publ_section_title
;
Structure prediction by ZEFSAII (Michael W. Deem and Ramdas Pophale) SiO2 
 PCOD9131747
Probable space group: C M
;
_chemical_formula_sum "Si O2"
_cell_formula_units_Z 32
_cell_length_a 24.402695
_cell_length_b 7.783471
_cell_length_c 11.110797
_cell_angle_alpha 90.000000
_cell_angle_beta 37.789297
_cell_angle_gamma 90.000000
_cell_volume 1293.142326
_symmetry_space_group_name_H-M "C M"
_symmetry_group_IT_number 8
_symmetry_cell_setting 'monoclinic'
loop_
_space_group_symop_operation_xyz
x,y,z
x,-y,z
1/2+x,1/2+y,z
1/2+x,1/2-y,z
loop_
_atom_site_type_symbol
_atom_site_label
_atom_site_fract_x
_atom_site_fract_y
_atom_site_fract_z
Si Si1 0.354060 0.204650 0.218830
Si Si2 0.864092 0.793001 0.939315
Si Si3 0.079646 0.296948 0.306415
Si Si4 0.179992 0.202733 0.627620
Si Si5 0.759360 0.210736 0.882036
Si Si6 0.069933 0.207878 0.586966
Si Si7 0.524961 0.198005 0.036786
Si Si8 0.916303 0.802751 0.454208
O O1 0.280050 0.273073 0.440210
O O2 0.452415 0.279916 0.071224
O O3 0.364590 0.000000 0.218304
O O4 0.322829 0.235894 0.137744
O O5 0.811209 0.735081 0.913556
O O6 0.966880 0.731629 0.763627
O O7 0.864389 0.000000 0.936603
O O8 0.066246 0.500000 0.312535
O O9 0.110526 0.266237 0.389361
O O10 0.985641 0.204715 0.445814
O O11 0.156928 0.237158 0.080220
O O12 0.121942 0.270244 0.614985
O O13 0.188936 0.000000 0.592791
O O14 0.122227 0.224583 0.847628
O O15 0.821324 0.269279 0.663646
O O16 0.759666 0.000000 0.876807
O O17 0.069795 0.000000 0.588957
O O18 0.472363 0.211142 0.253024
O O19 0.540824 0.000000 0.982374
O O20 0.904919 0.000000 0.437834
#
# Coordination Sequence:
#
# PCOD9131747 Si02
#       8
#     4   4   4   4   4   4   4   4
#     4  10  22  38  58  87 122 151 189 241 290 337
#     4  10  18  34  60  87 118 155 194 230 278 347
#     4  11  22  37  60  90 120 150 191 242 291 338
#     4  10  21  39  61  87 119 158 195 232 284 348
#     4   9  20  38  59  85 118 153 189 232 284 346
#     4  10  19  34  59  88 121 157 194 230 279 349
#     4  11  24  41  59  85 117 149 194 248 293 338
#     4  11  23  43  64  81 111 155 198 239 289 349
#
# _framework density 24.745923000000001
#
# number of rings (size 3 to 8) (size 9 to 14) (size 15 to 20)
#    0.000    1.750    2.500    1.875    0.000    3.000 
#    0.000    5.625    0.000    0.000    0.000    0.000 
#    0.000    0.000    0.000    0.000    0.000    0.000 
#
# Total GULP energy -89456.791084 kJ/mol
# GULP energy per Si atom -5591.049443 kJ/mol
# Density = 2.468960 g / cm^3
# Si number density = 24.745923 Si / 1000 Ang^3
#
#
#
# Elastic Constant Matrix: (Units=GPa)
#
#
# Indices 1 2 3 4 5 6 
#
# 1 34.7461 -1.9021 9.3945 0.0000 7.2345 0.0000
# 2 -1.9021 42.1870 -1.1848 0.0002 -9.6446 0.0000
# 3 9.3945 -1.1848 176.6613 0.0000 -8.4231 0.0000
# 4 0.0000 0.0002 0.0000 21.8778 0.0000 9.0949
# 5 7.2345 -9.6446 -8.4231 0.0000 42.5422 0.0000
# 6 0.0000 0.0000 0.0000 9.0949 0.0000 17.5569
#
#
#
# Elastic Compliance Matrix: (Units=1/GPa)
#
#
# Indices 1 2 3 4 5 6 
#
# 1 0.030445 0.000054 -0.001883 0.000000 -0.005538 0.000000
# 2 0.000054 0.025034 0.000439 0.000000 0.005753 0.000000
# 3 -0.001883 0.000439 0.005839 0.000000 0.001576 0.000000
# 4 0.000000 0.000000 0.000000 0.058253 0.000000 -0.030177
# 5 -0.005538 0.005753 0.001576 0.000000 0.026064 0.000000
# 6 0.000000 0.000000 0.000000 -0.030177 0.000000 0.072590
#
#
# Mechanical properties :
#
#
# Convention : Reuss Voigt Hill
#
# Bulk Modulus (GPa) = 17.08267 29.57883 23.33075
# Shear Modulus (GPa) = 20.78851 32.88116 26.83483
#
# Velocity S-wave (km/s) = 2.90155 3.64916 3.29662
# Velocity P-wave (km/s) = 4.25953 5.45290 4.89273
#
# Compressibility (1/GPa) = 0.05853887
#
# Stress axis : x y z
#
# Youngs Moduli (GPa) = 32.84585 39.94568 171.26959
#
# Poissons Ratio (x) = -0.00215 0.32245
# Poissons Ratio (y) = -0.00177 -0.07525
# Poissons Ratio (z) = 0.06184 -0.01755
#
# Static dielectric constant tensor:
#      x y z
#    x 2.014480 0.000000 0.011770 
#    y 0.000000 1.884340 0.000000 
#    z 0.011770 0.000000 1.997780 
# 
# From -- ./inp_files/21358.got.cif
#   From: 2010.05.17/outbox.cif.g08.bks.cpg/sg8_11_cif.got.tgz:21358.got - 2010.06.03 19:46:02.
