data_PCOD9131328
_publ_section_title
;
Structure prediction by ZEFSAII (Michael W. Deem and Ramdas Pophale) SiO2 
 PCOD9131328
Probable space group: P C
;
_chemical_formula_sum "Si O2"
_cell_formula_units_Z 12
_cell_length_a 9.268759
_cell_length_b 13.453889
_cell_length_c 5.986839
_cell_angle_alpha 90.000000
_cell_angle_beta 143.769942
_cell_angle_gamma 90.000000
_cell_volume 441.240884
_symmetry_space_group_name_H-M "P C"
_symmetry_group_IT_number 7
_symmetry_cell_setting 'monoclinic'
loop_
_space_group_symop_operation_xyz
x,y,z
x,-y,1/2+z
loop_
_atom_site_type_symbol
_atom_site_label
_atom_site_fract_x
_atom_site_fract_y
_atom_site_fract_z
Si Si1 0.508540 0.770255 0.019900
Si Si2 0.504613 0.015827 0.403910
Si Si3 0.688080 0.343740 0.366141
Si Si4 0.207798 0.278627 0.523865
Si Si5 0.084661 0.485053 0.378052
Si Si6 0.874366 0.159301 0.359399
O O1 0.521247 0.867158 0.883549
O O2 0.257454 0.755774 0.836993
O O3 0.705870 0.800410 0.449198
O O4 0.568108 0.672933 0.956851
O O5 0.394548 0.982970 0.023304
O O6 0.754969 0.949501 0.749605
O O7 0.856592 0.439793 0.572813
O O8 0.842104 0.243330 0.506760
O O9 0.456550 0.333452 0.912930
O O10 0.019011 0.368469 0.311262
O O11 0.139542 0.182762 0.585814
O O12 0.201118 0.507641 0.770936
#
# Coordination Sequence:
#
# PCOD9131328 Si02
#       6
#     2   2   2   2   2   2
#     4  10  23  44  74 105 151 199 251 318 375 449
#     4  10  20  41  75 104 146 200 243 299 384 443
#     4  11  24  46  74 103 154 196 252 316 381 448
#     4  11  26  46  73 113 150 198 262 315 375 457
#     4  12  28  49  73 108 153 201 253 310 385 449
#     4  10  21  46  69 105 150 198 245 314 380 446
#
# _framework density 27.19603
#
# number of rings (size 3 to 8) (size 9 to 14) (size 15 to 20)
#    0.000    1.333    3.333    1.000    4.667    2.667 
#    0.000   10.000    0.000    0.000    0.000    0.000 
#    0.000    0.000    0.000    0.000    0.000    0.000 
#
# Total GULP energy -66883.490452 kJ/mol
# GULP energy per Si atom -5573.624204 kJ/mol
# Density = 2.713413 g / cm^3
# Si number density = 27.196030 Si / 1000 Ang^3
#
#
#
# Elastic Constant Matrix: (Units=GPa)
#
#
# Indices 1 2 3 4 5 6 
#
# 1 144.7748 53.1876 26.6756 0.0000 -27.0271 0.0000
# 2 53.1876 146.6326 32.4499 0.0000 3.9974 0.0000
# 3 26.6756 32.4499 124.5453 0.0000 -28.9567 0.0000
# 4 0.0000 0.0000 0.0000 32.6236 0.0000 -3.2130
# 5 -27.0271 3.9974 -28.9567 0.0000 21.7002 0.0000
# 6 0.0000 0.0000 0.0000 -3.2130 0.0000 57.3914
#
#
#
# Elastic Compliance Matrix: (Units=1/GPa)
#
#
# Indices 1 2 3 4 5 6 
#
# 1 0.012489 -0.006018 0.004012 0.000000 0.022018 0.000000
# 2 -0.006018 0.010635 -0.005336 0.000000 -0.016575 0.000000
# 3 0.004012 -0.005336 0.014426 0.000000 0.025230 0.000000
# 4 0.000000 0.000000 0.000000 0.030823 0.000000 0.001726
# 5 0.022018 -0.016575 0.025230 0.000000 0.110225 0.000000
# 6 0.000000 0.000000 0.000000 0.001726 0.000000 0.017521
#
#
# Mechanical properties :
#
#
# Convention : Reuss Voigt Hill
#
# Bulk Modulus (GPa) = 43.73093 71.17545 57.45319
# Shear Modulus (GPa) = 22.89118 42.58568 32.73843
#
# Velocity S-wave (km/s) = 2.90437 3.96141 3.47334
# Velocity P-wave (km/s) = 5.23087 6.86672 6.10384
#
# Compressibility (1/GPa) = 0.02286711
#
# Stress axis : x y z
#
# Youngs Moduli (GPa) = 80.06808 94.02563 69.31946
#
# Poissons Ratio (x) = 0.56588 -0.27812
# Poissons Ratio (y) = 0.48188 0.36986
# Poissons Ratio (z) = -0.32124 0.50168
#
# Static dielectric constant tensor:
#      x y z
#    x 2.359380 0.000000 0.103640 
#    y 0.000000 2.105380 0.000000 
#    z 0.103640 0.000000 2.203900 
# 
# From -- ./inp_files/165.got.cif
#   From: 2010.05.17/outbox.cif.g08.bks.cpg/sg7_cif.got.tgz:165.got - 2010.06.03 19:44:50.
