data_PCOD9131854
_publ_section_title
;
Structure prediction by ZEFSAII (Michael W. Deem and Ramdas Pophale) SiO2 
 PCOD9131854
Probable space group: C M
;
_chemical_formula_sum "Si O2"
_cell_formula_units_Z 32
_cell_length_a 23.187762
_cell_length_b 7.402959
_cell_length_c 11.704105
_cell_angle_alpha 90.000000
_cell_angle_beta 48.311849
_cell_angle_gamma 90.000000
_cell_volume 1500.350017
_symmetry_space_group_name_H-M "C M"
_symmetry_group_IT_number 8
_symmetry_cell_setting 'monoclinic'
loop_
_space_group_symop_operation_xyz
x,y,z
x,-y,z
1/2+x,1/2+y,z
1/2+x,1/2-y,z
loop_
_atom_site_type_symbol
_atom_site_label
_atom_site_fract_x
_atom_site_fract_y
_atom_site_fract_z
Si Si1 0.360110 0.278188 0.165400
Si Si2 0.170075 0.717833 0.788732
Si Si3 0.052911 0.782191 0.548062
Si Si4 0.982893 0.220225 0.404946
Si Si5 0.204634 0.711175 0.489595
Si Si6 0.391144 0.279983 0.867959
Si Si7 0.506141 0.286385 0.119342
Si Si8 0.320065 0.719804 0.726374
O O1 0.359866 0.500000 0.163671
O O2 0.282165 0.215454 0.329934
O O3 0.435151 0.217545 0.136982
O O4 0.366052 0.219992 0.025984
O O5 0.173510 0.500000 0.782053
O O6 0.182126 0.785735 0.643545
O O7 0.240590 0.781745 0.775265
O O8 0.087186 0.763365 0.949535
O O9 0.132392 0.724632 0.499905
O O10 0.036963 0.721552 0.439132
O O11 0.978486 0.724557 0.720582
O O12 0.052636 0.000000 0.548096
O O13 0.895143 0.271754 0.553085
O O14 0.006056 0.284872 0.249063
O O15 0.984919 0.000000 0.402972
O O16 0.220971 0.500000 0.487401
O O17 0.390996 0.500000 0.868234
O O18 0.336818 0.222884 0.834311
O O19 0.492235 0.500000 0.148583
O O20 0.318911 0.500000 0.728204
#
# Coordination Sequence:
#
# PCOD9131854 Si02
#       8
#     4   4   4   4   4   4   4   4
#     4   9  17  29  46  68  92 121 159 196 227 269
#     4  10  20  32  47  70  98 125 155 194 238 279
#     4   9  17  31  51  73  96 122 154 192 234 279
#     4   8  15  29  50  73  94 121 159 195 226 271
#     4  10  20  32  47  69  97 126 157 194 234 277
#     4   8  14  26  47  72  92 116 157 198 225 264
#     4  10  19  32  51  71  93 124 160 196 232 273
#     4   8  14  27  47  68  92 123 155 189 230 274
#
# _framework density 21.328357
#
# number of rings (size 3 to 8) (size 9 to 14) (size 15 to 20)
#    0.000    3.000    0.000    3.000    0.000    5.500 
#    0.000    2.500    0.000    6.000    0.000    0.000 
#    0.000    0.000    0.000    0.000    0.000    0.000 
#
# Total GULP energy -89333.567585 kJ/mol
# GULP energy per Si atom -5583.347974 kJ/mol
# Density = 2.127981 g / cm^3
# Si number density = 21.328357 Si / 1000 Ang^3
#
#
#
# Elastic Constant Matrix: (Units=GPa)
#
#
# Indices 1 2 3 4 5 6 
#
# 1 192.2777 -7.9430 139.3304 0.0000 -0.3072 0.0000
# 2 -7.9430 66.6976 -1.4821 0.0001 5.8427 0.0000
# 3 139.3304 -1.4821 209.8629 0.0000 24.3769 0.0000
# 4 0.0000 0.0001 0.0000 -15.2886 0.0000 25.7546
# 5 -0.3072 5.8427 24.3769 0.0000 35.0293 0.0000
# 6 0.0000 0.0000 0.0000 25.7546 0.0000 -32.5939
#
#
#
# Elastic Compliance Matrix: (Units=1/GPa)
#
#
# Indices 1 2 3 4 5 6 
#
# 1 0.010977 0.000649 -0.007922 0.000000 0.005501 0.000000
# 2 0.000649 0.015291 -0.000030 0.000000 -0.002524 0.000000
# 3 -0.007922 -0.000030 0.010914 0.000000 -0.007660 0.000000
# 4 0.000000 0.000000 0.000000 0.197556 0.000000 0.156102
# 5 0.005501 -0.002524 -0.007660 0.000000 0.034347 0.000000
# 6 0.000000 0.000000 0.000000 0.156102 0.000000 0.092666
#
#
# Mechanical properties :
#
#
# Convention : Reuss Voigt Hill
#
# Bulk Modulus (GPa) = 44.29399 80.96098 62.62749
# Shear Modulus (GPa) = 13.02481 20.02487 16.52484
#
# Velocity S-wave (km/s) = 2.47388 3.06745 2.78651
# Velocity P-wave (km/s) = 5.38264 7.11248 6.30715
#
# Compressibility (1/GPa) = 0.02257643
#
# Stress axis : x y z
#
# Youngs Moduli (GPa) = 91.09859 65.39874 91.62391
#
# Poissons Ratio (x) = -0.04247 0.72587
# Poissons Ratio (y) = -0.05915 0.00274
# Poissons Ratio (z) = 0.72170 0.00196
#
# Static dielectric constant tensor:
#      x y z
#    x 1.735730 0.000000 0.021260 
#    y 0.000000 1.860570 0.000000 
#    z 0.021260 0.000000 1.728820 
# 
# From -- ./inp_files/21857.got.cif
#   From: 2010.05.17/outbox.cif.g08.bks.cpg/sg8_11_cif.got.tgz:21857.got - 2010.06.03 19:46:02.
