data_PCOD9131807
_publ_section_title
;
Structure prediction by ZEFSAII (Michael W. Deem and Ramdas Pophale) SiO2 
 PCOD9131807
Probable space group: C M
;
_chemical_formula_sum "Si O2"
_cell_formula_units_Z 20
_cell_length_a 9.551389
_cell_length_b 16.073687
_cell_length_c 8.899949
_cell_angle_alpha 90.000000
_cell_angle_beta 47.723412
_cell_angle_gamma 90.000000
_cell_volume 1010.988299
_symmetry_space_group_name_H-M "C M"
_symmetry_group_IT_number 8
_symmetry_cell_setting 'monoclinic'
loop_
_space_group_symop_operation_xyz
x,y,z
x,-y,z
1/2+x,1/2+y,z
1/2+x,1/2-y,z
loop_
_atom_site_type_symbol
_atom_site_label
_atom_site_fract_x
_atom_site_fract_y
_atom_site_fract_z
Si Si1 0.673120 0.000000 0.530360
Si Si2 0.115532 0.664713 0.022953
Si Si3 0.800903 0.500000 0.012166
Si Si4 0.217537 0.183915 0.145712
Si Si5 0.893861 0.132859 0.553591
Si Si6 0.576273 0.000000 0.253839
Si Si7 0.692155 0.500000 0.428468
O O1 0.794503 0.921402 0.496976
O O2 0.481405 0.000000 0.771455
O O3 0.655085 0.000000 0.364999
O O4 0.231724 0.652302 0.786660
O O5 0.217276 0.741760 0.029346
O O6 0.125991 0.583268 0.122794
O O7 0.900120 0.682346 0.123515
O O8 0.708172 0.592754 0.069034
O O9 0.817286 0.500000 0.183603
O O10 0.025239 0.199979 0.379025
O O11 0.052073 0.077262 0.523630
O O12 0.348378 0.000000 0.441305
#
# Coordination Sequence:
#
# PCOD9131807 Si02
#       7
#     2   4   2   4   4   2   2
#     4  11  22  37  75 101 129 182 229 269 337 398
#     4  12  25  46  69 100 138 176 226 278 337 395
#     4  10  18  47  66  91 133 184 213 274 333 393
#     4  11  25  43  72  98 135 178 226 277 329 407
#     4  10  21  44  70  91 136 183 216 272 344 390
#     4  12  23  43  68 104 136 174 229 280 322 410
#     4   9  17  41  71  92 124 184 219 271 332 393
#
# _framework density 19.782620999999999
#
# number of rings (size 3 to 8) (size 9 to 14) (size 15 to 20)
#    0.000    1.200    6.000    1.800    2.800    3.200 
#    3.600    0.000    0.000    0.000    0.000    0.000 
#    0.000    0.000    0.000    0.000    0.000    0.000 
#
# Total GULP energy -55681.295704 kJ/mol
# GULP energy per Si atom -5568.129570 kJ/mol
# Density = 1.973760 g / cm^3
# Si number density = 19.782621 Si / 1000 Ang^3
#
#
#
# Elastic Constant Matrix: (Units=GPa)
#
#
# Indices 1 2 3 4 5 6 
#
# 1 117.0575 53.5448 57.4116 0.0000 14.9939 0.0000
# 2 53.5448 101.7467 5.9086 0.0000 18.3424 0.0000
# 3 57.4116 5.9086 103.9066 0.0000 -6.9960 0.0000
# 4 0.0000 0.0000 0.0000 16.6927 0.0000 18.3772
# 5 14.9939 18.3424 -6.9960 0.0000 19.3917 0.0000
# 6 0.0000 0.0000 0.0000 18.3772 0.0000 69.9624
#
#
#
# Elastic Compliance Matrix: (Units=1/GPa)
#
#
# Indices 1 2 3 4 5 6 
#
# 1 0.018354 -0.007001 -0.010508 0.000000 -0.011361 0.000000
# 2 -0.007001 0.014740 0.002517 0.000000 -0.007622 0.000000
# 3 -0.010508 0.002517 0.016064 0.000000 0.011540 0.000000
# 4 0.000000 0.000000 0.000000 0.084278 0.000000 -0.022137
# 5 -0.011361 -0.007622 0.011540 0.000000 0.071725 0.000000
# 6 0.000000 0.000000 0.000000 -0.022137 0.000000 0.020108
#
#
# Mechanical properties :
#
#
# Convention : Reuss Voigt Hill
#
# Bulk Modulus (GPa) = 52.15304 61.82677 56.98990
# Shear Modulus (GPa) = 19.10991 34.93242 27.02117
#
# Velocity S-wave (km/s) = 3.11142 4.20672 3.69982
# Velocity P-wave (km/s) = 6.27122 7.41055 6.86456
#
# Compressibility (1/GPa) = 0.01917434
#
# Stress axis : x y z
#
# Youngs Moduli (GPa) = 54.48428 67.84125 62.25162
#
# Poissons Ratio (x) = 0.47493 0.65414
# Poissons Ratio (y) = 0.38142 -0.15667
# Poissons Ratio (z) = 0.57252 -0.17073
#
# Static dielectric constant tensor:
#      x y z
#    x 1.691130 0.000000 -0.021260 
#    y 0.000000 1.731610 0.000000 
#    z -0.021260 0.000000 1.698810 
# 
# From -- ./inp_files/8098.got.cif
#   From: 2010.05.17/outbox.cif.g08.bks.cpg/sg8_5_cif.got.tgz:8098.got - 2010.06.03 19:46:02.
