data_PCOD9131140
_publ_section_title
;
Structure prediction by ZEFSAII (Michael W. Deem and Ramdas Pophale) SiO2 
 PCOD9131140
Probable space group: P M
;
_chemical_formula_sum "Si O2"
_cell_formula_units_Z 12
_cell_length_a 9.001154
_cell_length_b 12.394476
_cell_length_c 5.222644
_cell_angle_alpha 90.000000
_cell_angle_beta 75.341590
_cell_angle_gamma 90.000000
_cell_volume 563.697458
_symmetry_space_group_name_H-M "P M"
_symmetry_group_IT_number 6
_symmetry_cell_setting 'monoclinic'
loop_
_space_group_symop_operation_xyz
x,y,z
x,-y,z
loop_
_atom_site_type_symbol
_atom_site_label
_atom_site_fract_x
_atom_site_fract_y
_atom_site_fract_z
Si Si1 0.275540 0.875310 0.558370
Si Si2 0.048379 0.711642 0.924717
Si Si3 0.981351 0.884857 0.344840
Si Si4 0.569398 0.270500 0.336449
Si Si5 0.406246 0.500000 0.448981
Si Si6 0.210672 0.500000 0.040632
Si Si7 0.774120 0.757476 0.747194
O O1 0.187739 0.789051 0.775901
O O2 0.436651 0.819978 0.422904
O O3 0.154556 0.880865 0.376431
O O4 0.290990 0.000000 0.645162
O O5 0.113616 0.605868 0.023059
O O6 0.924843 0.686473 0.756166
O O7 0.960715 0.786243 0.165083
O O8 0.861983 0.867846 0.629060
O O9 0.955537 0.000000 0.229426
O O10 0.496681 0.389926 0.351366
O O11 0.672827 0.272579 0.546663
O O12 0.663778 0.243816 0.039303
O O13 0.347568 0.500000 0.768302
O O14 0.266814 0.500000 0.307287
#
# Coordination Sequence:
#
# PCOD9131140 Si02
#       7
#     2   2   2   2   1   1   2
#     4  10  23  41  70 100 134 180 234 287 335 403
#     4  11  23  46  70 105 135 180 236 281 339 406
#     4  10  22  45  72 100 140 183 230 288 342 399
#     4  12  25  46  69 101 143 178 227 279 351 409
#     4  12  26  46  69 107 138 181 218 294 349 398
#     4  12  26  42  79  99 136 179 234 286 335 406
#     4  11  26  45  68 100 143 181 224 281 340 415
#
# _framework density 21.288015000000001
#
# number of rings (size 3 to 8) (size 9 to 14) (size 15 to 20)
#    0.000    1.000    3.333    2.500    4.667    3.333 
#    0.000    0.833    0.000    0.000    0.000    0.000 
#    0.000    0.000    0.000    0.000    0.000    0.000 
#
# Total GULP energy -66985.732156 kJ/mol
# GULP energy per Si atom -5582.144346 kJ/mol
# Density = 2.123956 g / cm^3
# Si number density = 21.288015 Si / 1000 Ang^3
#
#
#
# Elastic Constant Matrix: (Units=GPa)
#
#
# Indices 1 2 3 4 5 6 
#
# 1 89.6450 55.4740 17.2596 0.0000 6.3984 0.0000
# 2 55.4740 136.4472 16.3623 0.0000 3.3269 0.0000
# 3 17.2596 16.3623 84.0498 0.0000 -5.7923 0.0000
# 4 0.0000 0.0000 0.0000 23.5357 0.0000 11.5594
# 5 6.3984 3.3269 -5.7923 0.0000 43.4268 0.0000
# 6 0.0000 0.0000 0.0000 11.5594 0.0000 -7.5797
#
#
#
# Elastic Compliance Matrix: (Units=1/GPa)
#
#
# Indices 1 2 3 4 5 6 
#
# 1 0.015403 -0.005953 -0.002149 0.000000 -0.002100 0.000000
# 2 -0.005953 0.009831 -0.000689 0.000000 0.000032 0.000000
# 3 -0.002149 -0.000689 0.012615 0.000000 0.002052 0.000000
# 4 0.000000 0.000000 0.000000 0.024293 0.000000 0.037048
# 5 -0.002100 0.000032 0.002052 0.000000 0.023608 0.000000
# 6 0.000000 0.000000 0.000000 0.037048 0.000000 -0.075431
#
#
# Mechanical properties :
#
#
# Convention : Reuss Voigt Hill
#
# Bulk Modulus (GPa) = 49.34365 54.25932 51.80148
# Shear Modulus (GPa) = 144.27905 26.61296 85.44600
#
# Velocity S-wave (km/s) = 8.24148 3.53957 6.34234
# Velocity P-wave (km/s) = 10.66733 6.49986 8.83290
#
# Compressibility (1/GPa) = 0.02026603
#
# Stress axis : x y z
#
# Youngs Moduli (GPa) = 64.92384 101.71855 79.27378
#
# Poissons Ratio (x) = 0.60555 0.17034
# Poissons Ratio (y) = 0.38651 0.05463
# Poissons Ratio (z) = 0.13950 0.07010
#
# Static dielectric constant tensor:
#      x y z
#    x 1.778060 0.000000 -0.008150 
#    y 0.000000 1.702750 0.000000 
#    z -0.008150 0.000000 1.841560 
# 
# From -- ./inp_files/980.got.cif
#   From: 2010.05.17/outbox.cif.g08.bks.cpg/sg6_1_cif.got.tgz:980.got - 2010.06.03 19:42:10.
