data_PCOD9131597
_publ_section_title
;
Structure prediction by ZEFSAII (Michael W. Deem and Ramdas Pophale) SiO2 
 PCOD9131597
Probable space group: C M
;
_chemical_formula_sum "Si O2"
_cell_formula_units_Z 32
_cell_length_a 21.690133
_cell_length_b 7.561143
_cell_length_c 19.469580
_cell_angle_alpha 90.000000
_cell_angle_beta 158.267510
_cell_angle_gamma 90.000000
_cell_volume 1182.303465
_symmetry_space_group_name_H-M "C M"
_symmetry_group_IT_number 8
_symmetry_cell_setting 'monoclinic'
loop_
_space_group_symop_operation_xyz
x,y,z
x,-y,z
1/2+x,1/2+y,z
1/2+x,1/2-y,z
loop_
_atom_site_type_symbol
_atom_site_label
_atom_site_fract_x
_atom_site_fract_y
_atom_site_fract_z
Si Si1 0.667190 0.791001 0.661520
Si Si2 0.411620 0.781199 0.566767
Si Si3 0.627493 0.207200 0.907060
Si Si4 0.708892 0.295863 0.234053
Si Si5 0.948107 0.213028 0.316138
Si Si6 0.115729 0.793451 0.359062
Si Si7 0.964064 0.215021 0.870607
Si Si8 0.407126 0.793664 0.022354
O O1 0.496934 0.755749 0.444402
O O2 0.807116 0.721552 0.752587
O O3 0.680704 0.000000 0.680090
O O4 0.730317 0.729832 0.801351
O O5 0.570255 0.719710 0.774551
O O6 0.356995 0.720561 0.434546
O O7 0.258957 0.722603 0.458075
O O8 0.415578 0.000000 0.567610
O O9 0.476612 0.222842 0.805754
O O10 0.659949 0.000000 0.930299
O O11 0.780130 0.285660 0.107860
O O12 0.749506 0.500000 0.261893
O O13 0.546700 0.295328 0.117470
O O14 0.627851 0.216753 0.081720
O O15 0.085622 0.280961 0.403504
O O16 0.943501 0.000000 0.308099
O O17 0.945303 0.778108 0.137756
O O18 0.151881 0.000000 0.404225
O O19 0.964264 0.000000 0.871888
O O20 0.443510 0.000000 0.061635
#
# Coordination Sequence:
#
# PCOD9131597 Si02
#       8
#     4   4   4   4   4   4   4   4
#     4  10  20  35  55  77 102 134 174 216 258 305
#     4   8  14  28  51  72  92 125 165 204 245 291
#     4  10  20  33  50  74 104 136 169 207 251 300
#     4   8  15  30  50  72  99 130 168 210 251 298
#     4  10  21  35  51  74 105 140 177 214 253 302
#     4   9  17  32  52  73 101 136 172 208 251 304
#     4   9  18  32  51  75 100 128 165 210 255 301
#     4  10  18  29  50  79 105 127 162 213 264 309
#
# _framework density 27.065809000000002
#
# number of rings (size 3 to 8) (size 9 to 14) (size 15 to 20)
#    0.000    2.750    0.000    3.750    0.000    4.500 
#    0.000    5.000    0.000    3.000    0.000    0.000 
#    0.000    0.000    0.000    0.000    0.000    0.000 
#
# Total GULP energy -89449.497098 kJ/mol
# GULP energy per Si atom -5590.593569 kJ/mol
# Density = 2.700421 g / cm^3
# Si number density = 27.065809 Si / 1000 Ang^3
#
#
#
# Elastic Constant Matrix: (Units=GPa)
#
#
# Indices 1 2 3 4 5 6 
#
# 1 119.4597 -5.8105 45.8488 0.0000 -40.1514 0.0000
# 2 -5.8105 94.7577 -6.9954 0.0000 1.6938 0.0000
# 3 45.8488 -6.9954 203.8018 0.0000 -38.8547 0.0000
# 4 0.0000 0.0000 0.0000 17.7667 0.0000 -6.7994
# 5 -40.1514 1.6938 -38.8547 0.0000 60.4285 0.0000
# 6 0.0000 0.0000 0.0000 -6.7994 0.0000 10.1594
#
#
#
# Elastic Compliance Matrix: (Units=1/GPa)
#
#
# Indices 1 2 3 4 5 6 
#
# 1 0.011066 0.000471 -0.001224 0.000000 0.006553 0.000000
# 2 0.000471 0.010600 0.000297 0.000000 0.000207 0.000000
# 3 -0.001224 0.000297 0.005739 0.000000 0.002869 0.000000
# 4 0.000000 0.000000 0.000000 0.075665 0.000000 0.050640
# 5 0.006553 0.000207 0.002869 0.000000 0.022741 0.000000
# 6 0.000000 0.000000 0.000000 0.050640 0.000000 0.132323
#
#
# Mechanical properties :
#
#
# Convention : Reuss Voigt Hill
#
# Bulk Modulus (GPa) = 37.74395 53.78945 45.76670
# Shear Modulus (GPa) = 18.66529 43.33601 31.00065
#
# Velocity S-wave (km/s) = 2.62892 4.00576 3.38802
# Velocity P-wave (km/s) = 4.81565 6.42740 5.67900
#
# Compressibility (1/GPa) = 0.02649431
#
# Stress axis : x y z
#
# Youngs Moduli (GPa) = 90.36595 94.33630 174.24016
#
# Poissons Ratio (x) = -0.04444 0.21329
# Poissons Ratio (y) = -0.04257 -0.05181
# Poissons Ratio (z) = 0.11062 -0.02805
#
# Static dielectric constant tensor:
#      x y z
#    x 2.154330 0.000000 0.081950 
#    y 0.000000 1.972390 0.000000 
#    z 0.081950 0.000000 2.223510 
# 
# From -- ./inp_files/16799.got.cif
#   From: 2010.05.17/outbox.cif.g08.bks.cpg/sg8_9_cif.got.tgz:16799.got - 2010.06.03 19:46:02.
