data_PCOD9131649
_publ_section_title
;
Structure prediction by ZEFSAII (Michael W. Deem and Ramdas Pophale) SiO2 
 PCOD9131649
Probable space group: C M
;
_chemical_formula_sum "Si O2"
_cell_formula_units_Z 32
_cell_length_a 34.161492
_cell_length_b 7.521764
_cell_length_c 13.006131
_cell_angle_alpha 90.000000
_cell_angle_beta 154.274112
_cell_angle_gamma 90.000000
_cell_volume 1450.643182
_symmetry_space_group_name_H-M "C M"
_symmetry_group_IT_number 8
_symmetry_cell_setting 'monoclinic'
loop_
_space_group_symop_operation_xyz
x,y,z
x,-y,z
1/2+x,1/2+y,z
1/2+x,1/2-y,z
loop_
_atom_site_type_symbol
_atom_site_label
_atom_site_fract_x
_atom_site_fract_y
_atom_site_fract_z
Si Si1 0.066530 0.284142 0.952060
Si Si2 0.372698 0.717819 0.760513
Si Si3 0.558516 0.706732 0.293304
Si Si4 0.194688 0.285437 0.440518
Si Si5 0.859811 0.796365 0.503413
Si Si6 0.332145 0.205932 0.209103
Si Si7 0.640097 0.711549 0.693910
Si Si8 0.034144 0.714576 0.650880
O O1 0.061198 0.500000 0.942124
O O2 0.082729 0.230560 0.872242
O O3 0.968465 0.211980 0.750647
O O4 0.138804 0.228754 0.207262
O O5 0.374578 0.500000 0.756607
O O6 0.297725 0.767075 0.666464
O O7 0.342439 0.779672 0.575479
O O8 0.471237 0.781833 0.027812
O O9 0.535434 0.500000 0.256166
O O10 0.643890 0.717195 0.420169
O O11 0.585901 0.785252 0.467987
O O12 0.191508 0.500000 0.437326
O O13 0.824189 0.711201 0.314425
O O14 0.827762 0.000000 0.425484
O O15 0.430341 0.281649 0.411869
O O16 0.335773 0.000000 0.186694
O O17 0.241402 0.285477 0.946798
O O18 0.649828 0.500000 0.699442
O O19 0.585624 0.732994 0.670416
O O20 0.031005 0.500000 0.645545
#
# Coordination Sequence:
#
# PCOD9131649 Si02
#       8
#     4   4   4   4   4   4   4   4
#     4   9  18  33  54  79 114 148 175 219 276 325
#     4   9  19  34  54  80 110 142 177 221 275 324
#     4  10  21  40  57  77 112 148 183 227 274 318
#     4  10  20  35  56  81 109 145 185 222 269 327
#     4  10  18  31  56  83 110 143 180 222 271 326
#     4   9  20  38  54  77 112 148 179 221 277 324
#     4  10  22  38  58  79 108 149 187 225 271 321
#     4   9  19  35  55  78 109 143 180 225 271 321
#
# _framework density 22.059180000000001
#
# number of rings (size 3 to 8) (size 9 to 14) (size 15 to 20)
#    0.000    2.500    1.250    1.125    1.750    4.000 
#    0.000    1.875    0.000    0.000    0.000    0.000 
#    0.000    0.000    0.000    0.000    0.000    0.000 
#
# Total GULP energy -89318.035024 kJ/mol
# GULP energy per Si atom -5582.377189 kJ/mol
# Density = 2.200897 g / cm^3
# Si number density = 22.059180 Si / 1000 Ang^3
#
#
#
# Elastic Constant Matrix: (Units=GPa)
#
#
# Indices 1 2 3 4 5 6 
#
# 1 80.0677 -13.7107 13.2624 0.0000 -9.9691 0.0000
# 2 -13.7107 53.2192 -3.7514 0.0000 -3.6805 0.0000
# 3 13.2624 -3.7514 40.1130 0.0000 -6.0273 0.0000
# 4 0.0000 0.0000 0.0000 6.4721 0.0000 3.2475
# 5 -9.9691 -3.6805 -6.0273 0.0000 25.2746 0.0000
# 6 0.0000 0.0000 0.0000 3.2475 0.0000 22.7291
#
#
#
# Elastic Compliance Matrix: (Units=1/GPa)
#
#
# Indices 1 2 3 4 5 6 
#
# 1 0.014412 0.003832 -0.003598 0.000000 0.005385 0.000000
# 2 0.003832 0.020202 0.001340 0.000000 0.004773 0.000000
# 3 -0.003598 0.001340 0.027029 0.000000 0.005222 0.000000
# 4 0.000000 0.000000 0.000000 0.166442 0.000000 -0.023781
# 5 0.005385 0.004773 0.005222 0.000000 0.043630 0.000000
# 6 0.000000 0.000000 0.000000 -0.023781 0.000000 0.047394
#
#
# Mechanical properties :
#
#
# Convention : Reuss Voigt Hill
#
# Bulk Modulus (GPa) = 15.43444 18.33338 16.88391
# Shear Modulus (GPa) = 14.81229 22.73513 18.77371
#
# Velocity S-wave (km/s) = 2.59410 3.21385 2.92046
# Velocity P-wave (km/s) = 3.99806 4.70115 4.36379
#
# Compressibility (1/GPa) = 0.06479015
#
# Stress axis : x y z
#
# Youngs Moduli (GPa) = 69.38718 49.50044 36.99738
#
# Poissons Ratio (x) = -0.18967 0.13310
# Poissons Ratio (y) = -0.26587 -0.04956
# Poissons Ratio (z) = 0.24962 -0.06631
#
# Static dielectric constant tensor:
#      x y z
#    x 1.778820 0.000000 -0.003470 
#    y 0.000000 1.866170 0.000000 
#    z -0.003470 0.000000 1.819520 
# 
# From -- ./inp_files/24822.got.cif
#   From: 2010.05.17/outbox.cif.g08.bks.cpg/sg8_13_cif.got.tgz:24822.got - 2010.06.03 19:46:02.
