data_PCOD9131768
_publ_section_title
;
Structure prediction by ZEFSAII (Michael W. Deem and Ramdas Pophale) SiO2 
 PCOD9131768
Probable space group: C M
;
_chemical_formula_sum "Si O2"
_cell_formula_units_Z 32
_cell_length_a 9.391791
_cell_length_b 23.633996
_cell_length_c 6.982529
_cell_angle_alpha 90.000000
_cell_angle_beta 86.080032
_cell_angle_gamma 90.000000
_cell_volume 1546.254972
_symmetry_space_group_name_H-M "C M"
_symmetry_group_IT_number 8
_symmetry_cell_setting 'monoclinic'
loop_
_space_group_symop_operation_xyz
x,y,z
x,-y,z
1/2+x,1/2+y,z
1/2+x,1/2-y,z
loop_
_atom_site_type_symbol
_atom_site_label
_atom_site_fract_x
_atom_site_fract_y
_atom_site_fract_z
Si Si1 0.700490 0.564374 0.180410
Si Si2 0.734101 0.876883 0.841861
Si Si3 0.867277 0.064374 0.139945
Si Si4 0.170132 0.232112 0.514266
Si Si5 0.406899 0.143034 0.917154
Si Si6 0.160868 0.356966 0.403201
Si Si7 0.897635 0.232112 0.806089
Si Si8 0.333666 0.123117 0.478493
O O1 0.727977 0.500000 0.113617
O O2 0.533883 0.576443 0.160178
O O3 0.747618 0.571100 0.397738
O O4 0.799812 0.609147 0.061241
O O5 0.570499 0.876274 0.926657
O O6 0.714805 0.871162 0.614781
O O7 0.828483 0.823124 0.904002
O O8 0.820149 0.928899 0.922616
O O9 0.767954 0.109147 0.259113
O O10 0.839790 0.000000 0.206737
O O11 0.152507 0.288294 0.387733
O O12 0.283884 0.250000 0.660177
O O13 0.239283 0.176876 0.416353
O O14 0.033884 0.219143 0.660178
O O15 0.415260 0.211706 0.932622
O O16 0.352962 0.128838 0.705573
O O17 0.997268 0.376274 0.393697
#
# Coordination Sequence:
#
# PCOD9131768 Si02
#       8
#     4   4   4   4   4   4   4   4
#     4  11  27  44  60  89 123 161 213 260 301 359
#     4  10  22  39  67  93 123 164 201 247 310 362
#     4  11  27  44  60  89 123 161 213 260 301 359
#     4  10  18  35  62  97 129 154 195 247 303 375
#     4  10  21  41  65  93 125 161 204 246 306 368
#     4  10  21  41  65  93 125 161 204 246 306 368
#     4  10  18  35  62  97 129 154 195 247 303 375
#     4  10  22  39  67  93 123 164 201 247 310 362
#
# _framework density 20.695163000000001
#
# number of rings (size 3 to 8) (size 9 to 14) (size 15 to 20)
#    0.000    1.750    5.000    0.750    7.000    4.000 
#    0.000    5.000    0.000    0.000    0.000    0.000 
#    0.000    0.000    0.000    0.000    0.000    0.000 
#
# Total GULP energy -89173.657157 kJ/mol
# GULP energy per Si atom -5573.353572 kJ/mol
# Density = 2.064806 g / cm^3
# Si number density = 20.695163 Si / 1000 Ang^3
#
#
#
# Elastic Constant Matrix: (Units=GPa)
#
#
# Indices 1 2 3 4 5 6 
#
# 1 157.0342 63.7298 43.5989 0.0000 -1.8219 0.0000
# 2 63.7298 96.9794 40.7600 0.0000 -15.1682 0.0000
# 3 43.5989 40.7600 67.8060 0.0000 -5.6779 0.0000
# 4 0.0000 0.0000 0.0000 -0.2446 0.0000 4.9455
# 5 -1.8219 -15.1682 -5.6779 0.0000 34.5383 0.0000
# 6 0.0000 0.0000 0.0000 4.9455 0.0000 23.0785
#
#
#
# Elastic Compliance Matrix: (Units=1/GPa)
#
#
# Indices 1 2 3 4 5 6 
#
# 1 0.009291 -0.005181 -0.003051 0.000000 -0.002287 0.000000
# 2 -0.005181 0.017504 -0.006662 0.000000 0.006319 0.000000
# 3 -0.003051 -0.006662 0.020742 0.000000 0.000323 0.000000
# 4 0.000000 0.000000 0.000000 -0.766641 0.000000 0.164282
# 5 -0.002287 0.006319 0.000323 0.000000 0.031661 0.000000
# 6 0.000000 0.000000 0.000000 0.164282 0.000000 0.008127
#
#
# Mechanical properties :
#
#
# Convention : Reuss Voigt Hill
#
# Bulk Modulus (GPa) = 56.34133 68.66634 62.50383
# Shear Modulus (GPa) = -7.76867 23.05651 7.64392
#
# Velocity S-wave (km/s) = -1.93959 3.34144 1.92395
# Velocity P-wave (km/s) = 4.71884 6.93822 5.93323
#
# Compressibility (1/GPa) = 0.01774896
#
# Stress axis : x y z
#
# Youngs Moduli (GPa) = 107.62769 57.12845 48.21222
#
# Poissons Ratio (x) = 0.29598 0.14711
# Poissons Ratio (y) = 0.55762 0.32118
# Poissons Ratio (z) = 0.32841 0.38058
#
# Static dielectric constant tensor:
#      x y z
#    x 1.688860 0.000000 0.011530 
#    y 0.000000 1.876390 0.000000 
#    z 0.011530 0.000000 1.779430 
# 
# From -- ./inp_files/8955.got.cif
#   From: 2010.05.17/outbox.cif.g08.bks.cpg/sg8_5_cif.got.tgz:8955.got - 2010.06.03 19:46:02.
