data_PCOD9131758
_publ_section_title
;
Structure prediction by ZEFSAII (Michael W. Deem and Ramdas Pophale) SiO2 
 PCOD9131758
Probable space group: C M
;
_chemical_formula_sum "Si O2"
_cell_formula_units_Z 32
_cell_length_a 14.630207
_cell_length_b 18.730048
_cell_length_c 11.607431
_cell_angle_alpha 90.000000
_cell_angle_beta 29.338054
_cell_angle_gamma 90.000000
_cell_volume 1558.430598
_symmetry_space_group_name_H-M "C M"
_symmetry_group_IT_number 8
_symmetry_cell_setting 'monoclinic'
loop_
_space_group_symop_operation_xyz
x,y,z
x,-y,z
1/2+x,1/2+y,z
1/2+x,1/2-y,z
loop_
_atom_site_type_symbol
_atom_site_label
_atom_site_fract_x
_atom_site_fract_y
_atom_site_fract_z
Si Si1 0.179280 0.582697 0.357910
Si Si2 0.219302 0.185871 0.661255
Si Si3 0.655606 0.634448 0.215337
Si Si4 0.540057 0.356503 0.076004
Si Si5 0.788637 0.206659 0.067579
Si Si6 0.033435 0.579761 0.750660
Si Si7 0.029224 0.693086 0.140978
Si Si8 0.761477 0.155292 0.685009
O O1 0.165113 0.500000 0.334282
O O2 0.370686 0.594413 0.220151
O O3 0.191773 0.643164 0.246798
O O4 0.023897 0.597998 0.625887
O O5 0.361216 0.164724 0.404396
O O6 0.296893 0.260688 0.625961
O O7 0.189916 0.138002 0.807279
O O8 0.010969 0.197866 0.838839
O O9 0.605448 0.630813 0.133890
O O10 0.727826 0.713593 0.170462
O O11 0.460161 0.619777 0.492179
O O12 0.833898 0.585025 0.030322
O O13 0.479041 0.272115 0.146912
O O14 0.709679 0.201533 0.025215
O O15 0.106502 0.500000 0.677417
O O16 0.175707 0.629871 0.659773
O O17 0.103445 0.646408 0.954373
#
# Coordination Sequence:
#
# PCOD9131758 Si02
#       8
#     4   4   4   4   4   4   4   4
#     4  10  21  39  62  89 127 163 197 253 315 365
#     4  10  18  35  56  89 118 150 190 250 303 352
#     4  11  21  36  59  92 119 159 203 250 306 356
#     4   9  19  34  57  86 120 152 192 248 298 360
#     4  10  21  35  59  92 118 156 201 253 301 360
#     4  11  24  39  60  89 122 163 206 251 310 370
#     4  10  21  35  59  89 116 155 201 247 305 352
#     4  11  21  39  56  86 122 158 198 250 302 359
#
# _framework density 20.533477999999999
#
# number of rings (size 3 to 8) (size 9 to 14) (size 15 to 20)
#    0.000    1.750    5.000    0.000    1.750    3.000 
#    0.000    0.625    0.000    6.000    0.000    0.000 
#    0.000    0.000    0.000    0.000    0.000    0.000 
#
# Total GULP energy -89214.155559 kJ/mol
# GULP energy per Si atom -5575.884722 kJ/mol
# Density = 2.048674 g / cm^3
# Si number density = 20.533478 Si / 1000 Ang^3
#
#
#
# Elastic Constant Matrix: (Units=GPa)
#
#
# Indices 1 2 3 4 5 6 
#
# 1 44.8076 12.9917 10.8289 -0.0080 0.1218 0.0019
# 2 12.9917 40.9303 9.6227 -0.0312 10.6822 0.0160
# 3 10.8289 9.6227 138.5343 -0.0231 11.9496 0.0133
# 4 -0.0080 -0.0312 -0.0231 13.4778 0.0059 10.5953
# 5 0.1218 10.6822 11.9496 0.0059 35.9474 -0.0022
# 6 0.0019 0.0160 0.0133 10.5953 -0.0022 8.3549
#
#
#
# Elastic Compliance Matrix: (Units=1/GPa)
#
#
# Indices 1 2 3 4 5 6 
#
# 1 0.025131 -0.008369 -0.001639 -0.006351 0.002948 0.008068
# 2 -0.008369 0.029513 -0.000649 0.035806 -0.008535 -0.045463
# 3 -0.001639 -0.000649 0.007594 0.006618 -0.002328 -0.008404
# 4 -0.006351 0.035806 0.006618 24.224629 -0.018649-30.720698
# 5 0.002948 -0.008535 -0.002328 -0.018649 0.031123 0.023677
# 6 0.008068 -0.045463 -0.008404-30.720698 0.023677 39.078444
#
#
# Mechanical properties :
#
#
# Convention : Reuss Voigt Hill
#
# Bulk Modulus (GPa) = 24.43574 32.35097 28.39335
# Shear Modulus (GPa) = 0.07883 24.27795 12.17839
#
# Velocity S-wave (km/s) = 0.19614 3.44228 2.43800
# Velocity P-wave (km/s) = 3.46086 5.62036 4.66723
#
# Compressibility (1/GPa) = 0.04092367
#
# Stress axis : x y z
#
# Youngs Moduli (GPa) = 39.79180 33.88314 131.67682
#
# Poissons Ratio (x) = 0.28356 0.21585
# Poissons Ratio (y) = 0.33301 0.08550
# Poissons Ratio (z) = 0.06523 0.02200
#
# Static dielectric constant tensor:
#      x y z
#    x 1.741570 0.000000 0.006700 
#    y 0.000000 1.694330 0.000000 
#    z 0.006700 0.000000 1.808620 
# 
# From -- ./inp_files/22383.got.cif
#   From: 2010.05.17/outbox.cif.g08.bks.cpg/sg8_12_cif.got.tgz:22383.got - 2010.06.03 19:46:02.
