data_PCOD9131633
_publ_section_title
;
Structure prediction by ZEFSAII (Michael W. Deem and Ramdas Pophale) SiO2 
 PCOD9131633
Probable space group: C M
;
_chemical_formula_sum "Si O2"
_cell_formula_units_Z 32
_cell_length_a 28.327857
_cell_length_b 9.008023
_cell_length_c 21.528546
_cell_angle_alpha 90.000000
_cell_angle_beta 160.690469
_cell_angle_gamma 90.000000
_cell_volume 1816.579982
_symmetry_space_group_name_H-M "C M"
_symmetry_group_IT_number 8
_symmetry_cell_setting 'monoclinic'
loop_
_space_group_symop_operation_xyz
x,y,z
x,-y,z
1/2+x,1/2+y,z
1/2+x,1/2-y,z
loop_
_atom_site_type_symbol
_atom_site_label
_atom_site_fract_x
_atom_site_fract_y
_atom_site_fract_z
Si Si1 0.371590 0.179448 0.916900
Si Si2 0.528590 0.321489 0.229253
Si Si3 0.395836 0.823625 0.436371
Si Si4 0.878703 0.819394 0.171167
Si Si5 0.637239 0.829313 0.173636
Si Si6 0.039744 0.820988 0.495604
Si Si7 0.793847 0.171140 0.503051
Si Si8 0.549988 0.178554 0.758064
O O1 0.207215 0.217700 0.702380
O O2 0.384500 0.000000 0.940344
O O3 0.431828 0.257243 0.053346
O O4 0.476417 0.219706 0.989839
O O5 0.531008 0.500000 0.228600
O O6 0.460032 0.274606 0.209478
O O7 0.687590 0.258535 0.416385
O O8 0.235545 0.767894 0.251259
O O9 0.464035 0.746865 0.461551
O O10 0.488842 0.786033 0.613451
O O11 0.397946 0.000000 0.431769
O O12 0.961075 0.771385 0.335156
O O13 0.877592 0.000000 0.169495
O O14 0.713620 0.772207 0.966305
O O15 0.713887 0.826041 0.336549
O O16 0.636933 0.000000 0.151567
O O17 0.030438 0.000000 0.487541
O O18 0.945402 0.246965 0.678179
O O19 0.808660 0.000000 0.539964
O O20 0.542698 0.000000 0.756005
#
# Coordination Sequence:
#
# PCOD9131633 Si02
#       8
#     4   4   4   4   4   4   4   4
#     4   9  18  32  52  77 100 125 163 206 246 291
#     4  10  18  31  53  77 101 129 162 202 247 293
#     4  10  19  31  50  76 101 125 159 204 249 293
#     4   9  19  34  51  72  98 131 170 205 239 288
#     4   8  15  29  48  71  98 126 158 197 240 289
#     4  10  20  35  52  70  98 134 168 203 243 290
#     4   9  17  30  49  76 105 128 158 201 246 293
#     4   9  17  32  53  75  99 128 164 204 244 289
#
# _framework density 17.615518999999999
#
# number of rings (size 3 to 8) (size 9 to 14) (size 15 to 20)
#    0.000    2.750    0.000    2.625    0.000    5.000 
#    0.000    4.375    0.000    4.500    0.000    0.000 
#    0.000    0.000    0.000    0.000    0.000    0.000 
#
# Total GULP energy -89202.774755 kJ/mol
# GULP energy per Si atom -5575.173422 kJ/mol
# Density = 1.757543 g / cm^3
# Si number density = 17.615519 Si / 1000 Ang^3
#
#
#
# Elastic Constant Matrix: (Units=GPa)
#
#
# Indices 1 2 3 4 5 6 
#
# 1 103.9552 44.7743 119.4500 0.0000 35.9190 0.0000
# 2 44.7743 36.4058 49.0045 0.0000 11.3154 0.0000
# 3 119.4500 49.0045 118.6794 0.0000 33.7321 0.0000
# 4 0.0000 0.0000 0.0000 17.3319 0.0000 5.0682
# 5 35.9190 11.3154 33.7321 0.0000 29.1788 0.0000
# 6 0.0000 0.0000 0.0000 5.0682 0.0000 24.4274
#
#
#
# Elastic Compliance Matrix: (Units=1/GPa)
#
#
# Indices 1 2 3 4 5 6 
#
# 1 -0.056725 -0.015365 0.062401 0.000000 0.003648 0.000000
# 2 -0.015365 0.059039 -0.011590 0.000000 0.009418 0.000000
# 3 0.062401 -0.011590 -0.043250 0.000000 -0.022322 0.000000
# 4 0.000000 0.000000 0.000000 0.061424 0.000000 -0.012744
# 5 0.003648 0.009418 -0.022322 0.000000 0.051933 0.000000
# 6 0.000000 0.000000 0.000000 -0.012744 0.000000 0.043582
#
#
# Mechanical properties :
#
#
# Convention : Reuss Voigt Hill
#
# Bulk Modulus (GPa) = 33.38282 76.16645 54.77463
# Shear Modulus (GPa) = 90.74979 17.24173 53.99576
#
# Velocity S-wave (km/s) = 7.18532 3.13194 5.54247
# Velocity P-wave (km/s) = 9.37178 7.51072 8.49238
#
# Compressibility (1/GPa) = 0.02995553
#
# Stress axis : x y z
#
# Youngs Moduli (GPa) = -17.62895 16.93803 -23.12150
#
# Poissons Ratio (x) = 0.26026 1.44280
# Poissons Ratio (y) = -0.27087 -0.26797
# Poissons Ratio (z) = 1.10006 0.19631
#
# Static dielectric constant tensor:
#      x y z
#    x 1.578340 0.000000 0.013930 
#    y 0.000000 1.590560 0.000000 
#    z 0.013930 0.000000 1.601540 
# 
# From -- ./inp_files/31062.got.cif
#   From: 2010.05.17/outbox.cif.g08.bks.cpg/sg8_16_cif.got.tgz:31062.got - 2010.06.03 19:46:02.
