data_PCOD9131233
_publ_section_title
;
Structure prediction by ZEFSAII (Michael W. Deem and Ramdas Pophale) SiO2 
 PCOD9131233
Probable space group: P C
;
_chemical_formula_sum "Si O2"
_cell_formula_units_Z 14
_cell_length_a 8.016952
_cell_length_b 12.837716
_cell_length_c 5.859408
_cell_angle_alpha 90.000000
_cell_angle_beta 85.747183
_cell_angle_gamma 90.000000
_cell_volume 601.386016
_symmetry_space_group_name_H-M "P C"
_symmetry_group_IT_number 7
_symmetry_cell_setting 'monoclinic'
loop_
_space_group_symop_operation_xyz
x,y,z
x,-y,1/2+z
loop_
_atom_site_type_symbol
_atom_site_label
_atom_site_fract_x
_atom_site_fract_y
_atom_site_fract_z
Si Si1 0.517610 0.759484 0.852460
Si Si2 0.659302 0.027465 0.394918
Si Si3 0.706664 0.547262 0.758816
Si Si4 0.340476 0.895652 0.492948
Si Si5 0.087784 0.526213 0.208905
Si Si6 0.169480 0.243666 0.638916
Si Si7 0.025466 0.968921 0.084906
O O1 0.626945 0.850732 0.957875
O O2 0.634294 0.663084 0.782344
O O3 0.442439 0.819188 0.644626
O O4 0.347010 0.729324 0.001753
O O5 0.722705 0.979439 0.627531
O O6 0.481998 0.968333 0.371333
O O7 0.653540 0.503527 0.511524
O O8 0.908906 0.533165 0.735629
O O9 0.231457 0.816953 0.354539
O O10 0.205064 0.974927 0.605429
O O11 0.167912 0.505180 0.453160
O O12 0.069774 0.650938 0.193743
O O13 0.057518 0.154180 0.531338
O O14 0.961192 0.984205 0.351055
#
# Coordination Sequence:
#
# PCOD9131233 Si02
#       7
#     2   2   2   2   2   2   2
#     4  11  20  33  61  90 124 158 190 245 303 346
#     4  10  17  30  49  85 133 150 174 222 293 377
#     4  10  25  46  61  79 113 165 214 249 289 343
#     4  10  18  32  50  94 136 146 178 232 308 374
#     4  10  25  46  61  79 113 165 214 249 289 343
#     4  11  20  33  61  90 124 158 190 245 303 346
#     4  10  17  30  49  85 133 150 174 222 293 377
#
# _framework density 23.279558999999999
#
# number of rings (size 3 to 8) (size 9 to 14) (size 15 to 20)
#    0.000    1.714    4.286    1.714    4.000    1.143 
#    0.000    0.000    0.000    0.000    0.000   96.000 
#    0.000    0.000    0.000    0.000    0.000    0.000 
#
# Total GULP energy -77948.711720 kJ/mol
# GULP energy per Si atom -5567.765123 kJ/mol
# Density = 2.322657 g / cm^3
# Si number density = 23.279559 Si / 1000 Ang^3
#
#
#
# Elastic Constant Matrix: (Units=GPa)
#
#
# Indices 1 2 3 4 5 6 
#
# 1 51.5207 7.7383 64.4382 0.0000 4.5619 0.0000
# 2 7.7383 99.7952 24.2507 0.0000 -0.4926 0.0000
# 3 64.4382 24.2507 145.8272 0.0000 -11.0043 0.0000
# 4 0.0000 0.0000 0.0000 46.3483 0.0000 7.8503
# 5 4.5619 -0.4926 -11.0043 0.0000 46.6978 0.0000
# 6 0.0000 0.0000 0.0000 7.8503 0.0000 69.7666
#
#
#
# Elastic Compliance Matrix: (Units=1/GPa)
#
#
# Indices 1 2 3 4 5 6 
#
# 1 0.047620 0.001618 -0.022053 0.000000 -0.009832 0.000000
# 2 0.001618 0.010502 -0.002510 0.000000 -0.000639 0.000000
# 3 -0.022053 -0.002510 0.017491 0.000000 0.006250 0.000000
# 4 0.000000 0.000000 0.000000 0.021995 0.000000 -0.002475
# 5 -0.009832 -0.000639 0.006250 0.000000 0.023841 0.000000
# 6 0.000000 0.000000 0.000000 -0.002475 0.000000 0.014612
#
#
# Mechanical properties :
#
#
# Convention : Reuss Voigt Hill
#
# Bulk Modulus (GPa) = 33.64379 54.44416 44.04398
# Shear Modulus (GPa) = 26.06099 45.94362 36.00231
#
# Velocity S-wave (km/s) = 3.34949 4.44730 3.93685
# Velocity P-wave (km/s) = 5.42607 7.05756 6.29489
#
# Compressibility (1/GPa) = 0.02972317
#
# Stress axis : x y z
#
# Youngs Moduli (GPa) = 20.99971 95.22228 57.17143
#
# Poissons Ratio (x) = -0.15407 1.26081
# Poissons Ratio (y) = -0.03398 0.14348
# Poissons Ratio (z) = 0.46311 0.23897
#
# Static dielectric constant tensor:
#      x y z
#    x 2.114620 0.000000 -0.035540 
#    y 0.000000 1.826200 0.000000 
#    z -0.035540 0.000000 2.004410 
# 
# From -- ./inp_files/527.got.cif
#   From: 2010.05.17/outbox.cif.g08.bks.cpg/sg7_cif.got.tgz:527.got - 2010.06.03 19:44:50.
