data_PCOD9131946
_publ_section_title
;
Structure prediction by ZEFSAII (Michael W. Deem and Ramdas Pophale) SiO2 
 PCOD9131946
Probable space group: C M
;
_chemical_formula_sum "Si O2"
_cell_formula_units_Z 32
_cell_length_a 19.310660
_cell_length_b 7.570296
_cell_length_c 26.058610
_cell_angle_alpha 90.000000
_cell_angle_beta 23.535823
_cell_angle_gamma 90.000000
_cell_volume 1521.194889
_symmetry_space_group_name_H-M "C M"
_symmetry_group_IT_number 8
_symmetry_cell_setting 'monoclinic'
loop_
_space_group_symop_operation_xyz
x,y,z
x,-y,z
1/2+x,1/2+y,z
1/2+x,1/2-y,z
loop_
_atom_site_type_symbol
_atom_site_label
_atom_site_fract_x
_atom_site_fract_y
_atom_site_fract_z
Si Si1 0.549750 0.714272 0.576650
Si Si2 0.771147 0.791510 0.325803
Si Si3 0.133977 0.793962 0.115875
Si Si4 0.585643 0.792079 0.351391
Si Si5 0.304235 0.785611 0.103928
Si Si6 0.164400 0.712674 0.813383
Si Si7 0.993227 0.208820 0.822396
Si Si8 0.704538 0.283246 0.580179
O O1 0.548000 0.500000 0.578161
O O2 0.661756 0.771821 0.451880
O O3 0.351753 0.776463 0.703996
O O4 0.634996 0.773609 0.572052
O O5 0.665682 0.715502 0.349242
O O6 0.962896 0.716027 0.206161
O O7 0.793327 0.000000 0.299229
O O8 0.187870 0.720302 0.134951
O O9 0.095550 0.000000 0.151296
O O10 0.305736 0.784104 0.964516
O O11 0.722787 0.772458 0.212454
O O12 0.399439 0.720915 0.459877
O O13 0.554299 0.000000 0.381827
O O14 0.304495 0.000000 0.102785
O O15 0.500708 0.726522 0.958625
O O16 0.166419 0.500000 0.814909
O O17 0.119473 0.758832 0.785101
O O18 0.079521 0.274167 0.711476
O O19 0.969155 0.000000 0.833785
O O20 0.704485 0.500000 0.579727
#
# Coordination Sequence:
#
# PCOD9131946 Si02
#       8
#     4   4   4   4   4   4   4   4
#     4  10  20  35  55  76 101 137 177 212 250 302
#     4  10  21  36  53  75 105 138 170 211 262 305
#     4   9  19  36  54  74 105 139 169 208 258 305
#     4  10  20  34  52  74 103 135 167 210 260 304
#     4   9  18  33  52  73  99 132 169 209 253 302
#     4   9  19  35  53  75 106 139 168 208 259 302
#     4  10  19  33  56  80 102 133 172 211 253 306
#     4   9  19  34  51  75 105 133 166 213 261 298
#
# _framework density 21.036093000000001
#
# number of rings (size 3 to 8) (size 9 to 14) (size 15 to 20)
#    0.000    2.500    0.000    2.625    0.000    5.500 
#    0.000    3.750    0.000    0.000    0.000    0.000 
#    0.000    0.000    0.000    0.000    0.000    0.000 
#
# Total GULP energy -89340.181499 kJ/mol
# GULP energy per Si atom -5583.761344 kJ/mol
# Density = 2.098821 g / cm^3
# Si number density = 21.036093 Si / 1000 Ang^3
#
#
#
# Elastic Constant Matrix: (Units=GPa)
#
#
# Indices 1 2 3 4 5 6 
#
# 1 190.2815 -7.8741 108.6995 0.0012 -11.7067 0.0003
# 2 -7.8741 42.5180 -18.3001 0.0001 -10.1848 0.0004
# 3 108.6995 -18.3001 98.8655 0.0018 -7.7505 0.0004
# 4 0.0012 0.0001 0.0018 18.7861 0.0001 11.5868
# 5 -11.7067 -10.1848 -7.7505 0.0001 44.2325 0.0000
# 6 0.0003 0.0004 0.0004 11.5868 0.0000 3.6636
#
#
#
# Elastic Compliance Matrix: (Units=1/GPa)
#
#
# Indices 1 2 3 4 5 6 
#
# 1 0.014940 -0.004726 -0.017314 0.000000 -0.000168 0.000001
# 2 -0.004726 0.029245 0.011192 -0.000002 0.007444 0.000001
# 3 -0.017314 0.011192 0.031499 0.000000 0.003514 -0.000003
# 4 0.000000 -0.000002 0.000000 -0.055993 0.000000 0.177088
# 5 -0.000168 0.007444 0.003514 0.000000 0.024893 0.000000
# 6 0.000001 0.000001 -0.000003 0.177088 0.000000 -0.287118
#
#
# Mechanical properties :
#
#
# Convention : Reuss Voigt Hill
#
# Bulk Modulus (GPa) = 18.52231 55.19059 36.85645
# Shear Modulus (GPa) = -24.64973 29.94576 2.64801
#
# Velocity S-wave (km/s) = -3.42684 3.77708 1.12318
# Velocity P-wave (km/s) = 2.61411 6.73163 4.38642
#
# Compressibility (1/GPa) = 0.05398893
#
# Stress axis : x y z
#
# Youngs Moduli (GPa) = 66.93222 34.19400 31.74739
#
# Poissons Ratio (x) = 0.16159 0.54969
# Poissons Ratio (y) = 0.31629 -0.35533
# Poissons Ratio (z) = 1.15889 -0.38272
#
# Static dielectric constant tensor:
#      x y z
#    x 1.741120 0.000000 -0.030730 
#    y 0.000000 1.791070 0.000000 
#    z -0.030730 0.000000 1.725600 
# 
# From -- ./inp_files/22818.got.cif
#   From: 2010.05.17/outbox.cif.g08.bks.cpg/sg8_12_cif.got.tgz:22818.got - 2010.06.03 19:46:02.
