data_PCOD9131519
_publ_section_title
;
Structure prediction by ZEFSAII (Michael W. Deem and Ramdas Pophale) SiO2 
 PCOD9131519
Probable space group: C M
;
_chemical_formula_sum "Si O2"
_cell_formula_units_Z 32
_cell_length_a 14.982786
_cell_length_b 9.085229
_cell_length_c 15.593961
_cell_angle_alpha 90.000000
_cell_angle_beta 44.554338
_cell_angle_gamma 90.000000
_cell_volume 1489.242524
_symmetry_space_group_name_H-M "C M"
_symmetry_group_IT_number 8
_symmetry_cell_setting 'monoclinic'
loop_
_space_group_symop_operation_xyz
x,y,z
x,-y,z
1/2+x,1/2+y,z
1/2+x,1/2-y,z
loop_
_atom_site_type_symbol
_atom_site_label
_atom_site_fract_x
_atom_site_fract_y
_atom_site_fract_z
Si Si1 0.450170 0.321965 0.863610
Si Si2 0.068078 0.827463 0.368737
Si Si3 0.757733 0.173835 0.366219
Si Si4 0.837021 0.664961 0.619126
Si Si5 0.973179 0.831596 0.102811
Si Si6 0.646219 0.173917 0.861503
Si Si7 0.638545 0.664441 0.600558
Si Si8 0.736916 0.169490 0.126863
O O1 0.466609 0.500000 0.868400
O O2 0.540877 0.227189 0.863677
O O3 0.499844 0.296621 0.733295
O O4 0.306540 0.287729 0.990742
O O5 0.177625 0.780513 0.360114
O O6 0.122349 0.765102 0.242088
O O7 0.946286 0.750459 0.493862
O O8 0.048324 0.000000 0.376405
O O9 0.904605 0.200130 0.240188
O O10 0.706985 0.218296 0.493675
O O11 0.734118 0.000000 0.365070
O O12 0.879946 0.500000 0.612515
O O13 0.775193 0.747508 0.742137
O O14 0.724715 0.652927 0.626204
O O15 0.854568 0.824547 0.115579
O O16 0.018676 0.000000 0.070409
O O17 0.083710 0.727518 0.993057
O O18 0.662218 0.000000 0.849162
O O19 0.633814 0.500000 0.563983
O O20 0.695400 0.000000 0.151194
#
# Coordination Sequence:
#
# PCOD9131519 Si02
#       8
#     4   4   4   4   4   4   4   4
#     4   8  15  28  45  66  94 127 159 194 238 286
#     4  11  21  32  49  74 101 127 162 205 243 283
#     4  10  20  33  50  72 100 133 164 197 241 290
#     4  10  20  35  52  70  98 133 163 194 242 296
#     4   8  15  28  44  64  92 126 160 193 235 286
#     4  10  17  25  43  71  96 119 155 202 243 278
#     4   9  18  32  51  74  98 126 161 202 243 285
#     4   8  14  27  46  67  93 125 160 195 237 286
#
# _framework density 21.487434
#
# number of rings (size 3 to 8) (size 9 to 14) (size 15 to 20)
#    0.000    2.750    0.000    5.250    0.000    7.500 
#    0.000    0.000    0.000    1.500    0.000    5.250 
#    0.000    0.000    0.000    0.000    0.000    0.000 
#
# Total GULP energy -89195.775448 kJ/mol
# GULP energy per Si atom -5574.735966 kJ/mol
# Density = 2.143853 g / cm^3
# Si number density = 21.487434 Si / 1000 Ang^3
#
#
#
# Elastic Constant Matrix: (Units=GPa)
#
#
# Indices 1 2 3 4 5 6 
#
# 1 26.0919 2.4665 4.6146 0.0000 -2.4241 0.0000
# 2 2.4665 147.7523 119.7849 0.0000 -4.3121 0.0000
# 3 4.6146 119.7849 234.3814 0.0000 6.1427 0.0000
# 4 0.0000 0.0000 0.0000 37.0973 0.0000 3.0059
# 5 -2.4241 -4.3121 6.1427 0.0000 16.3489 0.0000
# 6 0.0000 0.0000 0.0000 3.0059 0.0000 11.9242
#
#
#
# Elastic Compliance Matrix: (Units=1/GPa)
#
#
# Indices 1 2 3 4 5 6 
#
# 1 0.039082 0.000500 -0.001192 0.000000 0.006375 0.000000
# 2 0.000500 0.012039 -0.006310 0.000000 0.005621 0.000000
# 3 -0.001192 -0.006310 0.007638 0.000000 -0.004711 0.000000
# 4 0.000000 0.000000 0.000000 0.027518 0.000000 -0.006937
# 5 0.006375 0.005621 -0.004711 0.000000 0.065364 0.000000
# 6 0.000000 0.000000 0.000000 -0.006937 0.000000 0.085611
#
#
# Mechanical properties :
#
#
# Convention : Reuss Voigt Hill
#
# Bulk Modulus (GPa) = 22.34369 73.55084 47.94727
# Shear Modulus (GPa) = 18.78455 31.83139 25.30797
#
# Velocity S-wave (km/s) = 2.95991 3.85307 3.43564
# Velocity P-wave (km/s) = 4.70133 7.35519 6.17257
#
# Compressibility (1/GPa) = 0.04475536
#
# Stress axis : x y z
#
# Youngs Moduli (GPa) = 25.58735 83.05996 130.91739
#
# Poissons Ratio (x) = -0.04153 0.15606
# Poissons Ratio (y) = -0.01280 0.82611
# Poissons Ratio (z) = 0.03050 0.52412
#
# Static dielectric constant tensor:
#      x y z
#    x 1.880900 0.000000 0.017880 
#    y 0.000000 1.736170 0.000000 
#    z 0.017880 0.000000 1.864620 
# 
# From -- ./inp_files/24247.got.cif
#   From: 2010.05.17/outbox.cif.g08.bks.cpg/sg8_13_cif.got.tgz:24247.got - 2010.06.03 19:46:02.
