data_PCOD9131476
_publ_section_title
;
Structure prediction by ZEFSAII (Michael W. Deem and Ramdas Pophale) SiO2 
 PCOD9131476
Probable space group: P C
;
_chemical_formula_sum "Si O2"
_cell_formula_units_Z 12
_cell_length_a 9.469522
_cell_length_b 13.702003
_cell_length_c 6.222670
_cell_angle_alpha 90.000000
_cell_angle_beta 33.484963
_cell_angle_gamma 90.000000
_cell_volume 445.457352
_symmetry_space_group_name_H-M "P C"
_symmetry_group_IT_number 7
_symmetry_cell_setting 'monoclinic'
loop_
_space_group_symop_operation_xyz
x,y,z
x,-y,1/2+z
loop_
_atom_site_type_symbol
_atom_site_label
_atom_site_fract_x
_atom_site_fract_y
_atom_site_fract_z
Si Si1 0.257260 0.703616 0.490740
Si Si2 0.054401 0.850162 0.416251
Si Si3 0.498630 0.213137 0.099030
Si Si4 0.741868 0.661838 0.644571
Si Si5 0.149803 0.489796 0.081918
Si Si6 0.648617 0.979954 0.442899
O O1 0.202857 0.800629 0.426382
O O2 0.345228 0.738063 0.605979
O O3 0.042847 0.622082 0.726058
O O4 0.504428 0.641726 0.100477
O O5 0.877946 0.759789 0.561219
O O6 0.888291 0.945571 0.651500
O O7 0.280608 0.861330 0.959148
O O8 0.596691 0.300909 0.117473
O O9 0.724584 0.133956 0.807282
O O10 0.933912 0.574005 0.365781
O O11 0.258622 0.497516 0.194955
O O12 0.544023 0.994740 0.828330
#
# Coordination Sequence:
#
# PCOD9131476 Si02
#       6
#     2   2   2   2   2   2
#     4  11  27  50  81 117 162 213 273 339 401 485
#     4  11  25  52  77 115 162 209 268 336 407 479
#     4  11  27  50  81 117 162 213 273 339 401 485
#     4  11  25  52  77 115 162 209 268 336 407 479
#     4  12  28  49  79 119 158 213 267 326 411 478
#     4  12  28  49  79 119 158 213 267 326 411 478
#
# _framework density 26.938604000000002
#
# number of rings (size 3 to 8) (size 9 to 14) (size 15 to 20)
#    0.000    0.667    3.333    2.000    9.333    5.333 
#    0.000    0.000    0.000    0.000    0.000    0.000 
#    0.000    0.000    0.000    0.000    0.000    0.000 
#
# Total GULP energy -66847.694993 kJ/mol
# GULP energy per Si atom -5570.641249 kJ/mol
# Density = 2.687729 g / cm^3
# Si number density = 26.938604 Si / 1000 Ang^3
#
#
#
# Elastic Constant Matrix: (Units=GPa)
#
#
# Indices 1 2 3 4 5 6 
#
# 1 132.9740 22.2557 27.1845 0.0000 18.8549 0.0000
# 2 22.2557 134.8253 10.4570 0.0000 13.2424 0.0000
# 3 27.1845 10.4570 60.8430 0.0000 22.9855 0.0000
# 4 0.0000 0.0000 0.0000 17.1308 0.0000 2.4081
# 5 18.8549 13.2424 22.9855 0.0000 25.4298 0.0000
# 6 0.0000 0.0000 0.0000 2.4081 0.0000 60.2024
#
#
#
# Elastic Compliance Matrix: (Units=1/GPa)
#
#
# Indices 1 2 3 4 5 6 
#
# 1 0.008685 -0.000871 -0.002231 0.000000 -0.003969 0.000000
# 2 -0.000871 0.007908 0.000519 0.000000 -0.003941 0.000000
# 3 -0.002231 0.000519 0.025543 0.000000 -0.021703 0.000000
# 4 0.000000 0.000000 0.000000 0.058704 0.000000 -0.002348
# 5 -0.003969 -0.003941 -0.021703 0.000000 0.063937 0.000000
# 6 0.000000 0.000000 0.000000 -0.002348 0.000000 0.016705
#
#
# Mechanical properties :
#
#
# Convention : Reuss Voigt Hill
#
# Bulk Modulus (GPa) = 27.04960 49.82629 38.43795
# Shear Modulus (GPa) = 25.12943 38.46893 31.79918
#
# Velocity S-wave (km/s) = 3.05756 3.78302 3.43947
# Velocity P-wave (km/s) = 4.74635 6.13335 5.48388
#
# Compressibility (1/GPa) = 0.03696912
#
# Stress axis : x y z
#
# Youngs Moduli (GPa) = 115.14152 126.46061 39.15023
#
# Poissons Ratio (x) = 0.11011 0.08735
# Poissons Ratio (y) = 0.10026 -0.02032
# Poissons Ratio (z) = 0.25691 -0.06562
#
# Static dielectric constant tensor:
#      x y z
#    x 2.269170 0.000000 -0.004040 
#    y 0.000000 3.235010 0.000000 
#    z -0.004040 0.000000 2.393230 
# 
# From -- ./inp_files/791.got.cif
#   From: 2010.05.17/outbox.cif.g08.bks.cpg/sg7_cif.got.tgz:791.got - 2010.06.03 19:44:50.
