data_PCOD9131411
_publ_section_title
;
Structure prediction by ZEFSAII (Michael W. Deem and Ramdas Pophale) SiO2 
 PCOD9131411
Probable space group: P C
;
_chemical_formula_sum "Si O2"
_cell_formula_units_Z 12
_cell_length_a 6.601701
_cell_length_b 18.052678
_cell_length_c 5.372630
_cell_angle_alpha 90.000000
_cell_angle_beta 47.836799
_cell_angle_gamma 90.000000
_cell_volume 474.614327
_symmetry_space_group_name_H-M "P C"
_symmetry_group_IT_number 7
_symmetry_cell_setting 'monoclinic'
loop_
_space_group_symop_operation_xyz
x,y,z
x,-y,1/2+z
loop_
_atom_site_type_symbol
_atom_site_label
_atom_site_fract_x
_atom_site_fract_y
_atom_site_fract_z
Si Si1 0.305440 0.859767 0.782370
Si Si2 0.215221 0.547183 0.734902
Si Si3 0.846017 0.047463 0.863030
Si Si4 0.373633 0.260718 0.566181
Si Si5 0.677012 0.358568 0.654833
Si Si6 0.906718 0.782261 0.815317
O O1 0.594518 0.897123 0.516269
O O2 0.334415 0.772990 0.828801
O O3 0.085488 0.852053 0.743238
O O4 0.128882 0.906772 0.123071
O O5 0.252952 0.505456 0.963972
O O6 0.912593 0.580846 0.957296
O O7 0.437880 0.612151 0.525827
O O8 0.830682 0.991372 0.642882
O O9 0.525988 0.336387 0.518038
O O10 0.601059 0.200704 0.476335
O O11 0.092412 0.257174 0.950923
O O12 0.827742 0.280748 0.585099
#
# Coordination Sequence:
#
# PCOD9131411 Si02
#       6
#     2   2   2   2   2   2
#     4  12  26  45  78 103 142 188 244 292 372 424
#     4  12  26  47  70 101 144 202 234 288 348 436
#     4  12  30  49  74 105 148 198 238 290 350 440
#     4  10  22  43  70 103 142 173 235 307 367 403
#     4  10  22  47  66 107 142 176 250 292 362 420
#     4  10  22  43  70 103 142 173 235 307 367 403
#
# _framework density 25.283684000000001
#
# number of rings (size 3 to 8) (size 9 to 14) (size 15 to 20)
#    1.000    0.000    1.667    4.000    7.000    1.333 
#    6.000    0.000    0.000    0.000    0.000    0.000 
#    0.000    0.000    0.000    0.000    0.000    0.000 
#
# Total GULP energy -67006.528097 kJ/mol
# GULP energy per Si atom -5583.877341 kJ/mol
# Density = 2.522614 g / cm^3
# Si number density = 25.283684 Si / 1000 Ang^3
#
#
#
# Elastic Constant Matrix: (Units=GPa)
#
#
# Indices 1 2 3 4 5 6 
#
# 1 57.9021 26.3737 32.7440 0.0000 3.6542 0.0000
# 2 26.3737 64.9018 20.7835 0.0000 7.9423 0.0000
# 3 32.7440 20.7835 111.0637 0.0000 -28.0215 0.0000
# 4 0.0000 0.0000 0.0000 53.0595 0.0000 -15.4012
# 5 3.6542 7.9423 -28.0215 0.0000 50.5035 0.0000
# 6 0.0000 0.0000 0.0000 -15.4012 0.0000 36.1235
#
#
#
# Elastic Compliance Matrix: (Units=1/GPa)
#
#
# Indices 1 2 3 4 5 6 
#
# 1 0.024919 -0.007269 -0.007155 0.000000 -0.004630 0.000000
# 2 -0.007269 0.019661 -0.002539 0.000000 -0.003975 0.000000
# 3 -0.007155 -0.002539 0.013744 0.000000 0.008543 0.000000
# 4 0.000000 0.000000 0.000000 0.021509 0.000000 0.009170
# 5 -0.004630 -0.003975 0.008543 0.000000 0.025500 0.000000
# 6 0.000000 0.000000 0.000000 0.009170 0.000000 0.031592
#
#
# Mechanical properties :
#
#
# Convention : Reuss Voigt Hill
#
# Bulk Modulus (GPa) = 40.98469 43.74108 42.36289
# Shear Modulus (GPa) = 27.93549 38.20172 33.06860
#
# Velocity S-wave (km/s) = 3.32758 3.89128 3.62042
# Velocity P-wave (km/s) = 5.56856 6.12593 5.85388
#
# Compressibility (1/GPa) = 0.02439936
#
# Stress axis : x y z
#
# Youngs Moduli (GPa) = 40.12922 50.86177 72.76086
#
# Poissons Ratio (x) = 0.36970 0.52058
# Poissons Ratio (y) = 0.29169 0.18475
# Poissons Ratio (z) = 0.28711 0.12914
#
# Static dielectric constant tensor:
#      x y z
#    x 2.134060 0.000000 0.088370 
#    y 0.000000 2.059050 0.000000 
#    z 0.088370 0.000000 1.971010 
# 
# From -- ./inp_files/280.got.cif
#   From: 2010.05.17/outbox.cif.g08.bks.cpg/sg7_cif.got.tgz:280.got - 2010.06.03 19:44:50.
