data_PCOD9131547
_publ_section_title
;
Structure prediction by ZEFSAII (Michael W. Deem and Ramdas Pophale) SiO2 
 PCOD9131547
Probable space group: C M
;
_chemical_formula_sum "Si O2"
_cell_formula_units_Z 32
_cell_length_a 21.239735
_cell_length_b 7.431351
_cell_length_c 20.841379
_cell_angle_alpha 90.000000
_cell_angle_beta 28.916278
_cell_angle_gamma 90.000000
_cell_volume 1590.624695
_symmetry_space_group_name_H-M "C M"
_symmetry_group_IT_number 8
_symmetry_cell_setting 'monoclinic'
loop_
_space_group_symop_operation_xyz
x,y,z
x,-y,z
1/2+x,1/2+y,z
1/2+x,1/2-y,z
loop_
_atom_site_type_symbol
_atom_site_label
_atom_site_fract_x
_atom_site_fract_y
_atom_site_fract_z
Si Si1 0.853820 0.709487 0.456220
Si Si2 0.132184 0.281445 0.178901
Si Si3 0.894175 0.782804 0.886247
Si Si4 0.520039 0.719157 0.909633
Si Si5 0.068302 0.720447 0.483898
Si Si6 0.258540 0.718447 0.202871
Si Si7 0.604486 0.791352 0.595458
Si Si8 0.310103 0.220308 0.640017
O O1 0.883399 0.500000 0.441008
O O2 0.723600 0.716711 0.530809
O O3 0.831370 0.783403 0.547719
O O4 0.983582 0.782076 0.305799
O O5 0.135261 0.500000 0.171475
O O6 0.179889 0.233982 0.208283
O O7 0.245680 0.219793 0.029319
O O8 0.973769 0.727802 0.879280
O O9 0.972157 0.724398 0.754237
O O10 0.894688 0.000000 0.885251
O O11 0.519611 0.500000 0.910461
O O12 0.667050 0.778292 0.790301
O O13 0.406988 0.778006 0.059195
O O14 0.067590 0.500000 0.484874
O O15 0.182319 0.778733 0.333697
O O16 0.088979 0.783910 0.537916
O O17 0.930151 0.775895 0.577089
O O18 0.259453 0.500000 0.203721
O O19 0.636161 0.000000 0.559885
O O20 0.308904 0.000000 0.640588
#
# Coordination Sequence:
#
# PCOD9131547 Si02
#       8
#     4   4   4   4   4   4   4   4
#     4  10  17  30  53  76  94 119 161 209 243 272
#     4   8  14  25  49  79  95 109 153 214 252 270
#     4   9  16  30  50  73  96 121 159 203 241 279
#     4   8  13  21  42  73  92 105 144 204 247 269
#     4   9  17  28  41  62  97 129 152 187 238 287
#     4   8  12  22  40  66  95 115 140 193 249 277
#     4  11  22  32  43  68 106 140 159 181 233 299
#     4   9  14  24  45  71  91 112 152 203 239 267
#
# _framework density 20.117882999999999
#
# number of rings (size 3 to 8) (size 9 to 14) (size 15 to 20)
#    0.000    3.000    2.500    1.875    0.000    0.000 
#    0.000    1.875    0.000    4.500    0.000    1.750 
#    0.000    0.000    0.000    0.000    0.000    0.000 
#
# Total GULP energy -89217.883616 kJ/mol
# GULP energy per Si atom -5576.117726 kJ/mol
# Density = 2.007209 g / cm^3
# Si number density = 20.117883 Si / 1000 Ang^3
#
#
#
# Elastic Constant Matrix: (Units=GPa)
#
#
# Indices 1 2 3 4 5 6 
#
# 1 91.8656 -6.6841 70.2303 -0.0020 2.3793 0.0013
# 2 -6.6841 56.2046 -6.2523 -0.0034 -2.5744 0.0028
# 3 70.2303 -6.2523 188.7083 -0.0018 -4.2748 0.0013
# 4 -0.0020 -0.0034 -0.0018 -2.1489 0.0004 10.5050
# 5 2.3793 -2.5744 -4.2748 0.0004 27.2811 -0.0002
# 6 0.0013 0.0028 0.0013 10.5050 -0.0002 -2.3301
#
#
#
# Elastic Compliance Matrix: (Units=1/GPa)
#
#
# Indices 1 2 3 4 5 6 
#
# 1 0.015416 0.001096 -0.005750 -0.000001 -0.002142 0.000002
# 2 0.001096 0.018023 0.000227 -0.000004 0.001641 0.000005
# 3 -0.005750 0.000227 0.007485 0.000000 0.001696 0.000000
# 4 -0.000001 -0.000004 0.000000 0.022118 0.000000 0.099718
# 5 -0.002142 0.001641 0.001696 0.000000 0.037263 -0.000001
# 6 0.000002 0.000005 0.000000 0.099718 -0.000001 0.020399
#
#
# Mechanical properties :
#
#
# Convention : Reuss Voigt Hill
#
# Bulk Modulus (GPa) = 31.18272 50.15184 40.66728
# Shear Modulus (GPa) = 35.65118 23.19272 29.42195
#
# Velocity S-wave (km/s) = 4.21422 3.39903 3.82838
# Velocity P-wave (km/s) = 6.26204 6.35513 6.30876
#
# Compressibility (1/GPa) = 0.03206905
#
# Stress axis : x y z
#
# Youngs Moduli (GPa) = 64.86714 55.48536 133.60288
#
# Poissons Ratio (x) = -0.06079 0.76816
# Poissons Ratio (y) = -0.07107 -0.03027
# Poissons Ratio (z) = 0.37296 -0.01257
#
# Static dielectric constant tensor:
#      x y z
#    x 1.661590 0.000000 -0.005400 
#    y 0.000000 1.793970 0.000000 
#    z -0.005400 0.000000 1.732740 
# 
# From -- ./inp_files/29817.got.cif
#   From: 2010.05.17/outbox.cif.g08.bks.cpg/sg8_15_cif.got.tgz:29817.got - 2010.06.03 19:46:02.
