data_PCOD9131843
_publ_section_title
;
Structure prediction by ZEFSAII (Michael W. Deem and Ramdas Pophale) SiO2 
 PCOD9131843
Probable space group: C M
;
_chemical_formula_sum "Si O2"
_cell_formula_units_Z 32
_cell_length_a 16.716641
_cell_length_b 17.780825
_cell_length_c 10.571272
_cell_angle_alpha 90.000000
_cell_angle_beta 27.188604
_cell_angle_gamma 90.000000
_cell_volume 1435.718524
_symmetry_space_group_name_H-M "C M"
_symmetry_group_IT_number 8
_symmetry_cell_setting 'monoclinic'
loop_
_space_group_symop_operation_xyz
x,y,z
x,-y,z
1/2+x,1/2+y,z
1/2+x,1/2-y,z
loop_
_atom_site_type_symbol
_atom_site_label
_atom_site_fract_x
_atom_site_fract_y
_atom_site_fract_z
Si Si1 0.769250 0.199088 0.923620
Si Si2 0.461687 0.182821 0.827319
Si Si3 0.924126 0.225561 0.451545
Si Si4 0.290217 0.583277 0.302868
Si Si5 0.666295 0.417310 0.866252
Si Si6 0.682071 0.703644 0.629770
Si Si7 0.174941 0.086236 0.136974
Si Si8 0.993163 0.086993 0.748914
O O1 0.889510 0.261779 0.821296
O O2 0.774986 0.220474 0.768404
O O3 0.863794 0.121061 0.825322
O O4 0.577187 0.212053 0.251425
O O5 0.640966 0.143539 0.533991
O O6 0.514266 0.240361 0.865131
O O7 0.313136 0.119167 0.043073
O O8 0.844587 0.241085 0.425316
O O9 0.021941 0.146836 0.338022
O O10 0.209236 0.500000 0.424418
O O11 0.453786 0.584596 0.169683
O O12 0.382494 0.590297 0.036028
O O13 0.710513 0.500000 0.750352
O O14 0.749322 0.412307 0.888025
O O15 0.709779 0.352021 0.708708
O O16 0.649387 0.646780 0.558599
O O17 0.125933 0.000000 0.231886
O O18 0.042826 0.000000 0.658137
#
# Coordination Sequence:
#
# PCOD9131843 Si02
#       8
#     4   4   4   4   4   4   4   4
#     4  10  22  38  58  84 117 152 193 236 283 342
#     4  10  19  31  52  83 113 147 188 237 287 334
#     4  11  22  38  59  86 117 154 193 236 287 342
#     4   9  16  29  52  82 113 145 187 235 284 339
#     4   9  18  34  57  82 112 150 190 236 287 339
#     4  10  19  33  54  83 117 149 191 240 286 341
#     4  10  21  37  56  80 112 150 192 237 289 345
#     4   9  19  36  58  84 115 153 192 235 289 344
#
# _framework density 22.288491
#
# number of rings (size 3 to 8) (size 9 to 14) (size 15 to 20)
#    0.000    2.250    0.000    4.500    0.000    2.500 
#    0.000    5.625    0.000    0.000    0.000    0.000 
#    0.000    0.000    0.000    0.000    0.000    0.000 
#
# Total GULP energy -89132.946049 kJ/mol
# GULP energy per Si atom -5570.809128 kJ/mol
# Density = 2.223776 g / cm^3
# Si number density = 22.288491 Si / 1000 Ang^3
#
#
#
# Elastic Constant Matrix: (Units=GPa)
#
#
# Indices 1 2 3 4 5 6 
#
# 1 93.8977 42.3341 22.6793 -0.0008 -11.4807 0.0000
# 2 42.3341 120.2112 19.7189 0.0000 -22.5280 0.0007
# 3 22.6793 19.7189 38.0713 -0.0014 -6.0396 0.0006
# 4 -0.0008 0.0000 -0.0014 18.2743 0.0004 -1.7973
# 5 -11.4807 -22.5280 -6.0396 0.0004 31.5516 0.0000
# 6 0.0000 0.0007 0.0006 -1.7973 0.0000 34.2319
#
#
#
# Elastic Compliance Matrix: (Units=1/GPa)
#
#
# Indices 1 2 3 4 5 6 
#
# 1 0.013956 -0.003655 -0.006218 0.000000 0.001278 0.000000
# 2 -0.003655 0.011193 -0.002643 -0.000001 0.006156 0.000000
# 3 -0.006218 -0.002643 0.031642 0.000002 0.001907 0.000000
# 4 0.000000 -0.000001 0.000002 0.055006 -0.000001 0.002888
# 5 0.001278 0.006156 0.001907 -0.000001 0.036920 0.000000
# 6 0.000000 0.000000 0.000000 0.002888 0.000000 0.029364
#
#
# Mechanical properties :
#
#
# Convention : Reuss Voigt Hill
#
# Bulk Modulus (GPa) = 31.48765 46.84943 39.16854
# Shear Modulus (GPa) = 23.39731 27.97474 25.68603
#
# Velocity S-wave (km/s) = 3.24350 3.54661 3.39844
# Velocity P-wave (km/s) = 5.30896 6.15114 5.74550
#
# Compressibility (1/GPa) = 0.03175848
#
# Stress axis : x y z
#
# Youngs Moduli (GPa) = 71.65413 89.33968 31.60349
#
# Poissons Ratio (x) = 0.32657 0.19650
# Poissons Ratio (y) = 0.26192 0.08354
# Poissons Ratio (z) = 0.44552 0.23616
#
# Static dielectric constant tensor:
#      x y z
#    x 1.853060 0.000000 0.003290 
#    y 0.000000 1.886800 0.000000 
#    z 0.003290 0.000000 1.863300 
# 
# From -- ./inp_files/23400.got.cif
#   From: 2010.05.17/outbox.cif.g08.bks.cpg/sg8_12_cif.got.tgz:23400.got - 2010.06.03 19:46:02.
