data_PCOD9131714
_publ_section_title
;
Structure prediction by ZEFSAII (Michael W. Deem and Ramdas Pophale) SiO2 
 PCOD9131714
Probable space group: C M
;
_chemical_formula_sum "Si O2"
_cell_formula_units_Z 24
_cell_length_a 18.770431
_cell_length_b 8.725133
_cell_length_c 8.064276
_cell_angle_alpha 90.000000
_cell_angle_beta 90.186606
_cell_angle_gamma 90.000000
_cell_volume 1320.715821
_symmetry_space_group_name_H-M "C M"
_symmetry_group_IT_number 8
_symmetry_cell_setting 'monoclinic'
loop_
_space_group_symop_operation_xyz
x,y,z
x,-y,z
1/2+x,1/2+y,z
1/2+x,1/2-y,z
loop_
_atom_site_type_symbol
_atom_site_label
_atom_site_fract_x
_atom_site_fract_y
_atom_site_fract_z
Si Si1 0.547730 0.180644 0.004430
Si Si2 0.909506 0.319732 0.831938
Si Si3 0.037995 0.180760 0.662134
Si Si4 0.254459 0.682778 0.857308
Si Si5 0.674263 0.816790 0.516252
Si Si6 0.173725 0.817846 0.174621
O O1 0.595020 0.243623 0.151832
O O2 0.562667 0.000000 0.977668
O O3 0.462169 0.197901 0.992893
O O4 0.570518 0.279092 0.843968
O O5 0.896030 0.500000 0.809756
O O6 0.837094 0.228855 0.848847
O O7 0.960068 0.256944 0.683501
O O8 0.093290 0.258085 0.539129
O O9 0.032959 0.000000 0.636211
O O10 0.246159 0.500000 0.874875
O O11 0.217784 0.727491 0.682209
O O12 0.218845 0.761277 0.016867
O O13 0.704012 0.742914 0.348711
O O14 0.674915 0.000000 0.503171
O O15 0.169083 0.000000 0.175805
#
# Coordination Sequence:
#
# PCOD9131714 Si02
#       6
#     4   4   4   4   4   4
#     4   9  18  35  57  83 113 148 190 232 285 340
#     4   9  19  34  58  85 115 155 192 233 292 348
#     4  10  18  33  58  86 113 145 192 237 283 339
#     4  11  22  38  61  85 118 157 193 239 294 348
#     4  11  23  39  60  86 119 156 195 239 292 347
#     4  12  24  37  60  89 118 153 196 244 292 344
#
# _framework density 18.171963999999999
#
# number of rings (size 3 to 8) (size 9 to 14) (size 15 to 20)
#    1.000    0.667    1.667    4.500    0.000    2.000 
#    0.000    1.667    0.000    8.000    0.000    0.000 
#    0.000    0.000    0.000    0.000    0.000    0.000 
#
# Total GULP energy -66832.359076 kJ/mol
# GULP energy per Si atom -5569.363256 kJ/mol
# Density = 1.813060 g / cm^3
# Si number density = 18.171964 Si / 1000 Ang^3
#
#
#
# Elastic Constant Matrix: (Units=GPa)
#
#
# Indices 1 2 3 4 5 6 
#
# 1 99.8521 25.4124 37.2950 0.0000 1.4190 0.0000
# 2 25.4124 79.8084 29.3108 0.0000 2.9684 0.0000
# 3 37.2950 29.3108 94.8064 0.0000 -5.7458 0.0000
# 4 0.0000 0.0000 0.0000 22.0864 0.0000 -7.2559
# 5 1.4190 2.9684 -5.7458 0.0000 11.6753 0.0000
# 6 0.0000 0.0000 0.0000 -7.2559 0.0000 25.6725
#
#
#
# Elastic Compliance Matrix: (Units=1/GPa)
#
#
# Indices 1 2 3 4 5 6 
#
# 1 0.012229 -0.002195 -0.004317 0.000000 -0.003053 0.000000
# 2 -0.002195 0.014937 -0.004091 0.000000 -0.005544 0.000000
# 3 -0.004317 -0.004091 0.014024 0.000000 0.008466 0.000000
# 4 0.000000 0.000000 0.000000 0.049911 0.000000 0.014107
# 5 -0.003053 -0.005544 0.008466 0.000000 0.091598 0.000000
# 6 0.000000 0.000000 0.000000 0.014107 0.000000 0.042939
#
#
# Mechanical properties :
#
#
# Convention : Reuss Voigt Hill
#
# Bulk Modulus (GPa) = 50.03741 50.94481 50.49111
# Shear Modulus (GPa) = 19.72338 24.05008 21.88673
#
# Velocity S-wave (km/s) = 3.29808 3.64190 3.47424
# Velocity P-wave (km/s) = 6.48832 6.76611 6.62867
#
# Compressibility (1/GPa) = 0.01998505
#
# Stress axis : x y z
#
# Youngs Moduli (GPa) = 81.77087 66.94569 71.30671
#
# Poissons Ratio (x) = 0.14694 0.30785
# Poissons Ratio (y) = 0.17948 0.29170
# Poissons Ratio (z) = 0.35302 0.27386
#
# Static dielectric constant tensor:
#      x y z
#    x 1.640550 0.000000 0.004400 
#    y 0.000000 1.596200 0.000000 
#    z 0.004400 0.000000 1.649370 
# 
# From -- ./inp_files/15509.got.cif
#   From: 2010.05.17/outbox.cif.g08.bks.cpg/sg8_8_cif.got.tgz:15509.got - 2010.06.03 19:46:02.
