data_PCOD9131028
_publ_section_title
;
Structure prediction by ZEFSAII (Michael W. Deem and Ramdas Pophale) SiO2 
 PCOD9131028
Probable space group: P M
;
_chemical_formula_sum "Si O2"
_cell_formula_units_Z 16
_cell_length_a 7.407750
_cell_length_b 13.424776
_cell_length_c 10.909376
_cell_angle_alpha 90.000000
_cell_angle_beta 132.442932
_cell_angle_gamma 90.000000
_cell_volume 800.608394
_symmetry_space_group_name_H-M "P M"
_symmetry_group_IT_number 6
_symmetry_cell_setting 'monoclinic'
loop_
_space_group_symop_operation_xyz
x,y,z
x,-y,z
loop_
_atom_site_type_symbol
_atom_site_label
_atom_site_fract_x
_atom_site_fract_y
_atom_site_fract_z
Si Si1 0.038100 0.114732 0.091230
Si Si2 0.516488 0.888064 0.990844
Si Si3 0.361862 0.387827 0.172253
Si Si4 0.952868 0.282679 0.856522
Si Si5 0.761312 0.234951 0.302506
Si Si6 0.170782 0.292029 0.312384
Si Si7 0.112751 0.246422 0.674000
Si Si8 0.448229 0.619746 0.668621
O O1 0.196723 0.183853 0.257586
O O2 0.768141 0.111559 0.028374
O O3 0.119711 0.000000 0.114039
O O4 0.008318 0.179498 0.953637
O O5 0.591486 0.845449 0.158166
O O6 0.425271 0.000000 0.960533
O O7 0.318622 0.822780 0.829109
O O8 0.439786 0.500000 0.193898
O O9 0.592370 0.316022 0.289361
O O10 0.194151 0.370655 0.214294
O O11 0.193405 0.350357 0.984481
O O12 0.928100 0.269397 0.700145
O O13 0.720492 0.336607 0.810770
O O14 0.910555 0.287492 0.260845
O O15 0.962127 0.198536 0.492063
O O16 0.356829 0.326595 0.501960
O O17 0.258199 0.340681 0.683954
O O18 0.448505 0.500000 0.659371
#
# Coordination Sequence:
#
# PCOD9131028 Si02
#       8
#     2   2   2   2   2   2   2   2
#     4   9  19  39  66  90 122 167 206 258 322 370
#     4  10  20  41  66  89 124 164 205 262 322 372
#     4  11  22  37  60  90 123 167 211 255 312 370
#     4  11  22  39  61  90 131 164 212 259 308 381
#     4  10  22  41  61  91 124 161 205 261 307 372
#     4   9  21  39  61  87 124 158 210 261 307 371
#     4  11  23  40  64  93 128 164 208 261 311 378
#     4  11  23  40  61  90 128 169 209 259 317 370
#
# _framework density 19.984801999999998
#
# number of rings (size 3 to 8) (size 9 to 14) (size 15 to 20)
#    0.000    1.750    2.500    1.500    0.000    4.500 
#    0.000    2.500    0.000    1.500    0.000    0.000 
#    0.000    0.000    0.000    0.000    0.000    0.000 
#
# Total GULP energy -89251.986963 kJ/mol
# GULP energy per Si atom -5578.249185 kJ/mol
# Density = 1.993932 g / cm^3
# Si number density = 19.984802 Si / 1000 Ang^3
#
#
#
# Elastic Constant Matrix: (Units=GPa)
#
#
# Indices 1 2 3 4 5 6 
#
# 1 61.9113 34.7044 19.0650 0.0000 -14.8298 0.0000
# 2 34.7044 135.3049 56.9551 0.0000 -1.4288 0.0000
# 3 19.0650 56.9551 103.4303 0.0000 -5.4844 0.0000
# 4 0.0000 0.0000 0.0000 12.7617 0.0000 4.3041
# 5 -14.8298 -1.4288 -5.4844 0.0000 34.1231 0.0000
# 6 0.0000 0.0000 0.0000 4.3041 0.0000 13.1913
#
#
#
# Elastic Compliance Matrix: (Units=1/GPa)
#
#
# Indices 1 2 3 4 5 6 
#
# 1 0.021365 -0.005113 -0.000647 0.000000 0.008967 0.000000
# 2 -0.005113 0.010851 -0.005171 0.000000 -0.002599 0.000000
# 3 -0.000647 -0.005171 0.012717 0.000000 0.001546 0.000000
# 4 0.000000 0.000000 0.000000 0.088049 0.000000 -0.028729
# 5 0.008967 -0.002599 0.001546 0.000000 0.033343 0.000000
# 6 0.000000 0.000000 0.000000 -0.028729 0.000000 0.085182
#
#
# Mechanical properties :
#
#
# Convention : Reuss Voigt Hill
#
# Bulk Modulus (GPa) = 43.34276 58.01060 50.67668
# Shear Modulus (GPa) = 17.78985 24.67668 21.23326
#
# Velocity S-wave (km/s) = 2.98681 3.51774 3.26309
# Velocity P-wave (km/s) = 5.79911 6.75202 6.29362
#
# Compressibility (1/GPa) = 0.02307190
#
# Stress axis : x y z
#
# Youngs Moduli (GPa) = 46.80457 92.15550 78.63514
#
# Poissons Ratio (x) = 0.47118 0.05090
# Poissons Ratio (y) = 0.23931 0.40660
# Poissons Ratio (z) = 0.03030 0.47651
#
# Static dielectric constant tensor:
#      x y z
#    x 1.739450 0.000000 -0.015670 
#    y 0.000000 1.682270 0.000000 
#    z -0.015670 0.000000 1.726950 
# 
# From -- ./inp_files/4827.got.cif
#   From: 2010.05.17/outbox.cif.g08.bks.cpg/sg6_3_cif.got.tgz:4827.got - 2010.06.03 19:42:10.
