data_PCOD9131145
_publ_section_title
;
Structure prediction by ZEFSAII (Michael W. Deem and Ramdas Pophale) SiO2 
 PCOD9131145
Probable space group: P M
;
_chemical_formula_sum "Si O2"
_cell_formula_units_Z 13
_cell_length_a 5.065412
_cell_length_b 18.894004
_cell_length_c 5.040712
_cell_angle_alpha 90.000000
_cell_angle_beta 92.526525
_cell_angle_gamma 90.000000
_cell_volume 481.956996
_symmetry_space_group_name_H-M "P M"
_symmetry_group_IT_number 6
_symmetry_cell_setting 'monoclinic'
loop_
_space_group_symop_operation_xyz
x,y,z
x,-y,z
loop_
_atom_site_type_symbol
_atom_site_label
_atom_site_fract_x
_atom_site_fract_y
_atom_site_fract_z
Si Si1 0.563590 0.378724 0.122660
Si Si2 0.252601 0.500000 0.358234
Si Si3 0.423953 0.075917 0.154606
Si Si4 0.919792 0.229644 0.523447
Si Si5 0.584776 0.227849 0.994914
Si Si6 0.952103 0.620248 0.639379
Si Si7 0.944282 0.924332 0.508147
O O1 0.346779 0.438145 0.150674
O O2 0.447331 0.299829 0.085439
O O3 0.734040 0.385118 0.396992
O O4 0.780506 0.389552 0.898574
O O5 0.159899 0.561556 0.566938
O O6 0.464545 0.150437 0.017517
O O7 0.640246 0.078379 0.402733
O O8 0.132379 0.073128 0.260030
O O9 0.479070 0.000000 0.019217
O O10 0.838374 0.226636 0.210853
O O11 0.070427 0.300701 0.608540
O O12 0.017122 0.152580 0.622746
O O13 0.660122 0.238111 0.693811
O O14 0.987581 0.000000 0.651281
#
# Coordination Sequence:
#
# PCOD9131145 Si02
#       7
#     2   1   2   2   2   2   2
#     4  10  23  41  60  89 123 158 206 255 311 379
#     4  12  24  38  68  88 118 166 196 266 312 380
#     4   9  18  34  59  89 124 164 210 259 312 374
#     4   9  19  38  60  84 119 159 200 252 308 371
#     4   9  19  38  60  84 119 159 200 252 308 371
#     4  10  23  41  60  89 123 158 206 255 311 379
#     4   9  18  34  59  89 124 164 210 259 312 374
#
# _framework density 26.97336
#
# number of rings (size 3 to 8) (size 9 to 14) (size 15 to 20)
#    0.000    2.462    0.000    0.923    2.154    3.077 
#    0.000    6.154    0.000   16.615    0.000    0.000 
#    0.000    0.000    0.000    0.000    0.000    0.000 
#
# Total GULP energy -72407.215154 kJ/mol
# GULP energy per Si atom -5569.785781 kJ/mol
# Density = 2.691197 g / cm^3
# Si number density = 26.973360 Si / 1000 Ang^3
#
#
#
# Elastic Constant Matrix: (Units=GPa)
#
#
# Indices 1 2 3 4 5 6 
#
# 1 57.1030 21.9692 44.8166 0.0000 16.2454 0.0000
# 2 21.9692 326.5061 43.1072 0.0000 -36.0989 0.0000
# 3 44.8166 43.1072 140.4514 0.0000 -10.2720 0.0000
# 4 0.0000 0.0000 0.0000 24.4543 0.0000 -39.9264
# 5 16.2454 -36.0989 -10.2720 0.0000 48.8543 0.0000
# 6 0.0000 0.0000 0.0000 -39.9264 0.0000 -7.2312
#
#
#
# Elastic Compliance Matrix: (Units=1/GPa)
#
#
# Indices 1 2 3 4 5 6 
#
# 1 0.030052 -0.002231 -0.009908 0.000000 -0.013725 0.000000
# 2 -0.002231 0.003606 -0.000148 0.000000 0.003375 0.000000
# 3 -0.009908 -0.000148 0.010725 0.000000 0.005440 0.000000
# 4 0.000000 0.000000 0.000000 0.004083 0.000000 -0.022545
# 5 -0.013725 0.003375 0.005440 0.000000 0.028671 0.000000
# 6 0.000000 0.000000 0.000000 -0.022545 0.000000 -0.013809
#
#
# Mechanical properties :
#
#
# Convention : Reuss Voigt Hill
#
# Bulk Modulus (GPa) = 50.48621 82.64963 66.56792
# Shear Modulus (GPa) = 52.90767 40.82664 46.86715
#
# Velocity S-wave (km/s) = 4.43366 3.89471 4.17290
# Velocity P-wave (km/s) = 6.70578 7.13672 6.92460
#
# Compressibility (1/GPa) = 0.01980739
#
# Stress axis : x y z
#
# Youngs Moduli (GPa) = 33.27608 277.35157 93.24248
#
# Poissons Ratio (x) = 0.61888 0.92386
# Poissons Ratio (y) = 0.07425 0.01378
# Poissons Ratio (z) = 0.32970 0.04098
#
# Static dielectric constant tensor:
#      x y z
#    x 2.117460 0.000000 0.044430 
#    y 0.000000 2.160900 0.000000 
#    z 0.044430 0.000000 2.078570 
# 
# From -- ./inp_files/550.got.cif
#   From: 2010.05.17/outbox.cif.g08.bks.cpg/sg6_1_cif.got.tgz:550.got - 2010.06.03 19:42:10.
