data_PCOD9131369
_publ_section_title
;
Structure prediction by ZEFSAII (Michael W. Deem and Ramdas Pophale) SiO2 
 PCOD9131369
Probable space group: P C
;
_chemical_formula_sum "Si O2"
_cell_formula_units_Z 16
_cell_length_a 7.572041
_cell_length_b 18.123247
_cell_length_c 5.620404
_cell_angle_alpha 90.000000
_cell_angle_beta 57.720126
_cell_angle_gamma 90.000000
_cell_volume 652.084928
_symmetry_space_group_name_H-M "P C"
_symmetry_group_IT_number 7
_symmetry_cell_setting 'monoclinic'
loop_
_space_group_symop_operation_xyz
x,y,z
x,-y,1/2+z
loop_
_atom_site_type_symbol
_atom_site_label
_atom_site_fract_x
_atom_site_fract_y
_atom_site_fract_z
Si Si1 0.707940 0.708725 0.096210
Si Si2 0.283519 0.331197 0.626678
Si Si3 0.321168 0.111391 0.609694
Si Si4 0.043374 0.211937 0.050657
Si Si5 0.894798 0.543588 0.994948
Si Si6 0.345974 0.505375 0.153788
Si Si7 0.415104 0.233610 0.156497
Si Si8 0.565436 0.982726 0.241455
O O1 0.487197 0.690375 0.132479
O O2 0.639827 0.753143 0.380261
O O3 0.813121 0.628413 0.057999
O O4 0.839078 0.764213 0.836959
O O5 0.241959 0.414468 0.714978
O O6 0.349979 0.312339 0.313095
O O7 0.094811 0.278858 0.835090
O O8 0.407030 0.175348 0.377204
O O9 0.362688 0.036016 0.434334
O O10 0.475181 0.095611 0.723540
O O11 0.095153 0.137220 0.866499
O O12 0.229704 0.212514 0.111269
O O13 0.848846 0.500760 0.776366
O O14 0.148680 0.548044 0.802425
O O15 0.463155 0.503078 0.319838
O O16 0.673172 0.986493 0.422089
#
# Coordination Sequence:
#
# PCOD9131369 Si02
#       8
#     2   2   2   2   2   2   2   2
#     4  11  25  41  64  95 132 174 227 280 344 403
#     4  10  24  41  62  89 127 170 225 276 337 405
#     4   9  18  36  63  99 132 176 220 267 331 386
#     4  10  21  40  64  93 128 177 217 275 333 400
#     4  10  23  40  64  89 123 168 222 276 341 404
#     4  10  22  39  65  89 119 167 216 278 335 399
#     4  10  23  39  63  95 130 173 225 275 330 404
#     4   8  16  30  61  97 129 167 220 259 317 391
#
# _framework density 24.53668
#
# number of rings (size 3 to 8) (size 9 to 14) (size 15 to 20)
#    0.750    1.500    0.000    2.250    8.750    3.000 
#    0.000    0.000    0.000    1.500    0.000    0.000 
#    0.000    0.000    0.000    0.000    0.000    0.000 
#
# Total GULP energy -89232.393834 kJ/mol
# GULP energy per Si atom -5577.024615 kJ/mol
# Density = 2.448083 g / cm^3
# Si number density = 24.536680 Si / 1000 Ang^3
#
#
#
# Elastic Constant Matrix: (Units=GPa)
#
#
# Indices 1 2 3 4 5 6 
#
# 1 75.4314 18.7048 34.4445 0.0000 13.9768 0.0000
# 2 18.7048 83.3790 33.7011 0.0000 -3.5116 0.0000
# 3 34.4445 33.7011 194.4014 0.0000 14.7957 0.0000
# 4 0.0000 0.0000 0.0000 39.7408 0.0000 13.7443
# 5 13.9768 -3.5116 14.7957 0.0000 40.0426 0.0000
# 6 0.0000 0.0000 0.0000 13.7443 0.0000 6.9342
#
#
#
# Elastic Compliance Matrix: (Units=1/GPa)
#
#
# Indices 1 2 3 4 5 6 
#
# 1 0.015806 -0.002994 -0.001895 0.000000 -0.005079 0.000000
# 2 -0.002994 0.013624 -0.002060 0.000000 0.003001 0.000000
# 3 -0.001895 -0.002060 0.005968 0.000000 -0.001724 0.000000
# 4 0.000000 0.000000 0.000000 0.080012 0.000000 -0.158594
# 5 -0.005079 0.003001 -0.001724 0.000000 0.027647 0.000000
# 6 0.000000 0.000000 0.000000 -0.158594 0.000000 0.458565
#
#
# Mechanical properties :
#
#
# Convention : Reuss Voigt Hill
#
# Bulk Modulus (GPa) = 46.50968 58.54585 52.52776
# Shear Modulus (GPa) = 8.02973 35.10094 21.56533
#
# Velocity S-wave (km/s) = 1.81098 3.78636 2.96784
# Velocity P-wave (km/s) = 4.83417 6.55955 5.76181
#
# Compressibility (1/GPa) = 0.02150090
#
# Stress axis : x y z
#
# Youngs Moduli (GPa) = 63.26738 73.40001 167.55843
#
# Poissons Ratio (x) = 0.21975 0.31751
# Poissons Ratio (y) = 0.18941 0.34513
# Poissons Ratio (z) = 0.11989 0.15119
#
# Static dielectric constant tensor:
#      x y z
#    x 1.976470 0.000000 0.081460 
#    y 0.000000 2.120590 0.000000 
#    z 0.081460 0.000000 2.038830 
# 
# From -- ./inp_files/974.got.cif
#   From: 2010.05.17/outbox.cif.g08.bks.cpg/sg7_cif.got.tgz:974.got - 2010.06.03 19:44:50.
