data_PCOD9131710
_publ_section_title
;
Structure prediction by ZEFSAII (Michael W. Deem and Ramdas Pophale) SiO2 
 PCOD9131710
Probable space group: C M
;
_chemical_formula_sum "Si O2"
_cell_formula_units_Z 32
_cell_length_a 18.008688
_cell_length_b 12.878963
_cell_length_c 8.072674
_cell_angle_alpha 90.000000
_cell_angle_beta 44.286679
_cell_angle_gamma 90.000000
_cell_volume 1307.346253
_symmetry_space_group_name_H-M "C M"
_symmetry_group_IT_number 8
_symmetry_cell_setting 'monoclinic'
loop_
_space_group_symop_operation_xyz
x,y,z
x,-y,z
1/2+x,1/2+y,z
1/2+x,1/2-y,z
loop_
_atom_site_type_symbol
_atom_site_label
_atom_site_fract_x
_atom_site_fract_y
_atom_site_fract_z
Si Si1 0.995600 0.374916 0.865720
Si Si2 0.143480 0.110513 0.802959
Si Si3 0.569321 0.108960 0.242506
Si Si4 0.905118 0.820155 0.188579
Si Si5 0.456315 0.267291 0.607554
Si Si6 0.161631 0.885584 0.376170
Si Si7 0.269848 0.322568 0.092345
Si Si8 0.704106 0.830420 0.720751
O O1 0.977281 0.500000 0.902763
O O2 0.966965 0.320435 0.736573
O O3 0.120092 0.349258 0.703065
O O4 0.932149 0.302241 0.102108
O O5 0.161523 0.114225 0.575873
O O6 0.200143 0.210463 0.782629
O O7 0.179597 0.000000 0.810705
O O8 0.018105 0.126086 0.030914
O O9 0.491546 0.206183 0.387773
O O10 0.510826 0.000000 0.347404
O O11 0.660457 0.118385 0.237327
O O12 0.640597 0.111105 0.964853
O O13 0.821353 0.847373 0.464930
O O14 0.846830 0.860354 0.114471
O O15 0.544063 0.354407 0.504486
O O16 0.341557 0.317160 0.813209
O O17 0.192728 0.000000 0.269227
O O18 0.235230 0.794239 0.193281
#
# Coordination Sequence:
#
# PCOD9131710 Si02
#       8
#     4   4   4   4   4   4   4   4
#     4  10  20  36  61  87 111 144 194 242 291 336
#     4  10  20  35  59  86 110 143 186 236 287 334
#     4  11  25  39  57  82 118 161 193 226 283 344
#     4  10  20  36  58  86 114 141 190 240 290 329
#     4  10  20  40  58  86 116 149 188 245 284 332
#     4  10  18  33  57  87 114 144 182 232 293 337
#     4  10  20  37  59  88 115 146 188 241 286 337
#     4  11  21  40  55  80 120 152 189 236 278 335
#
# _framework density 24.477066000000001
#
# number of rings (size 3 to 8) (size 9 to 14) (size 15 to 20)
#    0.000    1.750    5.000    1.500    0.000    7.000 
#    0.000    2.500    0.000    0.000    0.000    0.000 
#    0.000    0.000    0.000    0.000    0.000    0.000 
#
# Total GULP energy -89447.341373 kJ/mol
# GULP energy per Si atom -5590.458836 kJ/mol
# Density = 2.442136 g / cm^3
# Si number density = 24.477066 Si / 1000 Ang^3
#
#
#
# Elastic Constant Matrix: (Units=GPa)
#
#
# Indices 1 2 3 4 5 6 
#
# 1 31.9749 -18.5123 2.0069 0.0000 1.9298 0.0000
# 2 -18.5123 101.4374 -23.9164 0.0000 18.4315 0.0000
# 3 2.0069 -23.9164 116.5398 0.0000 -1.7480 0.0000
# 4 0.0000 0.0000 0.0000 5.1304 0.0000 10.1085
# 5 1.9298 18.4315 -1.7480 0.0000 34.8301 0.0000
# 6 0.0000 0.0000 0.0000 10.1085 0.0000 -1.3824
#
#
#
# Elastic Compliance Matrix: (Units=1/GPa)
#
#
# Indices 1 2 3 4 5 6 
#
# 1 0.036185 0.007938 0.000914 0.000000 -0.006160 0.000000
# 2 0.007938 0.013217 0.002466 0.000000 -0.007310 0.000000
# 3 0.000914 0.002466 0.009058 0.000000 -0.000901 0.000000
# 4 0.000000 0.000000 0.000000 0.012651 0.000000 0.092506
# 5 -0.006160 -0.007310 -0.000901 0.000000 0.032875 0.000000
# 6 0.000000 0.000000 0.000000 0.092506 0.000000 -0.046950
#
#
# Mechanical properties :
#
#
# Convention : Reuss Voigt Hill
#
# Bulk Modulus (GPa) = 12.33116 18.78984 15.56050
# Shear Modulus (GPa) = 81.39122 27.07386 54.23254
#
# Velocity S-wave (km/s) = 5.77271 3.32940 4.71217
# Velocity P-wave (km/s) = 7.03428 4.74058 5.99809
#
# Compressibility (1/GPa) = 0.08109539
#
# Stress axis : x y z
#
# Youngs Moduli (GPa) = 27.63577 75.66149 110.40466
#
# Poissons Ratio (x) = -0.60063 -0.10087
# Poissons Ratio (y) = -0.21938 -0.27226
# Poissons Ratio (z) = -0.02525 -0.18658
#
# Static dielectric constant tensor:
#      x y z
#    x 2.000640 0.000000 0.074280 
#    y 0.000000 1.970820 0.000000 
#    z 0.074280 0.000000 1.965800 
# 
# From -- ./inp_files/13143.got.cif
#   From: 2010.05.17/outbox.cif.g08.bks.cpg/sg8_7_cif.got.tgz:13143.got - 2010.06.03 19:46:02.
