data_PCOD9131933
_publ_section_title
;
Structure prediction by ZEFSAII (Michael W. Deem and Ramdas Pophale) SiO2 
 PCOD9131933
Probable space group: C M
;
_chemical_formula_sum "Si O2"
_cell_formula_units_Z 32
_cell_length_a 13.494646
_cell_length_b 10.722346
_cell_length_c 12.632779
_cell_angle_alpha 90.000000
_cell_angle_beta 124.319584
_cell_angle_gamma 90.000000
_cell_volume 1509.665182
_symmetry_space_group_name_H-M "C M"
_symmetry_group_IT_number 8
_symmetry_cell_setting 'monoclinic'
loop_
_space_group_symop_operation_xyz
x,y,z
x,-y,z
1/2+x,1/2+y,z
1/2+x,1/2-y,z
loop_
_atom_site_type_symbol
_atom_site_label
_atom_site_fract_x
_atom_site_fract_y
_atom_site_fract_z
Si Si1 0.995940 0.775851 0.340820
Si Si2 0.323914 0.143249 0.923663
Si Si3 0.776045 0.356536 0.127287
Si Si4 0.178056 0.146611 0.284338
Si Si5 0.848952 0.131682 0.437112
Si Si6 0.421512 0.355295 0.840235
Si Si7 0.563157 0.696131 0.718949
Si Si8 0.648837 0.861664 0.601934
O O1 0.907511 0.663141 0.256980
O O2 0.910953 0.864195 0.359165
O O3 0.054729 0.833962 0.272351
O O4 0.098182 0.731687 0.483858
O O5 0.406889 0.245547 0.917158
O O6 0.194933 0.136738 0.787215
O O7 0.371443 0.000000 0.958489
O O8 0.289224 0.197706 0.018382
O O9 0.747751 0.500000 0.090676
O O10 0.683693 0.316142 0.163343
O O11 0.269834 0.243767 0.394256
O O12 0.212778 0.000000 0.311824
O O13 0.956330 0.137624 0.585943
O O14 0.782077 0.000000 0.411048
O O15 0.441423 0.500000 0.888082
O O16 0.520289 0.317269 0.813277
O O17 0.291347 0.355213 0.703700
O O18 0.586253 0.829109 0.676684
O O19 0.615649 0.000000 0.549149
#
# Coordination Sequence:
#
# PCOD9131933 Si02
#       8
#     4   4   4   4   4   4   4   4
#     4  10  19  33  55  80 108 143 179 220 268 323
#     4  10  21  38  56  77 106 143 186 229 267 314
#     4   9  20  37  55  77 108 143 183 227 271 317
#     4  10  21  37  57  83 110 141 180 222 270 326
#     4  10  20  34  53  82 114 142 174 217 267 324
#     4  10  20  35  55  81 108 138 178 224 274 327
#     4  10  20  34  56  80 107 146 184 218 264 320
#     4   9  19  34  53  80 113 142 174 221 275 325
#
# _framework density 21.196752
#
# number of rings (size 3 to 8) (size 9 to 14) (size 15 to 20)
#    0.000    2.250    0.000    2.625    0.000    6.500 
#    0.000    8.750    0.000    0.000    0.000    0.000 
#    0.000    0.000    0.000    0.000    0.000    0.000 
#
# Total GULP energy -89137.385034 kJ/mol
# GULP energy per Si atom -5571.086565 kJ/mol
# Density = 2.114851 g / cm^3
# Si number density = 21.196752 Si / 1000 Ang^3
#
#
#
# Elastic Constant Matrix: (Units=GPa)
#
#
# Indices 1 2 3 4 5 6 
#
# 1 120.1381 50.0748 21.1470 0.0000 -31.5939 0.0000
# 2 50.0748 95.0563 15.5915 0.0000 -12.3467 0.0000
# 3 21.1470 15.5915 42.6592 0.0000 -14.4191 0.0000
# 4 0.0000 0.0000 0.0000 8.8351 0.0000 2.1060
# 5 -31.5939 -12.3467 -14.4191 0.0000 41.1131 0.0000
# 6 0.0000 0.0000 0.0000 2.1060 0.0000 7.3429
#
#
#
# Elastic Compliance Matrix: (Units=1/GPa)
#
#
# Indices 1 2 3 4 5 6 
#
# 1 0.012967 -0.005538 -0.001813 0.000000 0.007666 0.000000
# 2 -0.005538 0.013732 -0.002630 0.000000 -0.001054 0.000000
# 3 -0.001813 -0.002630 0.027867 0.000000 0.007591 0.000000
# 4 0.000000 0.000000 0.000000 0.121491 0.000000 -0.034845
# 5 0.007666 -0.001054 0.007591 0.000000 0.032560 0.000000
# 6 0.000000 0.000000 0.000000 -0.034845 0.000000 0.146180
#
#
# Mechanical properties :
#
#
# Convention : Reuss Voigt Hill
#
# Bulk Modulus (GPa) = 28.89785 47.94224 38.42005
# Shear Modulus (GPa) = 12.94356 22.86091 17.90224
#
# Velocity S-wave (km/s) = 2.47379 3.28763 2.90931
# Velocity P-wave (km/s) = 4.67143 6.08919 5.42681
#
# Compressibility (1/GPa) = 0.03460465
#
# Stress axis : x y z
#
# Youngs Moduli (GPa) = 77.11857 72.82354 35.88453
#
# Poissons Ratio (x) = 0.40329 0.06505
# Poissons Ratio (y) = 0.42707 0.09437
# Poissons Ratio (z) = 0.13981 0.19152
#
# Static dielectric constant tensor:
#      x y z
#    x 1.783730 0.000000 -0.018010 
#    y 0.000000 1.773950 0.000000 
#    z -0.018010 0.000000 1.808550 
# 
# From -- ./inp_files/20233.got.cif
#   From: 2010.05.17/outbox.cif.g08.bks.cpg/sg8_11_cif.got.tgz:20233.got - 2010.06.03 19:46:02.
