data_PCOD9131151
_publ_section_title
;
Structure prediction by ZEFSAII (Michael W. Deem and Ramdas Pophale) SiO2 
 PCOD9131151
Probable space group: P M
;
_chemical_formula_sum "Si O2"
_cell_formula_units_Z 14
_cell_length_a 7.838582
_cell_length_b 15.513071
_cell_length_c 6.947704
_cell_angle_alpha 90.000000
_cell_angle_beta 39.865725
_cell_angle_gamma 90.000000
_cell_volume 541.537140
_symmetry_space_group_name_H-M "P M"
_symmetry_group_IT_number 6
_symmetry_cell_setting 'monoclinic'
loop_
_space_group_symop_operation_xyz
x,y,z
x,-y,z
loop_
_atom_site_type_symbol
_atom_site_label
_atom_site_fract_x
_atom_site_fract_y
_atom_site_fract_z
Si Si1 0.570840 0.601241 0.295750
Si Si2 0.745500 0.092833 0.736964
Si Si3 0.241928 0.819330 0.220321
Si Si4 0.999897 0.594259 0.225345
Si Si5 0.547341 0.650480 0.867676
Si Si6 0.357257 0.787894 0.572600
Si Si7 0.868212 0.101942 0.088789
O O1 0.479721 0.500000 0.401344
O O2 0.866073 0.606719 0.133465
O O3 0.422226 0.684926 0.520197
O O4 0.578067 0.620344 0.061692
O O5 0.812792 0.099486 0.905716
O O6 0.431267 0.102440 0.997163
O O7 0.830998 0.000000 0.595105
O O8 0.934855 0.159916 0.466855
O O9 0.393802 0.740699 0.991871
O O10 0.285861 0.801747 0.409543
O O11 0.909634 0.500000 0.370176
O O12 0.832615 0.652402 0.518686
O O13 0.315842 0.594678 0.968029
O O14 0.114986 0.831732 0.898056
O O15 0.610347 0.848942 0.393761
O O16 0.903747 0.000000 0.109209
#
# Coordination Sequence:
#
# PCOD9131151 Si02
#       7
#     2   2   2   2   2   2   2
#     4  10  23  42  65  94 131 170 209 260 314 370
#     4   9  15  25  44  75 112 146 188 243 297 358
#     4   9  17  29  48  76 110 150 194 241 298 360
#     4  11  24  41  63  92 122 163 214 253 305 374
#     4  11  23  42  64  90 126 164 208 262 311 363
#     4   9  18  31  50  80 114 152 199 244 299 367
#     4   9  16  28  48  77 113 149 193 251 302 354
#
# _framework density 25.852336999999999
#
# number of rings (size 3 to 8) (size 9 to 14) (size 15 to 20)
#    0.000    2.286    0.000    3.000    0.000    9.143 
#    0.000    5.000    0.000    0.000    0.000   20.000 
#    0.000    0.000    0.000    0.000    0.000    0.286 
#
# Total GULP energy -78216.139955 kJ/mol
# GULP energy per Si atom -5586.867140 kJ/mol
# Density = 2.579350 g / cm^3
# Si number density = 25.852337 Si / 1000 Ang^3
#
#
#
# Elastic Constant Matrix: (Units=GPa)
#
#
# Indices 1 2 3 4 5 6 
#
# 1 105.0928 13.4540 12.9124 0.0000 16.8615 0.0000
# 2 13.4540 169.9627 36.4751 0.0000 -2.4412 0.0000
# 3 12.9124 36.4751 108.5128 0.0000 -3.5055 0.0000
# 4 0.0000 0.0000 0.0000 22.9325 0.0000 -16.1992
# 5 16.8615 -2.4412 -3.5055 0.0000 33.3136 0.0000
# 6 0.0000 0.0000 0.0000 -16.1992 0.0000 1.4578
#
#
#
# Elastic Compliance Matrix: (Units=1/GPa)
#
#
# Indices 1 2 3 4 5 6 
#
# 1 0.010643 -0.000660 -0.001224 0.000000 -0.005564 0.000000
# 2 -0.000660 0.006384 -0.002048 0.000000 0.000586 0.000000
# 3 -0.001224 -0.002048 0.010099 0.000000 0.001532 0.000000
# 4 0.000000 0.000000 0.000000 -0.006367 0.000000 -0.070745
# 5 -0.005564 0.000586 0.001532 0.000000 0.033038 0.000000
# 6 0.000000 0.000000 0.000000 -0.070745 0.000000 -0.100150
#
#
# Mechanical properties :
#
#
# Convention : Reuss Voigt Hill
#
# Bulk Modulus (GPa) = 51.91813 56.58348 54.25081
# Shear Modulus (GPa) = -155.92238 32.92258 -61.49990
#
# Velocity S-wave (km/s) = -7.77455 3.57246 -4.88268
# Velocity P-wave (km/s) = 7.77595 6.24110 3.27978
#
# Compressibility (1/GPa) = 0.01926109
#
# Stress axis : x y z
#
# Youngs Moduli (GPa) = 93.95831 156.64447 99.01713
#
# Poissons Ratio (x) = 0.10333 0.12125
# Poissons Ratio (y) = 0.06198 0.20283
# Poissons Ratio (z) = 0.11505 0.32087
#
# Static dielectric constant tensor:
#      x y z
#    x 2.046220 0.000000 0.037510 
#    y 0.000000 2.170710 0.000000 
#    z 0.037510 0.000000 1.947540 
# 
# From -- ./inp_files/3230.got.cif
#   From: 2010.05.17/outbox.cif.g08.bks.cpg/sg6_2_cif.got.tgz:3230.got - 2010.06.03 19:42:10.
