data_PCOD9131678
_publ_section_title
;
Structure prediction by ZEFSAII (Michael W. Deem and Ramdas Pophale) SiO2 
 PCOD9131678
Probable space group: C M
;
_chemical_formula_sum "Si O2"
_cell_formula_units_Z 32
_cell_length_a 20.680803
_cell_length_b 8.624805
_cell_length_c 20.471425
_cell_angle_alpha 90.000000
_cell_angle_beta 150.257163
_cell_angle_gamma 90.000000
_cell_volume 1811.510901
_symmetry_space_group_name_H-M "C M"
_symmetry_group_IT_number 8
_symmetry_cell_setting 'monoclinic'
loop_
_space_group_symop_operation_xyz
x,y,z
x,-y,z
1/2+x,1/2+y,z
1/2+x,1/2-y,z
loop_
_atom_site_type_symbol
_atom_site_label
_atom_site_fract_x
_atom_site_fract_y
_atom_site_fract_z
Si Si1 0.740030 0.313923 0.159450
Si Si2 0.259157 0.312699 0.673812
Si Si3 0.287113 0.185875 0.924790
Si Si4 0.431022 0.685578 0.703817
Si Si5 0.968400 0.311363 0.456395
Si Si6 0.506117 0.813802 0.636248
Si Si7 0.211618 0.315224 0.992642
Si Si8 0.961562 0.314539 0.957621
O O1 0.743673 0.500000 0.158071
O O2 0.852144 0.259788 0.307596
O O3 0.758837 0.244928 0.103820
O O4 0.598838 0.262777 0.061633
O O5 0.265597 0.500000 0.686769
O O6 0.314739 0.274050 0.651041
O O7 0.355033 0.239295 0.811202
O O8 0.110854 0.263239 0.555790
O O9 0.152057 0.249404 0.775773
O O10 0.294855 0.254823 0.004141
O O11 0.403653 0.226976 0.977906
O O12 0.277951 0.000000 0.920799
O O13 0.441703 0.500000 0.709357
O O14 0.422170 0.753562 0.623490
O O15 0.565587 0.749994 0.852379
O O16 0.966974 0.500000 0.454543
O O17 0.956340 0.263911 0.521471
O O18 0.512444 0.000000 0.643996
O O19 0.206371 0.500000 0.987129
O O20 0.975506 0.500000 0.966177
#
# Coordination Sequence:
#
# PCOD9131678 Si02
#       8
#     4   4   4   4   4   4   4   4
#     4  11  22  38  58  79 112 154 188 226 276 333
#     4  10  19  35  58  81 108 144 186 227 272 327
#     4  10  20  34  54  82 112 142 180 228 279 329
#     4  10  19  31  53  83 111 142 179 223 275 329
#     4   9  20  37  57  81 108 146 191 225 272 334
#     4  10  18  32  55  80 109 143 179 225 273 324
#     4  11  21  34  54  81 112 144 184 231 277 328
#     4  11  22  35  55  85 114 141 185 235 276 324
#
# _framework density 17.664812000000001
#
# number of rings (size 3 to 8) (size 9 to 14) (size 15 to 20)
#    0.000    1.750    2.500    4.500    0.000    2.000 
#    0.000    5.000    0.000    4.500    0.000    0.000 
#    0.000    0.000    0.000    0.000    0.000    0.000 
#
# Total GULP energy -89331.823515 kJ/mol
# GULP energy per Si atom -5583.238970 kJ/mol
# Density = 1.762461 g / cm^3
# Si number density = 17.664812 Si / 1000 Ang^3
#
#
#
# Elastic Constant Matrix: (Units=GPa)
#
#
# Indices 1 2 3 4 5 6 
#
# 1 170.9901 47.5396 81.0915 0.0000 -24.7423 0.0000
# 2 47.5396 54.3467 26.2822 0.0000 -6.8857 0.0000
# 3 81.0915 26.2822 117.9751 0.0000 -17.5562 0.0000
# 4 0.0000 0.0000 0.0000 9.7522 0.0000 -7.2021
# 5 -24.7423 -6.8857 -17.5562 0.0000 27.0746 0.0000
# 6 0.0000 0.0000 0.0000 -7.2021 0.0000 28.2091
#
#
#
# Elastic Compliance Matrix: (Units=1/GPa)
#
#
# Indices 1 2 3 4 5 6 
#
# 1 0.010814 -0.006276 -0.005315 0.000000 0.004840 0.000000
# 2 -0.006276 0.024420 -0.001168 0.000000 -0.000282 0.000000
# 3 -0.005315 -0.001168 0.012864 0.000000 0.003188 0.000000
# 4 0.000000 0.000000 0.000000 0.126367 0.000000 0.032263
# 5 0.004840 -0.000282 0.003188 0.000000 0.043353 0.000000
# 6 0.000000 0.000000 0.000000 0.032263 0.000000 0.043687
#
#
# Mechanical properties :
#
#
# Convention : Reuss Voigt Hill
#
# Bulk Modulus (GPa) = 44.28771 72.57094 58.42933
# Shear Modulus (GPa) = 16.97511 25.56710 21.27110
#
# Velocity S-wave (km/s) = 3.10329 3.80853 3.47385
# Velocity P-wave (km/s) = 6.16167 7.77890 7.01703
#
# Compressibility (1/GPa) = 0.02257963
#
# Stress axis : x y z
#
# Youngs Moduli (GPa) = 92.47214 40.95077 77.73571
#
# Poissons Ratio (x) = 0.25701 0.41314
# Poissons Ratio (y) = 0.58037 0.09081
# Poissons Ratio (z) = 0.49146 0.04784
#
# Static dielectric constant tensor:
#      x y z
#    x 1.620690 0.000000 -0.007910 
#    y 0.000000 1.597400 0.000000 
#    z -0.007910 0.000000 1.569050 
# 
# From -- ./inp_files/31367.got.cif
#   From: 2010.05.17/outbox.cif.g08.bks.cpg/sg8_16_cif.got.tgz:31367.got - 2010.06.03 19:46:02.
