data_PCOD9131017
_publ_section_title
;
Structure prediction by ZEFSAII (Michael W. Deem and Ramdas Pophale) SiO2 
 PCOD9131017
Probable space group: P M
;
_chemical_formula_sum "Si O2"
_cell_formula_units_Z 10
_cell_length_a 9.491275
_cell_length_b 10.278802
_cell_length_c 5.254941
_cell_angle_alpha 90.000000
_cell_angle_beta 72.075167
_cell_angle_gamma 90.000000
_cell_volume 487.782190
_symmetry_space_group_name_H-M "P M"
_symmetry_group_IT_number 6
_symmetry_cell_setting 'monoclinic'
loop_
_space_group_symop_operation_xyz
x,y,z
x,-y,z
loop_
_atom_site_type_symbol
_atom_site_label
_atom_site_fract_x
_atom_site_fract_y
_atom_site_fract_z
Si Si1 0.591250 0.154224 0.303360
Si Si2 0.181085 0.863082 0.387321
Si Si3 0.419340 0.769570 0.912834
Si Si4 0.170095 0.647660 0.784845
Si Si5 0.938895 0.149514 0.146330
O O1 0.508579 0.185493 0.614220
O O2 0.765794 0.178281 0.239415
O O3 0.571556 0.000000 0.258759
O O4 0.527024 0.233024 0.097125
O O5 0.218355 0.733494 0.516842
O O6 0.012861 0.855603 0.385006
O O7 0.206870 0.000000 0.511343
O O8 0.287758 0.864052 0.083161
O O9 0.314118 0.650127 0.887856
O O10 0.127039 0.500000 0.755085
O O11 0.033939 0.736038 0.962784
O O12 0.957501 0.000000 0.036060
#
# Coordination Sequence:
#
# PCOD9131017 Si02
#       5
#     2   2   2   2   2
#     4  11  22  39  67 102 135 165 206 273 337 386
#     4  10  20  38  66  98 132 169 219 270 320 382
#     4  11  23  40  64  97 130 171 213 264 325 386
#     4  11  24  43  66  93 133 179 224 264 318 385
#     4   9  22  40  65  98 130 166 216 271 328 387
#
# _framework density 20.500954
#
# number of rings (size 3 to 8) (size 9 to 14) (size 15 to 20)
#    0.000    1.600    2.000    2.400    2.800    6.400 
#    0.000    2.000    0.000    0.000    0.000    0.000 
#    0.000    0.000    0.000    0.000    0.000    0.000 
#
# Total GULP energy -55685.877226 kJ/mol
# GULP energy per Si atom -5568.587723 kJ/mol
# Density = 2.045429 g / cm^3
# Si number density = 20.500954 Si / 1000 Ang^3
#
#
#
# Elastic Constant Matrix: (Units=GPa)
#
#
# Indices 1 2 3 4 5 6 
#
# 1 180.1230 40.6494 57.1259 0.0000 -6.9518 0.0000
# 2 40.6494 159.6190 52.9502 0.0000 -6.2036 0.0000
# 3 57.1259 52.9502 112.6362 0.0000 1.3655 0.0000
# 4 0.0000 0.0000 0.0000 -28.5159 0.0000 18.7440
# 5 -6.9518 -6.2036 1.3655 0.0000 30.7064 0.0000
# 6 0.0000 0.0000 0.0000 18.7440 0.0000 16.4072
#
#
#
# Elastic Compliance Matrix: (Units=1/GPa)
#
#
# Indices 1 2 3 4 5 6 
#
# 1 0.006750 -0.000613 -0.003154 0.000000 0.001545 0.000000
# 2 -0.000613 0.007563 -0.003263 0.000000 0.001534 0.000000
# 3 -0.003154 -0.003263 0.012035 0.000000 -0.001909 0.000000
# 4 0.000000 0.000000 0.000000 -0.020028 0.000000 0.022881
# 5 0.001545 0.001534 -0.001909 0.000000 0.033311 0.000000
# 6 0.000000 0.000000 0.000000 0.022881 0.000000 0.034809
#
#
# Mechanical properties :
#
#
# Convention : Reuss Voigt Hill
#
# Bulk Modulus (GPa) = 81.38027 83.75880 82.56954
# Shear Modulus (GPa) = 53.99779 23.82972 38.91376
#
# Velocity S-wave (km/s) = 5.13774 3.41306 4.36150
# Velocity P-wave (km/s) = 8.65893 7.51510 8.10721
#
# Compressibility (1/GPa) = 0.01228799
#
# Stress axis : x y z
#
# Youngs Moduli (GPa) = 148.14899 132.22096 83.09082
#
# Poissons Ratio (x) = 0.08100 0.26208
# Poissons Ratio (y) = 0.09076 0.27115
# Poissons Ratio (z) = 0.46728 0.43148
#
# Static dielectric constant tensor:
#      x y z
#    x 1.766710 0.000000 0.039670 
#    y 0.000000 1.659020 0.000000 
#    z 0.039670 0.000000 1.814230 
# 
# From -- ./inp_files/798.got.cif
#   From: 2010.05.17/outbox.cif.g08.bks.cpg/sg6_1_cif.got.tgz:798.got - 2010.06.03 19:42:10.
