data_PCOD9131392
_publ_section_title
;
Structure prediction by ZEFSAII (Michael W. Deem and Ramdas Pophale) SiO2 
 PCOD9131392
Probable space group: P C
;
_chemical_formula_sum "Si O2"
_cell_formula_units_Z 14
_cell_length_a 9.318594
_cell_length_b 15.898177
_cell_length_c 5.696926
_cell_angle_alpha 90.000000
_cell_angle_beta 43.157981
_cell_angle_gamma 90.000000
_cell_volume 577.300880
_symmetry_space_group_name_H-M "P C"
_symmetry_group_IT_number 7
_symmetry_cell_setting 'monoclinic'
loop_
_space_group_symop_operation_xyz
x,y,z
x,-y,1/2+z
loop_
_atom_site_type_symbol
_atom_site_label
_atom_site_fract_x
_atom_site_fract_y
_atom_site_fract_z
Si Si1 0.535870 0.546691 0.359980
Si Si2 0.747505 0.276654 0.752511
Si Si3 0.034596 0.311392 0.803527
Si Si4 0.749192 0.814303 0.823651
Si Si5 0.066900 0.490265 0.928661
Si Si6 0.059825 0.047396 0.765112
Si Si7 0.389785 0.821934 0.967400
O O1 0.580291 0.490144 0.543486
O O2 0.627013 0.640166 0.299208
O O3 0.278501 0.545067 0.675092
O O4 0.958375 0.312763 0.625372
O O5 0.820826 0.198157 0.502768
O O6 0.570891 0.225384 0.107942
O O7 0.120721 0.393402 0.821719
O O8 0.196229 0.240423 0.679450
O O9 0.811861 0.280742 0.171520
O O10 0.503348 0.830782 0.083737
O O11 0.878328 0.882139 0.522194
O O12 0.955562 0.507163 0.813077
O O13 0.289514 0.091216 0.502765
O O14 0.038425 0.006774 0.532359
#
# Coordination Sequence:
#
# PCOD9131392 Si02
#       7
#     2   2   2   2   2   2   2
#     4  10  23  41  64  97 140 189 243 302 355 408
#     4  11  25  43  74 101 147 191 248 304 357 429
#     4  10  24  43  66 100 141 190 242 301 359 427
#     4  10  26  45  73 105 144 189 239 291 364 435
#     4  10  22  38  62  93 133 185 242 297 353 410
#     4  11  28  50  77 110 152 182 232 296 362 441
#     4  10  24  46  74 106 137 192 238 285 364 436
#
# _framework density 24.250786999999999
#
# number of rings (size 3 to 8) (size 9 to 14) (size 15 to 20)
#    0.000    1.714    0.000    1.714   18.000    3.429 
#    0.000    0.000    0.000    0.000    0.000    0.000 
#    0.000    0.000    0.000    0.000    0.000    0.000 
#
# Total GULP energy -77939.175357 kJ/mol
# GULP energy per Si atom -5567.083954 kJ/mol
# Density = 2.419559 g / cm^3
# Si number density = 24.250787 Si / 1000 Ang^3
#
#
#
# Elastic Constant Matrix: (Units=GPa)
#
#
# Indices 1 2 3 4 5 6 
#
# 1 137.2296 32.2743 42.3691 0.0000 -4.7669 0.0000
# 2 32.2743 89.6439 38.6660 0.0000 8.8678 0.0000
# 3 42.3691 38.6660 96.2025 0.0000 26.9236 0.0000
# 4 0.0000 0.0000 0.0000 47.4610 0.0000 -1.3837
# 5 -4.7669 8.8678 26.9236 0.0000 43.2544 0.0000
# 6 0.0000 0.0000 0.0000 -1.3837 0.0000 36.0252
#
#
#
# Elastic Compliance Matrix: (Units=1/GPa)
#
#
# Indices 1 2 3 4 5 6 
#
# 1 0.009255 -0.001793 -0.004533 0.000000 0.004209 0.000000
# 2 -0.001793 0.013862 -0.004760 0.000000 -0.000076 0.000000
# 3 -0.004533 -0.004760 0.017161 0.000000 -0.010205 0.000000
# 4 0.000000 0.000000 0.000000 0.021094 0.000000 0.000810
# 5 0.004209 -0.000076 -0.010205 0.000000 0.029951 0.000000
# 6 0.000000 0.000000 0.000000 0.000810 0.000000 0.027789
#
#
# Mechanical properties :
#
#
# Convention : Reuss Voigt Hill
#
# Bulk Modulus (GPa) = 55.23698 61.07722 58.15710
# Shear Modulus (GPa) = 33.94022 39.33257 36.63640
#
# Velocity S-wave (km/s) = 3.74512 4.03166 3.89103
# Velocity P-wave (km/s) = 6.44423 6.84929 6.64984
#
# Compressibility (1/GPa) = 0.01810381
#
# Stress axis : x y z
#
# Youngs Moduli (GPa) = 108.05480 72.14192 58.27324
#
# Poissons Ratio (x) = 0.12935 0.26416
# Poissons Ratio (y) = 0.19374 0.27739
# Poissons Ratio (z) = 0.48983 0.34341
#
# Static dielectric constant tensor:
#      x y z
#    x 2.242670 0.000000 0.221040 
#    y 0.000000 1.969270 0.000000 
#    z 0.221040 0.000000 2.184000 
# 
# From -- ./inp_files/598.got.cif
#   From: 2010.05.17/outbox.cif.g08.bks.cpg/sg7_cif.got.tgz:598.got - 2010.06.03 19:44:50.
