data_PCOD9131498
_publ_section_title
;
Structure prediction by ZEFSAII (Michael W. Deem and Ramdas Pophale) SiO2 
 PCOD9131498
Probable space group: C M
;
_chemical_formula_sum "Si O2"
_cell_formula_units_Z 24
_cell_length_a 7.675869
_cell_length_b 27.133218
_cell_length_c 5.474987
_cell_angle_alpha 90.000000
_cell_angle_beta 123.363451
_cell_angle_gamma 90.000000
_cell_volume 952.361512
_symmetry_space_group_name_H-M "C M"
_symmetry_group_IT_number 8
_symmetry_cell_setting 'monoclinic'
loop_
_space_group_symop_operation_xyz
x,y,z
x,-y,z
1/2+x,1/2+y,z
1/2+x,1/2-y,z
loop_
_atom_site_type_symbol
_atom_site_label
_atom_site_fract_x
_atom_site_fract_y
_atom_site_fract_z
Si Si1 0.948950 0.109746 0.712430
Si Si2 0.026713 0.446810 0.410268
Si Si3 0.466309 0.441441 0.226170
Si Si4 0.523666 0.193917 0.911150
Si Si5 0.962775 0.580014 0.862345
Si Si6 0.276268 0.709312 0.609884
O O1 0.700127 0.095680 0.525282
O O2 0.032888 0.084166 0.532209
O O3 0.957513 0.168695 0.706158
O O4 0.024838 0.088403 0.027239
O O5 0.136682 0.500000 0.506860
O O6 0.891216 0.440264 0.547302
O O7 0.898730 0.444824 0.063851
O O8 0.501759 0.500000 0.244435
O O9 0.211430 0.434058 0.038449
O O10 0.440133 0.138467 0.864998
O O11 0.358897 0.235916 0.716654
O O12 0.674238 0.193976 0.789978
O O13 0.633647 0.206686 0.255715
#
# Coordination Sequence:
#
# PCOD9131498 Si02
#       6
#     4   4   4   4   4   4
#     4  10  16  29  44  70 109 140 167 221 281 325
#     4  10  16  25  46  72 110 140 168 215 296 339
#     4  10  16  25  46  72 110 140 168 215 296 339
#     4  12  23  40  59  82 114 158 194 238 284 334
#     4  10  16  29  44  70 109 140 167 221 281 325
#     4  12  23  40  59  82 114 158 194 238 284 334
#
# _framework density 25.200513999999998
#
# number of rings (size 3 to 8) (size 9 to 14) (size 15 to 20)
#    0.000    1.333    6.667    6.000    0.000    0.000 
#    0.000    0.000    0.000    0.000    0.000    0.000 
#    0.000   45.333    0.000    0.000    0.000    0.000 
#
# Total GULP energy -67164.168032 kJ/mol
# GULP energy per Si atom -5597.014003 kJ/mol
# Density = 2.514316 g / cm^3
# Si number density = 25.200514 Si / 1000 Ang^3
#
#
#
# Elastic Constant Matrix: (Units=GPa)
#
#
# Indices 1 2 3 4 5 6 
#
# 1 63.3101 5.8705 24.9647 0.0000 -28.0665 0.0000
# 2 5.8705 213.5481 53.8394 0.0000 -3.5486 0.0000
# 3 24.9647 53.8394 216.0562 0.0000 -40.3094 0.0000
# 4 0.0000 0.0000 0.0000 45.7846 0.0000 -2.7109
# 5 -28.0665 -3.5486 -40.3094 0.0000 55.7687 0.0000
# 6 0.0000 0.0000 0.0000 -2.7109 0.0000 31.3840
#
#
#
# Elastic Compliance Matrix: (Units=1/GPa)
#
#
# Indices 1 2 3 4 5 6 
#
# 1 0.020396 -0.000287 -0.000432 0.000000 0.009934 0.000000
# 2 -0.000287 0.005023 -0.001371 0.000000 -0.000815 0.000000
# 3 -0.000432 -0.001371 0.005737 0.000000 0.003842 0.000000
# 4 0.000000 0.000000 0.000000 0.021954 0.000000 0.001896
# 5 0.009934 -0.000815 0.003842 0.000000 0.025656 0.000000
# 6 0.000000 0.000000 0.000000 0.001896 0.000000 0.032027
#
#
# Mechanical properties :
#
#
# Convention : Reuss Voigt Hill
#
# Bulk Modulus (GPa) = 37.06835 73.58483 55.32659
# Shear Modulus (GPa) = 40.33462 53.80344 47.06903
#
# Velocity S-wave (km/s) = 4.00502 4.62563 4.32647
# Velocity P-wave (km/s) = 6.01068 7.60209 6.85274
#
# Compressibility (1/GPa) = 0.02697719
#
# Stress axis : x y z
#
# Youngs Moduli (GPa) = 49.02870 199.09720 174.31797
#
# Poissons Ratio (x) = 0.05709 0.07528
# Poissons Ratio (y) = 0.01406 0.23892
# Poissons Ratio (z) = 0.02117 0.27288
#
# Static dielectric constant tensor:
#      x y z
#    x 2.129300 0.000000 0.086490 
#    y 0.000000 1.969710 0.000000 
#    z 0.086490 0.000000 2.088740 
# 
# From -- ./inp_files/3138.got.cif
#   From: 2010.05.17/outbox.cif.g08.bks.cpg/sg8_2_cif.got.tgz:3138.got - 2010.06.03 19:46:02.
