data_PCOD9131221
_publ_section_title
;
Structure prediction by ZEFSAII (Michael W. Deem and Ramdas Pophale) SiO2 
 PCOD9131221
Probable space group: P C
;
_chemical_formula_sum "Si O2"
_cell_formula_units_Z 16
_cell_length_a 23.995159
_cell_length_b 6.929105
_cell_length_c 5.216809
_cell_angle_alpha 90.000000
_cell_angle_beta 122.331818
_cell_angle_gamma 90.000000
_cell_volume 732.899476
_symmetry_space_group_name_H-M "P C"
_symmetry_group_IT_number 7
_symmetry_cell_setting 'monoclinic'
loop_
_space_group_symop_operation_xyz
x,y,z
x,-y,1/2+z
loop_
_atom_site_type_symbol
_atom_site_label
_atom_site_fract_x
_atom_site_fract_y
_atom_site_fract_z
Si Si1 0.393810 0.132287 0.236740
Si Si2 0.125215 0.375453 0.560681
Si Si3 0.980944 0.368143 0.292791
Si Si4 0.849885 0.875335 0.467162
Si Si5 0.535808 0.236280 0.514690
Si Si6 0.720432 0.627479 0.122759
Si Si7 0.589611 0.797843 0.648580
Si Si8 0.253056 0.125643 0.991276
O O1 0.460834 0.251664 0.421111
O O2 0.396145 0.968732 0.464037
O O3 0.322954 0.230791 0.106865
O O4 0.127010 0.549158 0.773476
O O5 0.188378 0.247478 0.775863
O O6 0.054004 0.278852 0.437170
O O7 0.976241 0.529866 0.058129
O O8 0.921357 0.221276 0.114947
O O9 0.792316 0.721187 0.280551
O O10 0.842797 0.961628 0.733456
O O11 0.545829 0.309292 0.253359
O O12 0.557813 0.009572 0.532822
O O13 0.584346 0.298831 0.858797
O O14 0.713033 0.530403 0.381097
O O15 0.663860 0.787839 0.933857
O O16 0.252963 0.952354 0.781534
#
# Coordination Sequence:
#
# PCOD9131221 Si02
#       8
#     2   2   2   2   2   2   2   2
#     4  10  16  30  49  83 111 144 187 237 301 341
#     4  10  21  38  61  86 120 164 200 232 289 362
#     4  10  21  41  65  87 120 164 198 232 295 359
#     4  12  26  41  65  95 121 152 200 251 287 341
#     4  10  17  32  55  89 103 140 186 260 276 346
#     4  12  26  44  61  84 125 164 191 237 302 367
#     4  10  20  31  58  79 109 142 192 239 289 331
#     4  10  21  33  56  87 119 150 198 252 289 343
#
# _framework density 21.831098999999998
#
# number of rings (size 3 to 8) (size 9 to 14) (size 15 to 20)
#    0.000    1.500    2.500    3.750    3.500    1.000 
#    0.000    0.000    0.000    4.500    0.000    0.000 
#    0.000    0.000    0.000    0.000    0.000    0.000 
#
# Total GULP energy -89359.220034 kJ/mol
# GULP energy per Si atom -5584.951252 kJ/mol
# Density = 2.178141 g / cm^3
# Si number density = 21.831099 Si / 1000 Ang^3
#
#
#
# Elastic Constant Matrix: (Units=GPa)
#
#
# Indices 1 2 3 4 5 6 
#
# 1 95.9861 6.5921 34.8487 0.0000 18.0565 0.0000
# 2 6.5921 30.5232 -1.9959 0.0000 14.6272 0.0000
# 3 34.8487 -1.9959 102.2258 0.0000 9.4433 0.0000
# 4 0.0000 0.0000 0.0000 22.3300 0.0000 3.4201
# 5 18.0565 14.6272 9.4433 0.0000 64.6879 0.0000
# 6 0.0000 0.0000 0.0000 3.4201 0.0000 20.0195
#
#
#
# Elastic Compliance Matrix: (Units=1/GPa)
#
#
# Indices 1 2 3 4 5 6 
#
# 1 0.012482 -0.001767 -0.004059 0.000000 -0.002492 0.000000
# 2 -0.001767 0.037224 0.002089 0.000000 -0.008229 0.000000
# 3 -0.004059 0.002089 0.011298 0.000000 -0.000989 0.000000
# 4 0.000000 0.000000 0.000000 0.045986 0.000000 -0.007856
# 5 -0.002492 -0.008229 -0.000989 0.000000 0.018159 0.000000
# 6 0.000000 0.000000 0.000000 -0.007856 0.000000 0.051293
#
#
# Mechanical properties :
#
#
# Convention : Reuss Voigt Hill
#
# Bulk Modulus (GPa) = 18.68125 34.18052 26.43089
# Shear Modulus (GPa) = 24.78186 34.02682 29.40434
#
# Velocity S-wave (km/s) = 3.37287 3.95224 3.67400
# Velocity P-wave (km/s) = 4.87279 6.04299 5.48917
#
# Compressibility (1/GPa) = 0.05352961
#
# Stress axis : x y z
#
# Youngs Moduli (GPa) = 80.11451 26.86471 88.50929
#
# Poissons Ratio (x) = 0.04747 0.35930
# Poissons Ratio (y) = 0.14156 -0.18492
# Poissons Ratio (z) = 0.32522 -0.05613
#
# Static dielectric constant tensor:
#      x y z
#    x 1.812560 0.000000 -0.006920 
#    y 0.000000 1.560380 0.000000 
#    z -0.006920 0.000000 1.808010 
# 
# From -- ./inp_files/1466.got.cif
#   From: 2010.05.17/outbox.cif.g08.bks.cpg/sg7_cif.got.tgz:1466.got - 2010.06.03 19:44:50.
