data_PCOD9131119
_publ_section_title
;
Structure prediction by ZEFSAII (Michael W. Deem and Ramdas Pophale) SiO2 
 PCOD9131119
Probable space group: P M
;
_chemical_formula_sum "Si O2"
_cell_formula_units_Z 14
_cell_length_a 16.004146
_cell_length_b 10.165414
_cell_length_c 7.780906
_cell_angle_alpha 90.000000
_cell_angle_beta 147.100134
_cell_angle_gamma 90.000000
_cell_volume 687.583596
_symmetry_space_group_name_H-M "P M"
_symmetry_group_IT_number 6
_symmetry_cell_setting 'monoclinic'
loop_
_space_group_symop_operation_xyz
x,y,z
x,-y,z
loop_
_atom_site_type_symbol
_atom_site_label
_atom_site_fract_x
_atom_site_fract_y
_atom_site_fract_z
Si Si1 0.492790 0.343975 0.797670
Si Si2 0.263560 0.651248 0.704652
Si Si3 0.071518 0.144519 0.823873
Si Si4 0.389908 0.230435 0.252468
Si Si5 0.724178 0.851762 0.790221
Si Si6 0.034178 0.147951 0.160663
Si Si7 0.822913 0.657270 0.259853
O O1 0.473549 0.500000 0.745892
O O2 0.391319 0.304269 0.785400
O O3 0.435749 0.282361 0.520456
O O4 0.675521 0.321302 0.130097
O O5 0.221374 0.500000 0.598449
O O6 0.118552 0.745628 0.423926
O O7 0.335269 0.664337 0.017272
O O8 0.970602 0.265329 0.582204
O O9 0.999261 0.000000 0.669406
O O10 0.237995 0.145923 0.023965
O O11 0.086113 0.162204 0.054073
O O12 0.543649 0.164058 0.442627
O O13 0.744330 0.000000 0.899155
O O14 0.771664 0.734203 0.999785
O O15 0.849251 0.841549 0.854726
O O16 0.075349 0.000000 0.290113
O O17 0.845601 0.500000 0.276386
#
# Coordination Sequence:
#
# PCOD9131119 Si02
#       7
#     2   2   2   2   2   2   2
#     4   9  20  40  59  90 130 160 199 257 306 363
#     4  11  23  40  65  94 124 165 207 253 312 367
#     4  11  23  40  62  90 126 165 207 254 309 366
#     4  11  22  38  66  93 124 160 210 248 311 364
#     4  10  22  41  64  90 123 160 205 255 306 365
#     4  10  23  42  61  89 126 164 207 257 307 365
#     4  10  22  39  63  90 123 162 205 252 311 368
#
# _framework density 20.361159000000001
#
# number of rings (size 3 to 8) (size 9 to 14) (size 15 to 20)
#    0.000    1.714    1.429    2.143    2.000    6.286 
#    0.000    0.714    0.000    0.000    0.000    0.000 
#    0.000    0.000    0.000    0.000    0.000    0.000 
#
# Total GULP energy -78082.737612 kJ/mol
# GULP energy per Si atom -5577.338401 kJ/mol
# Density = 2.031482 g / cm^3
# Si number density = 20.361159 Si / 1000 Ang^3
#
#
#
# Elastic Constant Matrix: (Units=GPa)
#
#
# Indices 1 2 3 4 5 6 
#
# 1 88.5496 31.3623 31.3521 0.0000 19.5751 0.0000
# 2 31.3623 112.3032 59.9492 0.0000 13.2078 0.0000
# 3 31.3521 59.9492 94.8056 0.0000 17.9115 0.0000
# 4 0.0000 0.0000 0.0000 24.6174 0.0000 0.9362
# 5 19.5751 13.2078 17.9115 0.0000 31.8741 0.0000
# 6 0.0000 0.0000 0.0000 0.9362 0.0000 17.4467
#
#
#
# Elastic Compliance Matrix: (Units=1/GPa)
#
#
# Indices 1 2 3 4 5 6 
#
# 1 0.014262 -0.002042 -0.002159 0.000000 -0.006699 0.000000
# 2 -0.002042 0.013757 -0.008037 0.000000 0.000070 0.000000
# 3 -0.002159 -0.008037 0.017301 0.000000 -0.005066 0.000000
# 4 0.000000 0.000000 0.000000 0.040705 0.000000 -0.002184
# 5 -0.006699 0.000070 -0.005066 0.000000 0.038305 0.000000
# 6 0.000000 0.000000 0.000000 -0.002184 0.000000 0.057435
#
#
# Mechanical properties :
#
#
# Convention : Reuss Voigt Hill
#
# Bulk Modulus (GPa) = 47.97796 60.10950 54.04373
# Shear Modulus (GPa) = 23.45340 26.32063 24.88702
#
# Velocity S-wave (km/s) = 3.39760 3.59930 3.49990
# Velocity P-wave (km/s) = 6.24550 6.84536 6.55230
#
# Compressibility (1/GPa) = 0.02084290
#
# Stress axis : x y z
#
# Youngs Moduli (GPa) = 70.11686 72.69180 57.80009
#
# Poissons Ratio (x) = 0.14846 0.12481
# Poissons Ratio (y) = 0.14320 0.46452
# Poissons Ratio (z) = 0.15140 0.58421
#
# Static dielectric constant tensor:
#      x y z
#    x 1.752490 0.000000 0.029560 
#    y 0.000000 1.710960 0.000000 
#    z 0.029560 0.000000 1.724340 
# 
# From -- ./inp_files/4206.got.cif
#   From: 2010.05.17/outbox.cif.g08.bks.cpg/sg6_3_cif.got.tgz:4206.got - 2010.06.03 19:42:10.
