data_PCOD9131332
_publ_section_title
;
Structure prediction by ZEFSAII (Michael W. Deem and Ramdas Pophale) SiO2 
 PCOD9131332
Probable space group: P C
;
_chemical_formula_sum "Si O2"
_cell_formula_units_Z 14
_cell_length_a 7.466414
_cell_length_b 18.279501
_cell_length_c 5.216378
_cell_angle_alpha 90.000000
_cell_angle_beta 115.109188
_cell_angle_gamma 90.000000
_cell_volume 644.665276
_symmetry_space_group_name_H-M "P C"
_symmetry_group_IT_number 7
_symmetry_cell_setting 'monoclinic'
loop_
_space_group_symop_operation_xyz
x,y,z
x,-y,1/2+z
loop_
_atom_site_type_symbol
_atom_site_label
_atom_site_fract_x
_atom_site_fract_y
_atom_site_fract_z
Si Si1 0.956030 0.680294 0.933060
Si Si2 0.977905 0.842844 0.003856
Si Si3 0.085997 0.472686 0.677926
Si Si4 0.332823 0.047890 0.588825
Si Si5 0.525258 0.468051 0.570491
Si Si6 0.705255 0.846743 0.341342
Si Si7 0.690867 0.682994 0.271036
O O1 0.056159 0.759331 0.027136
O O2 0.856246 0.674233 0.593632
O O3 0.787468 0.681425 0.048689
O O4 0.085198 0.609674 0.076951
O O5 0.152591 0.898726 0.051864
O O6 0.816929 0.850721 0.680060
O O7 0.866027 0.853652 0.207940
O O8 0.989327 0.522408 0.399239
O O9 0.300302 0.506089 0.879002
O O10 0.322464 0.984414 0.796445
O O11 0.537470 0.092353 0.729511
O O12 0.611367 0.521964 0.838725
O O13 0.545886 0.386165 0.687204
O O14 0.611652 0.765212 0.260675
#
# Coordination Sequence:
#
# PCOD9131332 Si02
#       7
#     2   2   2   2   2   2   2
#     4  10  21  38  60  84 115 159 208 256 309 369
#     4  10  23  44  67  94 130 171 213 262 316 375
#     4  10  21  35  52  80 114 151 197 247 306 359
#     4  12  26  42  68 104 132 166 210 254 318 392
#     4  10  21  35  52  80 114 151 197 247 306 359
#     4  10  23  44  67  94 130 171 213 262 316 375
#     4  10  21  38  60  84 115 159 208 256 309 369
#
# _framework density 21.716695999999999
#
# number of rings (size 3 to 8) (size 9 to 14) (size 15 to 20)
#    0.000    1.714    0.000    3.429    0.000    9.143 
#    0.000    8.571    0.000    0.000    0.000    0.000 
#    0.000    0.000    0.000    0.000    0.000    0.000 
#
# Total GULP energy -78194.185535 kJ/mol
# GULP energy per Si atom -5585.298967 kJ/mol
# Density = 2.166727 g / cm^3
# Si number density = 21.716696 Si / 1000 Ang^3
#
#
#
# Elastic Constant Matrix: (Units=GPa)
#
#
# Indices 1 2 3 4 5 6 
#
# 1 51.9274 18.1039 0.9799 0.0000 -0.9522 0.0000
# 2 18.1039 92.3754 -2.5827 0.0000 15.2462 0.0000
# 3 0.9799 -2.5827 71.3118 0.0000 -29.3395 0.0000
# 4 0.0000 0.0000 0.0000 42.5366 0.0000 5.1761
# 5 -0.9522 15.2462 -29.3395 0.0000 35.4301 0.0000
# 6 0.0000 0.0000 0.0000 5.1761 0.0000 38.9110
#
#
#
# Elastic Compliance Matrix: (Units=1/GPa)
#
#
# Indices 1 2 3 4 5 6 
#
# 1 0.020911 -0.004617 0.000901 0.000000 0.003295 0.000000
# 2 -0.004617 0.012971 -0.002752 0.000000 -0.007985 0.000000
# 3 0.000901 -0.002752 0.021853 0.000000 0.019305 0.000000
# 4 0.000000 0.000000 0.000000 0.023896 0.000000 -0.003179
# 5 0.003295 -0.007985 0.019305 0.000000 0.047736 0.000000
# 6 0.000000 0.000000 0.000000 -0.003179 0.000000 0.026123
#
#
# Mechanical properties :
#
#
# Convention : Reuss Voigt Hill
#
# Bulk Modulus (GPa) = 23.36442 27.62411 25.49427
# Shear Modulus (GPa) = 27.67155 36.64975 32.16065
#
# Velocity S-wave (km/s) = 3.57347 4.11253 3.85244
# Velocity P-wave (km/s) = 5.27337 5.94125 5.61724
#
# Compressibility (1/GPa) = 0.04280011
#
# Stress axis : x y z
#
# Youngs Moduli (GPa) = 47.82258 77.09466 45.75930
#
# Poissons Ratio (x) = 0.35592 -0.04123
# Poissons Ratio (y) = 0.22078 0.12592
# Poissons Ratio (z) = -0.04309 0.21215
#
# Static dielectric constant tensor:
#      x y z
#    x 2.222380 0.000000 -0.089710 
#    y 0.000000 1.807960 0.000000 
#    z -0.089710 0.000000 1.775060 
# 
# From -- ./inp_files/836.got.cif
#   From: 2010.05.17/outbox.cif.g08.bks.cpg/sg7_cif.got.tgz:836.got - 2010.06.03 19:44:50.
