data_PCOD9131859
_publ_section_title
;
Structure prediction by ZEFSAII (Michael W. Deem and Ramdas Pophale) SiO2 
 PCOD9131859
Probable space group: C M
;
_chemical_formula_sum "Si O2"
_cell_formula_units_Z 32
_cell_length_a 25.560642
_cell_length_b 7.852758
_cell_length_c 20.869791
_cell_angle_alpha 90.000000
_cell_angle_beta 157.217106
_cell_angle_gamma 90.000000
_cell_volume 1622.156181
_symmetry_space_group_name_H-M "C M"
_symmetry_group_IT_number 8
_symmetry_cell_setting 'monoclinic'
loop_
_space_group_symop_operation_xyz
x,y,z
x,-y,z
1/2+x,1/2+y,z
1/2+x,1/2-y,z
loop_
_atom_site_type_symbol
_atom_site_label
_atom_site_fract_x
_atom_site_fract_y
_atom_site_fract_z
Si Si1 0.332270 0.696631 0.871880
Si Si2 0.338784 0.800642 0.025384
Si Si3 0.077849 0.798901 0.502079
Si Si4 0.609735 0.302466 0.396830
Si Si5 0.769449 0.702448 0.457201
Si Si6 0.886640 0.791409 0.395057
Si Si7 0.119444 0.301332 0.158424
Si Si8 0.536863 0.294038 0.695082
O O1 0.298554 0.500000 0.844504
O O2 0.213192 0.778942 0.696430
O O3 0.346627 0.782641 0.957459
O O4 0.476028 0.710887 0.998902
O O5 0.462805 0.706641 0.198339
O O6 0.350317 0.000000 0.054813
O O7 0.190276 0.736670 0.877607
O O8 0.099892 0.723984 0.456370
O O9 0.955229 0.730423 0.407183
O O10 0.049514 0.000000 0.461872
O O11 0.650340 0.500000 0.451124
O O12 0.713109 0.229717 0.460924
O O13 0.741964 0.500000 0.422789
O O14 0.689059 0.784658 0.307037
O O15 0.927050 0.733621 0.622316
O O16 0.734271 0.736543 0.239179
O O17 0.980275 0.740197 0.561281
O O18 0.885744 0.000000 0.394107
O O19 0.094581 0.500000 0.117429
O O20 0.537734 0.500000 0.695943
#
# Coordination Sequence:
#
# PCOD9131859 Si02
#       8
#     4   4   4   4   4   4   4   4
#     4  12  23  35  54  85 115 141 184 235 279 326
#     4  11  21  36  59  82 109 146 189 230 275 329
#     4  10  20  39  60  79 110 151 184 224 279 334
#     4  10  22  37  56  83 115 146 183 228 277 331
#     4  10  19  32  51  82 115 144 179 226 277 323
#     4   8  15  31  55  80 104 135 185 226 265 324
#     4  10  19  33  55  82 108 144 185 227 275 328
#     4   9  18  33  54  81 106 139 187 228 269 329
#
# _framework density 19.726831000000001
#
# number of rings (size 3 to 8) (size 9 to 14) (size 15 to 20)
#    0.000    2.000    2.500    3.000    0.000    2.000 
#    0.000    1.875    0.000    6.000    0.000    0.000 
#    0.000    0.000    0.000    0.000    0.000    0.000 
#
# Total GULP energy -89299.168028 kJ/mol
# GULP energy per Si atom -5581.198002 kJ/mol
# Density = 1.968193 g / cm^3
# Si number density = 19.726831 Si / 1000 Ang^3
#
#
#
# Elastic Constant Matrix: (Units=GPa)
#
#
# Indices 1 2 3 4 5 6 
#
# 1 162.2131 -6.0027 50.1643 0.0000 19.8308 0.0000
# 2 -6.0027 28.1417 -18.4300 0.0000 0.9855 0.0000
# 3 50.1643 -18.4300 48.8347 0.0000 13.6683 0.0000
# 4 0.0000 0.0000 0.0000 14.2000 0.0000 -0.8360
# 5 19.8308 0.9855 13.6683 0.0000 35.2534 0.0000
# 6 0.0000 0.0000 0.0000 -0.8360 0.0000 11.6714
#
#
#
# Elastic Compliance Matrix: (Units=1/GPa)
#
#
# Indices 1 2 3 4 5 6 
#
# 1 0.009742 -0.005750 -0.011989 0.000000 -0.000671 0.000000
# 2 -0.005750 0.053431 0.028699 0.000000 -0.009386 0.000000
# 3 -0.011989 0.028699 0.047068 0.000000 -0.012307 0.000000
# 4 0.000000 0.000000 0.000000 0.070721 0.000000 0.005065
# 5 -0.000671 -0.009386 -0.012307 0.000000 0.033777 0.000000
# 6 0.000000 0.000000 0.000000 0.005065 0.000000 0.086042
#
#
# Mechanical properties :
#
#
# Convention : Reuss Voigt Hill
#
# Bulk Modulus (GPa) = 7.56661 32.29476 19.93069
# Shear Modulus (GPa) = 15.48386 26.45549 20.96967
#
# Velocity S-wave (km/s) = 2.80467 3.66606 3.26391
# Velocity P-wave (km/s) = 3.78580 5.85889 4.93249
#
# Compressibility (1/GPa) = 0.13215950
#
# Stress axis : x y z
#
# Youngs Moduli (GPa) = 102.65234 18.71559 21.24565
#
# Poissons Ratio (x) = 0.10762 0.25472
# Poissons Ratio (y) = 0.59029 -0.60972
# Poissons Ratio (z) = 1.23073 -0.53711
#
# Static dielectric constant tensor:
#      x y z
#    x 1.729520 0.000000 0.023920 
#    y 0.000000 1.730200 0.000000 
#    z 0.023920 0.000000 1.659890 
# 
# From -- ./inp_files/31334.got.cif
#   From: 2010.05.17/outbox.cif.g08.bks.cpg/sg8_16_cif.got.tgz:31334.got - 2010.06.03 19:46:02.
