data_PCOD9131981
_publ_section_title
;
Structure prediction by ZEFSAII (Michael W. Deem and Ramdas Pophale) SiO2 
 PCOD9131981
Probable space group: C M
;
_chemical_formula_sum "Si O2"
_cell_formula_units_Z 32
_cell_length_a 20.913029
_cell_length_b 7.823278
_cell_length_c 12.677031
_cell_angle_alpha 90.000000
_cell_angle_beta 127.364080
_cell_angle_gamma 90.000000
_cell_volume 1648.460381
_symmetry_space_group_name_H-M "C M"
_symmetry_group_IT_number 8
_symmetry_cell_setting 'monoclinic'
loop_
_space_group_symop_operation_xyz
x,y,z
x,-y,z
1/2+x,1/2+y,z
1/2+x,1/2-y,z
loop_
_atom_site_type_symbol
_atom_site_label
_atom_site_fract_x
_atom_site_fract_y
_atom_site_fract_z
Si Si1 0.743060 0.291706 0.086470
Si Si2 0.503210 0.791029 0.313768
Si Si3 0.856127 0.702782 0.021413
Si Si4 0.890497 0.291667 0.386178
Si Si5 0.592485 0.707670 0.061239
Si Si6 0.411760 0.698944 0.857690
Si Si7 0.844619 0.300945 0.567510
Si Si8 0.161220 0.296775 0.359669
O O1 0.740001 0.500000 0.081938
O O2 0.780225 0.231604 0.012689
O O3 0.809540 0.244277 0.241285
O O4 0.655841 0.232361 0.036167
O O5 0.438485 0.733773 0.159962
O O6 0.465564 0.738656 0.388398
O O7 0.592304 0.734216 0.371651
O O8 0.504596 0.000000 0.313539
O O9 0.857287 0.500000 0.039809
O O10 0.858254 0.731261 0.899594
O O11 0.890989 0.500000 0.389675
O O12 0.884229 0.229420 0.499618
O O13 0.591722 0.500000 0.057904
O O14 0.626485 0.761778 0.208604
O O15 0.502083 0.772990 0.954208
O O16 0.419407 0.500000 0.888477
O O17 0.374594 0.720309 0.705599
O O18 0.865712 0.500000 0.594881
O O19 0.748533 0.284366 0.460059
O O20 0.171139 0.500000 0.383228
#
# Coordination Sequence:
#
# PCOD9131981 Si02
#       8
#     4   4   4   4   4   4   4   4
#     4   8  14  28  54  81 102 131 176 222 257 304
#     4   8  15  28  51  81 107 133 169 216 262 308
#     4   9  16  31  55  79 104 139 180 213 256 316
#     4   8  14  28  52  78 101 133 176 215 255 308
#     4  10  19  34  55  79 107 141 179 218 262 312
#     4  11  23  36  52  77 113 145 174 218 269 315
#     4  11  22  37  57  76 104 144 185 218 259 321
#     4  11  20  32  54  83 112 136 171 222 268 312
#
# _framework density 19.412053
#
# number of rings (size 3 to 8) (size 9 to 14) (size 15 to 20)
#    0.000    2.500    2.500    2.625    0.000    0.500 
#    0.000    1.875    0.000    6.000    0.000    0.000 
#    0.000    0.000    0.000    0.000    0.000    0.000 
#
# Total GULP energy -89223.164351 kJ/mol
# GULP energy per Si atom -5576.447772 kJ/mol
# Density = 1.936787 g / cm^3
# Si number density = 19.412053 Si / 1000 Ang^3
#
#
#
# Elastic Constant Matrix: (Units=GPa)
#
#
# Indices 1 2 3 4 5 6 
#
# 1 152.8605 -4.1983 47.9058 0.0000 -26.3289 0.0000
# 2 -4.1983 19.6921 -13.4711 0.0000 0.1700 0.0000
# 3 47.9058 -13.4711 76.3361 0.0000 -15.4271 0.0000
# 4 0.0000 0.0000 0.0000 16.1579 0.0000 1.2253
# 5 -26.3289 0.1700 -15.4271 0.0000 28.0855 0.0000
# 6 0.0000 0.0000 0.0000 1.2253 0.0000 11.9480
#
#
#
# Elastic Compliance Matrix: (Units=1/GPa)
#
#
# Indices 1 2 3 4 5 6 
#
# 1 0.008984 -0.001345 -0.004692 0.000000 0.005852 0.000000
# 2 -0.001345 0.058839 0.012262 0.000000 0.005118 0.000000
# 3 -0.004692 0.012262 0.019465 0.000000 0.006219 0.000000
# 4 0.000000 0.000000 0.000000 0.062374 0.000000 -0.006397
# 5 0.005852 0.005118 0.006219 0.000000 0.044477 0.000000
# 6 0.000000 0.000000 0.000000 -0.006397 0.000000 0.084352
#
#
# Mechanical properties :
#
#
# Convention : Reuss Voigt Hill
#
# Bulk Modulus (GPa) = 10.02643 34.37351 22.19997
# Shear Modulus (GPa) = 16.70629 25.81510 21.26070
#
# Velocity S-wave (km/s) = 2.93681 3.65067 3.31302
# Velocity P-wave (km/s) = 4.08363 5.95949 5.10840
#
# Compressibility (1/GPa) = 0.09973640
#
# Stress axis : x y z
#
# Youngs Moduli (GPa) = 111.31438 16.99555 51.37300
#
# Poissons Ratio (x) = 0.02286 0.24107
# Poissons Ratio (y) = 0.14975 -0.62993
# Poissons Ratio (z) = 0.52234 -0.20840
#
# Static dielectric constant tensor:
#      x y z
#    x 1.725670 0.000000 -0.008700 
#    y 0.000000 1.706370 0.000000 
#    z -0.008700 0.000000 1.632090 
# 
# From -- ./inp_files/23744.got.cif
#   From: 2010.05.17/outbox.cif.g08.bks.cpg/sg8_12_cif.got.tgz:23744.got - 2010.06.03 19:46:02.
