data_PCOD9131141
_publ_section_title
;
Structure prediction by ZEFSAII (Michael W. Deem and Ramdas Pophale) SiO2 
 PCOD9131141
Probable space group: P M
;
_chemical_formula_sum "Si O2"
_cell_formula_units_Z 16
_cell_length_a 12.618181
_cell_length_b 8.655439
_cell_length_c 10.563300
_cell_angle_alpha 90.000000
_cell_angle_beta 52.077717
_cell_angle_gamma 90.000000
_cell_volume 910.075057
_symmetry_space_group_name_H-M "P M"
_symmetry_group_IT_number 6
_symmetry_cell_setting 'monoclinic'
loop_
_space_group_symop_operation_xyz
x,y,z
x,-y,z
loop_
_atom_site_type_symbol
_atom_site_label
_atom_site_fract_x
_atom_site_fract_y
_atom_site_fract_z
Si Si1 0.450710 0.686271 0.840320
Si Si2 0.460549 0.814509 0.329531
Si Si3 0.737041 0.187862 0.013135
Si Si4 0.311261 0.315095 0.683736
Si Si5 0.029132 0.185770 0.495448
Si Si6 0.299588 0.684787 0.207544
Si Si7 0.037712 0.814060 0.788259
Si Si8 0.724818 0.813663 0.728957
O O1 0.452937 0.500000 0.838195
O O2 0.376131 0.738880 0.767976
O O3 0.602510 0.746052 0.739958
O O4 0.370131 0.735515 0.025496
O O5 0.396904 0.746889 0.502744
O O6 0.374747 0.761178 0.271311
O O7 0.456119 0.000000 0.339292
O O8 0.614085 0.763263 0.191201
O O9 0.709925 0.235154 0.887417
O O10 0.887747 0.236986 0.937795
O O11 0.738551 0.000000 0.011198
O O12 0.313081 0.500000 0.680182
O O13 0.159153 0.258755 0.775648
O O14 0.144421 0.265940 0.330247
O O15 0.051561 0.222562 0.628139
O O16 0.875674 0.230388 0.576944
O O17 0.040393 0.000000 0.475154
O O18 0.310618 0.500000 0.209875
O O19 0.045099 0.000000 0.793182
O O20 0.718190 0.000000 0.731222
#
# Coordination Sequence:
#
# PCOD9131141 Si02
#       8
#     2   2   2   2   2   2   2   2
#     4  10  23  39  53  75 112 150 181 219 264 318
#     4  11  20  34  57  83 108 137 177 226 274 315
#     4   8  16  31  54  82 108 133 168 224 274 311
#     4  11  23  38  53  76 112 149 183 218 263 318
#     4   9  18  32  54  83 111 136 173 225 271 313
#     4  11  21  34  54  81 109 141 182 222 264 317
#     4   9  17  33  55  79 107 139 176 218 269 319
#     4   9  17  33  56  81 107 139 178 220 267 319
#
# _framework density 17.580969
#
# number of rings (size 3 to 8) (size 9 to 14) (size 15 to 20)
#    0.000    2.250    2.500    2.625    0.000    2.000 
#    0.000    4.375    0.000    6.000    0.000    0.000 
#    0.000    0.000    0.000    0.000    0.000    0.000 
#
# Total GULP energy -89263.652438 kJ/mol
# GULP energy per Si atom -5578.978277 kJ/mol
# Density = 1.754095 g / cm^3
# Si number density = 17.580969 Si / 1000 Ang^3
#
#
#
# Elastic Constant Matrix: (Units=GPa)
#
#
# Indices 1 2 3 4 5 6 
#
# 1 166.5261 29.9824 78.2591 0.0000 -11.4062 0.0000
# 2 29.9824 18.6589 20.4691 0.0000 -0.1515 0.0000
# 3 78.2591 20.4691 94.9586 0.0000 -8.0750 0.0000
# 4 0.0000 0.0000 0.0000-2492.3243 0.0000 1370.1227
# 5 -11.4062 -0.1515 -8.0750 0.0000 30.4496 0.0000
# 6 0.0000 0.0000 0.0000 1370.1227 0.0000 -731.0234
#
#
#
# Elastic Compliance Matrix: (Units=1/GPa)
#
#
# Indices 1 2 3 4 5 6 
#
# 1 0.011280 -0.010646 -0.006800 0.000000 0.002369 0.000000
# 2 -0.010646 0.080662 -0.009124 0.000000 -0.006006 0.000000
# 3 -0.006800 -0.009124 0.018294 0.000000 0.002259 0.000000
# 4 0.000000 0.000000 0.000000 0.013222 0.000000 0.024781
# 5 0.002369 -0.006006 0.002259 0.000000 0.034298 0.000000
# 6 0.000000 0.000000 0.000000 0.024781 0.000000 0.045078
#
#
# Mechanical properties :
#
#
# Convention : Reuss Voigt Hill
#
# Bulk Modulus (GPa) = 17.51468 59.72939 38.62204
# Shear Modulus (GPa) = 18.18153 -628.48409 -305.15128
#
# Velocity S-wave (km/s) = 3.21932 -18.92765 -13.18886
# Velocity P-wave (km/s) = 4.87880 21.06245 14.48834
#
# Compressibility (1/GPa) = 0.05709495
#
# Stress axis : x y z
#
# Youngs Moduli (GPa) = 88.65487 12.39748 54.66401
#
# Poissons Ratio (x) = 0.13199 0.37170
# Poissons Ratio (y) = 0.94386 0.49875
# Poissons Ratio (z) = 0.60282 0.11311
#
# Static dielectric constant tensor:
#      x y z
#    x 1.595530 0.000000 -0.020620 
#    y 0.000000 1.615720 0.000000 
#    z -0.020620 0.000000 1.592070 
# 
# From -- ./inp_files/3488.got.cif
#   From: 2010.05.17/outbox.cif.g08.bks.cpg/sg6_2_cif.got.tgz:3488.got - 2010.06.03 19:42:10.
