data_PCOD9131157
_publ_section_title
;
Structure prediction by ZEFSAII (Michael W. Deem and Ramdas Pophale) SiO2 
 PCOD9131157
Probable space group: P M
;
_chemical_formula_sum "Si O2"
_cell_formula_units_Z 13
_cell_length_a 9.728454
_cell_length_b 7.781318
_cell_length_c 8.130171
_cell_angle_alpha 90.000000
_cell_angle_beta 71.818393
_cell_angle_gamma 90.000000
_cell_volume 584.727225
_symmetry_space_group_name_H-M "P M"
_symmetry_group_IT_number 6
_symmetry_cell_setting 'monoclinic'
loop_
_space_group_symop_operation_xyz
x,y,z
x,-y,z
loop_
_atom_site_type_symbol
_atom_site_label
_atom_site_fract_x
_atom_site_fract_y
_atom_site_fract_z
Si Si1 0.886670 0.701735 0.907090
Si Si2 0.402300 0.204954 0.426330
Si Si3 0.637521 0.183918 0.787703
Si Si4 0.379936 0.301761 0.079397
Si Si5 0.741180 0.204649 0.305315
Si Si6 0.219289 0.207102 0.808678
Si Si7 0.706732 0.500000 0.548186
O O1 0.855246 0.500000 0.892182
O O2 0.797257 0.801868 0.802185
O O3 0.056299 0.734176 0.837962
O O4 0.823275 0.760284 0.105093
O O5 0.328475 0.254278 0.281160
O O6 0.570890 0.258658 0.352687
O O7 0.320421 0.268678 0.619792
O O8 0.403098 0.000000 0.435062
O O9 0.618429 0.348094 0.681846
O O10 0.611712 0.000000 0.714152
O O11 0.524029 0.197045 0.978956
O O12 0.420003 0.500000 0.069541
O O13 0.272875 0.269398 0.967133
O O14 0.794714 0.343772 0.417990
O O15 0.752976 0.000000 0.336526
O O16 0.224259 0.000000 0.810007
#
# Coordination Sequence:
#
# PCOD9131157 Si02
#       7
#     2   2   2   2   2   2   1
#     4  12  24  47  70 100 142 190 236 293 356 427
#     4  10  23  43  70 102 139 186 237 292 353 425
#     4  12  24  44  71 102 142 186 237 295 357 420
#     4  12  24  42  70 105 142 188 238 297 354 425
#     4  11  23  43  71 103 141 183 233 295 358 422
#     4  11  25  46  71 102 143 190 239 294 363 427
#     4  12  24  40  66 106 138 172 234 294 352 418
#
# _framework density 22.232586999999999
#
# number of rings (size 3 to 8) (size 9 to 14) (size 15 to 20)
#    0.000    0.615    3.846    4.615    1.077    2.462 
#    2.769    0.000    0.000    0.000    0.000    0.000 
#    0.000    0.000    0.000    0.000    0.000    0.000 
#
# Total GULP energy -72447.440080 kJ/mol
# GULP energy per Si atom -5572.880006 kJ/mol
# Density = 2.218199 g / cm^3
# Si number density = 22.232587 Si / 1000 Ang^3
#
#
#
# Elastic Constant Matrix: (Units=GPa)
#
#
# Indices 1 2 3 4 5 6 
#
# 1 99.5412 3.7159 28.8306 0.0000 -9.2963 0.0000
# 2 3.7159 163.0941 23.6638 0.0000 0.3027 0.0000
# 3 28.8306 23.6638 118.3818 0.0000 0.8456 0.0000
# 4 0.0000 0.0000 0.0000 2.5337 0.0000 17.9993
# 5 -9.2963 0.3027 0.8456 0.0000 32.5105 0.0000
# 6 0.0000 0.0000 0.0000 17.9993 0.0000 -15.5955
#
#
#
# Elastic Compliance Matrix: (Units=1/GPa)
#
#
# Indices 1 2 3 4 5 6 
#
# 1 0.011146 0.000141 -0.002766 0.000000 0.003258 0.000000
# 2 0.000141 0.006316 -0.001297 0.000000 0.000015 0.000000
# 3 -0.002766 -0.001297 0.009387 0.000000 -0.001023 0.000000
# 4 0.000000 0.000000 0.000000 0.042905 0.000000 0.049518
# 5 0.003258 0.000015 -0.001023 0.000000 0.031717 0.000000
# 6 0.000000 0.000000 0.000000 0.049518 0.000000 -0.006971
#
#
# Mechanical properties :
#
#
# Convention : Reuss Voigt Hill
#
# Bulk Modulus (GPa) = 52.61395 54.82640 53.72017
# Shear Modulus (GPa) = 46.00603 25.54352 35.77478
#
# Velocity S-wave (km/s) = 4.55390 3.39325 4.01573
# Velocity P-wave (km/s) = 7.16710 6.32978 6.76141
#
# Compressibility (1/GPa) = 0.01900637
#
# Stress axis : x y z
#
# Youngs Moduli (GPa) = 89.71650 158.31839 106.52482
#
# Poissons Ratio (x) = -0.02238 0.29465
# Poissons Ratio (y) = -0.01268 0.13818
# Poissons Ratio (z) = 0.24816 0.20536
#
# Static dielectric constant tensor:
#      x y z
#    x 1.853860 0.000000 0.057070 
#    y 0.000000 1.978560 0.000000 
#    z 0.057070 0.000000 1.874330 
# 
# From -- ./inp_files/2662.got.cif
#   From: 2010.05.17/outbox.cif.g08.bks.cpg/sg6_2_cif.got.tgz:2662.got - 2010.06.03 19:42:10.
