data_PCOD9131305
_publ_section_title
;
Structure prediction by ZEFSAII (Michael W. Deem and Ramdas Pophale) SiO2 
 PCOD9131305
Probable space group: P C
;
_chemical_formula_sum "Si O2"
_cell_formula_units_Z 8
_cell_length_a 7.083156
_cell_length_b 7.477511
_cell_length_c 5.610659
_cell_angle_alpha 90.000000
_cell_angle_beta 90.000000
_cell_angle_gamma 90.000000
_cell_volume 297.165058
_symmetry_space_group_name_H-M "P C"
_symmetry_group_IT_number 7
_symmetry_cell_setting 'monoclinic'
loop_
_space_group_symop_operation_xyz
x,y,z
x,-y,1/2+z
loop_
_atom_site_type_symbol
_atom_site_label
_atom_site_fract_x
_atom_site_fract_y
_atom_site_fract_z
Si Si1 0.729890 0.101333 0.437920
Si Si2 0.680540 0.477503 0.437920
Si Si3 0.149501 0.730837 0.937919
Si Si4 0.288139 0.677678 0.437919
O O1 0.601404 0.277618 0.437919
O O2 0.940080 0.186610 0.437919
O O3 0.704151 0.000001 0.687921
O O4 0.784663 0.500000 0.687920
O O5 0.506264 0.614460 0.437919
O O6 0.235194 0.779835 0.679196
O O7 0.177320 0.513501 0.937919
O O8 0.235194 0.779835 0.196643
#
# Coordination Sequence:
#
# PCOD9131305 Si02
#       4
#     2   2   2   2
#     4  12  28  46  64 102 148 184 214 272 360 418
#     4  12  23  43  73 102 130 180 236 284 327 399
#     4  10  20  38  67  93 132 166 221 281 322 392
#     4  10  19  39  68 101 120 160 237 285 317 369
#
# _framework density 26.921063
#
# number of rings (size 3 to 8) (size 9 to 14) (size 15 to 20)
#    0.000    1.000    5.000    3.000    7.000    0.000 
#    0.000    2.500    0.000    0.000    0.000    0.000 
#    0.000    0.000    0.000    0.000    0.000    0.000 
#
# Total GULP energy -44755.347018 kJ/mol
# GULP energy per Si atom -5594.418377 kJ/mol
# Density = 2.685979 g / cm^3
# Si number density = 26.921063 Si / 1000 Ang^3
#
#
#
# Elastic Constant Matrix: (Units=GPa)
#
#
# Indices 1 2 3 4 5 6 
#
# 1 69.2896 -12.2675 38.2588 0.0000 -0.0003 0.0000
# 2 -12.2675 95.2834 66.6386 0.0000 0.0002 0.0000
# 3 38.2588 66.6386 369.8718 0.0000 0.0001 0.0000
# 4 0.0000 0.0000 0.0000 42.3254 0.0000 0.0000
# 5 -0.0003 0.0002 0.0001 0.0000 30.8522 0.0000
# 6 0.0000 0.0000 0.0000 0.0000 0.0000 45.7967
#
#
#
# Elastic Compliance Matrix: (Units=1/GPa)
#
#
# Indices 1 2 3 4 5 6 
#
# 1 0.016414 0.003777 -0.002378 0.000000 0.000000 0.000000
# 2 0.003777 0.012877 -0.002711 0.000000 0.000000 0.000000
# 3 -0.002378 -0.002711 0.003438 0.000000 0.000000 0.000000
# 4 0.000000 0.000000 0.000000 0.023626 0.000000 0.000000
# 5 0.000000 0.000000 0.000000 0.000000 0.032413 0.000000
# 6 0.000000 0.000000 0.000000 0.000000 0.000000 0.021836
#
#
# Mechanical properties :
#
#
# Convention : Reuss Voigt Hill
#
# Bulk Modulus (GPa) = 33.21791 79.96719 56.59255
# Shear Modulus (GPa) = 40.56363 53.24917 46.90640
#
# Velocity S-wave (km/s) = 3.88591 4.45227 4.17870
# Velocity P-wave (km/s) = 5.70084 7.49660 6.65953
#
# Compressibility (1/GPa) = 0.03010424
#
# Stress axis : x y z
#
# Youngs Moduli (GPa) = 60.92372 77.65805 290.86623
#
# Poissons Ratio (x) = -0.29328 0.69175
# Poissons Ratio (y) = -0.23008 0.78843
# Poissons Ratio (z) = 0.14489 0.21050
#
# Static dielectric constant tensor:
#      x y z
#    x 2.099620 0.000000 0.000000 
#    y 0.000000 2.120790 0.000000 
#    z 0.000000 0.000000 2.150670 
# 
# From -- ./inp_files/497.got.cif
#   From: 2010.05.17/outbox.cif.g08.bks.cpg/sg7_cif.got.tgz:497.got - 2010.06.03 19:44:50.
