data_PCOD9131111
_publ_section_title
;
Structure prediction by ZEFSAII (Michael W. Deem and Ramdas Pophale) SiO2 
 PCOD9131111
Probable space group: P M
;
_chemical_formula_sum "Si O2"
_cell_formula_units_Z 14
_cell_length_a 5.149099
_cell_length_b 19.815624
_cell_length_c 5.477343
_cell_angle_alpha 90.000000
_cell_angle_beta 86.588064
_cell_angle_gamma 90.000000
_cell_volume 557.876981
_symmetry_space_group_name_H-M "P M"
_symmetry_group_IT_number 6
_symmetry_cell_setting 'monoclinic'
loop_
_space_group_symop_operation_xyz
x,y,z
x,-y,z
loop_
_atom_site_type_symbol
_atom_site_label
_atom_site_fract_x
_atom_site_fract_y
_atom_site_fract_z
Si Si1 0.136490 0.751551 0.937710
Si Si2 0.456941 0.925258 0.158856
Si Si3 0.348609 0.574780 0.622915
Si Si4 0.782425 0.811961 0.346125
Si Si5 0.370132 0.125847 0.660541
Si Si6 0.504780 0.675935 0.256260
Si Si7 0.850897 0.379881 0.887102
O O1 0.218310 0.805878 0.734077
O O2 0.924296 0.699530 0.848277
O O3 0.369218 0.704816 0.020849
O O4 0.043233 0.788758 0.192694
O O5 0.656725 0.862914 0.152733
O O6 0.286258 0.909266 0.411106
O O7 0.569573 0.000000 0.185871
O O8 0.333930 0.920124 0.898985
O O9 0.348300 0.500000 0.515300
O O10 0.306498 0.634926 0.432667
O O11 0.627068 0.590726 0.728011
O O12 0.115403 0.580216 0.830031
O O13 0.674181 0.853639 0.587383
O O14 0.629197 0.741196 0.372316
O O15 0.726197 0.623145 0.162731
#
# Coordination Sequence:
#
# PCOD9131111 Si02
#       7
#     2   2   2   2   2   2   2
#     4  11  21  45  74 109 141 190 259 321 384 443
#     4  10  21  42  68  98 152 205 250 310 383 459
#     4  12  28  47  70 106 150 197 247 308 384 464
#     4   9  23  38  69 102 141 187 251 314 378 448
#     4  10  21  42  64 102 143 195 249 316 377 449
#     4  11  24  46  72 109 140 193 248 316 380 448
#     4  11  26  46  73 104 145 191 246 307 380 453
#
# _framework density 25.095140000000001
#
# number of rings (size 3 to 8) (size 9 to 14) (size 15 to 20)
#    0.857    0.571    2.857    1.714    4.000    1.143 
#    5.143    1.429    0.000    0.000    0.000    0.000 
#    0.000    0.000    0.000    0.000    0.000    0.000 
#
# Total GULP energy -78124.302955 kJ/mol
# GULP energy per Si atom -5580.307354 kJ/mol
# Density = 2.503802 g / cm^3
# Si number density = 25.095140 Si / 1000 Ang^3
#
#
#
# Elastic Constant Matrix: (Units=GPa)
#
#
# Indices 1 2 3 4 5 6 
#
# 1 81.1952 3.9006 20.9079 0.0000 -12.2881 0.0000
# 2 3.9006 110.0158 37.2825 0.0000 -4.7725 0.0000
# 3 20.9079 37.2825 140.2972 0.0000 -14.7745 0.0000
# 4 0.0000 0.0000 0.0000 12.2299 0.0000 23.5047
# 5 -12.2881 -4.7725 -14.7745 0.0000 35.2917 0.0000
# 6 0.0000 0.0000 0.0000 23.5047 0.0000 -10.6092
#
#
#
# Elastic Compliance Matrix: (Units=1/GPa)
#
#
# Indices 1 2 3 4 5 6 
#
# 1 0.013328 0.000254 -0.001634 0.000000 0.003991 0.000000
# 2 0.000254 0.009996 -0.002660 0.000000 0.000327 0.000000
# 3 -0.001634 -0.002660 0.008348 0.000000 0.002566 0.000000
# 4 0.000000 0.000000 0.000000 0.015551 0.000000 0.034453
# 5 0.003991 0.000327 0.002566 0.000000 0.030844 0.000000
# 6 0.000000 0.000000 0.000000 0.034453 0.000000 -0.017927
#
#
# Mechanical properties :
#
#
# Convention : Reuss Voigt Hill
#
# Bulk Modulus (GPa) = 42.38281 50.63225 46.50753
# Shear Modulus (GPa) = 65.71680 25.34362 45.53021
#
# Velocity S-wave (km/s) = 5.12288 3.18134 4.26409
# Velocity P-wave (km/s) = 7.20537 5.80642 6.54339
#
# Compressibility (1/GPa) = 0.02359447
#
# Stress axis : x y z
#
# Youngs Moduli (GPa) = 75.02740 100.03865 119.78550
#
# Poissons Ratio (x) = -0.02543 0.19567
# Poissons Ratio (y) = -0.01907 0.31861
# Poissons Ratio (z) = 0.12256 0.26609
#
# Static dielectric constant tensor:
#      x y z
#    x 2.072620 0.000000 0.011970 
#    y 0.000000 1.941800 0.000000 
#    z 0.011970 0.000000 2.039160 
# 
# From -- ./inp_files/597.got.cif
#   From: 2010.05.17/outbox.cif.g08.bks.cpg/sg6_1_cif.got.tgz:597.got - 2010.06.03 19:42:10.
