data_PCOD9131577
_publ_section_title
;
Structure prediction by ZEFSAII (Michael W. Deem and Ramdas Pophale) SiO2 
 PCOD9131577
Probable space group: C M
;
_chemical_formula_sum "Si O2"
_cell_formula_units_Z 28
_cell_length_a 17.158528
_cell_length_b 15.664917
_cell_length_c 5.412411
_cell_angle_alpha 90.000000
_cell_angle_beta 71.838814
_cell_angle_gamma 90.000000
_cell_volume 1382.312838
_symmetry_space_group_name_H-M "C M"
_symmetry_group_IT_number 8
_symmetry_cell_setting 'monoclinic'
loop_
_space_group_symop_operation_xyz
x,y,z
x,-y,z
1/2+x,1/2+y,z
1/2+x,1/2-y,z
loop_
_atom_site_type_symbol
_atom_site_label
_atom_site_fract_x
_atom_site_fract_y
_atom_site_fract_z
Si Si1 0.450730 0.309319 0.069680
Si Si2 0.224562 0.139060 0.292998
Si Si3 0.990663 0.000000 0.080379
Si Si4 0.327279 0.099395 0.691865
Si Si5 0.588386 0.500000 0.482598
Si Si6 0.948037 0.242023 0.572825
Si Si7 0.803768 0.900885 0.714665
Si Si8 0.761822 0.177182 0.255735
O O1 0.444381 0.411595 0.082987
O O2 0.492819 0.272945 0.271602
O O3 0.354961 0.281756 0.162904
O O4 0.493482 0.274906 0.782892
O O5 0.275871 0.116698 0.491327
O O6 0.206330 0.239547 0.310676
O O7 0.144113 0.082138 0.382785
O O8 0.273277 0.116233 0.992035
O O9 0.021608 0.000000 0.330931
O O10 0.057658 0.000000 0.794811
O O11 0.400794 0.168230 0.622605
O O12 0.352612 0.000000 0.667561
O O13 0.881168 0.163881 0.638614
O O14 0.756246 0.877249 0.510546
O O15 0.827473 0.000000 0.690850
O O16 0.756018 0.877428 0.012593
#
# Coordination Sequence:
#
# PCOD9131577 Si02
#       8
#     4   4   2   4   2   4   4   4
#     4  10  20  34  53  72 116 140 191 241 269 357
#     4  12  20  37  54  77 112 153 199 250 276 350
#     4  12  26  40  54  86 118 176 202 224 284 362
#     4  12  19  33  53  82 111 149 186 242 311 352
#     4  12  26  40  56  80 122 170 216 220 280 358
#     4  10  19  31  48  80 106 147 181 226 307 351
#     4  10  18  26  45  72 113 135 177 210 286 375
#     4  10  19  32  50  78 102 147 184 235 308 325
#
# _framework density 20.255907000000001
#
# number of rings (size 3 to 8) (size 9 to 14) (size 15 to 20)
#    0.000    1.143    7.143    2.143    8.000    0.000 
#    0.000    0.000    0.000    0.000    0.000    0.000 
#    0.000   22.857    0.000    0.000    0.000    0.000 
#
# Total GULP energy -78161.373335 kJ/mol
# GULP energy per Si atom -5582.955238 kJ/mol
# Density = 2.020980 g / cm^3
# Si number density = 20.255907 Si / 1000 Ang^3
#
#
#
# Elastic Constant Matrix: (Units=GPa)
#
#
# Indices 1 2 3 4 5 6 
#
# 1 21.4299 21.0150 20.5129 0.0000 12.1117 0.0000
# 2 21.0150 156.7898 44.0782 0.0000 8.0366 0.0000
# 3 20.5129 44.0782 165.6505 0.0000 42.8460 0.0000
# 4 0.0000 0.0000 0.0000 30.0732 0.0000 7.1088
# 5 12.1117 8.0366 42.8460 0.0000 30.1523 0.0000
# 6 0.0000 0.0000 0.0000 7.1088 0.0000 15.3230
#
#
#
# Elastic Compliance Matrix: (Units=1/GPa)
#
#
# Indices 1 2 3 4 5 6 
#
# 1 0.068885 -0.007990 0.000319 0.000000 -0.025994 0.000000
# 2 -0.007990 0.007849 -0.002195 0.000000 0.004236 0.000000
# 3 0.000319 -0.002195 0.010219 0.000000 -0.014065 0.000000
# 4 0.000000 0.000000 0.000000 0.037348 0.000000 -0.017327
# 5 -0.025994 0.004236 -0.014065 0.000000 0.062463 0.000000
# 6 0.000000 0.000000 0.000000 -0.017327 0.000000 0.073300
#
#
# Mechanical properties :
#
#
# Convention : Reuss Voigt Hill
#
# Bulk Modulus (GPa) = 14.87618 57.23139 36.05378
# Shear Modulus (GPa) = 16.54524 32.32731 24.43627
#
# Velocity S-wave (km/s) = 2.86109 3.99926 3.47706
# Velocity P-wave (km/s) = 4.27487 7.04563 5.82733
#
# Compressibility (1/GPa) = 0.06722157
#
# Stress axis : x y z
#
# Youngs Moduli (GPa) = 14.51698 127.40796 97.85596
#
# Poissons Ratio (x) = 1.01802 -0.03126
# Poissons Ratio (y) = 0.11599 0.21477
# Poissons Ratio (z) = -0.00464 0.27963
#
# Static dielectric constant tensor:
#      x y z
#    x 1.705030 0.000000 0.041370 
#    y 0.000000 1.712280 0.000000 
#    z 0.041370 0.000000 1.848580 
# 
# From -- ./inp_files/4906.got.cif
#   From: 2010.05.17/outbox.cif.g08.bks.cpg/sg8_3_cif.got.tgz:4906.got - 2010.06.03 19:46:02.
