data_PCOD9131271
_publ_section_title
;
Structure prediction by ZEFSAII (Michael W. Deem and Ramdas Pophale) SiO2 
 PCOD9131271
Probable space group: P C
;
_chemical_formula_sum "Si O2"
_cell_formula_units_Z 16
_cell_length_a 22.877707
_cell_length_b 7.485676
_cell_length_c 5.363555
_cell_angle_alpha 90.000000
_cell_angle_beta 48.959807
_cell_angle_gamma 90.000000
_cell_volume 692.805135
_symmetry_space_group_name_H-M "P C"
_symmetry_group_IT_number 7
_symmetry_cell_setting 'monoclinic'
loop_
_space_group_symop_operation_xyz
x,y,z
x,-y,1/2+z
loop_
_atom_site_type_symbol
_atom_site_label
_atom_site_fract_x
_atom_site_fract_y
_atom_site_fract_z
Si Si1 0.190230 0.101251 0.770050
Si Si2 0.023077 0.965137 0.207835
Si Si3 0.514728 0.121484 0.766777
Si Si4 0.901585 0.579229 0.022588
Si Si5 0.803377 0.889452 0.482580
Si Si6 0.076193 0.557043 0.033154
Si Si7 0.659872 0.381449 0.345852
Si Si8 0.343457 0.882687 0.691581
O O1 0.201900 0.944916 0.526818
O O2 0.262562 0.220954 0.476817
O O3 0.096461 0.104313 0.009297
O O4 0.054416 0.763997 0.107303
O O5 0.978986 0.982307 0.586320
O O6 0.579701 0.272100 0.573408
O O7 0.522502 0.990092 0.503942
O O8 0.427654 0.202689 0.994199
O O9 0.873677 0.439859 0.315921
O O10 0.874890 0.759353 0.222669
O O11 0.994325 0.550417 0.752346
O O12 0.802086 0.034561 0.265153
O O13 0.728622 0.762786 0.657448
O O14 0.118878 0.492642 0.160273
O O15 0.665629 0.497762 0.077838
O O16 0.342866 0.965557 0.414411
#
# Coordination Sequence:
#
# PCOD9131271 Si02
#       8
#     2   2   2   2   2   2   2   2
#     4   8  14  25  44  75 104 131 174 230 274 310
#     4  10  19  33  55  84 109 139 190 240 272 326
#     4  10  19  34  55  83 112 146 192 235 272 324
#     4  10  21  41  60  81 114 151 182 222 290 349
#     4  12  24  41  64  88 111 144 195 243 273 327
#     4  10  21  38  56  78 114 153 181 224 290 349
#     4  12  24  39  59  85 119 154 183 227 289 345
#     4   8  14  25  45  74 103 136 175 227 274 310
#
# _framework density 23.094517
#
# number of rings (size 3 to 8) (size 9 to 14) (size 15 to 20)
#    0.000    2.000    0.000    4.500    0.000    0.000 
#    0.000   15.000    0.000    0.000    0.000   84.000 
#    0.000    0.000    0.000    0.000    0.000    0.000 
#
# Total GULP energy -89233.656778 kJ/mol
# GULP energy per Si atom -5577.103549 kJ/mol
# Density = 2.304195 g / cm^3
# Si number density = 23.094517 Si / 1000 Ang^3
#
#
#
# Elastic Constant Matrix: (Units=GPa)
#
#
# Indices 1 2 3 4 5 6 
#
# 1 66.3764 29.5030 38.6886 0.0000 19.5948 0.0000
# 2 29.5030 71.7471 29.5724 0.0000 1.9821 0.0000
# 3 38.6886 29.5724 119.6094 0.0000 26.7178 0.0000
# 4 0.0000 0.0000 0.0000 38.3797 0.0000 12.3261
# 5 19.5948 1.9821 26.7178 0.0000 70.9866 0.0000
# 6 0.0000 0.0000 0.0000 12.3261 0.0000 25.0047
#
#
#
# Elastic Compliance Matrix: (Units=1/GPa)
#
#
# Indices 1 2 3 4 5 6 
#
# 1 0.022064 -0.007130 -0.004430 0.000000 -0.004224 0.000000
# 2 -0.007130 0.017903 -0.002673 0.000000 0.002474 0.000000
# 3 -0.004430 -0.002673 0.011098 0.000000 -0.002879 0.000000
# 4 0.000000 0.000000 0.000000 0.030956 0.000000 -0.015260
# 5 -0.004224 0.002474 -0.002879 0.000000 0.016268 0.000000
# 6 0.000000 0.000000 0.000000 -0.015260 0.000000 0.047515
#
#
# Mechanical properties :
#
#
# Convention : Reuss Voigt Hill
#
# Bulk Modulus (GPa) = 44.25150 50.36231 47.30691
# Shear Modulus (GPa) = 27.50227 37.53879 32.52053
#
# Velocity S-wave (km/s) = 3.45462 4.03605 3.75660
# Velocity P-wave (km/s) = 5.92581 6.60106 6.27253
#
# Compressibility (1/GPa) = 0.02259810
#
# Stress axis : x y z
#
# Youngs Moduli (GPa) = 45.32257 55.85623 90.10962
#
# Poissons Ratio (x) = 0.39826 0.39922
# Poissons Ratio (y) = 0.32316 0.24084
# Poissons Ratio (z) = 0.20080 0.14929
#
# Static dielectric constant tensor:
#      x y z
#    x 1.988780 0.000000 0.011390 
#    y 0.000000 2.102670 0.000000 
#    z 0.011390 0.000000 1.946980 
# 
# From -- ./inp_files/1416.got.cif
#   From: 2010.05.17/outbox.cif.g08.bks.cpg/sg7_cif.got.tgz:1416.got - 2010.06.03 19:44:50.
