data_PCOD9131391
_publ_section_title
;
Structure prediction by ZEFSAII (Michael W. Deem and Ramdas Pophale) SiO2 
 PCOD9131391
Probable space group: P C
;
_chemical_formula_sum "Si O2"
_cell_formula_units_Z 14
_cell_length_a 7.377034
_cell_length_b 16.199044
_cell_length_c 5.496872
_cell_angle_alpha 90.000000
_cell_angle_beta 69.636529
_cell_angle_gamma 90.000000
_cell_volume 615.828719
_symmetry_space_group_name_H-M "P C"
_symmetry_group_IT_number 7
_symmetry_cell_setting 'monoclinic'
loop_
_space_group_symop_operation_xyz
x,y,z
x,-y,1/2+z
loop_
_atom_site_type_symbol
_atom_site_label
_atom_site_fract_x
_atom_site_fract_y
_atom_site_fract_z
Si Si1 0.398410 0.052219 0.289720
Si Si2 0.370184 0.676589 0.390110
Si Si3 0.516893 0.668172 0.826228
Si Si4 0.926947 0.717188 0.645365
Si Si5 0.987993 0.874331 0.899231
Si Si6 0.814896 0.119584 0.981282
Si Si7 0.262170 0.502585 0.940831
O O1 0.209696 0.109077 0.355392
O O2 0.597470 0.101153 0.159613
O O3 0.393344 0.010016 0.559082
O O4 0.453066 0.714281 0.103560
O O5 0.138823 0.683325 0.501086
O O6 0.402347 0.577239 0.372870
O O7 0.459791 0.709846 0.597237
O O8 0.388987 0.585154 0.883927
O O9 0.746439 0.656172 0.740338
O O10 0.942827 0.777668 0.871849
O O11 0.869401 0.783748 0.466895
O O12 0.941425 0.912857 0.653604
O O13 0.862835 0.906723 0.184579
O O14 0.146472 0.499070 0.244799
#
# Coordination Sequence:
#
# PCOD9131391 Si02
#       7
#     2   2   2   2   2   2   2
#     4  12  26  44  70  96 124 172 204 250 318 366
#     4  10  22  38  62  87 124 162 209 260 314 368
#     4  10  22  38  62  87 124 162 209 260 314 368
#     4  10  26  38  66  92 126 170 208 256 320 366
#     4  10  25  43  64  94 129 162 211 259 301 379
#     4  10  25  43  64  94 129 162 211 259 301 379
#     4   8  16  36  54  82 116 156 198 256 304 358
#
# _framework density 22.733591000000001
#
# number of rings (size 3 to 8) (size 9 to 14) (size 15 to 20)
#    0.857    1.143    0.000    1.714    6.000    3.429 
#    0.000   12.857    0.000    0.000    0.000    0.000 
#    0.000    0.000    0.000    0.000    0.000    0.000 
#
# Total GULP energy -78004.676540 kJ/mol
# GULP energy per Si atom -5571.762610 kJ/mol
# Density = 2.268185 g / cm^3
# Si number density = 22.733591 Si / 1000 Ang^3
#
#
#
# Elastic Constant Matrix: (Units=GPa)
#
#
# Indices 1 2 3 4 5 6 
#
# 1 112.8708 -2.0200 39.2106 0.0000 -5.1034 0.0000
# 2 -2.0200 39.7041 -16.7868 0.0000 5.2766 0.0000
# 3 39.2106 -16.7868 139.5918 0.0000 43.0499 0.0000
# 4 0.0000 0.0000 0.0000 8.1719 0.0000 -0.7369
# 5 -5.1034 5.2766 43.0499 0.0000 53.4540 0.0000
# 6 0.0000 0.0000 0.0000 -0.7369 0.0000 10.7891
#
#
#
# Elastic Compliance Matrix: (Units=1/GPa)
#
#
# Indices 1 2 3 4 5 6 
#
# 1 0.010750 -0.002204 -0.004880 0.000000 0.005174 0.000000
# 2 -0.002204 0.029052 0.006735 0.000000 -0.008502 0.000000
# 3 -0.004880 0.006735 0.012896 0.000000 -0.011517 0.000000
# 4 0.000000 0.000000 0.000000 0.123129 0.000000 0.008410
# 5 0.005174 -0.008502 -0.011517 0.000000 0.029316 0.000000
# 6 0.000000 0.000000 0.000000 0.008410 0.000000 0.093261
#
#
# Mechanical properties :
#
#
# Convention : Reuss Voigt Hill
#
# Bulk Modulus (GPa) = 19.23138 36.99713 28.11426
# Shear Modulus (GPa) = 15.80100 32.60053 24.20076
#
# Velocity S-wave (km/s) = 2.63924 3.79096 3.26626
# Velocity P-wave (km/s) = 4.21489 5.95579 5.15930
#
# Compressibility (1/GPa) = 0.05199835
#
# Stress axis : x y z
#
# Youngs Moduli (GPa) = 93.02692 34.42147 77.54140
#
# Poissons Ratio (x) = 0.07587 0.37843
# Poissons Ratio (y) = 0.20505 -0.52223
# Poissons Ratio (z) = 0.45400 -0.23182
#
# Static dielectric constant tensor:
#      x y z
#    x 1.813010 0.000000 0.092100 
#    y 0.000000 1.908400 0.000000 
#    z 0.092100 0.000000 1.919380 
# 
# From -- ./inp_files/313.got.cif
#   From: 2010.05.17/outbox.cif.g08.bks.cpg/sg7_cif.got.tgz:313.got - 2010.06.03 19:44:50.
