data_PCOD9131081
_publ_section_title
;
Structure prediction by ZEFSAII (Michael W. Deem and Ramdas Pophale) SiO2 
 PCOD9131081
Probable space group: P M
;
_chemical_formula_sum "Si O2"
_cell_formula_units_Z 16
_cell_length_a 7.959485
_cell_length_b 18.213709
_cell_length_c 5.805911
_cell_angle_alpha 90.000000
_cell_angle_beta 122.032118
_cell_angle_gamma 90.000000
_cell_volume 713.546040
_symmetry_space_group_name_H-M "P M"
_symmetry_group_IT_number 6
_symmetry_cell_setting 'monoclinic'
loop_
_space_group_symop_operation_xyz
x,y,z
x,-y,z
loop_
_atom_site_type_symbol
_atom_site_label
_atom_site_fract_x
_atom_site_fract_y
_atom_site_fract_z
Si Si1 0.561840 0.702302 0.491350
Si Si2 0.869437 0.201552 0.503810
Si Si3 0.377211 0.911389 0.752361
Si Si4 0.140512 0.308093 0.942710
Si Si5 0.837376 0.087156 0.119919
Si Si6 0.208061 0.089000 0.131922
Si Si7 0.791179 0.320315 0.056727
Si Si8 0.871304 0.414930 0.510856
O O1 0.683958 0.777627 0.532237
O O2 0.699623 0.634386 0.504219
O O3 0.579980 0.688881 0.777237
O O4 0.355221 0.698716 0.210454
O O5 0.895631 0.123243 0.406244
O O6 0.811735 0.253888 0.247318
O O7 0.068584 0.238060 0.745302
O O8 0.295677 0.884028 0.443806
O O9 0.347602 0.000000 0.724091
O O10 0.609903 0.895557 0.915812
O O11 0.302245 0.889183 0.955228
O O12 0.080068 0.378325 0.741622
O O13 0.978128 0.311833 0.026288
O O14 0.977141 0.109547 0.007187
O O15 0.858694 0.000000 0.158924
O O16 0.225382 0.000000 0.145823
O O17 0.826706 0.396640 0.212847
O O18 0.862532 0.500000 0.559101
#
# Coordination Sequence:
#
# PCOD9131081 Si02
#       8
#     2   2   2   2   2   2   2   2
#     4   9  19  37  58  81 113 155 198 238 287 347
#     4   9  20  39  56  81 112 146 201 252 301 365
#     4   9  19  37  57  83 116 151 193 243 308 391
#     4   9  19  37  59  81 113 154 199 240 286 345
#     4  10  21  39  63  87 118 156 198 263 336 390
#     4   9  19  37  57  82 116 152 192 242 309 391
#     4   8  18  35  56  80 115 153 193 240 284 348
#     4   9  19  35  56  87 125 153 184 236 285 339
#
# _framework density 22.423217000000001
#
# number of rings (size 3 to 8) (size 9 to 14) (size 15 to 20)
#    0.000    3.500    0.000    0.000    0.000    8.500 
#   11.250    5.000    0.000    0.000    0.000    0.000 
#    0.000    0.000    0.000    0.000    0.000    0.000 
#
# Total GULP energy -89182.237088 kJ/mol
# GULP energy per Si atom -5573.889818 kJ/mol
# Density = 2.237218 g / cm^3
# Si number density = 22.423217 Si / 1000 Ang^3
#
#
#
# Elastic Constant Matrix: (Units=GPa)
#
#
# Indices 1 2 3 4 5 6 
#
# 1 107.7119 26.3443 78.6173 0.0000 10.1528 0.0000
# 2 26.3443 76.1355 25.8780 0.0000 3.8948 0.0000
# 3 78.6173 25.8780 169.1009 0.0000 26.5885 0.0000
# 4 0.0000 0.0000 0.0000 22.8923 0.0000 0.8396
# 5 10.1528 3.8948 26.5885 0.0000 47.6461 0.0000
# 6 0.0000 0.0000 0.0000 0.8396 0.0000 17.0363
#
#
#
# Elastic Compliance Matrix: (Units=1/GPa)
#
#
# Indices 1 2 3 4 5 6 
#
# 1 0.014660 -0.002905 -0.006486 0.000000 0.000733 0.000000
# 2 -0.002905 0.014431 -0.000844 0.000000 -0.000090 0.000000
# 3 -0.006486 -0.000844 0.009679 0.000000 -0.003950 0.000000
# 4 0.000000 0.000000 0.000000 0.043762 0.000000 -0.002157
# 5 0.000733 -0.000090 -0.003950 0.000000 0.023044 0.000000
# 6 0.000000 0.000000 0.000000 -0.002157 0.000000 0.058804
#
#
# Mechanical properties :
#
#
# Convention : Reuss Voigt Hill
#
# Bulk Modulus (GPa) = 54.64506 68.29195 61.46850
# Shear Modulus (GPa) = 26.18482 32.32219 29.25350
#
# Velocity S-wave (km/s) = 3.42095 3.80078 3.61585
# Velocity P-wave (km/s) = 6.32666 7.05572 6.70111
#
# Compressibility (1/GPa) = 0.01829992
#
# Stress axis : x y z
#
# Youngs Moduli (GPa) = 68.21436 69.29471 103.31265
#
# Poissons Ratio (x) = 0.20133 0.67010
# Poissons Ratio (y) = 0.19819 0.08715
# Poissons Ratio (z) = 0.44245 0.05845
#
# Static dielectric constant tensor:
#      x y z
#    x 1.876930 0.000000 -0.049580 
#    y 0.000000 1.827920 0.000000 
#    z -0.049580 0.000000 1.996440 
# 
# From -- ./inp_files/1392.got.cif
#   From: 2010.05.17/outbox.cif.g08.bks.cpg/sg6_1_cif.got.tgz:1392.got - 2010.06.03 19:42:10.
