data_PCOD9131061
_publ_section_title
;
Structure prediction by ZEFSAII (Michael W. Deem and Ramdas Pophale) SiO2 
 PCOD9131061
Probable space group: P M
;
_chemical_formula_sum "Si O2"
_cell_formula_units_Z 14
_cell_length_a 9.347960
_cell_length_b 14.844270
_cell_length_c 5.247268
_cell_angle_alpha 90.000000
_cell_angle_beta 107.169425
_cell_angle_gamma 90.000000
_cell_volume 695.681652
_symmetry_space_group_name_H-M "P M"
_symmetry_group_IT_number 6
_symmetry_cell_setting 'monoclinic'
loop_
_space_group_symop_operation_xyz
x,y,z
x,-y,z
loop_
_atom_site_type_symbol
_atom_site_label
_atom_site_fract_x
_atom_site_fract_y
_atom_site_fract_z
Si Si1 0.174000 0.897372 0.254740
Si Si2 0.517791 0.293082 0.952238
Si Si3 0.203009 0.604657 0.844487
Si Si4 0.969618 0.260145 0.981447
Si Si5 0.708945 0.681457 0.561462
Si Si6 0.373383 0.104186 0.856165
Si Si7 0.930128 0.405216 0.350043
O O1 0.250867 0.881776 0.568287
O O2 0.042461 0.828986 0.126305
O O3 0.120997 0.000000 0.219358
O O4 0.295676 0.887008 0.091912
O O5 0.602325 0.299520 0.266624
O O6 0.362843 0.348886 0.890070
O O7 0.608335 0.331281 0.758045
O O8 0.486572 0.186977 0.886788
O O9 0.215095 0.500000 0.941824
O O10 0.100449 0.600032 0.536838
O O11 0.103284 0.673940 0.957598
O O12 0.896871 0.318953 0.165769
O O13 0.838751 0.246156 0.705834
O O14 0.817584 0.600385 0.529928
O O15 0.427827 0.000000 0.859525
O O16 0.907441 0.500000 0.201246
#
# Coordination Sequence:
#
# PCOD9131061 Si02
#       7
#     2   2   2   2   2   2   2
#     4  10  21  37  67  98 122 158 212 265 312 365
#     4  12  23  43  63  95 127 170 203 264 312 375
#     4  10  23  38  64  96 121 159 216 269 312 361
#     4  11  21  43  66  91 130 167 209 261 314 375
#     4  11  26  41  63  88 133 172 208 245 324 375
#     4  10  21  39  64  97 127 161 206 258 319 376
#     4  10  22  43  66  91 124 173 215 256 314 381
#
# _framework density 20.124148000000002
#
# number of rings (size 3 to 8) (size 9 to 14) (size 15 to 20)
#    0.000    1.429    2.857    2.143    4.000    1.714 
#    0.000    1.429    0.000    0.857    0.000    0.000 
#    0.000    0.000    0.000    0.000    0.000    0.000 
#
# Total GULP energy -78069.774734 kJ/mol
# GULP energy per Si atom -5576.412481 kJ/mol
# Density = 2.007834 g / cm^3
# Si number density = 20.124148 Si / 1000 Ang^3
#
#
#
# Elastic Constant Matrix: (Units=GPa)
#
#
# Indices 1 2 3 4 5 6 
#
# 1 117.7988 27.7644 45.1905 0.0000 8.6199 0.0000
# 2 27.7644 71.8079 35.1959 0.0000 20.5213 0.0000
# 3 45.1905 35.1959 101.9072 0.0000 12.1277 0.0000
# 4 0.0000 0.0000 0.0000 23.0568 0.0000 -5.4704
# 5 8.6199 20.5213 12.1277 0.0000 30.6352 0.0000
# 6 0.0000 0.0000 0.0000 -5.4704 0.0000 -1.5140
#
#
#
# Elastic Compliance Matrix: (Units=1/GPa)
#
#
# Indices 1 2 3 4 5 6 
#
# 1 0.010495 -0.002149 -0.003916 0.000000 0.000037 0.000000
# 2 -0.002149 0.020236 -0.004717 0.000000 -0.011083 0.000000
# 3 -0.003916 -0.004717 0.013298 0.000000 -0.001003 0.000000
# 4 0.000000 0.000000 0.000000 0.023353 0.000000 -0.084376
# 5 0.000037 -0.011083 -0.001003 0.000000 0.040453 0.000000
# 6 0.000000 0.000000 0.000000 -0.084376 0.000000 -0.355632
#
#
# Mechanical properties :
#
#
# Convention : Reuss Voigt Hill
#
# Bulk Modulus (GPa) = 44.51381 56.42392 50.46886
# Shear Modulus (GPa) = -22.85782 22.65981 -0.09901
#
# Velocity S-wave (km/s) = -3.37388 3.35923 -0.22205
# Velocity P-wave (km/s) = 2.64390 6.56846 5.00674
#
# Compressibility (1/GPa) = 0.02246494
#
# Stress axis : x y z
#
# Youngs Moduli (GPa) = 95.28144 49.41589 75.19933
#
# Poissons Ratio (x) = 0.10619 0.29450
# Poissons Ratio (y) = 0.20475 0.35472
# Poissons Ratio (z) = 0.37315 0.23310
#
# Static dielectric constant tensor:
#      x y z
#    x 1.727830 0.000000 -0.032450 
#    y 0.000000 1.643090 0.000000 
#    z -0.032450 0.000000 1.755510 
# 
# From -- ./inp_files/1142.got.cif
#   From: 2010.05.17/outbox.cif.g08.bks.cpg/sg6_1_cif.got.tgz:1142.got - 2010.06.03 19:42:10.
