data_PCOD9131423
_publ_section_title
;
Structure prediction by ZEFSAII (Michael W. Deem and Ramdas Pophale) SiO2 
 PCOD9131423
Probable space group: P C
;
_chemical_formula_sum "Si O2"
_cell_formula_units_Z 14
_cell_length_a 9.230808
_cell_length_b 15.365240
_cell_length_c 5.252181
_cell_angle_alpha 90.000000
_cell_angle_beta 46.581769
_cell_angle_gamma 90.000000
_cell_volume 541.088475
_symmetry_space_group_name_H-M "P C"
_symmetry_group_IT_number 7
_symmetry_cell_setting 'monoclinic'
loop_
_space_group_symop_operation_xyz
x,y,z
x,-y,1/2+z
loop_
_atom_site_type_symbol
_atom_site_label
_atom_site_fract_x
_atom_site_fract_y
_atom_site_fract_z
Si Si1 0.099700 0.953221 0.006990
Si Si2 0.005506 0.707168 0.097983
Si Si3 0.109024 0.543405 0.670006
Si Si4 0.584712 0.554298 0.144668
Si Si5 0.773840 0.858855 0.174399
Si Si6 0.657892 0.255416 0.418157
Si Si7 0.352676 0.205149 0.413082
O O1 0.861945 0.937630 0.236388
O O2 0.155924 0.028971 0.142717
O O3 0.204051 0.874121 0.030952
O O4 0.955813 0.790943 0.987177
O O5 0.824544 0.713653 0.515476
O O6 0.006677 0.625215 0.918746
O O7 0.223172 0.715809 0.959533
O O8 0.060163 0.532590 0.433146
O O9 0.345389 0.553407 0.412670
O O10 0.647073 0.493958 0.306675
O O11 0.637355 0.656670 0.109770
O O12 0.562350 0.824689 0.535114
O O13 0.732337 0.839581 0.928260
O O14 0.435540 0.235775 0.583821
#
# Coordination Sequence:
#
# PCOD9131423 Si02
#       7
#     2   2   2   2   2   2   2
#     4  11  28  50  78 111 149 182 232 298 361 436
#     4  10  24  42  67 102 139 189 244 300 352 428
#     4  10  23  40  64  97 136 189 243 301 361 421
#     4  10  24  42  66 101 145 192 245 303 362 415
#     4  10  25  46  71 104 144 189 238 291 358 434
#     4  11  25  42  75 102 146 194 249 300 352 432
#     4  10  25  46  73 105 141 193 237 287 366 428
#
# _framework density 25.873771999999999
#
# number of rings (size 3 to 8) (size 9 to 14) (size 15 to 20)
#    0.000    1.714    0.000    0.857   20.000    3.429 
#    0.000    0.000    0.000    0.000    0.000    0.000 
#    0.000    0.000    0.000    0.000    0.000    0.000 
#
# Total GULP energy -78025.386712 kJ/mol
# GULP energy per Si atom -5573.241908 kJ/mol
# Density = 2.581488 g / cm^3
# Si number density = 25.873772 Si / 1000 Ang^3
#
#
#
# Elastic Constant Matrix: (Units=GPa)
#
#
# Indices 1 2 3 4 5 6 
#
# 1 174.3047 29.0550 41.3651 0.0000 -27.6083 0.0000
# 2 29.0550 74.7441 8.6440 0.0000 7.5274 0.0000
# 3 41.3651 8.6440 58.5587 0.0000 9.7031 0.0000
# 4 0.0000 0.0000 0.0000 27.8913 0.0000 3.4792
# 5 -27.6083 7.5274 9.7031 0.0000 39.6279 0.0000
# 6 0.0000 0.0000 0.0000 3.4792 0.0000 32.5269
#
#
#
# Elastic Compliance Matrix: (Units=1/GPa)
#
#
# Indices 1 2 3 4 5 6 
#
# 1 0.009741 -0.003826 -0.007880 0.000000 0.009443 0.000000
# 2 -0.003826 0.015298 0.001426 0.000000 -0.005920 0.000000
# 3 -0.007880 0.001426 0.024377 0.000000 -0.011730 0.000000
# 4 0.000000 0.000000 0.000000 0.036338 0.000000 -0.003887
# 5 0.009443 -0.005920 -0.011730 0.000000 0.035810 0.000000
# 6 0.000000 0.000000 0.000000 -0.003887 0.000000 0.031160
#
#
# Mechanical properties :
#
#
# Convention : Reuss Voigt Hill
#
# Bulk Modulus (GPa) = 34.65837 51.74840 43.20339
# Shear Modulus (GPa) = 27.33698 35.24545 31.29122
#
# Velocity S-wave (km/s) = 3.25399 3.69481 3.48139
# Velocity P-wave (km/s) = 5.24807 6.18433 5.73534
#
# Compressibility (1/GPa) = 0.02885306
#
# Stress axis : x y z
#
# Youngs Moduli (GPa) = 102.66300 65.36958 41.02266
#
# Poissons Ratio (x) = 0.25010 0.32328
# Poissons Ratio (y) = 0.39279 -0.05848
# Poissons Ratio (z) = 0.80904 -0.09319
#
# Static dielectric constant tensor:
#      x y z
#    x 2.108860 0.000000 0.081140 
#    y 0.000000 2.203160 0.000000 
#    z 0.081140 0.000000 2.098960 
# 
# From -- ./inp_files/610.got.cif
#   From: 2010.05.17/outbox.cif.g08.bks.cpg/sg7_cif.got.tgz:610.got - 2010.06.03 19:44:50.
