data_PCOD9131444
_publ_section_title
;
Structure prediction by ZEFSAII (Michael W. Deem and Ramdas Pophale) SiO2 
 PCOD9131444
Probable space group: P C
;
_chemical_formula_sum "Si O2"
_cell_formula_units_Z 14
_cell_length_a 7.143841
_cell_length_b 19.860283
_cell_length_c 5.186903
_cell_angle_alpha 90.000000
_cell_angle_beta 64.265847
_cell_angle_gamma 90.000000
_cell_volume 662.922211
_symmetry_space_group_name_H-M "P C"
_symmetry_group_IT_number 7
_symmetry_cell_setting 'monoclinic'
loop_
_space_group_symop_operation_xyz
x,y,z
x,-y,1/2+z
loop_
_atom_site_type_symbol
_atom_site_label
_atom_site_fract_x
_atom_site_fract_y
_atom_site_fract_z
Si Si1 0.468780 0.544696 0.894790
Si Si2 0.463343 0.097714 0.560910
Si Si3 0.116445 0.344116 0.514552
Si Si4 0.826128 0.653534 0.688746
Si Si5 0.477531 0.761889 0.825183
Si Si6 0.670875 0.120235 0.942148
Si Si7 0.022442 0.041986 0.924520
O O1 0.464244 0.487003 0.681425
O O2 0.678777 0.588468 0.739062
O O3 0.269790 0.592643 0.969346
O O4 0.416494 0.177418 0.551963
O O5 0.538012 0.077290 0.231248
O O6 0.263467 0.058883 0.769623
O O7 0.635869 0.095192 0.677655
O O8 0.275998 0.281840 0.380914
O O9 0.972333 0.352864 0.350571
O O10 0.969902 0.335328 0.852020
O O11 0.659446 0.713941 0.821851
O O12 0.582759 0.804551 0.529801
O O13 0.899530 0.109143 0.914874
O O14 0.972674 0.988427 0.730717
#
# Coordination Sequence:
#
# PCOD9131444 Si02
#       7
#     2   2   2   2   2   2   2
#     4  11  24  44  66  94 132 167 216 254 304 375
#     4  10  24  42  65  90 123 165 206 254 316 371
#     4  11  25  41  66  96 129 166 208 265 310 364
#     4  11  25  41  66  96 129 166 208 265 310 364
#     4   9  26  40  66  92 128 163 212 256 318 373
#     4  10  24  42  65  90 123 165 206 254 316 371
#     4  12  26  42  64  94 124 162 212 258 312 378
#
# _framework density 21.118617
#
# number of rings (size 3 to 8) (size 9 to 14) (size 15 to 20)
#    0.857    0.571    0.000    3.429    6.000    9.143 
#    0.000    0.000    0.000    0.000    0.000    0.000 
#    0.000    0.000    0.000    0.000    0.000    0.000 
#
# Total GULP energy -78165.329539 kJ/mol
# GULP energy per Si atom -5583.237824 kJ/mol
# Density = 2.107055 g / cm^3
# Si number density = 21.118617 Si / 1000 Ang^3
#
#
#
# Elastic Constant Matrix: (Units=GPa)
#
#
# Indices 1 2 3 4 5 6 
#
# 1 134.4719 34.5683 28.7461 0.0000 6.3575 0.0000
# 2 34.5683 64.0876 13.4429 0.0000 -3.4282 0.0000
# 3 28.7461 13.4429 60.7802 0.0000 9.4813 0.0000
# 4 0.0000 0.0000 0.0000 31.5233 0.0000 -4.6652
# 5 6.3575 -3.4282 9.4813 0.0000 32.1462 0.0000
# 6 0.0000 0.0000 0.0000 -4.6652 0.0000 20.2980
#
#
#
# Elastic Compliance Matrix: (Units=1/GPa)
#
#
# Indices 1 2 3 4 5 6 
#
# 1 0.009328 -0.004429 -0.003219 0.000000 -0.001368 0.000000
# 2 -0.004429 0.018737 -0.002618 0.000000 0.003646 0.000000
# 3 -0.003219 -0.002618 0.019390 0.000000 -0.005362 0.000000
# 4 0.000000 0.000000 0.000000 0.032840 0.000000 0.007548
# 5 -0.001368 0.003646 -0.005362 0.000000 0.033349 0.000000
# 6 0.000000 0.000000 0.000000 0.007548 0.000000 0.051001
#
#
# Mechanical properties :
#
#
# Convention : Reuss Voigt Hill
#
# Bulk Modulus (GPa) = 37.14263 45.87269 41.50766
# Shear Modulus (GPa) = 25.75323 28.96568 27.35945
#
# Velocity S-wave (km/s) = 3.49586 3.70749 3.60323
# Velocity P-wave (km/s) = 5.82413 6.33213 6.08344
#
# Compressibility (1/GPa) = 0.02692324
#
# Stress axis : x y z
#
# Youngs Moduli (GPa) = 107.20571 53.37025 51.57197
#
# Poissons Ratio (x) = 0.23640 0.16599
# Poissons Ratio (y) = 0.47486 0.13502
# Poissons Ratio (z) = 0.34505 0.13972
#
# Static dielectric constant tensor:
#      x y z
#    x 1.719320 0.000000 -0.019690 
#    y 0.000000 1.776050 0.000000 
#    z -0.019690 0.000000 1.754950 
# 
# From -- ./inp_files/296.got.cif
#   From: 2010.05.17/outbox.cif.g08.bks.cpg/sg7_cif.got.tgz:296.got - 2010.06.03 19:44:50.
