data_PCOD9131211
_publ_section_title
;
Structure prediction by ZEFSAII (Michael W. Deem and Ramdas Pophale) SiO2 
 PCOD9131211
Probable space group: P C
;
_chemical_formula_sum "Si O2"
_cell_formula_units_Z 12
_cell_length_a 19.888177
_cell_length_b 6.668576
_cell_length_c 5.204698
_cell_angle_alpha 90.000000
_cell_angle_beta 49.137676
_cell_angle_gamma 90.000000
_cell_volume 522.045599
_symmetry_space_group_name_H-M "P C"
_symmetry_group_IT_number 7
_symmetry_cell_setting 'monoclinic'
loop_
_space_group_symop_operation_xyz
x,y,z
x,-y,1/2+z
loop_
_atom_site_type_symbol
_atom_site_label
_atom_site_fract_x
_atom_site_fract_y
_atom_site_fract_z
Si Si1 0.333370 0.136100 0.389590
Si Si2 0.784007 0.796135 0.079672
Si Si3 0.711799 0.247824 0.258319
Si Si4 0.521619 0.860725 0.317055
Si Si5 0.143523 0.134782 0.760063
Si Si6 0.962273 0.368597 0.296789
O O1 0.239111 0.239773 0.570537
O O2 0.334059 0.046059 0.676189
O O3 0.426578 0.245169 0.099033
O O4 0.723695 0.681639 0.438171
O O5 0.739280 0.012121 0.149199
O O6 0.780471 0.696825 0.809476
O O7 0.883468 0.790738 0.939455
O O8 0.611595 0.265236 0.606434
O O9 0.524530 0.029215 0.533697
O O10 0.140921 0.042134 0.480937
O O11 0.058357 0.270035 0.020839
O O12 0.953757 0.461630 0.599712
#
# Coordination Sequence:
#
# PCOD9131211 Si02
#       6
#     2   2   2   2   2   2
#     4   8  16  27  47  76 112 133 163 222 285 320
#     4  10  20  31  50  73 108 139 186 217 269 317
#     4  10  17  30  50  83 105 137 174 230 269 315
#     4  10  14  25  43  76 118 131 162 216 290 320
#     4  10  21  38  60  85 109 145 187 239 283 328
#     4  12  26  41  56  81 114 155 190 232 286 338
#
# _framework density 22.986495999999999
#
# number of rings (size 3 to 8) (size 9 to 14) (size 15 to 20)
#    0.000    2.000    3.333    2.000    4.667    0.000 
#    0.000    0.000    0.000    0.000    0.000    7.000 
#    0.000    0.000    0.000    0.000    0.000    0.000 
#
# Total GULP energy -66942.581458 kJ/mol
# GULP energy per Si atom -5578.548455 kJ/mol
# Density = 2.293418 g / cm^3
# Si number density = 22.986496 Si / 1000 Ang^3
#
#
#
# Elastic Constant Matrix: (Units=GPa)
#
#
# Indices 1 2 3 4 5 6 
#
# 1 105.9038 -5.4695 48.5565 0.0000 -10.1115 0.0000
# 2 -5.4695 38.2272 -6.3595 0.0000 -10.0116 0.0000
# 3 48.5565 -6.3595 136.2545 0.0000 -20.8859 0.0000
# 4 0.0000 0.0000 0.0000 18.2599 0.0000 5.0523
# 5 -10.1115 -10.0116 -20.8859 0.0000 84.2105 0.0000
# 6 0.0000 0.0000 0.0000 5.0523 0.0000 15.2803
#
#
#
# Elastic Compliance Matrix: (Units=1/GPa)
#
#
# Indices 1 2 3 4 5 6 
#
# 1 0.011343 0.001110 -0.003910 0.000000 0.000524 0.000000
# 2 0.001110 0.027551 0.001469 0.000000 0.003773 0.000000
# 3 -0.003910 0.001469 0.009102 0.000000 0.001963 0.000000
# 4 0.000000 0.000000 0.000000 0.060279 0.000000 -0.019931
# 5 0.000524 0.003773 0.001963 0.000000 0.012873 0.000000
# 6 0.000000 0.000000 0.000000 -0.019931 0.000000 0.072034
#
#
# Mechanical properties :
#
#
# Convention : Reuss Voigt Hill
#
# Bulk Modulus (GPa) = 22.05937 39.31562 30.68749
# Shear Modulus (GPa) = 23.70169 39.79401 31.74785
#
# Velocity S-wave (km/s) = 3.21458 4.16527 3.72042
# Velocity P-wave (km/s) = 4.83689 6.34615 5.64221
#
# Compressibility (1/GPa) = 0.04533221
#
# Stress axis : x y z
#
# Youngs Moduli (GPa) = 88.16318 36.29676 109.86611
#
# Poissons Ratio (x) = -0.04028 0.42958
# Poissons Ratio (y) = -0.09783 -0.16137
# Poissons Ratio (z) = 0.34472 -0.05331
#
# Static dielectric constant tensor:
#      x y z
#    x 1.895910 0.000000 0.001370 
#    y 0.000000 1.468100 0.000000 
#    z 0.001370 0.000000 1.904870 
# 
# From -- ./inp_files/1278.got.cif
#   From: 2010.05.17/outbox.cif.g08.bks.cpg/sg7_cif.got.tgz:1278.got - 2010.06.03 19:44:50.
