data_PCOD9131804
_publ_section_title
;
Structure prediction by ZEFSAII (Michael W. Deem and Ramdas Pophale) SiO2 
 PCOD9131804
Probable space group: C M
;
_chemical_formula_sum "Si O2"
_cell_formula_units_Z 24
_cell_length_a 11.695850
_cell_length_b 23.613687
_cell_length_c 7.425598
_cell_angle_alpha 90.000000
_cell_angle_beta 150.261120
_cell_angle_gamma 90.000000
_cell_volume 1017.303934
_symmetry_space_group_name_H-M "C M"
_symmetry_group_IT_number 8
_symmetry_cell_setting 'monoclinic'
loop_
_space_group_symop_operation_xyz
x,y,z
x,-y,z
1/2+x,1/2+y,z
1/2+x,1/2-y,z
loop_
_atom_site_type_symbol
_atom_site_label
_atom_site_fract_x
_atom_site_fract_y
_atom_site_fract_z
Si Si1 0.517490 0.721019 0.811930
Si Si2 0.142086 0.636977 0.423397
Si Si3 0.451556 0.934246 0.478602
Si Si4 0.617324 0.659634 0.592044
Si Si5 0.955091 0.936400 0.593375
Si Si6 0.324776 0.834377 0.519251
O O1 0.292341 0.693872 0.600504
O O2 0.533642 0.705029 0.623831
O O3 0.515346 0.788194 0.832277
O O4 0.724437 0.689091 0.194385
O O5 0.272375 0.592311 0.474493
O O6 0.114582 0.605287 0.577249
O O7 0.886648 0.649130 0.003764
O O8 0.407972 0.898060 0.600539
O O9 0.523336 0.000000 0.597056
O O10 0.202511 0.935862 0.035276
O O11 0.483983 0.602513 0.458882
O O12 0.621557 0.671399 0.387332
O O13 0.893344 0.000000 0.465218
#
# Coordination Sequence:
#
# PCOD9131804 Si02
#       6
#     4   4   4   4   4   4
#     4  11  25  43  63  97 131 172 221 272 329 386
#     4  10  18  42  65  94 131 171 221 263 330 386
#     4  10  21  40  67  98 134 174 217 271 327 387
#     4  10  23  41  63  95 130 172 214 273 325 383
#     4   9  18  38  67  96 131 172 215 264 324 390
#     4  12  24  44  67  96 134 173 216 275 329 392
#
# _framework density 23.591768999999999
#
# number of rings (size 3 to 8) (size 9 to 14) (size 15 to 20)
#    0.000    1.667    5.000    1.500    2.333    2.667 
#    6.000    0.000    0.000    0.000    0.000    0.000 
#    0.000    0.000    0.000    0.000    0.000    0.000 
#
# Total GULP energy -67093.782678 kJ/mol
# GULP energy per Si atom -5591.148556 kJ/mol
# Density = 2.353807 g / cm^3
# Si number density = 23.591769 Si / 1000 Ang^3
#
#
#
# Elastic Constant Matrix: (Units=GPa)
#
#
# Indices 1 2 3 4 5 6 
#
# 1 147.6086 50.7621 7.7993 0.0000 3.6558 0.0000
# 2 50.7621 138.3139 2.0607 0.0000 -0.5346 0.0000
# 3 7.7993 2.0607 62.2789 0.0000 13.0347 0.0000
# 4 0.0000 0.0000 0.0000 24.6914 0.0000 5.9747
# 5 3.6558 -0.5346 13.0347 0.0000 31.3191 0.0000
# 6 0.0000 0.0000 0.0000 5.9747 0.0000 12.6541
#
#
#
# Elastic Compliance Matrix: (Units=1/GPa)
#
#
# Indices 1 2 3 4 5 6 
#
# 1 0.007813 -0.002859 -0.000748 0.000000 -0.000650 0.000000
# 2 -0.002859 0.008281 -0.000017 0.000000 0.000482 0.000000
# 3 -0.000748 -0.000017 0.017672 0.000000 -0.007268 0.000000
# 4 0.000000 0.000000 0.000000 0.045724 0.000000 -0.021588
# 5 -0.000650 0.000482 -0.007268 0.000000 0.035038 0.000000
# 6 0.000000 0.000000 0.000000 -0.021588 0.000000 0.089218
#
#
# Mechanical properties :
#
#
# Convention : Reuss Voigt Hill
#
# Bulk Modulus (GPa) = 37.70826 52.16062 44.93444
# Shear Modulus (GPa) = 22.74434 32.90489 27.82461
#
# Velocity S-wave (km/s) = 3.10833 3.73870 3.43799
# Velocity P-wave (km/s) = 5.37593 6.38709 5.90320
#
# Compressibility (1/GPa) = 0.02651939
#
# Stress axis : x y z
#
# Youngs Moduli (GPa) = 127.98416 120.75398 56.58610
#
# Poissons Ratio (x) = 0.34523 0.04232
# Poissons Ratio (y) = 0.36590 0.00096
# Poissons Ratio (z) = 0.09572 0.00204
#
# Static dielectric constant tensor:
#      x y z
#    x 1.910910 0.000000 -0.028130 
#    y 0.000000 1.872240 0.000000 
#    z -0.028130 0.000000 1.927890 
# 
# From -- ./inp_files/11619.got.cif
#   From: 2010.05.17/outbox.cif.g08.bks.cpg/sg8_6_cif.got.tgz:11619.got - 2010.06.03 19:46:02.
