data_PCOD9131795
_publ_section_title
;
Structure prediction by ZEFSAII (Michael W. Deem and Ramdas Pophale) SiO2 
 PCOD9131795
Probable space group: C M
;
_chemical_formula_sum "Si O2"
_cell_formula_units_Z 28
_cell_length_a 5.389386
_cell_length_b 30.271502
_cell_length_c 8.199031
_cell_angle_alpha 90.000000
_cell_angle_beta 56.540720
_cell_angle_gamma 90.000000
_cell_volume 1115.954565
_symmetry_space_group_name_H-M "C M"
_symmetry_group_IT_number 8
_symmetry_cell_setting 'monoclinic'
loop_
_space_group_symop_operation_xyz
x,y,z
x,-y,z
1/2+x,1/2+y,z
1/2+x,1/2-y,z
loop_
_atom_site_type_symbol
_atom_site_label
_atom_site_fract_x
_atom_site_fract_y
_atom_site_fract_z
Si Si1 0.793560 0.146581 0.507960
Si Si2 0.604199 0.088698 0.981904
Si Si3 0.287650 0.348781 0.138542
Si Si4 0.729548 0.406319 0.579278
Si Si5 0.546363 0.757301 0.224661
Si Si6 0.170083 0.000000 0.619355
Si Si7 0.380191 0.819120 0.897088
Si Si8 0.458463 0.000000 0.876266
O O1 0.512275 0.113748 0.571837
O O2 0.645054 0.185145 0.670844
O O3 0.888893 0.156581 0.288795
O O4 0.068311 0.125075 0.504924
O O5 0.483140 0.134818 0.949233
O O6 0.943016 0.083235 0.798329
O O7 0.421918 0.045761 0.992481
O O8 0.651658 0.103911 0.151036
O O9 0.071050 0.308773 0.178911
O O10 0.572720 0.335926 0.927697
O O11 0.803004 0.455653 0.494571
O O12 0.205531 0.746896 0.337861
O O13 0.759623 0.725916 0.031526
O O14 0.269964 0.000000 0.776693
O O15 0.814738 0.000000 0.711221
#
# Coordination Sequence:
#
# PCOD9131795 Si02
#       8
#     4   4   4   4   4   2   4   2
#     4  11  24  38  64  95 126 165 219 256 327 385
#     4  10  20  39  65  90 131 172 214 268 320 384
#     4  11  23  40  65  93 132 172 209 278 322 390
#     4  10  21  39  62  95 123 171 215 264 319 385
#     4  10  21  38  62  91 119 166 214 256 324 380
#     4  10  18  38  62  93 129 166 220 272 312 380
#     4  10  21  42  65  90 126 172 215 267 319 389
#     4  10  22  32  64 101 123 170 228 258 318 390
#
# _framework density 25.090626
#
# number of rings (size 3 to 8) (size 9 to 14) (size 15 to 20)
#    0.000    1.714    2.857    2.571    4.000    0.000 
#    0.000    7.143    0.000    0.000    0.000    0.000 
#    0.000    0.000    0.000    0.000    0.000    0.000 
#
# Total GULP energy -77949.908583 kJ/mol
# GULP energy per Si atom -5567.850613 kJ/mol
# Density = 2.503352 g / cm^3
# Si number density = 25.090626 Si / 1000 Ang^3
#
#
#
# Elastic Constant Matrix: (Units=GPa)
#
#
# Indices 1 2 3 4 5 6 
#
# 1 126.4376 29.1879 8.7594 0.0000 1.8607 0.0000
# 2 29.1879 137.8402 38.6334 0.0000 7.2866 0.0000
# 3 8.7594 38.6334 64.2062 0.0000 1.2733 0.0000
# 4 0.0000 0.0000 0.0000 33.1106 0.0000 4.1616
# 5 1.8607 7.2866 1.2733 0.0000 37.6432 0.0000
# 6 0.0000 0.0000 0.0000 4.1616 0.0000 43.0413
#
#
#
# Elastic Compliance Matrix: (Units=1/GPa)
#
#
# Indices 1 2 3 4 5 6 
#
# 1 0.008316 -0.001732 -0.000091 0.000000 -0.000073 0.000000
# 2 -0.001732 0.009174 -0.005254 0.000000 -0.001512 0.000000
# 3 -0.000091 -0.005254 0.018741 0.000000 0.000388 0.000000
# 4 0.000000 0.000000 0.000000 0.030573 0.000000 -0.002956
# 5 -0.000073 -0.001512 0.000388 0.000000 0.026848 0.000000
# 6 0.000000 0.000000 0.000000 -0.002956 0.000000 0.023519
#
#
# Mechanical properties :
#
#
# Convention : Reuss Voigt Hill
#
# Bulk Modulus (GPa) = 45.29438 53.51615 49.40527
# Shear Modulus (GPa) = 36.05308 39.55258 37.80283
#
# Velocity S-wave (km/s) = 3.79478 3.97468 3.88577
# Velocity P-wave (km/s) = 6.10671 6.51457 6.31393
#
# Compressibility (1/GPa) = 0.02207780
#
# Stress axis : x y z
#
# Youngs Moduli (GPa) = 120.24785 109.00488 53.35943
#
# Poissons Ratio (x) = 0.18875 0.00487
# Poissons Ratio (y) = 0.20821 0.28034
# Poissons Ratio (z) = 0.01097 0.57269
#
# Static dielectric constant tensor:
#      x y z
#    x 2.007010 0.000000 0.062590 
#    y 0.000000 2.089330 0.000000 
#    z 0.062590 0.000000 2.123060 
# 
# From -- ./inp_files/7183.got.cif
#   From: 2010.05.17/outbox.cif.g08.bks.cpg/sg8_4_cif.got.tgz:7183.got - 2010.06.03 19:46:02.
