data_PCOD9131056
_publ_section_title
;
Structure prediction by ZEFSAII (Michael W. Deem and Ramdas Pophale) SiO2 
 PCOD9131056
Probable space group: P M
;
_chemical_formula_sum "Si O2"
_cell_formula_units_Z 16
_cell_length_a 4.802274
_cell_length_b 23.568419
_cell_length_c 5.620004
_cell_angle_alpha 90.000000
_cell_angle_beta 84.304168
_cell_angle_gamma 90.000000
_cell_volume 632.942850
_symmetry_space_group_name_H-M "P M"
_symmetry_group_IT_number 6
_symmetry_cell_setting 'monoclinic'
loop_
_space_group_symop_operation_xyz
x,y,z
x,-y,z
loop_
_atom_site_type_symbol
_atom_site_label
_atom_site_fract_x
_atom_site_fract_y
_atom_site_fract_z
Si Si1 0.638360 0.906804 0.811570
Si Si2 0.203275 0.189356 0.331029
Si Si3 0.122847 0.655902 0.495320
Si Si4 0.393521 0.938977 0.332144
Si Si5 0.630851 0.282096 0.309581
Si Si6 0.651735 0.371583 0.916986
Si Si7 0.143939 0.433173 0.100420
Si Si8 0.128018 0.829747 0.833637
O O1 0.579776 0.934390 0.558783
O O2 0.451386 0.849002 0.816590
O O3 0.954013 0.887796 0.828417
O O4 0.547262 0.937787 0.062145
O O5 0.227927 0.120575 0.338291
O O6 0.506865 0.219050 0.309771
O O7 0.064904 0.203195 0.596986
O O8 0.068107 0.200676 0.086024
O O9 0.945382 0.699357 0.342061
O O10 0.199302 0.599456 0.342540
O O11 0.415327 0.687531 0.516152
O O12 0.889996 0.642489 0.708121
O O13 0.242357 0.000000 0.360595
O O14 0.573634 0.314686 0.066899
O O15 0.826938 0.415199 0.069190
O O16 0.364632 0.405234 0.895143
O O17 0.175964 0.500000 0.107505
#
# Coordination Sequence:
#
# PCOD9131056 Si02
#       8
#     2   2   2   2   2   2   2   2
#     4  10  21  40  62  88 123 163 204 256 326 396
#     4  10  23  42  65  99 128 173 222 277 337 405
#     4  10  22  41  62  89 128 170 217 266 331 386
#     4  10  21  41  66  93 129 168 214 273 338 407
#     4  10  23  39  62  91 124 169 219 275 325 399
#     4  10  21  40  61  88 129 170 214 269 326 386
#     4  10  21  37  60  94 127 164 216 266 320 392
#     4  10  22  40  63  90 127 157 211 266 320 391
#
# _framework density 25.278742000000001
#
# number of rings (size 3 to 8) (size 9 to 14) (size 15 to 20)
#    0.000    2.000    0.000    2.250    1.750    5.000 
#    2.250   15.000    0.000    0.000    0.000    0.000 
#    0.000    0.000    0.000    0.000    0.000    0.000 
#
# Total GULP energy -89329.188870 kJ/mol
# GULP energy per Si atom -5583.074304 kJ/mol
# Density = 2.522121 g / cm^3
# Si number density = 25.278742 Si / 1000 Ang^3
#
#
#
# Elastic Constant Matrix: (Units=GPa)
#
#
# Indices 1 2 3 4 5 6 
#
# 1 106.9537 7.5633 17.3413 0.0000 -9.0981 0.0000
# 2 7.5633 124.6482 30.9785 0.0000 -9.8142 0.0000
# 3 17.3413 30.9785 188.9024 0.0000 -3.3009 0.0000
# 4 0.0000 0.0000 0.0000 7.9367 0.0000 -15.9153
# 5 -9.0981 -9.8142 -3.3009 0.0000 43.2008 0.0000
# 6 0.0000 0.0000 0.0000 -15.9153 0.0000 17.5740
#
#
#
# Elastic Compliance Matrix: (Units=1/GPa)
#
#
# Indices 1 2 3 4 5 6 
#
# 1 0.009662 -0.000232 -0.000815 0.000000 0.001920 0.000000
# 2 -0.000232 0.008511 -0.001343 0.000000 0.001782 0.000000
# 3 -0.000815 -0.001343 0.005588 0.000000 -0.000050 0.000000
# 4 0.000000 0.000000 0.000000 -0.154404 0.000000 -0.139831
# 5 0.001920 0.001782 -0.000050 0.000000 0.023953 0.000000
# 6 0.000000 0.000000 0.000000 -0.139831 0.000000 -0.069731
#
#
# Mechanical properties :
#
#
# Convention : Reuss Voigt Hill
#
# Bulk Modulus (GPa) = 52.69101 59.14119 55.91610
# Shear Modulus (GPa) = -30.24565 38.05036 3.90235
#
# Velocity S-wave (km/s) = -3.46278 3.88394 1.24382
# Velocity P-wave (km/s) = 2.21393 6.59998 4.92246
#
# Compressibility (1/GPa) = 0.01897857
#
# Stress axis : x y z
#
# Youngs Moduli (GPa) = 103.50078 117.49758 178.95522
#
# Poissons Ratio (x) = 0.02732 0.14590
# Poissons Ratio (y) = 0.02406 0.24038
# Poissons Ratio (z) = 0.08438 0.15783
#
# Static dielectric constant tensor:
#      x y z
#    x 1.977070 0.000000 0.032940 
#    y 0.000000 1.996650 0.000000 
#    z 0.032940 0.000000 2.110270 
# 
# From -- ./inp_files/666.got.cif
#   From: 2010.05.17/outbox.cif.g08.bks.cpg/sg6_1_cif.got.tgz:666.got - 2010.06.03 19:42:10.
