data_PCOD9131972
_publ_section_title
;
Structure prediction by ZEFSAII (Michael W. Deem and Ramdas Pophale) SiO2 
 PCOD9131972
Probable space group: C M
;
_chemical_formula_sum "Si O2"
_cell_formula_units_Z 24
_cell_length_a 11.448164
_cell_length_b 22.947707
_cell_length_c 6.962451
_cell_angle_alpha 90.000000
_cell_angle_beta 33.096665
_cell_angle_gamma 90.000000
_cell_volume 998.785540
_symmetry_space_group_name_H-M "C M"
_symmetry_group_IT_number 8
_symmetry_cell_setting 'monoclinic'
loop_
_space_group_symop_operation_xyz
x,y,z
x,-y,z
1/2+x,1/2+y,z
1/2+x,1/2-y,z
loop_
_atom_site_type_symbol
_atom_site_label
_atom_site_fract_x
_atom_site_fract_y
_atom_site_fract_z
Si Si1 0.603300 0.822092 0.722960
Si Si2 0.947437 0.116411 0.458927
Si Si3 0.489694 0.935555 0.222644
Si Si4 0.371585 0.936128 0.950010
Si Si5 0.423774 0.274597 0.712165
Si Si6 0.466700 0.184008 0.354631
O O1 0.557881 0.762962 0.674640
O O2 0.492601 0.814098 0.086821
O O3 0.844199 0.845115 0.430280
O O4 0.504402 0.876703 0.742394
O O5 0.139344 0.071985 0.177096
O O6 0.036901 0.168366 0.472050
O O7 0.736332 0.083124 0.832044
O O8 0.402594 0.882957 0.471020
O O9 0.485333 0.000000 0.311278
O O10 0.362076 0.937234 0.197391
O O11 0.465383 0.000000 0.771663
O O12 0.207151 0.301260 0.096034
O O13 0.344725 0.231357 0.648676
#
# Coordination Sequence:
#
# PCOD9131972 Si02
#       6
#     4   4   4   4   4   4
#     4   9  20  34  50  76 106 135 172 212 257 308
#     4   9  18  29  49  76 100 134 172 210 255 306
#     4   8  16  31  49  73 102 133 172 212 253 304
#     4   9  16  29  51  75 100 133 172 212 256 305
#     4  10  19  34  52  77 108 137 172 213 260 310
#     4   9  20  33  53  79 103 138 174 213 259 309
#
# _framework density 24.029181000000001
#
# number of rings (size 3 to 8) (size 9 to 14) (size 15 to 20)
#    0.000    3.667    0.000    1.500    0.000    8.667 
#    0.000    0.833    0.000    0.000    0.000    0.000 
#    0.000    0.000    0.000    0.000    0.000    0.000 
#
# Total GULP energy -66858.712819 kJ/mol
# GULP energy per Si atom -5571.559402 kJ/mol
# Density = 2.397449 g / cm^3
# Si number density = 24.029181 Si / 1000 Ang^3
#
#
#
# Elastic Constant Matrix: (Units=GPa)
#
#
# Indices 1 2 3 4 5 6 
#
# 1 117.4139 21.0495 25.3834 0.0000 -3.5405 0.0000
# 2 21.0495 157.2078 13.5277 0.0000 -7.5019 0.0000
# 3 25.3834 13.5277 33.6483 0.0000 -7.2474 0.0000
# 4 0.0000 0.0000 0.0000 15.5089 0.0000 -12.2227
# 5 -3.5405 -7.5019 -7.2474 0.0000 38.7344 0.0000
# 6 0.0000 0.0000 0.0000 -12.2227 0.0000 28.2831
#
#
#
# Elastic Compliance Matrix: (Units=1/GPa)
#
#
# Indices 1 2 3 4 5 6 
#
# 1 0.010272 -0.000753 -0.007581 0.000000 -0.000625 0.000000
# 2 -0.000753 0.006669 -0.001927 0.000000 0.000862 0.000000
# 3 -0.007581 -0.001927 0.037494 0.000000 0.005949 0.000000
# 4 0.000000 0.000000 0.000000 0.097782 0.000000 0.042257
# 5 -0.000625 0.000862 0.005949 0.000000 0.027040 0.000000
# 6 0.000000 0.000000 0.000000 0.042257 0.000000 0.053618
#
#
# Mechanical properties :
#
#
# Convention : Reuss Voigt Hill
#
# Bulk Modulus (GPa) = 29.48751 47.57681 38.53216
# Shear Modulus (GPa) = 18.88917 33.05923 25.97420
#
# Velocity S-wave (km/s) = 2.80678 3.71320 3.29134
# Velocity P-wave (km/s) = 4.77516 6.18275 5.52397
#
# Compressibility (1/GPa) = 0.03391266
#
# Stress axis : x y z
#
# Youngs Moduli (GPa) = 97.35323 149.95179 26.67073
#
# Poissons Ratio (x) = 0.11290 0.20219
# Poissons Ratio (y) = 0.07329 0.05141
# Poissons Ratio (z) = 0.73802 0.28902
#
# Static dielectric constant tensor:
#      x y z
#    x 1.985820 0.000000 0.041800 
#    y 0.000000 1.977020 0.000000 
#    z 0.041800 0.000000 1.947690 
# 
# From -- ./inp_files/11500.got.cif
#   From: 2010.05.17/outbox.cif.g08.bks.cpg/sg8_6_cif.got.tgz:11500.got - 2010.06.03 19:46:02.
