data_PCOD9131759
_publ_section_title
;
Structure prediction by ZEFSAII (Michael W. Deem and Ramdas Pophale) SiO2 
 PCOD9131759
Probable space group: C M
;
_chemical_formula_sum "Si O2"
_cell_formula_units_Z 32
_cell_length_a 25.239695
_cell_length_b 8.550810
_cell_length_c 20.553872
_cell_angle_alpha 90.000000
_cell_angle_beta 24.066120
_cell_angle_gamma 90.000000
_cell_volume 1808.931962
_symmetry_space_group_name_H-M "C M"
_symmetry_group_IT_number 8
_symmetry_cell_setting 'monoclinic'
loop_
_space_group_symop_operation_xyz
x,y,z
x,-y,z
1/2+x,1/2+y,z
1/2+x,1/2-y,z
loop_
_atom_site_type_symbol
_atom_site_label
_atom_site_fract_x
_atom_site_fract_y
_atom_site_fract_z
Si Si1 0.417520 0.689423 0.449740
Si Si2 0.607645 0.812083 0.609166
Si Si3 0.636629 0.685686 0.805517
Si Si4 0.150843 0.190997 0.280872
Si Si5 0.185794 0.188202 0.387872
Si Si6 0.400749 0.688510 0.320892
Si Si7 0.439047 0.189513 0.918047
Si Si8 0.978492 0.686892 0.099292
O O1 0.413947 0.500000 0.454361
O O2 0.278323 0.748908 0.629706
O O3 0.532897 0.742693 0.367667
O O4 0.439421 0.737084 0.350119
O O5 0.602790 0.747587 0.541781
O O6 0.749277 0.767622 0.479245
O O7 0.498140 0.759441 0.782589
O O8 0.604120 0.000000 0.610110
O O9 0.637907 0.500000 0.799930
O O10 0.533657 0.752288 0.868810
O O11 0.587059 0.738747 0.931903
O O12 0.140602 0.241489 0.367511
O O13 0.150096 0.000000 0.281619
O O14 0.291634 0.239878 0.096125
O O15 0.335821 0.237136 0.232239
O O16 0.184890 0.000000 0.389676
O O17 0.409309 0.500000 0.306766
O O18 0.480508 0.761670 0.172096
O O19 0.441779 0.000000 0.916726
O O20 0.986037 0.500000 0.085854
#
# Coordination Sequence:
#
# PCOD9131759 Si02
#       8
#     4   4   4   4   4   4   4   4
#     4  10  20  37  58  79 109 149 181 217 270 325
#     4   9  17  29  50  77 106 139 174 218 264 311
#     4  12  23  34  53  82 111 141 182 230 269 314
#     4   9  18  34  58  81 104 141 185 218 260 324
#     4   9  17  31  52  78 107 138 174 217 262 316
#     4   9  17  31  51  78 109 141 178 220 267 319
#     4  10  18  35  57  80 107 139 182 224 265 320
#     4  10  19  33  55  79 107 142 178 224 273 317
#
# _framework density 17.689997000000002
#
# number of rings (size 3 to 8) (size 9 to 14) (size 15 to 20)
#    0.000    2.250    2.500    1.500    0.000    1.500 
#    0.000    2.500    0.000    1.500    0.000    0.000 
#    0.000    0.000    0.000    0.000    0.000    0.000 
#
# Total GULP energy -89264.622621 kJ/mol
# GULP energy per Si atom -5579.038914 kJ/mol
# Density = 1.764973 g / cm^3
# Si number density = 17.689997 Si / 1000 Ang^3
#
#
#
# Elastic Constant Matrix: (Units=GPa)
#
#
# Indices 1 2 3 4 5 6 
#
# 1 155.2592 23.1284 89.4625 -0.0004 17.8872 0.0000
# 2 23.1284 12.3016 21.0561 -0.0022 3.2062 0.0007
# 3 89.4625 21.0561 123.5947 -0.0025 17.0595 0.0009
# 4 -0.0004 -0.0022 -0.0025 13.2951 0.0004 12.1214
# 5 17.8872 3.2062 17.0595 0.0004 33.8534 0.0000
# 6 0.0000 0.0007 0.0009 12.1214 0.0000 19.0720
#
#
#
# Elastic Compliance Matrix: (Units=1/GPa)
#
#
# Indices 1 2 3 4 5 6 
#
# 1 0.012124 -0.010903 -0.006638 -0.000008 -0.002028 0.000006
# 2 -0.010903 0.124596 -0.013436 0.000051 0.000731 -0.000036
# 3 -0.006638 -0.013436 0.015611 0.000002 -0.003087 -0.000002
# 4 -0.000008 0.000051 0.000002 0.178850 -0.000004 -0.113670
# 5 -0.002028 0.000731 -0.003087 -0.000004 0.032097 0.000003
# 6 0.000006 -0.000036 -0.000002 -0.113670 0.000003 0.124677
#
#
# Mechanical properties :
#
#
# Convention : Reuss Voigt Hill
#
# Bulk Modulus (GPa) = 11.06474 62.04996 36.55735
# Shear Modulus (GPa) = 8.62017 23.74465 16.18241
#
# Velocity S-wave (km/s) = 2.20986 3.66767 3.02781
# Velocity P-wave (km/s) = 3.57487 7.28616 5.73881
#
# Compressibility (1/GPa) = 0.09037719
#
# Stress axis : x y z
#
# Youngs Moduli (GPa) = 82.48320 8.02592 64.05781
#
# Poissons Ratio (x) = 0.08751 0.42522
# Poissons Ratio (y) = 0.89933 0.86065
# Poissons Ratio (z) = 0.54753 0.10783
#
# Static dielectric constant tensor:
#      x y z
#    x 1.600210 0.000000 0.013870 
#    y 0.000000 1.601440 0.000000 
#    z 0.013870 0.000000 1.589340 
# 
# From -- ./inp_files/15822.got.cif
#   From: 2010.05.17/outbox.cif.g08.bks.cpg/sg8_8_cif.got.tgz:15822.got - 2010.06.03 19:46:02.
