data_PCOD9131789
_publ_section_title
;
Structure prediction by ZEFSAII (Michael W. Deem and Ramdas Pophale) SiO2 
 PCOD9131789
Probable space group: C M
;
_chemical_formula_sum "Si O2"
_cell_formula_units_Z 32
_cell_length_a 11.719210
_cell_length_b 18.914174
_cell_length_c 8.894814
_cell_angle_alpha 90.000000
_cell_angle_beta 53.599767
_cell_angle_gamma 90.000000
_cell_volume 1586.937658
_symmetry_space_group_name_H-M "C M"
_symmetry_group_IT_number 8
_symmetry_cell_setting 'monoclinic'
loop_
_space_group_symop_operation_xyz
x,y,z
x,-y,z
1/2+x,1/2+y,z
1/2+x,1/2-y,z
loop_
_atom_site_type_symbol
_atom_site_label
_atom_site_fract_x
_atom_site_fract_y
_atom_site_fract_z
Si Si1 0.402530 0.212580 0.387920
Si Si2 0.462330 0.919576 0.145415
Si Si3 0.688904 0.691207 0.828363
Si Si4 0.721219 0.149630 0.805217
Si Si5 0.203478 0.726700 0.269308
Si Si6 0.087433 0.648606 0.607487
Si Si7 0.440983 0.296246 0.832355
Si Si8 0.321556 0.080696 0.937292
O O1 0.440522 0.136178 0.292461
O O2 0.316212 0.201732 0.609839
O O3 0.294358 0.241111 0.340889
O O4 0.550802 0.252534 0.317907
O O5 0.438116 0.000000 0.208522
O O6 0.621522 0.907649 0.959745
O O7 0.361929 0.903290 0.078948
O O8 0.652615 0.772720 0.897625
O O9 0.559302 0.663386 0.832644
O O10 0.723792 0.639479 0.936661
O O11 0.709336 0.140423 0.636914
O O12 0.875938 0.157002 0.751287
O O13 0.149206 0.655098 0.393967
O O14 0.315329 0.720457 0.047925
O O15 0.009323 0.723687 0.713805
O O16 0.969768 0.590031 0.731232
O O17 0.271171 0.000000 0.965939
#
# Coordination Sequence:
#
# PCOD9131789 Si02
#       8
#     4   4   4   4   4   4   4   4
#     4  12  23  38  60  95 130 159 206 264 318 376
#     4  10  23  40  62  90 121 168 214 253 310 379
#     4  11  22  36  59  91 128 161 202 260 321 368
#     4  10  18  37  59  84 123 155 201 267 299 363
#     4  12  23  36  60  95 123 165 202 258 325 361
#     4  10  20  36  56  88 125 151 206 253 309 371
#     4  11  21  35  58  88 123 158 200 261 312 366
#     4  10  20  38  62  87 123 165 207 254 312 380
#
# _framework density 20.164622000000001
#
# number of rings (size 3 to 8) (size 9 to 14) (size 15 to 20)
#    0.000    1.250    6.250    2.250    0.000    0.500 
#    0.000    0.625    0.000    0.000    0.000    4.375 
#    0.000    0.000    0.000    0.000    0.000    0.000 
#
# Total GULP energy -89144.852638 kJ/mol
# GULP energy per Si atom -5571.553290 kJ/mol
# Density = 2.011873 g / cm^3
# Si number density = 20.164622 Si / 1000 Ang^3
#
#
#
# Elastic Constant Matrix: (Units=GPa)
#
#
# Indices 1 2 3 4 5 6 
#
# 1 167.5229 23.2043 9.6911 0.0000 6.7681 0.0000
# 2 23.2043 44.4674 2.6450 0.0000 8.2280 0.0000
# 3 9.6911 2.6450 71.2152 0.0000 -5.1923 0.0000
# 4 0.0000 0.0000 0.0000 18.6348 0.0000 0.4707
# 5 6.7681 8.2280 -5.1923 0.0000 27.0176 0.0000
# 6 0.0000 0.0000 0.0000 0.4707 0.0000 21.9487
#
#
#
# Elastic Compliance Matrix: (Units=1/GPa)
#
#
# Indices 1 2 3 4 5 6 
#
# 1 0.006491 -0.003188 -0.000824 0.000000 -0.000814 0.000000
# 2 -0.003188 0.025542 -0.001038 0.000000 -0.007180 0.000000
# 3 -0.000824 -0.001038 0.014433 0.000000 0.003296 0.000000
# 4 0.000000 0.000000 0.000000 0.053692 0.000000 -0.001152
# 5 -0.000814 -0.007180 0.003296 0.000000 0.040037 0.000000
# 6 0.000000 0.000000 0.000000 -0.001152 0.000000 0.045585
#
#
# Mechanical properties :
#
#
# Convention : Reuss Voigt Hill
#
# Bulk Modulus (GPa) = 27.49843 39.36515 33.43179
# Shear Modulus (GPa) = 24.03803 30.03122 27.03463
#
# Velocity S-wave (km/s) = 3.45641 3.86333 3.66552
# Velocity P-wave (km/s) = 5.44018 6.28210 5.87624
#
# Compressibility (1/GPa) = 0.03636571
#
# Stress axis : x y z
#
# Youngs Moduli (GPa) = 154.04869 39.15102 69.28547
#
# Poissons Ratio (x) = 0.12481 0.05711
# Poissons Ratio (y) = 0.49108 0.07194
# Poissons Ratio (z) = 0.12698 0.04065
#
# Static dielectric constant tensor:
#      x y z
#    x 1.838630 0.000000 -0.000100 
#    y 0.000000 1.692720 0.000000 
#    z -0.000100 0.000000 1.731250 
# 
# From -- ./inp_files/11356.got.cif
#   From: 2010.05.17/outbox.cif.g08.bks.cpg/sg8_6_cif.got.tgz:11356.got - 2010.06.03 19:46:02.
