data_PCOD9131726
_publ_section_title
;
Structure prediction by ZEFSAII (Michael W. Deem and Ramdas Pophale) SiO2 
 PCOD9131726
Probable space group: C M
;
_chemical_formula_sum "Si O2"
_cell_formula_units_Z 32
_cell_length_a 29.788186
_cell_length_b 7.475928
_cell_length_c 11.307345
_cell_angle_alpha 90.000000
_cell_angle_beta 150.119093
_cell_angle_gamma 90.000000
_cell_volume 1254.505341
_symmetry_space_group_name_H-M "C M"
_symmetry_group_IT_number 8
_symmetry_cell_setting 'monoclinic'
loop_
_space_group_symop_operation_xyz
x,y,z
x,-y,z
1/2+x,1/2+y,z
1/2+x,1/2-y,z
loop_
_atom_site_type_symbol
_atom_site_label
_atom_site_fract_x
_atom_site_fract_y
_atom_site_fract_z
Si Si1 0.831690 0.216391 0.703840
Si Si2 0.423643 0.210528 0.665062
Si Si3 0.094789 0.702454 0.941574
Si Si4 0.782094 0.782171 0.969422
Si Si5 0.672895 0.784506 0.488211
Si Si6 0.747223 0.207504 0.139741
Si Si7 0.493287 0.716314 0.469641
Si Si8 0.999593 0.210208 0.228097
O O1 0.877424 0.264581 0.685350
O O2 0.730833 0.276360 0.507233
O O3 0.829752 0.000000 0.702175
O O4 0.903290 0.281292 0.965642
O O5 0.524256 0.283241 0.873642
O O6 0.429694 0.000000 0.654849
O O7 0.352206 0.288691 0.410120
O O8 0.115320 0.500000 0.031097
O O9 0.039374 0.702489 0.690544
O O10 0.188362 0.787532 0.111823
O O11 0.731242 0.725245 0.735574
O O12 0.735608 0.713909 0.983385
O O13 0.779050 0.000000 0.962990
O O14 0.887523 0.737143 0.217445
O O15 0.571796 0.730435 0.288601
O O16 0.670925 0.000000 0.480506
O O17 0.719908 0.000000 0.071638
O O18 0.501844 0.500000 0.502495
O O19 0.531681 0.778199 0.429418
O O20 0.985377 0.000000 0.215189
#
# Coordination Sequence:
#
# PCOD9131726 Si02
#       8
#     4   4   4   4   4   4   4   4
#     4  10  22  41  61  79 108 153 196 229 273 339
#     4  11  24  40  57  82 115 145 186 245 290 321
#     4  10  22  38  57  85 117 147 185 234 283 331
#     4   9  16  31  58  86 111 145 186 223 266 331
#     4  10  20  37  61  86 113 148 189 229 274 334
#     4  10  20  37  61  84 111 151 190 223 273 344
#     4  10  18  33  59  87 116 150 186 224 273 336
#     4  10  21  37  58  87 119 147 182 231 282 332
#
# _framework density 25.508061999999999
#
# number of rings (size 3 to 8) (size 9 to 14) (size 15 to 20)
#    0.000    2.000    2.500    1.125    0.000    4.500 
#    0.000    5.000    0.000    0.000    0.000    0.000 
#    0.000    0.000    0.000    0.000    0.000    0.000 
#
# Total GULP energy -89432.516030 kJ/mol
# GULP energy per Si atom -5589.532252 kJ/mol
# Density = 2.545000 g / cm^3
# Si number density = 25.508062 Si / 1000 Ang^3
#
#
#
# Elastic Constant Matrix: (Units=GPa)
#
#
# Indices 1 2 3 4 5 6 
#
# 1 167.4226 -3.6549 7.4901 0.0000 23.8779 0.0000
# 2 -3.6549 79.3688 -5.0498 0.0000 1.1298 0.0000
# 3 7.4901 -5.0498 48.3266 0.0000 22.0643 0.0000
# 4 0.0000 0.0000 0.0000 8.9432 0.0000 1.9806
# 5 23.8779 1.1298 22.0643 0.0000 49.7920 0.0000
# 6 0.0000 0.0000 0.0000 1.9806 0.0000 9.3105
#
#
#
# Elastic Compliance Matrix: (Units=1/GPa)
#
#
# Indices 1 2 3 4 5 6 
#
# 1 0.006433 0.000380 0.000571 0.000000 -0.003346 0.000000
# 2 0.000380 0.012754 0.001867 0.000000 -0.001299 0.000000
# 3 0.000571 0.001867 0.026255 0.000000 -0.011950 0.000000
# 4 0.000000 0.000000 0.000000 0.117346 0.000000 -0.024963
# 5 -0.003346 -0.001299 -0.011950 0.000000 0.027013 0.000000
# 6 0.000000 0.000000 0.000000 -0.024963 0.000000 0.112716
#
#
# Mechanical properties :
#
#
# Convention : Reuss Voigt Hill
#
# Bulk Modulus (GPa) = 19.57804 32.52098 26.04951
# Shear Modulus (GPa) = 15.92822 33.36465 24.64643
#
# Velocity S-wave (km/s) = 2.50159 3.62056 3.11178
# Velocity P-wave (km/s) = 4.00448 5.50044 4.81096
#
# Compressibility (1/GPa) = 0.05107763
#
# Stress axis : x y z
#
# Youngs Moduli (GPa) = 155.44972 78.40565 38.08746
#
# Poissons Ratio (x) = -0.02981 -0.02173
# Poissons Ratio (y) = -0.05910 -0.07110
# Poissons Ratio (z) = -0.08869 -0.14637
#
# Static dielectric constant tensor:
#      x y z
#    x 2.076030 0.000000 0.009960 
#    y 0.000000 2.035000 0.000000 
#    z 0.009960 0.000000 1.991730 
# 
# From -- ./inp_files/21360.got.cif
#   From: 2010.05.17/outbox.cif.g08.bks.cpg/sg8_11_cif.got.tgz:21360.got - 2010.06.03 19:46:02.
