data_PCOD9131116
_publ_section_title
;
Structure prediction by ZEFSAII (Michael W. Deem and Ramdas Pophale) SiO2 
 PCOD9131116
Probable space group: P M
;
_chemical_formula_sum "Si O2"
_cell_formula_units_Z 10
_cell_length_a 5.510064
_cell_length_b 14.252491
_cell_length_c 4.828173
_cell_angle_alpha 90.000000
_cell_angle_beta 85.231313
_cell_angle_gamma 90.000000
_cell_volume 377.854238
_symmetry_space_group_name_H-M "P M"
_symmetry_group_IT_number 6
_symmetry_cell_setting 'monoclinic'
loop_
_space_group_symop_operation_xyz
x,y,z
x,-y,z
loop_
_atom_site_type_symbol
_atom_site_label
_atom_site_fract_x
_atom_site_fract_y
_atom_site_fract_z
Si Si1 0.576830 0.201869 0.720660
Si Si2 0.245087 0.798593 0.268272
Si Si3 0.937271 0.340673 0.922912
Si Si4 0.626347 0.000000 0.787079
Si Si5 0.259703 0.500000 0.618193
Si Si6 0.587057 0.500000 0.083518
Si Si7 0.099469 0.000000 0.135823
O O1 0.355192 0.232381 0.548558
O O2 0.793567 0.274219 0.723225
O O3 0.647996 0.097323 0.622004
O O4 0.477941 0.192881 0.042217
O O5 0.127555 0.902015 0.295534
O O6 0.075931 0.724942 0.127246
O O7 0.107975 0.411142 0.736722
O O8 0.746123 0.406987 0.105185
O O9 0.346219 0.000000 0.923172
O O10 0.848903 0.000000 0.985614
O O11 0.345182 0.500000 0.293544
O O12 0.508146 0.500000 0.770742
#
# Coordination Sequence:
#
# PCOD9131116 Si02
#       7
#     2   2   2   1   1   1   1
#     4  11  25  45  73 113 155 204 260 318 384 473
#     4  11  25  45  73 113 155 204 260 318 384 473
#     4  11  26  49  80 110 152 207 258 331 402 480
#     4  10  21  46  74 113 163 213 262 323 389 470
#     4  11  28  51  77 110 151 195 260 331 411 484
#     4  11  28  51  77 110 151 195 260 331 411 484
#     4  10  21  46  74 113 163 213 262 323 389 470
#
# _framework density 26.465235
#
# number of rings (size 3 to 8) (size 9 to 14) (size 15 to 20)
#    0.000    1.200    2.000    1.800    0.000   14.400 
#    0.000    7.000    0.000    0.000    0.000    1.400 
#    0.000    0.000    0.000    0.000    0.000    0.000 
#
# Total GULP energy -56136.857121 kJ/mol
# GULP energy per Si atom -5613.685712 kJ/mol
# Density = 2.640500 g / cm^3
# Si number density = 26.465235 Si / 1000 Ang^3
#
#
#
# Elastic Constant Matrix: (Units=GPa)
#
#
# Indices 1 2 3 4 5 6 
#
# 1 131.7925 68.9191 34.0921 0.0000 12.0122 0.0000
# 2 68.9191 244.1637 43.9860 0.0000 31.0171 0.0000
# 3 34.0921 43.9860 102.9057 0.0000 20.8955 0.0000
# 4 0.0000 0.0000 0.0000 -59.2564 0.0000 63.3845
# 5 12.0122 31.0171 20.8955 0.0000 69.1770 0.0000
# 6 0.0000 0.0000 0.0000 63.3845 0.0000 31.7485
#
#
#
# Elastic Compliance Matrix: (Units=1/GPa)
#
#
# Indices 1 2 3 4 5 6 
#
# 1 0.009312 -0.002249 -0.002131 0.000000 0.000035 0.000000
# 2 -0.002249 0.005133 -0.001130 0.000000 -0.001570 0.000000
# 3 -0.002131 -0.001130 0.011430 0.000000 -0.002576 0.000000
# 4 0.000000 0.000000 0.000000 -0.005382 0.000000 0.010745
# 5 0.000035 -0.001570 -0.002576 0.000000 0.015931 0.000000
# 6 0.000000 0.000000 0.000000 0.010745 0.000000 0.010045
#
#
# Mechanical properties :
#
#
# Convention : Reuss Voigt Hill
#
# Bulk Modulus (GPa) = 67.31918 85.87294 76.59606
# Shear Modulus (GPa) = 80.07504 30.45814 55.26659
#
# Velocity S-wave (km/s) = 5.50658 3.39613 4.57472
# Velocity P-wave (km/s) = 8.11923 6.92071 7.54381
#
# Compressibility (1/GPa) = 0.01485461
#
# Stress axis : x y z
#
# Youngs Moduli (GPa) = 107.39118 194.79951 87.49124
#
# Poissons Ratio (x) = 0.43810 0.18642
# Poissons Ratio (y) = 0.24152 0.09890
# Poissons Ratio (z) = 0.22882 0.22021
#
# Static dielectric constant tensor:
#      x y z
#    x 2.073510 0.000000 -0.053070 
#    y 0.000000 2.064560 0.000000 
#    z -0.053070 0.000000 2.025970 
# 
# From -- ./inp_files/166.got.cif
#   From: 2010.05.17/outbox.cif.g08.bks.cpg/sg6_1_cif.got.tgz:166.got - 2010.06.03 19:42:10.
