data_PCOD9131210
_publ_section_title
;
Structure prediction by ZEFSAII (Michael W. Deem and Ramdas Pophale) SiO2 
 PCOD9131210
Probable space group: P C
;
_chemical_formula_sum "Si O2"
_cell_formula_units_Z 14
_cell_length_a 15.687073
_cell_length_b 8.297591
_cell_length_c 5.420755
_cell_angle_alpha 90.000000
_cell_angle_beta 113.011588
_cell_angle_gamma 90.000000
_cell_volume 649.445196
_symmetry_space_group_name_H-M "P C"
_symmetry_group_IT_number 7
_symmetry_cell_setting 'monoclinic'
loop_
_space_group_symop_operation_xyz
x,y,z
x,-y,1/2+z
loop_
_atom_site_type_symbol
_atom_site_label
_atom_site_fract_x
_atom_site_fract_y
_atom_site_fract_z
Si Si1 0.541650 0.540955 0.174360
Si Si2 0.231432 0.100253 0.931366
Si Si3 0.339737 0.585518 0.451234
Si Si4 0.825638 0.798188 0.924239
Si Si5 0.751261 0.162538 0.841054
Si Si6 0.022183 0.105546 0.658559
Si Si7 0.532637 0.091825 0.632302
O O1 0.593927 0.503988 0.484916
O O2 0.503703 0.722628 0.121864
O O3 0.451189 0.427295 0.073657
O O4 0.305391 0.237477 0.967428
O O5 0.126832 0.170493 0.789764
O O6 0.240729 0.974131 0.715363
O O7 0.307969 0.476395 0.647282
O O8 0.784500 0.742154 0.618660
O O9 0.808056 0.993759 0.893700
O O10 0.771575 0.748782 0.108352
O O11 0.935333 0.774593 0.070247
O O12 0.644811 0.110267 0.750359
O O13 0.013940 0.009779 0.389779
O O14 0.505111 0.006249 0.345907
#
# Coordination Sequence:
#
# PCOD9131210 Si02
#       7
#     2   2   2   2   2   2   2
#     4  10  23  43  59  80 113 155 190 222 292 360
#     4  10  21  35  57  92 115 138 190 248 277 317
#     4  10  21  42  63  79 112 155 191 217 292 365
#     4  10  14  25  41  71 118 145 162 211 293 333
#     4  10  16  25  44  74 113 142 171 218 284 324
#     4  10  16  25  44  73 116 137 170 217 284 316
#     4  12  21  35  58  89 115 138 196 249 276 315
#
# _framework density 21.556863
#
# number of rings (size 3 to 8) (size 9 to 14) (size 15 to 20)
#    0.000    1.714    5.714    1.714    0.000    0.000 
#    0.000   17.143    0.000    0.000    0.000    6.000 
#    0.000    0.000    0.000    0.000    0.000    0.000 
#
# Total GULP energy -78143.501222 kJ/mol
# GULP energy per Si atom -5581.678659 kJ/mol
# Density = 2.150780 g / cm^3
# Si number density = 21.556863 Si / 1000 Ang^3
#
#
#
# Elastic Constant Matrix: (Units=GPa)
#
#
# Indices 1 2 3 4 5 6 
#
# 1 71.2971 20.7356 23.1187 0.0000 -5.4455 0.0000
# 2 20.7356 32.2059 9.9442 0.0000 -3.3615 0.0000
# 3 23.1187 9.9442 128.1354 0.0000 -61.9373 0.0000
# 4 0.0000 0.0000 0.0000 16.8397 0.0000 -6.6706
# 5 -5.4455 -3.3615 -61.9373 0.0000 41.4870 0.0000
# 6 0.0000 0.0000 0.0000 -6.6706 0.0000 14.0451
#
#
#
# Elastic Compliance Matrix: (Units=1/GPa)
#
#
# Indices 1 2 3 4 5 6 
#
# 1 0.018637 -0.010868 -0.006331 0.000000 -0.007886 0.000000
# 2 -0.010868 0.038334 -0.000727 0.000000 0.000594 0.000000
# 3 -0.006331 -0.000727 0.030798 0.000000 0.045090 0.000000
# 4 0.000000 0.000000 0.000000 0.073144 0.000000 0.034739
# 5 -0.007886 0.000594 0.045090 0.000000 0.090433 0.000000
# 6 0.000000 0.000000 0.000000 0.034739 0.000000 0.087698
#
#
# Mechanical properties :
#
#
# Convention : Reuss Voigt Hill
#
# Bulk Modulus (GPa) = 19.26134 37.69280 28.47707
# Shear Modulus (GPa) = 12.74853 26.33036 19.53944
#
# Velocity S-wave (km/s) = 2.43449 3.49870 3.01394
# Velocity P-wave (km/s) = 4.10571 5.81760 5.03494
#
# Compressibility (1/GPa) = 0.05191747
#
# Stress axis : x y z
#
# Youngs Moduli (GPa) = 53.65645 26.08670 32.46947
#
# Poissons Ratio (x) = 0.28350 0.20557
# Poissons Ratio (y) = 0.58312 0.02360
# Poissons Ratio (z) = 0.33972 0.01896
#
# Static dielectric constant tensor:
#      x y z
#    x 1.802620 0.000000 -0.034720 
#    y 0.000000 1.780740 0.000000 
#    z -0.034720 0.000000 1.881970 
# 
# From -- ./inp_files/1256.got.cif
#   From: 2010.05.17/outbox.cif.g08.bks.cpg/sg7_cif.got.tgz:1256.got - 2010.06.03 19:44:50.
