data_PCOD9131818
_publ_section_title
;
Structure prediction by ZEFSAII (Michael W. Deem and Ramdas Pophale) SiO2 
 PCOD9131818
Probable space group: C M
;
_chemical_formula_sum "Si O2"
_cell_formula_units_Z 32
_cell_length_a 14.389924
_cell_length_b 9.111479
_cell_length_c 11.789613
_cell_angle_alpha 90.000000
_cell_angle_beta 111.067958
_cell_angle_gamma 90.000000
_cell_volume 1442.449382
_symmetry_space_group_name_H-M "C M"
_symmetry_group_IT_number 8
_symmetry_cell_setting 'monoclinic'
loop_
_space_group_symop_operation_xyz
x,y,z
x,-y,z
1/2+x,1/2+y,z
1/2+x,1/2-y,z
loop_
_atom_site_type_symbol
_atom_site_label
_atom_site_fract_x
_atom_site_fract_y
_atom_site_fract_z
Si Si1 0.571960 0.165832 0.355120
Si Si2 0.797730 0.321720 0.087797
Si Si3 0.728976 0.831145 0.844271
Si Si4 0.009279 0.177514 0.114211
Si Si5 0.669576 0.664145 0.605038
Si Si6 0.892714 0.664239 0.611625
Si Si7 0.846463 0.334245 0.347114
Si Si8 0.458910 0.668044 0.850961
O O1 0.579195 0.253837 0.240870
O O2 0.621872 0.252437 0.479006
O O3 0.456031 0.155981 0.339853
O O4 0.610478 0.000000 0.361007
O O5 0.804149 0.500000 0.086747
O O6 0.901723 0.244558 0.099534
O O7 0.781163 0.278276 0.212390
O O8 0.726298 0.263111 0.957938
O O9 0.665068 0.757888 0.717076
O O10 0.843810 0.830726 0.847048
O O11 0.702454 0.000000 0.853450
O O12 0.008712 0.000000 0.120518
O O13 0.022307 0.219326 0.987969
O O14 0.628394 0.500000 0.600492
O O15 0.785788 0.651204 0.624621
O O16 0.932896 0.500000 0.605894
O O17 0.867057 0.737916 0.478543
O O18 0.959311 0.743684 0.734518
O O19 0.809007 0.500000 0.356392
O O20 0.485535 0.500000 0.839408
#
# Coordination Sequence:
#
# PCOD9131818 Si02
#       8
#     4   4   4   4   4   4   4   4
#     4  10  19  31  48  68  93 122 151 186 227 272
#     4   9  15  25  43  66  91 117 150 189 227 267
#     4   9  16  27  43  64  91 119 150 188 227 266
#     4   9  16  27  43  64  91 118 149 189 228 267
#     4  10  19  30  47  70  94 120 151 187 227 271
#     4   9  17  30  48  68  91 120 152 184 221 268
#     4   8  16  30  47  68  92 120 151 183 223 268
#     4   8  15  26  41  64  91 116 144 184 228 263
#
# _framework density 22.184487000000001
#
# number of rings (size 3 to 8) (size 9 to 14) (size 15 to 20)
#    0.000    3.000    0.000    3.375    0.000    4.000 
#    0.000    3.750    0.000    1.500    0.000    1.750 
#    0.000    0.000    0.000    0.000    0.000    0.000 
#
# Total GULP energy -89199.989299 kJ/mol
# GULP energy per Si atom -5574.999331 kJ/mol
# Density = 2.213399 g / cm^3
# Si number density = 22.184487 Si / 1000 Ang^3
#
#
#
# Elastic Constant Matrix: (Units=GPa)
#
#
# Indices 1 2 3 4 5 6 
#
# 1 52.3997 1.7381 -3.7819 0.0000 -10.8224 0.0000
# 2 1.7381 99.9456 90.8274 0.0000 1.9541 0.0000
# 3 -3.7819 90.8274 273.9721 0.0000 -10.7366 0.0000
# 4 0.0000 0.0000 0.0000 37.7603 0.0000 2.4243
# 5 -10.8224 1.9541 -10.7366 0.0000 20.5932 0.0000
# 6 0.0000 0.0000 0.0000 2.4243 0.0000 1.0155
#
#
#
# Elastic Compliance Matrix: (Units=1/GPa)
#
#
# Indices 1 2 3 4 5 6 
#
# 1 0.021807 -0.001912 0.001420 0.000000 0.012382 0.000000
# 2 -0.001912 0.014803 -0.005133 0.000000 -0.005086 0.000000
# 3 0.001420 -0.005133 0.005533 0.000000 0.004118 0.000000
# 4 0.000000 0.000000 0.000000 0.031276 0.000000 -0.074663
# 5 0.012382 -0.005086 0.004118 0.000000 0.057697 0.000000
# 6 0.000000 0.000000 0.000000 -0.074663 0.000000 1.162928
#
#
# Mechanical properties :
#
#
# Convention : Reuss Voigt Hill
#
# Bulk Modulus (GPa) = 32.36959 67.09828 49.73393
# Shear Modulus (GPa) = 3.80057 34.37607 19.08832
#
# Velocity S-wave (km/s) = 1.31030 3.94071 2.93650
# Velocity P-wave (km/s) = 4.11241 7.14261 5.82790
#
# Compressibility (1/GPa) = 0.03089320
#
# Stress axis : x y z
#
# Youngs Moduli (GPa) = 45.85607 67.55390 180.74214
#
# Poissons Ratio (x) = 0.12915 -0.25667
# Poissons Ratio (y) = 0.08767 0.92778
# Poissons Ratio (z) = -0.06512 0.34677
#
# Static dielectric constant tensor:
#      x y z
#    x 1.961110 0.000000 0.076920 
#    y 0.000000 1.791430 0.000000 
#    z 0.076920 0.000000 1.880650 
# 
# From -- ./inp_files/23679.got.cif
#   From: 2010.05.17/outbox.cif.g08.bks.cpg/sg8_12_cif.got.tgz:23679.got - 2010.06.03 19:46:02.
