data_PCOD9131326
_publ_section_title
;
Structure prediction by ZEFSAII (Michael W. Deem and Ramdas Pophale) SiO2 
 PCOD9131326
Probable space group: P C
;
_chemical_formula_sum "Si O2"
_cell_formula_units_Z 16
_cell_length_a 6.601751
_cell_length_b 20.776095
_cell_length_c 5.166652
_cell_angle_alpha 90.000000
_cell_angle_beta 106.034303
_cell_angle_gamma 90.000000
_cell_volume 681.081790
_symmetry_space_group_name_H-M "P C"
_symmetry_group_IT_number 7
_symmetry_cell_setting 'monoclinic'
loop_
_space_group_symop_operation_xyz
x,y,z
x,-y,1/2+z
loop_
_atom_site_type_symbol
_atom_site_label
_atom_site_fract_x
_atom_site_fract_y
_atom_site_fract_z
Si Si1 0.815630 0.454358 0.085240
Si Si2 0.653714 0.349310 0.344801
Si Si3 0.337150 0.707631 0.120552
Si Si4 0.025833 0.646814 0.357233
Si Si5 0.907576 0.751700 0.682262
Si Si6 0.111104 0.879536 0.631550
Si Si7 0.388427 0.852814 0.225766
Si Si8 0.724468 0.960540 0.478343
O O1 0.803169 0.502270 0.324067
O O2 0.643829 0.400025 0.105775
O O3 0.012629 0.407356 0.075236
O O4 0.469246 0.338651 0.481829
O O5 0.710915 0.278199 0.260656
O O6 0.864735 0.373018 0.573052
O O7 0.252576 0.668002 0.336653
O O8 0.443304 0.776817 0.216924
O O9 0.120479 0.729007 0.903788
O O10 0.920984 0.712431 0.422536
O O11 0.938235 0.826089 0.653224
O O12 0.224215 0.858942 0.406338
O O13 0.972230 0.942915 0.547266
O O14 0.277996 0.877676 0.923413
O O15 0.580648 0.899841 0.354044
O O16 0.677981 0.984609 0.750480
#
# Coordination Sequence:
#
# PCOD9131326 Si02
#       8
#     2   2   2   2   2   2   2   2
#     4  11  22  43  66  92 136 187 229 272 336 408
#     4  10  22  38  68  97 134 176 216 289 342 404
#     4  10  22  40  65 104 133 168 225 289 362 409
#     4  10  20  40  67  95 131 171 223 282 339 412
#     4   9  21  38  62  98 135 165 221 278 357 413
#     4  11  24  45  70  98 138 184 230 292 355 420
#     4  11  25  44  71 102 140 180 232 299 357 421
#     4  12  28  46  69 102 139 189 244 281 344 431
#
# _framework density 23.492039999999999
#
# number of rings (size 3 to 8) (size 9 to 14) (size 15 to 20)
#    0.000    1.500    2.500    1.500    1.750    8.000 
#    0.000    1.250    0.000    0.000    0.000    0.000 
#    0.000    0.000    0.000    0.000    0.000    0.000 
#
# Total GULP energy -89365.564577 kJ/mol
# GULP energy per Si atom -5585.347786 kJ/mol
# Density = 2.343857 g / cm^3
# Si number density = 23.492040 Si / 1000 Ang^3
#
#
#
# Elastic Constant Matrix: (Units=GPa)
#
#
# Indices 1 2 3 4 5 6 
#
# 1 73.8903 44.1257 23.5620 0.0000 -27.7600 0.0000
# 2 44.1257 83.0483 40.5794 0.0000 5.5328 0.0000
# 3 23.5620 40.5794 118.6027 0.0000 -16.0239 0.0000
# 4 0.0000 0.0000 0.0000 42.4370 0.0000 -8.3814
# 5 -27.7600 5.5328 -16.0239 0.0000 43.4534 0.0000
# 6 0.0000 0.0000 0.0000 -8.3814 0.0000 20.2359
#
#
#
# Elastic Compliance Matrix: (Units=1/GPa)
#
#
# Indices 1 2 3 4 5 6 
#
# 1 0.036831 -0.023703 0.004609 0.000000 0.028247 0.000000
# 2 -0.023703 0.030355 -0.008677 0.000000 -0.022208 0.000000
# 3 0.004609 -0.008677 0.011610 0.000000 0.008331 0.000000
# 4 0.000000 0.000000 0.000000 0.025664 0.000000 0.010629
# 5 0.028247 -0.022208 0.008331 0.000000 0.046958 0.000000
# 6 0.000000 0.000000 0.000000 0.010629 0.000000 0.053820
#
#
# Mechanical properties :
#
#
# Convention : Reuss Voigt Hill
#
# Bulk Modulus (GPa) = 43.00381 54.67506 48.83943
# Shear Modulus (GPa) = 18.61981 32.37689 25.49835
#
# Velocity S-wave (km/s) = 2.81837 3.71645 3.29812
# Velocity P-wave (km/s) = 5.37926 6.46068 5.94461
#
# Compressibility (1/GPa) = 0.02325376
#
# Stress axis : x y z
#
# Youngs Moduli (GPa) = 27.15093 32.94379 86.13143
#
# Poissons Ratio (x) = 0.78088 -0.39701
# Poissons Ratio (y) = 0.64357 0.74737
# Poissons Ratio (z) = -0.12515 0.28586
#
# Static dielectric constant tensor:
#      x y z
#    x 1.877400 0.000000 0.052300 
#    y 0.000000 1.904700 0.000000 
#    z 0.052300 0.000000 1.994580 
# 
# From -- ./inp_files/403.got.cif
#   From: 2010.05.17/outbox.cif.g08.bks.cpg/sg7_cif.got.tgz:403.got - 2010.06.03 19:44:50.
