data_PCOD9131114
_publ_section_title
;
Structure prediction by ZEFSAII (Michael W. Deem and Ramdas Pophale) SiO2 
 PCOD9131114
Probable space group: P M
;
_chemical_formula_sum "Si O2"
_cell_formula_units_Z 14
_cell_length_a 4.846149
_cell_length_b 18.902512
_cell_length_c 6.652792
_cell_angle_alpha 90.000000
_cell_angle_beta 105.138416
_cell_angle_gamma 90.000000
_cell_volume 588.276533
_symmetry_space_group_name_H-M "P M"
_symmetry_group_IT_number 6
_symmetry_cell_setting 'monoclinic'
loop_
_space_group_symop_operation_xyz
x,y,z
x,-y,z
loop_
_atom_site_type_symbol
_atom_site_label
_atom_site_fract_x
_atom_site_fract_y
_atom_site_fract_z
Si Si1 0.667770 0.782654 0.381430
Si Si2 0.660219 0.921965 0.148186
Si Si3 0.058029 0.077682 0.866975
Si Si4 0.252560 0.210869 0.654287
Si Si5 0.495496 0.682062 0.013627
Si Si6 0.388022 0.420649 0.656365
Si Si7 0.771226 0.418887 0.357535
O O1 0.764055 0.851917 0.276831
O O2 0.460163 0.808810 0.514840
O O3 0.471522 0.730936 0.207831
O O4 0.965829 0.749391 0.519122
O O5 0.751082 0.000000 0.240347
O O6 0.317179 0.920496 0.077300
O O7 0.768969 0.916938 0.939018
O O8 0.118972 0.143397 0.738458
O O9 0.069057 0.000000 0.771031
O O10 0.458206 0.256065 0.840568
O O11 0.738276 0.630437 0.154976
O O12 0.333849 0.622615 0.850633
O O13 0.484977 0.500000 0.727033
O O14 0.608991 0.391873 0.529870
O O15 0.097167 0.423558 0.479218
O O16 0.664776 0.500000 0.300441
#
# Coordination Sequence:
#
# PCOD9131114 Si02
#       7
#     2   2   2   2   2   2   2
#     4  12  27  42  65  98 134 175 224 271 331 401
#     4  10  21  42  69  94 126 172 223 275 331 391
#     4  10  21  42  69  94 126 172 223 275 331 391
#     4  12  27  42  65  98 134 175 224 271 331 401
#     4  12  25  44  67  96 138 180 210 276 331 390
#     4  10  23  44  69  99 131 170 224 270 319 391
#     4  10  23  44  69  99 131 170 224 270 319 391
#
# _framework density 23.798331999999998
#
# number of rings (size 3 to 8) (size 9 to 14) (size 15 to 20)
#    0.000    1.143    1.429    3.857    0.000    4.571 
#    0.000    4.286    0.000    0.000    0.000    0.000 
#    0.000    0.000    0.000    0.000    0.000    0.000 
#
# Total GULP energy -77975.039139 kJ/mol
# GULP energy per Si atom -5569.645653 kJ/mol
# Density = 2.374417 g / cm^3
# Si number density = 23.798332 Si / 1000 Ang^3
#
#
#
# Elastic Constant Matrix: (Units=GPa)
#
#
# Indices 1 2 3 4 5 6 
#
# 1 79.6090 -1.5705 11.8220 0.0000 -4.5419 0.0000
# 2 -1.5705 130.6467 48.4822 0.0000 -11.7051 0.0000
# 3 11.8220 48.4822 89.1484 0.0000 11.0857 0.0000
# 4 0.0000 0.0000 0.0000 -6.6942 0.0000 31.8924
# 5 -4.5419 -11.7051 11.0857 0.0000 25.3516 0.0000
# 6 0.0000 0.0000 0.0000 31.8924 0.0000 -14.7568
#
#
#
# Elastic Compliance Matrix: (Units=1/GPa)
#
#
# Indices 1 2 3 4 5 6 
#
# 1 0.013363 0.001825 -0.003349 0.000000 0.004701 0.000000
# 2 0.001825 0.011219 -0.007432 0.000000 0.008756 0.000000
# 3 -0.003349 -0.007432 0.017136 0.000000 -0.011525 0.000000
# 4 0.000000 0.000000 0.000000 0.016069 0.000000 0.034728
# 5 0.004701 0.008756 -0.011525 0.000000 0.049370 0.000000
# 6 0.000000 0.000000 0.000000 0.034728 0.000000 0.007289
#
#
# Mechanical properties :
#
#
# Convention : Reuss Voigt Hill
#
# Bulk Modulus (GPa) = 42.00759 46.31905 44.16332
# Shear Modulus (GPa) = 35.63953 16.82480 26.23216
#
# Velocity S-wave (km/s) = 3.87404 2.66178 3.32365
# Velocity P-wave (km/s) = 6.14009 5.38072 5.77290
#
# Compressibility (1/GPa) = 0.02380522
#
# Stress axis : x y z
#
# Youngs Moduli (GPa) = 74.83405 89.13742 58.35596
#
# Poissons Ratio (x) = -0.16264 0.19543
# Poissons Ratio (y) = -0.13654 0.43370
# Poissons Ratio (z) = 0.25061 0.66246
#
# Static dielectric constant tensor:
#      x y z
#    x 1.895870 0.000000 -0.004910 
#    y 0.000000 2.002310 0.000000 
#    z -0.004910 0.000000 1.921710 
# 
# From -- ./inp_files/576.got.cif
#   From: 2010.05.17/outbox.cif.g08.bks.cpg/sg6_1_cif.got.tgz:576.got - 2010.06.03 19:42:10.
