data_PCOD9131690
_publ_section_title
;
Structure prediction by ZEFSAII (Michael W. Deem and Ramdas Pophale) SiO2 
 PCOD9131690
Probable space group: C M
;
_chemical_formula_sum "Si O2"
_cell_formula_units_Z 32
_cell_length_a 9.643125
_cell_length_b 21.880666
_cell_length_c 8.230064
_cell_angle_alpha 90.000000
_cell_angle_beta 44.688479
_cell_angle_gamma 90.000000
_cell_volume 1221.215687
_symmetry_space_group_name_H-M "C M"
_symmetry_group_IT_number 8
_symmetry_cell_setting 'monoclinic'
loop_
_space_group_symop_operation_xyz
x,y,z
x,-y,z
1/2+x,1/2+y,z
1/2+x,1/2-y,z
loop_
_atom_site_type_symbol
_atom_site_label
_atom_site_fract_x
_atom_site_fract_y
_atom_site_fract_z
Si Si1 0.685990 0.863255 0.219450
Si Si2 0.583457 0.435239 0.918315
Si Si3 0.197708 0.572808 0.890460
Si Si4 0.165283 0.893987 0.526947
Si Si5 0.719764 0.131081 0.550391
Si Si6 0.660126 0.736908 0.675686
Si Si7 0.717326 0.261405 0.006793
Si Si8 0.162318 0.103599 0.175610
O O1 0.919196 0.881785 0.045539
O O2 0.613516 0.870551 0.464434
O O3 0.659563 0.795464 0.169189
O O4 0.612435 0.906672 0.135768
O O5 0.474024 0.500000 0.013189
O O6 0.718607 0.429259 0.963057
O O7 0.707713 0.432495 0.650984
O O8 0.198877 0.500000 0.871337
O O9 0.424727 0.598713 0.710461
O O10 0.112449 0.606346 0.801160
O O11 0.223017 0.825377 0.534495
O O12 0.236006 0.914209 0.291190
O O13 0.778417 0.201929 0.532778
O O14 0.923540 0.093381 0.372606
O O15 0.633075 0.735078 0.893966
O O16 0.446618 0.750687 0.781740
O O17 0.696549 0.324856 0.117472
#
# Coordination Sequence:
#
# PCOD9131690 Si02
#       8
#     4   4   4   4   4   4   4   4
#     4  10  18  33  52  82 116 149 191 241 296 340
#     4  10  19  34  56  85 120 154 194 250 297 340
#     4  10  19  34  56  85 120 154 194 250 297 340
#     4  10  18  33  52  82 116 149 191 241 296 340
#     4  10  21  35  56  88 121 151 195 244 298 357
#     4  12  21  38  61  85 125 161 195 245 304 360
#     4  12  21  38  61  85 125 161 195 245 304 360
#     4  10  21  35  56  88 121 151 195 244 298 357
#
# _framework density 26.203396999999999
#
# number of rings (size 3 to 8) (size 9 to 14) (size 15 to 20)
#    0.000    1.500    5.000    3.750    0.000    5.500 
#    0.000    0.000    0.000    0.750    0.000    1.750 
#    0.000    0.000    0.000    0.000    0.000    0.000 
#
# Total GULP energy -89450.224785 kJ/mol
# GULP energy per Si atom -5590.639049 kJ/mol
# Density = 2.614376 g / cm^3
# Si number density = 26.203397 Si / 1000 Ang^3
#
#
#
# Elastic Constant Matrix: (Units=GPa)
#
#
# Indices 1 2 3 4 5 6 
#
# 1 106.8292 45.9299 56.0705 0.0000 50.0797 0.0000
# 2 45.9299 137.1882 37.7421 0.0000 30.0763 0.0000
# 3 56.0705 37.7421 149.4431 0.0000 73.8438 0.0000
# 4 0.0000 0.0000 0.0000 4.4683 0.0000 -5.0739
# 5 50.0797 30.0763 73.8438 0.0000 80.9049 0.0000
# 6 0.0000 0.0000 0.0000 -5.0739 0.0000 9.3716
#
#
#
# Elastic Compliance Matrix: (Units=1/GPa)
#
#
# Indices 1 2 3 4 5 6 
#
# 1 0.014473 -0.003019 -0.001449 0.000000 -0.006514 0.000000
# 2 -0.003019 0.008648 -0.000703 0.000000 -0.000704 0.000000
# 3 -0.001449 -0.000703 0.012460 0.000000 -0.010214 0.000000
# 4 0.000000 0.000000 0.000000 0.580969 0.000000 0.314544
# 5 -0.006514 -0.000704 -0.010214 0.000000 0.025976 0.000000
# 6 0.000000 0.000000 0.000000 0.314544 0.000000 0.277004
#
#
# Mechanical properties :
#
#
# Convention : Reuss Voigt Hill
#
# Bulk Modulus (GPa) = 39.62325 74.77172 57.19748
# Shear Modulus (GPa) = 5.32888 35.86348 20.59618
#
# Velocity S-wave (km/s) = 1.42761 3.70355 2.80663
# Velocity P-wave (km/s) = 4.22749 6.84730 5.69022
#
# Compressibility (1/GPa) = 0.02523771
#
# Stress axis : x y z
#
# Youngs Moduli (GPa) = 69.09573 115.63619 80.25803
#
# Poissons Ratio (x) = 0.34907 0.11631
# Poissons Ratio (y) = 0.20858 0.05646
# Poissons Ratio (z) = 0.10013 0.08134
#
# Static dielectric constant tensor:
#      x y z
#    x 2.085790 0.000000 -0.023750 
#    y 0.000000 2.039480 0.000000 
#    z -0.023750 0.000000 2.149680 
# 
# From -- ./inp_files/11346.got.cif
#   From: 2010.05.17/outbox.cif.g08.bks.cpg/sg8_6_cif.got.tgz:11346.got - 2010.06.03 19:46:02.
