data_PCOD9131402
_publ_section_title
;
Structure prediction by ZEFSAII (Michael W. Deem and Ramdas Pophale) SiO2 
 PCOD9131402
Probable space group: P C
;
_chemical_formula_sum "Si O2"
_cell_formula_units_Z 14
_cell_length_a 9.775594
_cell_length_b 11.277595
_cell_length_c 5.254074
_cell_angle_alpha 90.000000
_cell_angle_beta 67.946638
_cell_angle_gamma 90.000000
_cell_volume 536.856305
_symmetry_space_group_name_H-M "P C"
_symmetry_group_IT_number 7
_symmetry_cell_setting 'monoclinic'
loop_
_space_group_symop_operation_xyz
x,y,z
x,-y,1/2+z
loop_
_atom_site_type_symbol
_atom_site_label
_atom_site_fract_x
_atom_site_fract_y
_atom_site_fract_z
Si Si1 0.852020 0.411811 0.278810
Si Si2 0.184603 0.474219 0.793882
Si Si3 0.925388 0.920026 0.166614
Si Si4 0.499519 0.430151 0.122176
Si Si5 0.108855 0.233221 0.887924
Si Si6 0.367107 0.925913 0.375766
Si Si7 0.645675 0.770115 0.227742
O O1 0.838334 0.488139 0.022195
O O2 0.729245 0.316299 0.472248
O O3 0.573729 0.309107 0.999638
O O4 0.978650 0.305991 0.123167
O O5 0.094846 0.493908 0.604833
O O6 0.320694 0.563625 0.715539
O O7 0.227374 0.338843 0.764852
O O8 0.042346 0.819836 0.174298
O O9 0.766435 0.857663 0.264189
O O10 0.939104 0.014827 0.386771
O O11 0.536289 0.479025 0.370569
O O12 0.207252 0.135317 0.954988
O O13 0.506000 0.841556 0.217360
O O14 0.376180 0.971461 0.657785
#
# Coordination Sequence:
#
# PCOD9131402 Si02
#       7
#     2   2   2   2   2   2   2
#     4  12  28  48  78 122 162 208 266 320 402 508
#     4  10  22  41  69 107 147 190 241 301 384 477
#     4  12  28  50  76 108 148 204 270 324 384 460
#     4  10  22  41  69 107 147 190 241 301 384 477
#     4  12  27  51  81 112 159 210 256 333 403 462
#     4  12  30  52  80 118 154 206 280 338 394 470
#     4  12  27  51  81 112 159 210 256 333 403 462
#
# _framework density 26.077739000000001
#
# number of rings (size 3 to 8) (size 9 to 14) (size 15 to 20)
#    0.000    0.571    0.000    6.857    0.000   13.714 
#    0.000    0.000    0.000    0.000    0.000    0.000 
#    0.000    0.000    0.000    0.000    0.000    0.000 
#
# Total GULP energy -78193.887439 kJ/mol
# GULP energy per Si atom -5585.277674 kJ/mol
# Density = 2.601839 g / cm^3
# Si number density = 26.077739 Si / 1000 Ang^3
#
#
#
# Elastic Constant Matrix: (Units=GPa)
#
#
# Indices 1 2 3 4 5 6 
#
# 1 131.3976 56.1879 51.6085 0.0000 -10.3508 0.0000
# 2 56.1879 107.3743 51.2707 0.0000 -10.9747 0.0000
# 3 51.6085 51.2707 153.0965 0.0000 -1.9943 0.0000
# 4 0.0000 0.0000 0.0000 13.3058 0.0000 10.9679
# 5 -10.3508 -10.9747 -1.9943 0.0000 44.1440 0.0000
# 6 0.0000 0.0000 0.0000 10.9679 0.0000 69.6824
#
#
#
# Elastic Compliance Matrix: (Units=1/GPa)
#
#
# Indices 1 2 3 4 5 6 
#
# 1 0.010354 -0.004321 -0.002027 0.000000 0.001262 0.000000
# 2 -0.004321 0.013194 -0.002934 0.000000 0.002134 0.000000
# 3 -0.002027 -0.002934 0.008187 0.000000 -0.000835 0.000000
# 4 0.000000 0.000000 0.000000 0.086359 0.000000 -0.013593
# 5 0.001262 0.002134 -0.000835 0.000000 0.023442 0.000000
# 6 0.000000 0.000000 0.000000 -0.013593 0.000000 0.016490
#
#
# Mechanical properties :
#
#
# Convention : Reuss Voigt Hill
#
# Bulk Modulus (GPa) = 75.92847 78.88919 77.40883
# Shear Modulus (GPa) = 27.62743 40.94655 34.28699
#
# Velocity S-wave (km/s) = 3.25841 3.96684 3.62995
# Velocity P-wave (km/s) = 6.58299 7.16228 6.87874
#
# Compressibility (1/GPa) = 0.01317029
#
# Stress axis : x y z
#
# Youngs Moduli (GPa) = 96.58323 75.79431 122.15000
#
# Poissons Ratio (x) = 0.32753 0.24755
# Poissons Ratio (y) = 0.41737 0.35838
# Poissons Ratio (z) = 0.19574 0.22237
#
# Static dielectric constant tensor:
#      x y z
#    x 2.323540 0.000000 -0.044300 
#    y 0.000000 2.073680 0.000000 
#    z -0.044300 0.000000 2.194420 
# 
# From -- ./inp_files/584.got.cif
#   From: 2010.05.17/outbox.cif.g08.bks.cpg/sg7_cif.got.tgz:584.got - 2010.06.03 19:44:50.
