data_PCOD9131260
_publ_section_title
;
Structure prediction by ZEFSAII (Michael W. Deem and Ramdas Pophale) SiO2 
 PCOD9131260
Probable space group: P C
;
_chemical_formula_sum "Si O2"
_cell_formula_units_Z 16
_cell_length_a 9.200120
_cell_length_b 16.609689
_cell_length_c 5.389814
_cell_angle_alpha 90.000000
_cell_angle_beta 71.470816
_cell_angle_gamma 90.000000
_cell_volume 780.928506
_symmetry_space_group_name_H-M "P C"
_symmetry_group_IT_number 7
_symmetry_cell_setting 'monoclinic'
loop_
_space_group_symop_operation_xyz
x,y,z
x,-y,1/2+z
loop_
_atom_site_type_symbol
_atom_site_label
_atom_site_fract_x
_atom_site_fract_y
_atom_site_fract_z
Si Si1 0.291940 0.046045 0.326070
Si Si2 0.634623 0.985532 0.080255
Si Si3 0.774311 0.449148 0.431046
Si Si4 0.300080 0.230755 0.273433
Si Si5 0.567084 0.679046 0.897941
Si Si6 0.970087 0.288256 0.368979
Si Si7 0.573404 0.814615 0.283035
Si Si8 0.814480 0.243540 0.967844
O O1 0.256043 0.140452 0.390616
O O2 0.240503 0.992290 0.590008
O O3 0.478508 0.038198 0.191910
O O4 0.572234 0.895049 0.127873
O O5 0.724391 0.001390 0.281954
O O6 0.792187 0.505163 0.180873
O O7 0.605958 0.407072 0.492311
O O8 0.898720 0.376540 0.359914
O O9 0.404143 0.286611 0.397618
O O10 0.152135 0.279675 0.272017
O O11 0.411963 0.209021 0.985114
O O12 0.686270 0.688095 0.603348
O O13 0.620955 0.742649 0.076670
O O14 0.909416 0.234516 0.168829
O O15 0.917627 0.263374 0.674827
O O16 0.698646 0.824921 0.433976
#
# Coordination Sequence:
#
# PCOD9131260 Si02
#       8
#     2   2   2   2   2   2   2   2
#     4  10  19  35  54  90 126 170 209 254 314 374
#     4  10  19  31  52  88 123 158 210 258 314 361
#     4  11  23  44  70  89 123 171 213 253 322 403
#     4  11  24  36  68 100 133 164 218 275 312 370
#     4  10  22  40  66 102 122 159 217 264 316 377
#     4  11  24  43  63  97 126 173 213 253 321 394
#     4  11  20  37  67  95 124 164 216 276 302 367
#     4  10  21  40  62  87 129 163 218 251 305 382
#
# _framework density 20.488432
#
# number of rings (size 3 to 8) (size 9 to 14) (size 15 to 20)
#    0.000    1.500    5.000    3.000    5.250    0.000 
#    0.000    1.250    0.000    4.500    0.000    0.000 
#    0.000    0.000    0.000    0.000    0.000    0.000 
#
# Total GULP energy -89131.879064 kJ/mol
# GULP energy per Si atom -5570.742442 kJ/mol
# Density = 2.044180 g / cm^3
# Si number density = 20.488432 Si / 1000 Ang^3
#
#
#
# Elastic Constant Matrix: (Units=GPa)
#
#
# Indices 1 2 3 4 5 6 
#
# 1 91.7493 28.6471 30.4293 0.0000 11.6765 0.0000
# 2 28.6471 88.9805 26.1582 0.0000 2.3620 0.0000
# 3 30.4293 26.1582 142.0507 0.0000 21.9079 0.0000
# 4 0.0000 0.0000 0.0000 27.8607 0.0000 8.3670
# 5 11.6765 2.3620 21.9079 0.0000 20.1962 0.0000
# 6 0.0000 0.0000 0.0000 8.3670 0.0000 19.7754
#
#
#
# Elastic Compliance Matrix: (Units=1/GPa)
#
#
# Indices 1 2 3 4 5 6 
#
# 1 0.013224 -0.003737 -0.001240 0.000000 -0.005863 0.000000
# 2 -0.003737 0.012961 -0.002024 0.000000 0.002841 0.000000
# 3 -0.001240 -0.002024 0.009044 0.000000 -0.008857 0.000000
# 4 0.000000 0.000000 0.000000 0.041117 0.000000 -0.017397
# 5 -0.005863 0.002841 -0.008857 0.000000 0.062179 0.000000
# 6 0.000000 0.000000 0.000000 -0.017397 0.000000 0.057928
#
#
# Mechanical properties :
#
#
# Convention : Reuss Voigt Hill
#
# Bulk Modulus (GPa) = 47.11305 54.80551 50.95928
# Shear Modulus (GPa) = 22.98508 29.40285 26.19396
#
# Velocity S-wave (km/s) = 3.35305 3.79237 3.57946
# Velocity P-wave (km/s) = 6.16729 6.78113 6.48148
#
# Compressibility (1/GPa) = 0.02122554
#
# Stress axis : x y z
#
# Youngs Moduli (GPa) = 75.62243 77.15294 110.56850
#
# Poissons Ratio (x) = 0.28833 0.13714
# Poissons Ratio (y) = 0.28261 0.22383
# Poissons Ratio (z) = 0.09380 0.15618
#
# Static dielectric constant tensor:
#      x y z
#    x 1.747930 0.000000 0.052730 
#    y 0.000000 1.792990 0.000000 
#    z 0.052730 0.000000 1.811740 
# 
# From -- ./inp_files/713.got.cif
#   From: 2010.05.17/outbox.cif.g08.bks.cpg/sg7_cif.got.tgz:713.got - 2010.06.03 19:44:50.
