data_PCOD9131413
_publ_section_title
;
Structure prediction by ZEFSAII (Michael W. Deem and Ramdas Pophale) SiO2 
 PCOD9131413
Probable space group: P C
;
_chemical_formula_sum "Si O2"
_cell_formula_units_Z 14
_cell_length_a 7.435389
_cell_length_b 17.990778
_cell_length_c 5.136401
_cell_angle_alpha 90.000000
_cell_angle_beta 70.253990
_cell_angle_gamma 90.000000
_cell_volume 646.687207
_symmetry_space_group_name_H-M "P C"
_symmetry_group_IT_number 7
_symmetry_cell_setting 'monoclinic'
loop_
_space_group_symop_operation_xyz
x,y,z
x,-y,1/2+z
loop_
_atom_site_type_symbol
_atom_site_label
_atom_site_fract_x
_atom_site_fract_y
_atom_site_fract_z
Si Si1 0.147220 0.879478 0.781760
Si Si2 0.635413 0.451872 0.329059
Si Si3 0.717711 0.084952 0.363321
Si Si4 0.256873 0.640213 0.959308
Si Si5 0.013842 0.639963 0.544222
Si Si6 0.151488 0.218305 0.783018
Si Si7 0.547404 0.079544 0.951772
O O1 0.198801 0.818612 0.535302
O O2 0.332094 0.931821 0.659307
O O3 0.941777 0.912700 0.809216
O O4 0.123315 0.844684 0.079599
O O5 0.633839 0.480282 0.625768
O O6 0.451504 0.403490 0.347125
O O7 0.823412 0.403138 0.196565
O O8 0.662828 0.122110 0.118548
O O9 0.648518 0.000061 0.359936
O O10 0.586846 0.117586 0.656550
O O11 0.144828 0.644895 0.740103
O O12 0.126294 0.602076 0.248037
O O13 0.288863 0.722074 0.071928
O O14 0.982988 0.723724 0.445853
#
# Coordination Sequence:
#
# PCOD9131413 Si02
#       7
#     2   2   2   2   2   2   2
#     4  12  22  42  65  93 126 166 214 262 308 402
#     4  12  26  40  68 102 126 172 218 246 322 380
#     4  10  23  41  62  94 122 161 207 259 326 373
#     4  10  22  45  63  92 131 170 208 271 311 353
#     4  10  22  45  63  92 131 170 208 271 311 353
#     4  10  22  44  65  89 130 174 212 254 324 362
#     4  10  23  41  62  94 122 161 207 259 326 373
#
# _framework density 21.648795
#
# number of rings (size 3 to 8) (size 9 to 14) (size 15 to 20)
#    0.857    0.571    1.429    3.429    0.000    8.000 
#    7.714    0.000    0.000    0.000    0.000    0.000 
#    0.000    0.000    0.000    0.000    0.000    0.000 
#
# Total GULP energy -78011.028738 kJ/mol
# GULP energy per Si atom -5572.216338 kJ/mol
# Density = 2.159952 g / cm^3
# Si number density = 21.648795 Si / 1000 Ang^3
#
#
#
# Elastic Constant Matrix: (Units=GPa)
#
#
# Indices 1 2 3 4 5 6 
#
# 1 57.5759 5.1768 23.2734 0.0000 -7.4431 0.0000
# 2 5.1768 35.4187 4.8750 0.0000 -11.9031 0.0000
# 3 23.2734 4.8750 116.8919 0.0000 12.7623 0.0000
# 4 0.0000 0.0000 0.0000 51.6379 0.0000 -0.8791
# 5 -7.4431 -11.9031 12.7623 0.0000 54.5226 0.0000
# 6 0.0000 0.0000 0.0000 -0.8791 0.0000 41.5078
#
#
#
# Elastic Compliance Matrix: (Units=1/GPa)
#
#
# Indices 1 2 3 4 5 6 
#
# 1 0.019624 -0.001136 -0.004233 0.000000 0.003422 0.000000
# 2 -0.001136 0.031021 -0.001837 0.000000 0.007047 0.000000
# 3 -0.004233 -0.001837 0.009833 0.000000 -0.003281 0.000000
# 4 0.000000 0.000000 0.000000 0.019373 0.000000 0.000410
# 5 0.003422 0.007047 -0.003281 0.000000 0.021115 0.000000
# 6 0.000000 0.000000 0.000000 0.000410 0.000000 0.024101
#
#
# Mechanical properties :
#
#
# Convention : Reuss Voigt Hill
#
# Bulk Modulus (GPa) = 21.70828 30.72635 26.21732
# Shear Modulus (GPa) = 32.29294 41.30443 36.79868
#
# Velocity S-wave (km/s) = 3.86641 4.37273 4.12734
# Velocity P-wave (km/s) = 5.47553 6.30224 5.90337
#
# Compressibility (1/GPa) = 0.04606538
#
# Stress axis : x y z
#
# Youngs Moduli (GPa) = 50.95775 32.23636 101.70260
#
# Poissons Ratio (x) = 0.03661 0.43055
# Poissons Ratio (y) = 0.05787 0.18684
# Poissons Ratio (z) = 0.21573 0.05922
#
# Static dielectric constant tensor:
#      x y z
#    x 1.823860 0.000000 0.041690 
#    y 0.000000 1.289950 0.000000 
#    z 0.041690 0.000000 1.886710 
# 
# From -- ./inp_files/312.got.cif
#   From: 2010.05.17/outbox.cif.g08.bks.cpg/sg7_cif.got.tgz:312.got - 2010.06.03 19:44:50.
