data_PCOD9131175
_publ_section_title
;
Structure prediction by ZEFSAII (Michael W. Deem and Ramdas Pophale) SiO2 
 PCOD9131175
Probable space group: P M
;
_chemical_formula_sum "Si O2"
_cell_formula_units_Z 16
_cell_length_a 8.396902
_cell_length_b 8.222603
_cell_length_c 9.738043
_cell_angle_alpha 90.000000
_cell_angle_beta 90.295034
_cell_angle_gamma 90.000000
_cell_volume 672.348340
_symmetry_space_group_name_H-M "P M"
_symmetry_group_IT_number 6
_symmetry_cell_setting 'monoclinic'
loop_
_space_group_symop_operation_xyz
x,y,z
x,-y,z
loop_
_atom_site_type_symbol
_atom_site_label
_atom_site_fract_x
_atom_site_fract_y
_atom_site_fract_z
Si Si1 0.120650 0.689006 0.930020
Si Si2 0.828934 0.190216 0.302185
Si Si3 0.631541 0.686569 0.542857
Si Si4 0.644783 0.306999 0.047077
Si Si5 0.316592 0.698094 0.181818
Si Si6 0.320759 0.187524 0.699322
Si Si7 0.146840 0.692614 0.448983
Si Si8 0.809509 0.184561 0.785378
O O1 0.074222 0.500000 0.939011
O O2 0.273556 0.707791 0.831394
O O3 0.977751 0.783785 0.858381
O O4 0.175425 0.750175 0.078842
O O5 0.684111 0.216875 0.408546
O O6 0.783161 0.272228 0.158205
O O7 0.979525 0.272478 0.376147
O O8 0.858252 0.000000 0.282033
O O9 0.605296 0.500000 0.502764
O O10 0.477598 0.752917 0.621314
O O11 0.772326 0.701585 0.656238
O O12 0.634817 0.500000 0.021584
O O13 0.483096 0.248219 0.118912
O O14 0.682348 0.219350 0.905039
O O15 0.317112 0.500000 0.179323
O O16 0.278370 0.744675 0.336625
O O17 0.178916 0.211881 0.588315
O O18 0.335595 0.000000 0.738522
O O19 0.162422 0.500000 0.476828
O O20 0.797037 0.000000 0.736328
#
# Coordination Sequence:
#
# PCOD9131175 Si02
#       8
#     2   2   2   2   2   2   2   2
#     4  11  22  41  66  93 124 166 212 257 309 376
#     4  12  25  42  63  94 130 166 209 266 323 372
#     4  12  25  44  67  92 122 166 216 262 313 382
#     4  11  22  41  66  94 126 167 214 261 312 380
#     4   9  21  39  64  92 120 155 206 259 304 360
#     4  12  25  42  63  94 130 164 204 260 317 372
#     4  11  22  41  66  93 124 166 212 257 309 376
#     4  12  25  42  63  94 130 166 209 266 323 372
#
# _framework density 23.797190000000001
#
# number of rings (size 3 to 8) (size 9 to 14) (size 15 to 20)
#    0.000    0.750    0.000    8.625    0.000    3.000 
#    0.000    5.625    0.000    0.000    0.000    0.000 
#    0.000    0.000    0.000    0.000    0.000    0.000 
#
# Total GULP energy -89698.044524 kJ/mol
# GULP energy per Si atom -5606.127783 kJ/mol
# Density = 2.374303 g / cm^3
# Si number density = 23.797190 Si / 1000 Ang^3
#
#
#
# Elastic Constant Matrix: (Units=GPa)
#
#
# Indices 1 2 3 4 5 6 
#
# 1 68.4271 -5.8434 -8.2158 0.0000 -1.4115 0.0000
# 2 -5.8434 72.5415 -8.9447 0.0000 -1.5293 0.0000
# 3 -8.2158 -8.9447 86.6707 0.0000 0.0383 0.0000
# 4 0.0000 0.0000 0.0000 184.2437 0.0000 32.3912
# 5 -1.4115 -1.5293 0.0383 0.0000 43.0332 0.0000
# 6 0.0000 0.0000 0.0000 32.3912 0.0000 35.6965
#
#
#
# Elastic Compliance Matrix: (Units=1/GPa)
#
#
# Indices 1 2 3 4 5 6 
#
# 1 0.014933 0.001407 0.001560 0.000000 0.000538 0.000000
# 2 0.001407 0.014106 0.001589 0.000000 0.000546 0.000000
# 3 0.001560 0.001589 0.011850 0.000000 0.000097 0.000000
# 4 0.000000 0.000000 0.000000 0.006458 0.000000 -0.005860
# 5 0.000538 0.000546 0.000097 0.000000 0.023275 0.000000
# 6 0.000000 0.000000 0.000000 -0.005860 0.000000 0.033331
#
#
# Mechanical properties :
#
#
# Convention : Reuss Voigt Hill
#
# Bulk Modulus (GPa) = 19.99990 20.18130 20.09060
# Shear Modulus (GPa) = 44.84018 69.30421 57.07219
#
# Velocity S-wave (km/s) = 4.34552 5.40241 4.90253
# Velocity P-wave (km/s) = 5.79660 6.88576 6.36452
#
# Compressibility (1/GPa) = 0.05000025
#
# Stress axis : x y z
#
# Youngs Moduli (GPa) = 66.96727 70.89207 84.38976
#
# Poissons Ratio (x) = -0.09972 -0.13169
# Poissons Ratio (y) = -0.09420 -0.13408
# Poissons Ratio (z) = -0.10450 -0.11264
#
# Static dielectric constant tensor:
#      x y z
#    x 1.974540 0.000000 -0.005550 
#    y 0.000000 1.699030 0.000000 
#    z -0.005550 0.000000 1.850100 
# 
# From -- ./inp_files/2697.got.cif
#   From: 2010.05.17/outbox.cif.g08.bks.cpg/sg6_2_cif.got.tgz:2697.got - 2010.06.03 19:42:10.
