data_PCOD9131805
_publ_section_title
;
Structure prediction by ZEFSAII (Michael W. Deem and Ramdas Pophale) SiO2 
 PCOD9131805
Probable space group: C M
;
_chemical_formula_sum "Si O2"
_cell_formula_units_Z 20
_cell_length_a 14.760196
_cell_length_b 13.579826
_cell_length_c 7.372375
_cell_angle_alpha 90.000000
_cell_angle_beta 141.506374
_cell_angle_gamma 90.000000
_cell_volume 919.777049
_symmetry_space_group_name_H-M "C M"
_symmetry_group_IT_number 8
_symmetry_cell_setting 'monoclinic'
loop_
_space_group_symop_operation_xyz
x,y,z
x,-y,z
1/2+x,1/2+y,z
1/2+x,1/2-y,z
loop_
_atom_site_type_symbol
_atom_site_label
_atom_site_fract_x
_atom_site_fract_y
_atom_site_fract_z
Si Si1 0.954220 0.667509 0.443880
Si Si2 0.759303 0.500000 0.964411
Si Si3 0.921661 0.204646 0.750065
Si Si4 0.932087 0.000000 0.561486
Si Si5 0.995571 0.500000 0.052782
Si Si6 0.632017 0.000000 0.880435
Si Si7 0.605585 0.786584 0.345421
O O1 0.919060 0.725098 0.570761
O O2 0.090410 0.595695 0.700989
O O3 0.009531 0.738130 0.370195
O O4 0.826029 0.595920 0.171867
O O5 0.586669 0.500000 0.702054
O O6 0.833198 0.500000 0.880880
O O7 0.922533 0.095483 0.673290
O O8 0.776435 0.225388 0.637624
O O9 0.055774 0.227531 0.090286
O O10 0.793339 0.000000 0.211312
O O11 0.020168 0.500000 0.876649
O O12 0.070358 0.401100 0.244751
#
# Coordination Sequence:
#
# PCOD9131805 Si02
#       7
#     4   2   4   2   2   2   4
#     4  10  23  43  67  93 126 181 215 254 327 394
#     4   9  22  38  66  97 134 159 219 267 318 393
#     4  12  23  42  64  93 136 168 217 268 318 384
#     4  12  24  39  66 102 130 168 216 279 322 362
#     4  10  18  44  65  93 124 175 209 252 326 394
#     4  11  20  43  75  90 130 170 218 266 322 393
#     4  11  24  41  68  95 129 171 217 262 323 392
#
# _framework density 21.744401
#
# number of rings (size 3 to 8) (size 9 to 14) (size 15 to 20)
#    0.000    1.200    4.000    1.800    0.000    6.400 
#    0.000    1.000    0.000    0.000    0.000    0.000 
#    0.000    0.000    0.000    0.000    0.000    0.000 
#
# Total GULP energy -55941.298731 kJ/mol
# GULP energy per Si atom -5594.129873 kJ/mol
# Density = 2.169491 g / cm^3
# Si number density = 21.744401 Si / 1000 Ang^3
#
#
#
# Elastic Constant Matrix: (Units=GPa)
#
#
# Indices 1 2 3 4 5 6 
#
# 1 105.8828 2.6927 30.7586 0.0000 2.5395 0.0000
# 2 2.6927 68.2506 25.7114 0.0000 3.8919 0.0000
# 3 30.7586 25.7114 102.0926 0.0000 14.8928 0.0000
# 4 0.0000 0.0000 0.0000 -27.7198 0.0000 16.3217
# 5 2.5395 3.8919 14.8928 0.0000 37.4683 0.0000
# 6 0.0000 0.0000 0.0000 16.3217 0.0000 14.5800
#
#
#
# Elastic Compliance Matrix: (Units=1/GPa)
#
#
# Indices 1 2 3 4 5 6 
#
# 1 0.010406 0.000850 -0.003433 0.000000 0.000571 0.000000
# 2 0.000850 0.016257 -0.004348 0.000000 -0.000018 0.000000
# 3 -0.003433 -0.004348 0.012552 0.000000 -0.004305 0.000000
# 4 0.000000 0.000000 0.000000 -0.021743 0.000000 0.024341
# 5 0.000571 -0.000018 -0.004305 0.000000 0.028364 0.000000
# 6 0.000000 0.000000 0.000000 0.024341 0.000000 0.041339
#
#
# Mechanical properties :
#
#
# Convention : Reuss Voigt Hill
#
# Bulk Modulus (GPa) = 39.43981 43.83904 41.63943
# Shear Modulus (GPa) = 45.66765 19.33660 32.50212
#
# Velocity S-wave (km/s) = 4.58777 2.98529 3.87037
# Velocity P-wave (km/s) = 6.80006 5.66458 6.25813
#
# Compressibility (1/GPa) = 0.02535509
#
# Stress axis : x y z
#
# Youngs Moduli (GPa) = 96.09625 61.51095 79.66780
#
# Poissons Ratio (x) = -0.05228 0.27346
# Poissons Ratio (y) = -0.08168 0.34637
# Poissons Ratio (z) = 0.32985 0.26743
#
# Static dielectric constant tensor:
#      x y z
#    x 1.827430 0.000000 -0.007570 
#    y 0.000000 1.800460 0.000000 
#    z -0.007570 0.000000 1.731930 
# 
# From -- ./inp_files/14961.got.cif
#   From: 2010.05.17/outbox.cif.g08.bks.cpg/sg8_8_cif.got.tgz:14961.got - 2010.06.03 19:46:02.
