data_PCOD9131394
_publ_section_title
;
Structure prediction by ZEFSAII (Michael W. Deem and Ramdas Pophale) SiO2 
 PCOD9131394
Probable space group: P C
;
_chemical_formula_sum "Si O2"
_cell_formula_units_Z 14
_cell_length_a 8.848555
_cell_length_b 18.004589
_cell_length_c 5.234985
_cell_angle_alpha 90.000000
_cell_angle_beta 123.939727
_cell_angle_gamma 90.000000
_cell_volume 691.915452
_symmetry_space_group_name_H-M "P C"
_symmetry_group_IT_number 7
_symmetry_cell_setting 'monoclinic'
loop_
_space_group_symop_operation_xyz
x,y,z
x,-y,1/2+z
loop_
_atom_site_type_symbol
_atom_site_label
_atom_site_fract_x
_atom_site_fract_y
_atom_site_fract_z
Si Si1 0.987820 0.221025 0.395270
Si Si2 0.466042 0.978327 0.704295
Si Si3 0.481810 0.338894 0.291902
Si Si4 0.175653 0.452481 0.978812
Si Si5 0.399049 0.754518 0.202039
Si Si6 0.665625 0.882609 0.557580
Si Si7 0.900403 0.683240 0.310049
O O1 0.947188 0.259281 0.627946
O O2 0.202751 0.210224 0.570875
O O3 0.867977 0.146655 0.269965
O O4 0.925955 0.276525 0.107466
O O5 0.630030 0.039232 0.885534
O O6 0.358890 0.990203 0.860984
O O7 0.557551 0.900404 0.721741
O O8 0.376832 0.416723 0.182909
O O9 0.390174 0.291931 0.433790
O O10 0.693317 0.342434 0.566146
O O11 0.453126 0.297444 0.993851
O O12 0.150059 0.513859 0.173632
O O13 0.035267 0.386081 0.903715
O O14 0.550467 0.817699 0.318444
#
# Coordination Sequence:
#
# PCOD9131394 Si02
#       7
#     2   2   2   2   2   2   2
#     4  12  23  39  66  97 127 164 211 270 318 359
#     4   8  20  36  58  84 132 162 210 242 318 384
#     4  12  24  43  66  97 126 162 217 260 308 384
#     4  12  26  44  68  90 138 164 200 260 328 374
#     4  12  23  39  66  97 127 164 211 270 318 359
#     4  10  22  38  66  88 130 170 210 254 330 358
#     4  12  24  43  66  97 126 162 217 260 308 384
#
# _framework density 20.233685999999999
#
# number of rings (size 3 to 8) (size 9 to 14) (size 15 to 20)
#    0.857    0.000    5.714    1.714    4.000    1.143 
#    0.000    1.429    0.000    0.000    0.000    0.000 
#    0.000    0.000    0.000    0.000    0.000    0.000 
#
# Total GULP energy -78103.827315 kJ/mol
# GULP energy per Si atom -5578.844808 kJ/mol
# Density = 2.018763 g / cm^3
# Si number density = 20.233686 Si / 1000 Ang^3
#
#
#
# Elastic Constant Matrix: (Units=GPa)
#
#
# Indices 1 2 3 4 5 6 
#
# 1 40.3112 -16.3680 8.4134 0.0000 1.0285 0.0000
# 2 -16.3680 39.8630 -1.0999 0.0000 -4.0508 0.0000
# 3 8.4134 -1.0999 55.7648 0.0000 -8.3118 0.0000
# 4 0.0000 0.0000 0.0000 28.3414 0.0000 -19.1730
# 5 1.0285 -4.0508 -8.3118 0.0000 48.4180 0.0000
# 6 0.0000 0.0000 0.0000 -19.1730 0.0000 -13.9077
#
#
#
# Elastic Compliance Matrix: (Units=1/GPa)
#
#
# Indices 1 2 3 4 5 6 
#
# 1 0.030820 0.012494 -0.004459 0.000000 -0.000375 0.000000
# 2 0.012494 0.030404 -0.000971 0.000000 0.002112 0.000000
# 3 -0.004459 -0.000971 0.019076 0.000000 0.003288 0.000000
# 4 0.000000 0.000000 0.000000 0.018257 0.000000 -0.025169
# 5 -0.000375 0.002112 0.003288 0.000000 0.021403 0.000000
# 6 0.000000 0.000000 0.000000 -0.025169 0.000000 -0.037205
#
#
# Mechanical properties :
#
#
# Convention : Reuss Voigt Hill
#
# Bulk Modulus (GPa) = 10.59008 13.09223 11.84115
# Shear Modulus (GPa) = 49.94831 22.23657 36.09244
#
# Velocity S-wave (km/s) = 4.97386 3.31869 4.22806
# Velocity P-wave (km/s) = 6.18312 4.60104 5.44979
#
# Compressibility (1/GPa) = 0.09442802
#
# Stress axis : x y z
#
# Youngs Moduli (GPa) = 32.44613 32.89070 52.42129
#
# Poissons Ratio (x) = -0.41093 0.23377
# Poissons Ratio (y) = -0.40538 0.05088
# Poissons Ratio (z) = 0.14469 0.03192
#
# Static dielectric constant tensor:
#      x y z
#    x 1.749600 0.000000 -0.060660 
#    y 0.000000 1.700010 0.000000 
#    z -0.060660 0.000000 1.767120 
# 
# From -- ./inp_files/932.got.cif
#   From: 2010.05.17/outbox.cif.g08.bks.cpg/sg7_cif.got.tgz:932.got - 2010.06.03 19:44:50.
