data_PCOD9131974
_publ_section_title
;
Structure prediction by ZEFSAII (Michael W. Deem and Ramdas Pophale) SiO2 
 PCOD9131974
Probable space group: C M
;
_chemical_formula_sum "Si O2"
_cell_formula_units_Z 32
_cell_length_a 9.061780
_cell_length_b 21.880923
_cell_length_c 9.933267
_cell_angle_alpha 90.000000
_cell_angle_beta 136.122668
_cell_angle_gamma 90.000000
_cell_volume 1365.141361
_symmetry_space_group_name_H-M "C M"
_symmetry_group_IT_number 8
_symmetry_cell_setting 'monoclinic'
loop_
_space_group_symop_operation_xyz
x,y,z
x,-y,z
1/2+x,1/2+y,z
1/2+x,1/2-y,z
loop_
_atom_site_type_symbol
_atom_site_label
_atom_site_fract_x
_atom_site_fract_y
_atom_site_fract_z
Si Si1 0.214720 0.301495 0.695370
Si Si2 0.588597 0.198687 0.159091
Si Si3 0.531447 0.933380 0.513575
Si Si4 0.140870 0.932422 0.876948
Si Si5 0.886399 0.192259 0.111278
Si Si6 0.535450 0.431485 0.116742
Si Si7 0.598776 0.313452 0.741456
Si Si8 0.642678 0.065890 0.280330
O O1 0.302934 0.302784 0.904420
O O2 0.405616 0.298185 0.714473
O O3 0.096967 0.235250 0.619510
O O4 0.088517 0.365444 0.602349
O O5 0.707979 0.211803 0.098887
O O6 0.581125 0.259373 0.246567
O O7 0.335293 0.187484 0.967342
O O8 0.697710 0.136170 0.280580
O O9 0.280843 0.933475 0.320581
O O10 0.638299 0.935792 0.438018
O O11 0.579821 0.000000 0.613956
O O12 0.084657 0.886575 0.719814
O O13 0.067366 0.000000 0.797009
O O14 0.039452 0.915691 0.957773
O O15 0.393999 0.935957 0.069186
O O16 0.936589 0.120345 0.146367
O O17 0.447012 0.500000 0.073574
O O18 0.736915 0.000000 0.293880
#
# Coordination Sequence:
#
# PCOD9131974 Si02
#       8
#     4   4   4   4   4   4   4   4
#     4  11  21  35  56  82 119 154 191 230 282 342
#     4  10  21  34  58  86 120 146 186 239 290 332
#     4   9  20  38  60  83 114 153 193 235 280 339
#     4   8  14  28  54  82 104 137 183 230 278 328
#     4  11  21  34  57  88 117 150 186 236 286 341
#     4   9  18  35  57  83 111 144 189 240 283 328
#     4  10  19  34  53  81 116 150 185 234 281 328
#     4   8  16  34  57  79 109 146 185 230 282 332
#
# _framework density 23.440797
#
# number of rings (size 3 to 8) (size 9 to 14) (size 15 to 20)
#    0.000    2.500    1.250    4.500    3.500    1.500 
#    2.250    0.000    2.750    2.250    0.000    0.000 
#    0.000    0.000    0.000    0.000    0.000    0.000 
#
# Total GULP energy -89100.969726 kJ/mol
# GULP energy per Si atom -5568.810608 kJ/mol
# Density = 2.338744 g / cm^3
# Si number density = 23.440797 Si / 1000 Ang^3
#
#
#
# Elastic Constant Matrix: (Units=GPa)
#
#
# Indices 1 2 3 4 5 6 
#
# 1 64.7034 29.0204 -5.4095 0.0000 -2.9712 0.0000
# 2 29.0204 230.6125 27.7823 0.0000 -6.6220 0.0000
# 3 -5.4095 27.7823 47.8256 0.0000 9.0888 0.0000
# 4 0.0000 0.0000 0.0000 21.0642 0.0000 -3.4813
# 5 -2.9712 -6.6220 9.0888 0.0000 17.0663 0.0000
# 6 0.0000 0.0000 0.0000 -3.4813 0.0000 32.0663
#
#
#
# Elastic Compliance Matrix: (Units=1/GPa)
#
#
# Indices 1 2 3 4 5 6 
#
# 1 0.016873 -0.002520 0.003338 0.000000 0.000182 0.000000
# 2 -0.002520 0.005249 -0.004047 0.000000 0.003753 0.000000
# 3 0.003338 -0.004047 0.026509 0.000000 -0.015107 0.000000
# 4 0.000000 0.000000 0.000000 0.048341 0.000000 0.005248
# 5 0.000182 0.003753 -0.015107 0.000000 0.068129 0.000000
# 6 0.000000 0.000000 0.000000 0.005248 0.000000 0.031755
#
#
# Mechanical properties :
#
#
# Convention : Reuss Voigt Hill
#
# Bulk Modulus (GPa) = 23.71286 49.54755 36.63020
# Shear Modulus (GPa) = 23.00201 33.48925 28.24563
#
# Velocity S-wave (km/s) = 3.13594 3.78388 3.47504
# Velocity P-wave (km/s) = 4.82184 6.34614 5.63577
#
# Compressibility (1/GPa) = 0.04217121
#
# Stress axis : x y z
#
# Youngs Moduli (GPa) = 59.26670 190.51982 37.72302
#
# Poissons Ratio (x) = 0.48014 -0.12591
# Poissons Ratio (y) = 0.14936 0.15268
# Poissons Ratio (z) = -0.19782 0.77111
#
# Static dielectric constant tensor:
#      x y z
#    x 1.835420 0.000000 0.040060 
#    y 0.000000 2.163770 0.000000 
#    z 0.040060 0.000000 1.958490 
# 
# From -- ./inp_files/19205.got.cif
#   From: 2010.05.17/outbox.cif.g08.bks.cpg/sg8_10_cif.got.tgz:19205.got - 2010.06.03 19:46:02.
