data_PCOD9131823
_publ_section_title
;
Structure prediction by ZEFSAII (Michael W. Deem and Ramdas Pophale) SiO2 
 PCOD9131823
Probable space group: C M
;
_chemical_formula_sum "Si O2"
_cell_formula_units_Z 32
_cell_length_a 20.576107
_cell_length_b 8.754294
_cell_length_c 20.424564
_cell_angle_alpha 90.000000
_cell_angle_beta 150.123990
_cell_angle_gamma 90.000000
_cell_volume 1832.631844
_symmetry_space_group_name_H-M "C M"
_symmetry_group_IT_number 8
_symmetry_cell_setting 'monoclinic'
loop_
_space_group_symop_operation_xyz
x,y,z
x,-y,z
1/2+x,1/2+y,z
1/2+x,1/2-y,z
loop_
_atom_site_type_symbol
_atom_site_label
_atom_site_fract_x
_atom_site_fract_y
_atom_site_fract_z
Si Si1 0.254080 0.817937 0.500000
Si Si2 0.574581 0.315928 0.461585
Si Si3 0.554426 0.183526 0.946085
Si Si4 0.275625 0.681276 0.742649
Si Si5 0.283253 0.314011 0.243183
Si Si6 0.116554 0.817217 0.717791
Si Si7 0.316571 0.683593 0.419602
Si Si8 0.030474 0.817099 0.785214
O O1 0.132865 0.781211 0.441062
O O2 0.243817 0.759375 0.417005
O O3 0.383348 0.740965 0.643403
O O4 0.272884 0.000000 0.516825
O O5 0.580348 0.500000 0.475918
O O6 0.669202 0.241714 0.597712
O O7 0.425724 0.266783 0.341878
O O8 0.414215 0.244592 0.846584
O O9 0.579876 0.243855 0.895186
O O10 0.550977 0.000000 0.941969
O O11 0.666747 0.235413 0.094341
O O12 0.285921 0.500000 0.747077
O O13 0.222833 0.732061 0.767438
O O14 0.282721 0.500000 0.242945
O O15 0.270499 0.266299 0.307735
O O16 0.111067 0.777847 0.789912
O O17 0.971199 0.782284 0.563084
O O18 0.135089 0.000000 0.727566
O O19 0.304204 0.500000 0.414116
O O20 0.027670 0.000000 0.788414
#
# Coordination Sequence:
#
# PCOD9131823 Si02
#       8
#     4   4   4   4   4   4   4   4
#     4  10  19  30  53  84 112 142 178 224 274 327
#     4  10  19  36  58  80 108 143 185 228 272 326
#     4  11  22  37  58  81 111 152 190 226 275 334
#     4  12  23  34  54  84 114 143 184 234 277 324
#     4   9  19  37  59  80 106 148 191 223 273 336
#     4   9  18  34  57  80 108 144 181 227 278 326
#     4   9  17  33  56  79 109 144 178 224 275 325
#     4  10  20  35  55  80 112 146 183 228 278 328
#
# _framework density 17.461227000000001
#
# number of rings (size 3 to 8) (size 9 to 14) (size 15 to 20)
#    0.000    2.000    2.500    3.000    0.000    3.000 
#    0.000    3.750    0.000    3.000    0.000    0.000 
#    0.000    0.000    0.000    0.000    0.000    0.000 
#
# Total GULP energy -89303.515263 kJ/mol
# GULP energy per Si atom -5581.469704 kJ/mol
# Density = 1.742148 g / cm^3
# Si number density = 17.461227 Si / 1000 Ang^3
#
#
#
# Elastic Constant Matrix: (Units=GPa)
#
#
# Indices 1 2 3 4 5 6 
#
# 1 151.5711 50.4961 78.2966 0.0000 -19.0490 0.0000
# 2 50.4961 45.4212 32.9269 0.0000 -4.1196 0.0000
# 3 78.2966 32.9269 121.0310 0.0000 -15.7951 0.0000
# 4 0.0000 0.0000 0.0000 8.4834 0.0000 -8.2714
# 5 -19.0490 -4.1196 -15.7951 0.0000 26.1306 0.0000
# 6 0.0000 0.0000 0.0000 -8.2714 0.0000 31.2647
#
#
#
# Elastic Compliance Matrix: (Units=1/GPa)
#
#
# Indices 1 2 3 4 5 6 
#
# 1 0.013477 -0.010815 -0.005121 0.000000 0.005025 0.000000
# 2 -0.010815 0.036105 -0.003378 0.000000 -0.004234 0.000000
# 3 -0.005121 -0.003378 0.012960 0.000000 0.003568 0.000000
# 4 0.000000 0.000000 0.000000 0.158855 0.000000 0.042027
# 5 0.005025 -0.004234 0.003568 0.000000 0.043422 0.000000
# 6 0.000000 0.000000 0.000000 0.042027 0.000000 0.043104
#
#
# Mechanical properties :
#
#
# Convention : Reuss Voigt Hill
#
# Bulk Modulus (GPa) = 41.81799 71.27359 56.54579
# Shear Modulus (GPa) = 14.10350 23.59598 18.84974
#
# Velocity S-wave (km/s) = 2.84510 3.68004 3.28917
# Velocity P-wave (km/s) = 5.89863 7.67879 6.84681
#
# Compressibility (1/GPa) = 0.02391315
#
# Stress axis : x y z
#
# Youngs Moduli (GPa) = 74.19882 27.69700 77.16224
#
# Poissons Ratio (x) = 0.29955 0.39511
# Poissons Ratio (y) = 0.80249 0.26069
# Poissons Ratio (z) = 0.37994 0.09357
#
# Static dielectric constant tensor:
#      x y z
#    x 1.605660 0.000000 -0.012950 
#    y 0.000000 1.587040 0.000000 
#    z -0.012950 0.000000 1.566900 
# 
# From -- ./inp_files/31349.got.cif
#   From: 2010.05.17/outbox.cif.g08.bks.cpg/sg8_16_cif.got.tgz:31349.got - 2010.06.03 19:46:02.
