data_PCOD9131548
_publ_section_title
;
Structure prediction by ZEFSAII (Michael W. Deem and Ramdas Pophale) SiO2 
 PCOD9131548
Probable space group: C M
;
_chemical_formula_sum "Si O2"
_cell_formula_units_Z 32
_cell_length_a 6.956105
_cell_length_b 22.507764
_cell_length_c 10.069344
_cell_angle_alpha 90.000000
_cell_angle_beta 111.018613
_cell_angle_gamma 90.000000
_cell_volume 1471.625193
_symmetry_space_group_name_H-M "C M"
_symmetry_group_IT_number 8
_symmetry_cell_setting 'monoclinic'
loop_
_space_group_symop_operation_xyz
x,y,z
x,-y,z
1/2+x,1/2+y,z
1/2+x,1/2-y,z
loop_
_atom_site_type_symbol
_atom_site_label
_atom_site_fract_x
_atom_site_fract_y
_atom_site_fract_z
Si Si1 0.625000 0.743112 0.375000
Si Si2 0.756316 0.249594 0.153939
Si Si3 0.559562 0.382533 0.462259
Si Si4 0.084938 0.179989 0.741038
Si Si5 0.935497 0.343429 0.017809
Si Si6 0.130733 0.430746 0.264304
Si Si7 0.158960 0.312419 0.655407
Si Si8 0.968890 0.566032 0.522625
O O1 0.848049 0.755708 0.334682
O O2 0.527837 0.738811 0.194125
O O3 0.665353 0.676539 0.430605
O O4 0.670017 0.791137 0.502229
O O5 0.776773 0.311094 0.080950
O O6 0.645561 0.194928 0.052801
O O7 0.532564 0.364616 0.607847
O O8 0.346610 0.396841 0.337877
O O9 0.724672 0.433561 0.483801
O O10 0.084358 0.250136 0.701108
O O11 0.880343 0.176287 0.777610
O O12 0.301353 0.158873 0.852544
O O13 0.005948 0.401998 0.112242
O O14 0.167119 0.500000 0.251752
O O15 0.016439 0.423856 0.378022
O O16 0.050469 0.376581 0.623925
O O17 0.053225 0.500000 0.577431
#
# Coordination Sequence:
#
# PCOD9131548 Si02
#       8
#     4   4   4   4   4   4   4   4
#     4  10  17  30  56  90 112 155 200 266 308 354
#     4  10  19  30  56  84 125 154 196 258 310 362
#     4  11  20  39  63  93 119 160 213 259 316 361
#     4  11  23  36  64  91 129 167 199 263 322 377
#     4  11  22  39  55  94 127 165 202 248 322 374
#     4  11  23  42  65  89 125 166 211 261 306 372
#     4  11  20  37  59  94 129 159 210 256 320 368
#     4  11  23  39  64  95 127 162 211 265 304 366
#
# _framework density 21.744668999999998
#
# number of rings (size 3 to 8) (size 9 to 14) (size 15 to 20)
#    0.000    1.250    2.500    7.125    0.000    0.000 
#    0.000    1.875    0.000    0.000    0.000    0.000 
#    0.000    0.000    0.000    0.000    0.000    0.000 
#
# Total GULP energy -89108.643640 kJ/mol
# GULP energy per Si atom -5569.290228 kJ/mol
# Density = 2.169518 g / cm^3
# Si number density = 21.744669 Si / 1000 Ang^3
#
#
#
# Elastic Constant Matrix: (Units=GPa)
#
#
# Indices 1 2 3 4 5 6 
#
# 1 101.4262 23.2132 21.3341 0.0000 22.6605 0.0000
# 2 23.2132 133.9403 37.0165 0.0000 13.3657 0.0000
# 3 21.3341 37.0165 81.3796 0.0000 36.7930 0.0000
# 4 0.0000 0.0000 0.0000 11.1880 0.0000 1.6773
# 5 22.6605 13.3657 36.7930 0.0000 44.7033 0.0000
# 6 0.0000 0.0000 0.0000 1.6773 0.0000 27.5378
#
#
#
# Elastic Compliance Matrix: (Units=1/GPa)
#
#
# Indices 1 2 3 4 5 6 
#
# 1 0.011383 -0.001470 0.000151 0.000000 -0.005455 0.000000
# 2 -0.001470 0.008759 -0.004382 0.000000 0.001733 0.000000
# 3 0.000151 -0.004382 0.021794 0.000000 -0.016704 0.000000
# 4 0.000000 0.000000 0.000000 0.090205 0.000000 -0.005494
# 5 -0.005455 0.001733 -0.016704 0.000000 0.038364 0.000000
# 6 0.000000 0.000000 0.000000 -0.005494 0.000000 0.036648
#
#
# Mechanical properties :
#
#
# Convention : Reuss Voigt Hill
#
# Bulk Modulus (GPa) = 32.75241 53.31931 43.03586
# Shear Modulus (GPa) = 21.85941 32.36463 27.11202
#
# Velocity S-wave (km/s) = 3.17405 3.86216 3.53489
# Velocity P-wave (km/s) = 5.34114 6.66800 6.04111
#
# Compressibility (1/GPa) = 0.03053211
#
# Stress axis : x y z
#
# Youngs Moduli (GPa) = 87.85188 114.16866 45.88445
#
# Poissons Ratio (x) = 0.16784 -0.00692
# Poissons Ratio (y) = 0.12915 0.20108
# Poissons Ratio (z) = -0.01324 0.50033
#
# Static dielectric constant tensor:
#      x y z
#    x 2.120310 0.000000 0.015840 
#    y 0.000000 1.732310 0.000000 
#    z 0.015840 0.000000 1.893920 
# 
# From -- ./inp_files/19203.got.cif
#   From: 2010.05.17/outbox.cif.g08.bks.cpg/sg8_10_cif.got.tgz:19203.got - 2010.06.03 19:46:02.
