data_PCOD9131948
_publ_section_title
;
Structure prediction by ZEFSAII (Michael W. Deem and Ramdas Pophale) SiO2 
 PCOD9131948
Probable space group: C M
;
_chemical_formula_sum "Si O2"
_cell_formula_units_Z 32
_cell_length_a 8.566345
_cell_length_b 29.168066
_cell_length_c 11.457461
_cell_angle_alpha 90.000000
_cell_angle_beta 36.563350
_cell_angle_gamma 90.000000
_cell_volume 1705.404336
_symmetry_space_group_name_H-M "C M"
_symmetry_group_IT_number 8
_symmetry_cell_setting 'monoclinic'
loop_
_space_group_symop_operation_xyz
x,y,z
x,-y,z
1/2+x,1/2+y,z
1/2+x,1/2-y,z
loop_
_atom_site_type_symbol
_atom_site_label
_atom_site_fract_x
_atom_site_fract_y
_atom_site_fract_z
Si Si1 0.614710 0.708161 0.632510
Si Si2 0.689558 0.139575 0.922423
Si Si3 0.718822 0.099159 0.287119
Si Si4 0.812896 0.051324 0.995546
Si Si5 0.818135 0.378354 0.933453
Si Si6 0.706478 0.710804 0.845790
Si Si7 0.620427 0.191780 0.207799
Si Si8 0.434521 0.946980 0.674020
O O1 0.449291 0.661936 0.709264
O O2 0.727764 0.703859 0.694627
O O3 0.401064 0.748573 0.761374
O O4 0.851394 0.716903 0.401078
O O5 0.743610 0.089588 0.942734
O O6 0.465739 0.137084 0.960593
O O7 0.623021 0.170990 0.075491
O O8 0.631723 0.148615 0.290108
O O9 0.570567 0.079782 0.486995
O O10 0.688552 0.065449 0.194419
O O11 0.025644 0.103822 0.133266
O O12 0.124293 0.053243 0.831975
O O13 0.738496 0.000000 0.006018
O O14 0.784916 0.335119 0.866819
O O15 0.967588 0.418371 0.773254
O O16 0.395542 0.718766 0.056779
O O17 0.519877 0.000000 0.630919
#
# Coordination Sequence:
#
# PCOD9131948 Si02
#       8
#     4   4   4   4   4   4   4   4
#     4  11  21  38  60  82 111 145 184 232 281 330
#     4  10  21  36  55  81 113 146 187 229 273 337
#     4   9  17  34  56  79 108 144 187 228 271 330
#     4   9  18  33  54  78 106 144 186 231 280 328
#     4  10  21  37  55  80 115 148 181 228 277 326
#     4  10  22  38  57  84 112 144 188 229 275 339
#     4   9  20  37  58  82 111 148 185 228 278 328
#     4  10  19  33  56  82 108 143 187 231 278 330
#
# _framework density 18.76388
#
# number of rings (size 3 to 8) (size 9 to 14) (size 15 to 20)
#    0.000    2.250    0.000    4.875    0.000    4.000 
#    0.000    3.750    0.000    0.000    0.000    0.000 
#    0.000    0.000    0.000    0.000    0.000    0.000 
#
# Total GULP energy -89294.355948 kJ/mol
# GULP energy per Si atom -5580.897247 kJ/mol
# Density = 1.872117 g / cm^3
# Si number density = 18.763880 Si / 1000 Ang^3
#
#
#
# Elastic Constant Matrix: (Units=GPa)
#
#
# Indices 1 2 3 4 5 6 
#
# 1 89.8442 22.0057 15.7230 0.0000 -2.6143 0.0000
# 2 22.0057 68.3940 33.6475 0.0000 -6.0763 0.0000
# 3 15.7230 33.6475 101.6009 0.0000 4.0054 0.0000
# 4 0.0000 0.0000 0.0000 21.9859 0.0000 -5.6922
# 5 -2.6143 -6.0763 4.0054 0.0000 12.1306 0.0000
# 6 0.0000 0.0000 0.0000 -5.6922 0.0000 21.9844
#
#
#
# Elastic Compliance Matrix: (Units=1/GPa)
#
#
# Indices 1 2 3 4 5 6 
#
# 1 0.012139 -0.003410 -0.000795 0.000000 0.001170 0.000000
# 2 -0.003410 0.019943 -0.006527 0.000000 0.011410 0.000000
# 3 -0.000795 -0.006527 0.012424 0.000000 -0.007543 0.000000
# 4 0.000000 0.000000 0.000000 0.048752 0.000000 0.012623
# 5 0.001170 0.011410 -0.007543 0.000000 0.090894 0.000000
# 6 0.000000 0.000000 0.000000 0.012623 0.000000 0.048755
#
#
# Mechanical properties :
#
#
# Convention : Reuss Voigt Hill
#
# Bulk Modulus (GPa) = 43.39972 44.73240 44.06606
# Shear Modulus (GPa) = 19.08015 23.78437 21.43226
#
# Velocity S-wave (km/s) = 3.19228 3.56415 3.38332
# Velocity P-wave (km/s) = 6.06359 6.38975 6.22880
#
# Compressibility (1/GPa) = 0.02304163
#
# Stress axis : x y z
#
# Youngs Moduli (GPa) = 82.37953 50.14288 80.48746
#
# Poissons Ratio (x) = 0.17101 0.06400
# Poissons Ratio (y) = 0.28095 0.52531
# Poissons Ratio (z) = 0.06551 0.32726
#
# Static dielectric constant tensor:
#      x y z
#    x 1.617050 0.000000 -0.010380 
#    y 0.000000 1.670560 0.000000 
#    z -0.010380 0.000000 1.660160 
# 
# From -- ./inp_files/19469.got.cif
#   From: 2010.05.17/outbox.cif.g08.bks.cpg/sg8_10_cif.got.tgz:19469.got - 2010.06.03 19:46:02.
