data_PCOD9131814
_publ_section_title
;
Structure prediction by ZEFSAII (Michael W. Deem and Ramdas Pophale) SiO2 
 PCOD9131814
Probable space group: C M
;
_chemical_formula_sum "Si O2"
_cell_formula_units_Z 32
_cell_length_a 7.736876
_cell_length_b 16.048095
_cell_length_c 13.417205
_cell_angle_alpha 90.000000
_cell_angle_beta 45.734106
_cell_angle_gamma 90.000000
_cell_volume 1192.971076
_symmetry_space_group_name_H-M "C M"
_symmetry_group_IT_number 8
_symmetry_cell_setting 'monoclinic'
loop_
_space_group_symop_operation_xyz
x,y,z
x,-y,z
1/2+x,1/2+y,z
1/2+x,1/2-y,z
loop_
_atom_site_type_symbol
_atom_site_label
_atom_site_fract_x
_atom_site_fract_y
_atom_site_fract_z
Si Si1 0.393210 0.637398 0.745960
Si Si2 0.954806 0.905604 0.450826
Si Si3 0.902616 0.594396 0.497355
Si Si4 0.481201 0.833812 0.688466
Si Si5 0.383821 0.850707 0.999976
Si Si6 0.973600 0.850707 0.948205
Si Si7 0.376220 0.666189 0.259715
Si Si8 0.964212 0.637397 0.202221
O O1 0.614003 0.594754 0.600216
O O2 0.440427 0.735276 0.707993
O O3 0.434654 0.625502 0.848084
O O4 0.112872 0.612671 0.848630
O O5 0.764215 0.852451 0.592396
O O6 0.923057 0.869326 0.351491
O O7 0.243419 0.905246 0.347965
O O8 0.867904 0.000000 0.491100
O O9 0.989517 0.500000 0.457080
O O10 0.934366 0.630673 0.596690
O O11 0.093207 0.647549 0.355785
O O12 0.259639 0.866955 0.845562
O O13 0.428711 0.750000 0.974091
O O14 0.422768 0.874498 0.100096
O O15 0.097783 0.866954 0.102619
O O16 0.744550 0.887330 0.099550
O O17 0.416994 0.764725 0.240188
#
# Coordination Sequence:
#
# PCOD9131814 Si02
#       8
#     4   4   4   4   4   4   4   4
#     4   9  16  28  46  68  90 119 153 187 225 270
#     4  10  19  30  44  70  98 120 149 190 228 266
#     4  10  19  30  44  70  98 120 149 190 228 266
#     4   9  16  28  45  65  90 120 151 185 222 266
#     4   8  15  27  44  69  92 112 149 195 227 261
#     4   8  15  27  44  69  92 112 149 195 227 261
#     4   9  16  28  45  65  90 120 151 185 222 266
#     4   9  16  28  46  68  90 119 153 187 225 270
#
# _framework density 26.823785999999998
#
# number of rings (size 3 to 8) (size 9 to 14) (size 15 to 20)
#    0.000    3.000    0.000    2.250    0.000    0.000 
#    0.000   11.250    0.000    0.000    0.000  161.000 
#    0.000    0.000    0.000    0.000    0.000    0.000 
#
# Total GULP energy -89395.460656 kJ/mol
# GULP energy per Si atom -5587.216291 kJ/mol
# Density = 2.676273 g / cm^3
# Si number density = 26.823786 Si / 1000 Ang^3
#
#
#
# Elastic Constant Matrix: (Units=GPa)
#
#
# Indices 1 2 3 4 5 6 
#
# 1 109.7961 5.6927 69.7431 0.0000 -48.9974 0.0000
# 2 5.6927 65.6231 41.1591 -0.0001 -12.5320 0.0000
# 3 69.7431 41.1591 334.0861 -0.0001 -41.3286 0.0000
# 4 0.0000 -0.0001 -0.0001 -16.5167 0.0000 -3.9098
# 5 -48.9974 -12.5320 -41.3286 0.0000 79.0851 0.0000
# 6 0.0000 0.0000 0.0000 -3.9098 0.0000 19.4797
#
#
#
# Elastic Compliance Matrix: (Units=1/GPa)
#
#
# Indices 1 2 3 4 5 6 
#
# 1 0.013813 0.001608 -0.002129 0.000000 0.007700 0.000000
# 2 0.001608 0.016908 -0.002100 0.000000 0.002578 0.000000
# 3 -0.002129 -0.002100 0.003733 0.000000 0.000299 0.000000
# 4 0.000000 0.000000 0.000000 -0.057799 0.000000 -0.011601
# 5 0.007700 0.002578 0.000299 0.000000 0.017980 0.000000
# 6 0.000000 0.000000 0.000000 -0.011601 0.000000 0.049007
#
#
# Mechanical properties :
#
#
# Convention : Reuss Voigt Hill
#
# Bulk Modulus (GPa) = 34.23222 82.52168 58.37695
# Shear Modulus (GPa) = 85.29047 42.60367 63.94707
#
# Velocity S-wave (km/s) = 5.64496 3.98965 4.88789
# Velocity P-wave (km/s) = 7.43486 7.21486 7.32568
#
# Compressibility (1/GPa) = 0.02921225
#
# Stress axis : x y z
#
# Youngs Moduli (GPa) = 72.39537 59.14229 267.85183
#
# Poissons Ratio (x) = -0.09508 0.57028
# Poissons Ratio (y) = -0.11638 0.56243
# Poissons Ratio (z) = 0.15414 0.12419
#
# Static dielectric constant tensor:
#      x y z
#    x 2.326250 0.000000 -0.049730 
#    y 0.000000 1.940650 0.000000 
#    z -0.049730 0.000000 2.078130 
# 
# From -- ./inp_files/20595.got.cif
#   From: 2010.05.17/outbox.cif.g08.bks.cpg/sg8_11_cif.got.tgz:20595.got - 2010.06.03 19:46:02.
