data_PCOD9131135
_publ_section_title
;
Structure prediction by ZEFSAII (Michael W. Deem and Ramdas Pophale) SiO2 
 PCOD9131135
Probable space group: P M
;
_chemical_formula_sum "Si O2"
_cell_formula_units_Z 15
_cell_length_a 7.944088
_cell_length_b 9.569563
_cell_length_c 16.004481
_cell_angle_alpha 90.000000
_cell_angle_beta 33.254734
_cell_angle_gamma 90.000000
_cell_volume 667.183591
_symmetry_space_group_name_H-M "P M"
_symmetry_group_IT_number 6
_symmetry_cell_setting 'monoclinic'
loop_
_space_group_symop_operation_xyz
x,y,z
x,-y,z
loop_
_atom_site_type_symbol
_atom_site_label
_atom_site_fract_x
_atom_site_fract_y
_atom_site_fract_z
Si Si1 0.473980 0.658346 0.448170
Si Si2 0.135960 0.658929 0.752266
Si Si3 0.322119 0.340368 0.261682
Si Si4 0.562087 0.155172 0.010576
Si Si5 0.906729 0.709831 0.134377
Si Si6 0.462364 0.347766 0.794133
Si Si7 0.018091 0.833796 0.527728
Si Si8 0.110148 0.000000 0.076527
O O1 0.366746 0.500000 0.472547
O O2 0.411313 0.677707 0.571807
O O3 0.276008 0.775833 0.483539
O O4 0.809222 0.672784 0.269417
O O5 0.016766 0.500000 0.790919
O O6 0.264394 0.670396 0.792128
O O7 0.866144 0.769171 0.850618
O O8 0.219501 0.500000 0.288756
O O9 0.080235 0.249618 0.415872
O O10 0.628626 0.346753 0.191981
O O11 0.416147 0.255665 0.140352
O O12 0.641087 0.000000 0.013072
O O13 0.318929 0.119365 0.039178
O O14 0.906831 0.875497 0.120668
O O15 0.223214 0.651388 0.968425
O O16 0.620906 0.500000 0.724117
O O17 0.698914 0.221135 0.698225
O O18 0.024696 0.000000 0.515451
#
# Coordination Sequence:
#
# PCOD9131135 Si02
#       8
#     2   2   2   2   2   2   2   1
#     4  10  23  43  67  96 132 178 225 272 335 399
#     4  10  22  42  67  95 130 178 227 277 334 397
#     4  11  22  44  74  99 131 179 232 275 332 398
#     4  10  23  42  64  99 137 177 218 273 342 402
#     4  11  23  41  69  97 133 176 223 281 331 402
#     4  11  23  41  67  97 131 171 227 282 331 394
#     4  11  25  40  64 101 134 174 216 277 340 398
#     4  10  28  40  60 102 142 174 218 276 342 400
#
# _framework density 22.482565999999998
#
# number of rings (size 3 to 8) (size 9 to 14) (size 15 to 20)
#    0.400    1.067    1.333    4.000    7.467    2.133 
#    0.000    4.667    0.000    0.000    0.000    0.000 
#    0.000    0.000    0.000    0.000    0.000    0.000 
#
# Total GULP energy -83579.909901 kJ/mol
# GULP energy per Si atom -5571.993993 kJ/mol
# Density = 2.243139 g / cm^3
# Si number density = 22.482566 Si / 1000 Ang^3
#
#
#
# Elastic Constant Matrix: (Units=GPa)
#
#
# Indices 1 2 3 4 5 6 
#
# 1 39.0778 31.9147 29.5997 0.0000 8.8649 0.0000
# 2 31.9147 207.3702 51.7805 0.0000 4.3212 0.0000
# 3 29.5997 51.7805 149.6354 0.0000 20.6309 0.0000
# 4 0.0000 0.0000 0.0000 67.7442 0.0000 34.0824
# 5 8.8649 4.3212 20.6309 0.0000 28.9128 0.0000
# 6 0.0000 0.0000 0.0000 34.0824 0.0000 61.6248
#
#
#
# Elastic Compliance Matrix: (Units=1/GPa)
#
#
# Indices 1 2 3 4 5 6 
#
# 1 0.033623 -0.003944 -0.004377 0.000000 -0.006597 0.000000
# 2 -0.003944 0.005750 -0.001395 0.000000 0.001345 0.000000
# 3 -0.004377 -0.001395 0.008671 0.000000 -0.004637 0.000000
# 4 0.000000 0.000000 0.000000 0.020452 0.000000 -0.011311
# 5 -0.006597 0.001345 -0.004637 0.000000 0.039717 0.000000
# 6 0.000000 0.000000 0.000000 -0.011311 0.000000 0.022483
#
#
# Mechanical properties :
#
#
# Convention : Reuss Voigt Hill
#
# Bulk Modulus (GPa) = 34.95102 69.18590 52.06846
# Shear Modulus (GPa) = 31.31580 50.50893 40.91236
#
# Velocity S-wave (km/s) = 3.73620 4.74495 4.27047
# Velocity P-wave (km/s) = 5.84738 7.80124 6.89388
#
# Compressibility (1/GPa) = 0.02861147
#
# Stress axis : x y z
#
# Youngs Moduli (GPa) = 29.74171 173.92521 115.33223
#
# Poissons Ratio (x) = 0.68602 0.50476
# Poissons Ratio (y) = 0.11731 0.16087
# Poissons Ratio (z) = 0.13017 0.24260
#
# Static dielectric constant tensor:
#      x y z
#    x 1.851850 0.000000 0.000910 
#    y 0.000000 1.833320 0.000000 
#    z 0.000910 0.000000 1.880190 
# 
# From -- ./inp_files/5758.got.cif
#   From: 2010.05.17/outbox.cif.g08.bks.cpg/sg6_3_cif.got.tgz:5758.got - 2010.06.03 19:42:10.
