data_PCOD9131977
_publ_section_title
;
Structure prediction by ZEFSAII (Michael W. Deem and Ramdas Pophale) SiO2 
 PCOD9131977
Probable space group: C M
;
_chemical_formula_sum "Si O2"
_cell_formula_units_Z 32
_cell_length_a 14.402359
_cell_length_b 9.124608
_cell_length_c 27.798473
_cell_angle_alpha 90.000000
_cell_angle_beta 150.978538
_cell_angle_gamma 90.000000
_cell_volume 1772.284213
_symmetry_space_group_name_H-M "C M"
_symmetry_group_IT_number 8
_symmetry_cell_setting 'monoclinic'
loop_
_space_group_symop_operation_xyz
x,y,z
x,-y,z
1/2+x,1/2+y,z
1/2+x,1/2-y,z
loop_
_atom_site_type_symbol
_atom_site_label
_atom_site_fract_x
_atom_site_fract_y
_atom_site_fract_z
Si Si1 0.516600 0.325351 0.489810
Si Si2 0.889038 0.826900 0.624320
Si Si3 0.543052 0.672178 0.802702
Si Si4 0.103772 0.669409 0.158081
Si Si5 0.669431 0.325788 0.280961
Si Si6 0.478179 0.176331 0.997636
Si Si7 0.170705 0.175072 0.666463
Si Si8 0.292433 0.169288 0.090121
O O1 0.496683 0.500000 0.475251
O O2 0.694180 0.264760 0.539019
O O3 0.325876 0.244176 0.386470
O O4 0.568683 0.293122 0.569065
O O5 0.986360 0.813290 0.720767
O O6 0.035194 0.778505 0.649015
O O7 0.845033 0.000000 0.596910
O O8 0.539808 0.500000 0.813468
O O9 0.760315 0.726141 0.905459
O O10 0.379409 0.752519 0.758813
O O11 0.167895 0.500000 0.192089
O O12 0.883762 0.672529 0.078085
O O13 0.211490 0.771508 0.245065
O O14 0.096411 0.712259 0.099593
O O15 0.664661 0.500000 0.281856
O O16 0.459165 0.256318 0.194395
O O17 0.477066 0.000000 0.991321
O O18 0.591738 0.252112 0.006023
O O19 0.194481 0.000000 0.680616
O O20 0.282091 0.000000 0.100300
#
# Coordination Sequence:
#
# PCOD9131977 Si02
#       8
#     4   4   4   4   4   4   4   4
#     4  10  19  34  54  77 104 136 172 214 261 310
#     4   9  18  35  54  77 106 137 171 212 256 308
#     4   9  19  33  53  78 108 138 170 212 259 305
#     4   8  18  35  51  71 105 139 172 214 259 303
#     4  10  19  35  56  77 103 138 174 217 267 310
#     4  10  19  34  54  78 107 142 177 215 260 307
#     4   9  19  35  54  76 105 137 173 213 255 307
#     4   9  19  35  52  74 104 139 175 217 257 302
#
# _framework density 18.055796000000001
#
# number of rings (size 3 to 8) (size 9 to 14) (size 15 to 20)
#    0.750    2.000    0.000    1.500    0.000    3.000 
#    2.250    0.000    0.000    0.000    0.000    0.000 
#    0.000    0.000    0.000    0.000    0.000    0.000 
#
# Total GULP energy -89090.088268 kJ/mol
# GULP energy per Si atom -5568.130517 kJ/mol
# Density = 1.801470 g / cm^3
# Si number density = 18.055796 Si / 1000 Ang^3
#
#
#
# Elastic Constant Matrix: (Units=GPa)
#
#
# Indices 1 2 3 4 5 6 
#
# 1 71.0451 16.3894 -1.1272 0.0000 17.8472 0.0000
# 2 16.3894 51.1207 19.8910 0.0000 2.6804 0.0000
# 3 -1.1272 19.8910 41.0089 0.0001 16.3086 0.0001
# 4 0.0000 0.0000 0.0001 27.5815 0.0000 10.5321
# 5 17.8472 2.6804 16.3086 0.0000 17.2879 0.0000
# 6 0.0000 0.0000 0.0001 10.5321 0.0000 20.7849
#
#
#
# Elastic Compliance Matrix: (Units=1/GPa)
#
#
# Indices 1 2 3 4 5 6 
#
# 1 0.043589 -0.028873 0.050121 0.000000 -0.087804 0.000000
# 2 -0.028873 0.044805 -0.050600 0.000000 0.070594 0.000000
# 3 0.050121 -0.050600 0.108448 0.000000 -0.146202 0.000000
# 4 0.000000 0.000000 0.000000 0.044955 0.000000 -0.022779
# 5 -0.087804 0.070594 -0.146202 0.000000 0.275462 0.000000
# 6 0.000000 0.000000 0.000000 -0.022779 0.000000 0.059655
#
#
# Mechanical properties :
#
#
# Convention : Reuss Voigt Hill
#
# Bulk Modulus (GPa) = 7.23916 25.94236 16.59076
# Shear Modulus (GPa) = 7.33500 21.66562 14.50031
#
# Velocity S-wave (km/s) = 2.01773 3.46775 2.83695
# Velocity P-wave (km/s) = 3.07349 5.51660 4.46538
#
# Compressibility (1/GPa) = 0.13813761
#
# Stress axis : x y z
#
# Youngs Moduli (GPa) = 22.94181 22.31881 9.22101
#
# Poissons Ratio (x) = 0.64441 -0.46216
# Poissons Ratio (y) = 0.66239 0.46658
# Poissons Ratio (z) = -1.14986 1.12933
#
# Static dielectric constant tensor:
#      x y z
#    x 1.622500 0.000000 -0.004100 
#    y 0.000000 1.604470 0.000000 
#    z -0.004100 0.000000 1.612530 
# 
# From -- ./inp_files/33290.got.cif
#   From: 2010.05.17/outbox.cif.g08.bks.cpg/sg8_17_cif.got.tgz:33290.got - 2010.06.03 19:46:02.
