data_PCOD9131773
_publ_section_title
;
Structure prediction by ZEFSAII (Michael W. Deem and Ramdas Pophale) SiO2 
 PCOD9131773
Probable space group: C M
;
_chemical_formula_sum "Si O2"
_cell_formula_units_Z 28
_cell_length_a 5.014116
_cell_length_b 24.484874
_cell_length_c 14.148753
_cell_angle_alpha 90.000000
_cell_angle_beta 56.803403
_cell_angle_gamma 90.000000
_cell_volume 1453.551567
_symmetry_space_group_name_H-M "C M"
_symmetry_group_IT_number 8
_symmetry_cell_setting 'monoclinic'
loop_
_space_group_symop_operation_xyz
x,y,z
x,-y,z
1/2+x,1/2+y,z
1/2+x,1/2-y,z
loop_
_atom_site_type_symbol
_atom_site_label
_atom_site_fract_x
_atom_site_fract_y
_atom_site_fract_z
Si Si1 0.025610 0.714323 0.214810
Si Si2 0.874837 0.841893 0.982036
Si Si3 0.859048 0.000000 0.141333
Si Si4 0.237497 0.214039 0.748067
Si Si5 0.044161 0.710070 0.494874
Si Si6 0.538638 0.623695 0.320897
Si Si7 0.743902 0.606294 0.068136
Si Si8 0.114615 0.000000 0.295544
O O1 0.273138 0.738686 0.239969
O O2 0.173551 0.701248 0.083181
O O3 0.849768 0.660043 0.285180
O O4 0.618592 0.890495 0.015909
O O5 0.161201 0.853951 0.998520
O O6 0.009767 0.821941 0.857175
O O7 0.069997 0.948687 0.071242
O O8 0.876221 0.000000 0.252529
O O9 0.485719 0.000000 0.187913
O O10 0.533196 0.233702 0.753928
O O11 0.370639 0.189843 0.624628
O O12 0.282338 0.759059 0.481721
O O13 0.241766 0.659376 0.414167
O O14 0.568835 0.621392 0.200585
O O15 0.562987 0.560422 0.350587
#
# Coordination Sequence:
#
# PCOD9131773 Si02
#       8
#     4   4   2   4   4   4   4   2
#     4  11  20  29  47  74 106 135 159 206 262 310
#     4  11  20  33  50  78 107 140 175 212 261 320
#     4  10  18  36  50  76 106 138 180 214 263 326
#     4  10  20  36  54  75 105 142 181 213 255 320
#     4  10  22  37  57  80 107 144 179 223 270 316
#     4  10  21  37  53  80 109 138 181 219 268 323
#     4  10  21  32  54  77 106 139 172 220 269 313
#     4  10  22  34  56  74 106 148 178 220 261 314
#
# _framework density 19.263164
#
# number of rings (size 3 to 8) (size 9 to 14) (size 15 to 20)
#    0.000    1.714    0.000    6.857    0.000    5.714 
#    0.000    0.000    0.000    1.714    0.000    0.000 
#    0.000    0.000    0.000    0.000    0.000    0.000 
#
# Total GULP energy -78094.377693 kJ/mol
# GULP energy per Si atom -5578.169835 kJ/mol
# Density = 1.921932 g / cm^3
# Si number density = 19.263164 Si / 1000 Ang^3
#
#
#
# Elastic Constant Matrix: (Units=GPa)
#
#
# Indices 1 2 3 4 5 6 
#
# 1 75.1832 11.0373 -2.5503 0.0000 -4.1940 0.0000
# 2 11.0373 101.3583 30.1179 0.0000 -4.7000 0.0000
# 3 -2.5503 30.1179 114.9488 0.0000 -9.8797 0.0000
# 4 0.0000 0.0000 0.0000 19.3438 0.0000 -3.4745
# 5 -4.1940 -4.7000 -9.8797 0.0000 20.4083 0.0000
# 6 0.0000 0.0000 0.0000 -3.4745 0.0000 20.3791
#
#
#
# Elastic Compliance Matrix: (Units=1/GPa)
#
#
# Indices 1 2 3 4 5 6 
#
# 1 0.013740 -0.001655 0.000990 0.000000 0.002922 0.000000
# 2 -0.001655 0.010924 -0.002830 0.000000 0.000806 0.000000
# 3 0.000990 -0.002830 0.009834 0.000000 0.004312 0.000000
# 4 0.000000 0.000000 0.000000 0.053329 0.000000 0.009092
# 5 0.002922 0.000806 0.004312 0.000000 0.051873 0.000000
# 6 0.000000 0.000000 0.000000 0.009092 0.000000 0.050620
#
#
# Mechanical properties :
#
#
# Convention : Reuss Voigt Hill
#
# Bulk Modulus (GPa) = 36.35281 40.96671 38.65976
# Shear Modulus (GPa) = 24.21539 28.88526 26.55033
#
# Velocity S-wave (km/s) = 3.54938 3.87655 3.71657
# Velocity P-wave (km/s) = 5.97580 6.43039 6.20725
#
# Compressibility (1/GPa) = 0.02750819
#
# Stress axis : x y z
#
# Youngs Moduli (GPa) = 72.77846 91.53819 101.69288
#
# Poissons Ratio (x) = 0.15148 -0.10063
# Poissons Ratio (y) = 0.12043 0.28777
# Poissons Ratio (z) = -0.07202 0.25903
#
# Static dielectric constant tensor:
#      x y z
#    x 1.703150 0.000000 -0.007190 
#    y 0.000000 1.729410 0.000000 
#    z -0.007190 0.000000 1.691040 
# 
# From -- ./inp_files/25016.got.cif
#   From: 2010.05.17/outbox.cif.g08.bks.cpg/sg8_13_cif.got.tgz:25016.got - 2010.06.03 19:46:02.
