data_PCOD9131416
_publ_section_title
;
Structure prediction by ZEFSAII (Michael W. Deem and Ramdas Pophale) SiO2 
 PCOD9131416
Probable space group: P C
;
_chemical_formula_sum "Si O2"
_cell_formula_units_Z 16
_cell_length_a 8.840119
_cell_length_b 15.381346
_cell_length_c 5.247299
_cell_angle_alpha 90.000000
_cell_angle_beta 115.448864
_cell_angle_gamma 90.000000
_cell_volume 644.260015
_symmetry_space_group_name_H-M "P C"
_symmetry_group_IT_number 7
_symmetry_cell_setting 'monoclinic'
loop_
_space_group_symop_operation_xyz
x,y,z
x,-y,1/2+z
loop_
_atom_site_type_symbol
_atom_site_label
_atom_site_fract_x
_atom_site_fract_y
_atom_site_fract_z
Si Si1 0.246520 0.937944 0.628930
Si Si2 0.431844 0.808931 0.088404
Si Si3 0.911398 0.834627 0.464156
Si Si4 0.217967 0.299801 0.744166
Si Si5 0.274067 0.483022 0.647741
Si Si6 0.842883 0.730253 0.924817
Si Si7 0.651342 0.947291 0.496410
Si Si8 0.499970 0.651793 0.829838
O O1 0.393911 0.872529 0.827201
O O2 0.092203 0.870054 0.516327
O O3 0.244997 0.991029 0.361301
O O4 0.260958 0.784669 0.111414
O O5 0.519436 0.718537 0.078104
O O6 0.544870 0.861372 0.366845
O O7 0.884492 0.761656 0.665200
O O8 0.837180 0.917230 0.562837
O O9 0.824206 0.806315 0.131053
O O10 0.293642 0.381103 0.640345
O O11 0.021443 0.309524 0.644710
O O12 0.337412 0.305182 0.074765
O O13 0.174011 0.490018 0.832742
O O14 0.433717 0.549874 0.793358
O O15 0.678111 0.668321 0.816891
O O16 0.617802 0.986363 0.743757
#
# Coordination Sequence:
#
# PCOD9131416 Si02
#       8
#     2   2   2   2   2   2   2   2
#     4  12  26  43  66 101 141 188 246 300 361 426
#     4  12  24  44  72  94 146 190 246 298 364 426
#     4  12  24  47  70 101 146 192 240 306 363 425
#     4  11  25  46  76 107 146 192 238 303 361 440
#     4  10  22  44  72 106 142 184 228 290 364 426
#     4  12  26  45  76 111 142 188 254 288 361 437
#     4  12  26  43  66 101 141 188 246 300 361 426
#     4  11  25  46  76 107 146 192 238 303 361 440
#
# _framework density 24.834693000000001
#
# number of rings (size 3 to 8) (size 9 to 14) (size 15 to 20)
#    0.000    0.500    3.750    4.500    3.500    0.000 
#    0.000    5.000    0.000    0.000    0.000    0.000 
#    0.000    0.000    0.000    0.000    0.000    0.000 
#
# Total GULP energy -89173.938361 kJ/mol
# GULP energy per Si atom -5573.371148 kJ/mol
# Density = 2.477817 g / cm^3
# Si number density = 24.834693 Si / 1000 Ang^3
#
#
#
# Elastic Constant Matrix: (Units=GPa)
#
#
# Indices 1 2 3 4 5 6 
#
# 1 92.0337 33.9881 14.2050 0.0000 6.4951 0.0000
# 2 33.9881 103.3452 12.5149 0.0000 -4.3949 0.0000
# 3 14.2050 12.5149 75.5475 0.0000 -13.9269 0.0000
# 4 0.0000 0.0000 0.0000 42.5877 0.0000 -1.4007
# 5 6.4951 -4.3949 -13.9269 0.0000 43.8250 0.0000
# 6 0.0000 0.0000 0.0000 -1.4007 0.0000 37.6194
#
#
#
# Elastic Compliance Matrix: (Units=1/GPa)
#
#
# Indices 1 2 3 4 5 6 
#
# 1 0.012959 -0.004111 -0.002322 0.000000 -0.003071 0.000000
# 2 -0.004111 0.011189 -0.000809 0.000000 0.001474 0.000000
# 3 -0.002322 -0.000809 0.014718 0.000000 0.004940 0.000000
# 4 0.000000 0.000000 0.000000 0.023510 0.000000 0.000875
# 5 -0.003071 0.001474 0.004940 0.000000 0.024991 0.000000
# 6 0.000000 0.000000 0.000000 0.000875 0.000000 0.026615
#
#
# Mechanical properties :
#
#
# Convention : Reuss Voigt Hill
#
# Bulk Modulus (GPa) = 41.01294 43.59360 42.30327
# Shear Modulus (GPa) = 36.60534 38.82097 37.71316
#
# Velocity S-wave (km/s) = 3.84338 3.95799 3.90111
# Velocity P-wave (km/s) = 6.02044 6.20316 6.11248
#
# Compressibility (1/GPa) = 0.02438255
#
# Stress axis : x y z
#
# Youngs Moduli (GPa) = 77.16668 89.37279 67.94455
#
# Poissons Ratio (x) = 0.36744 0.15774
# Poissons Ratio (y) = 0.31726 0.05495
# Poissons Ratio (z) = 0.17915 0.07228
#
# Static dielectric constant tensor:
#      x y z
#    x 2.138060 0.000000 -0.097650 
#    y 0.000000 2.123740 0.000000 
#    z -0.097650 0.000000 2.206660 
# 
# From -- ./inp_files/733.got.cif
#   From: 2010.05.17/outbox.cif.g08.bks.cpg/sg7_cif.got.tgz:733.got - 2010.06.03 19:44:50.
