data_PCOD9131756
_publ_section_title
;
Structure prediction by ZEFSAII (Michael W. Deem and Ramdas Pophale) SiO2 
 PCOD9131756
Probable space group: C M
;
_chemical_formula_sum "Si O2"
_cell_formula_units_Z 32
_cell_length_a 14.360043
_cell_length_b 22.834541
_cell_length_c 9.253556
_cell_angle_alpha 90.000000
_cell_angle_beta 150.964744
_cell_angle_gamma 90.000000
_cell_volume 1472.684344
_symmetry_space_group_name_H-M "C M"
_symmetry_group_IT_number 8
_symmetry_cell_setting 'monoclinic'
loop_
_space_group_symop_operation_xyz
x,y,z
x,-y,z
1/2+x,1/2+y,z
1/2+x,1/2-y,z
loop_
_atom_site_type_symbol
_atom_site_label
_atom_site_fract_x
_atom_site_fract_y
_atom_site_fract_z
Si Si1 0.640810 0.067467 0.758350
Si Si2 0.208170 0.774820 0.186302
Si Si3 0.245118 0.161685 0.513037
Si Si4 0.264285 0.796991 0.858409
Si Si5 0.069438 0.679689 0.505466
Si Si6 0.192493 0.357900 0.099589
Si Si7 0.993945 0.858235 0.729633
Si Si8 0.186753 0.935256 0.220500
O O1 0.645567 0.113843 0.632045
O O2 0.415116 0.063470 0.497655
O O3 0.704390 0.000000 0.822052
O O4 0.741840 0.101884 0.029383
O O5 0.215530 0.782653 0.367300
O O6 0.388018 0.812153 0.370113
O O7 0.234994 0.711863 0.151175
O O8 0.011045 0.805019 0.867370
O O9 0.214133 0.174892 0.636573
O O10 0.140082 0.109101 0.287517
O O11 0.466089 0.142304 0.809041
O O12 0.217218 0.728608 0.765028
O O13 0.120805 0.829701 0.773782
O O14 0.470940 0.807292 0.216127
O O15 0.297982 0.376133 0.389356
O O16 0.088282 0.911631 0.941701
O O17 0.123101 0.000000 0.170773
#
# Coordination Sequence:
#
# PCOD9131756 Si02
#       8
#     4   4   4   4   4   4   4   4
#     4  10  19  35  59  84 113 155 201 239 282 341
#     4  10  18  35  56  80 113 153 189 230 293 349
#     4  10  22  36  54  90 118 154 187 236 304 355
#     4  11  23  36  55  92 122 145 186 247 306 341
#     4  11  20  38  56  85 118 153 193 241 286 353
#     4  11  19  33  58  86 114 146 198 241 285 347
#     4  10  19  33  59  84 110 151 194 245 281 340
#     4   9  18  38  61  81 114 161 206 237 279 356
#
# _framework density 21.729029000000001
#
# number of rings (size 3 to 8) (size 9 to 14) (size 15 to 20)
#    0.000    1.750    6.250    2.250    1.750    0.500 
#    0.000    1.250    0.000    0.000    0.000    0.000 
#    0.000    0.000    0.000    0.000    0.000    0.000 
#
# Total GULP energy -89216.864204 kJ/mol
# GULP energy per Si atom -5576.054013 kJ/mol
# Density = 2.167957 g / cm^3
# Si number density = 21.729029 Si / 1000 Ang^3
#
#
#
# Elastic Constant Matrix: (Units=GPa)
#
#
# Indices 1 2 3 4 5 6 
#
# 1 36.0049 16.7516 28.7543 0.0000 -23.0817 0.0000
# 2 16.7516 181.2354 62.7862 0.0000 -15.9716 0.0000
# 3 28.7543 62.7862 175.8024 0.0000 -32.7778 0.0000
# 4 0.0000 0.0000 0.0000 70.3340 0.0000 -5.1058
# 5 -23.0817 -15.9716 -32.7778 0.0000 31.3170 0.0000
# 6 0.0000 0.0000 0.0000 -5.1058 0.0000 14.8105
#
#
#
# Elastic Compliance Matrix: (Units=1/GPa)
#
#
# Indices 1 2 3 4 5 6 
#
# 1 0.053286 -0.001174 -0.001348 0.000000 0.037263 0.000000
# 2 -0.001174 0.006351 -0.002030 0.000000 0.000249 0.000000
# 3 -0.001348 -0.002030 0.007772 0.000000 0.006106 0.000000
# 4 0.000000 0.000000 0.000000 0.014583 0.000000 0.005027
# 5 0.037263 0.000249 0.006106 0.000000 0.065913 0.000000
# 6 0.000000 0.000000 0.000000 0.005027 0.000000 0.069253
#
#
# Mechanical properties :
#
#
# Convention : Reuss Voigt Hill
#
# Bulk Modulus (GPa) = 17.15146 67.73630 42.44388
# Shear Modulus (GPa) = 20.35024 42.27567 31.31295
#
# Velocity S-wave (km/s) = 3.06362 4.41566 3.80025
# Velocity P-wave (km/s) = 4.51939 7.56560 6.23150
#
# Compressibility (1/GPa) = 0.05830408
#
# Stress axis : x y z
#
# Youngs Moduli (GPa) = 18.76683 157.44616 128.66636
#
# Poissons Ratio (x) = 0.18487 0.17350
# Poissons Ratio (y) = 0.02204 0.26117
# Poissons Ratio (z) = 0.02531 0.31958
#
# Static dielectric constant tensor:
#      x y z
#    x 1.842350 0.000000 0.026420 
#    y 0.000000 1.797220 0.000000 
#    z 0.026420 0.000000 1.876170 
# 
# From -- ./inp_files/15357.got.cif
#   From: 2010.05.17/outbox.cif.g08.bks.cpg/sg8_8_cif.got.tgz:15357.got - 2010.06.03 19:46:02.
