data_PCOD9131623
_publ_section_title
;
Structure prediction by ZEFSAII (Michael W. Deem and Ramdas Pophale) SiO2 
 PCOD9131623
Probable space group: C M
;
_chemical_formula_sum "Si O2"
_cell_formula_units_Z 32
_cell_length_a 15.017447
_cell_length_b 8.643311
_cell_length_c 12.754466
_cell_angle_alpha 90.000000
_cell_angle_beta 90.487761
_cell_angle_gamma 90.000000
_cell_volume 1655.475626
_symmetry_space_group_name_H-M "C M"
_symmetry_group_IT_number 8
_symmetry_cell_setting 'monoclinic'
loop_
_space_group_symop_operation_xyz
x,y,z
x,-y,z
1/2+x,1/2+y,z
1/2+x,1/2-y,z
loop_
_atom_site_type_symbol
_atom_site_label
_atom_site_fract_x
_atom_site_fract_y
_atom_site_fract_z
Si Si1 0.824410 0.314516 0.375000
Si Si2 0.806354 0.313925 0.932636
Si Si3 0.453225 0.184345 0.770537
Si Si4 0.618477 0.312933 0.387973
Si Si5 0.097142 0.185534 0.928727
Si Si6 0.317272 0.682323 0.153665
Si Si7 0.466171 0.314402 0.538081
Si Si8 0.617942 0.313310 0.158603
O O1 0.826280 0.500000 0.377134
O O2 0.721471 0.262874 0.391271
O O3 0.854314 0.258521 0.259898
O O4 0.885836 0.246973 0.466061
O O5 0.809701 0.500000 0.942019
O O6 0.865402 0.265539 0.834361
O O7 0.701956 0.272857 0.919887
O O8 0.845624 0.244750 0.040492
O O9 0.536462 0.231385 0.843666
O O10 0.459512 0.258244 0.656574
O O11 0.449866 0.000000 0.759047
O O12 0.620099 0.500000 0.393767
O O13 0.556322 0.257387 0.480980
O O14 0.579120 0.274603 0.272148
O O15 0.089444 0.000000 0.914706
O O16 0.069925 0.222855 0.049005
O O17 0.331195 0.500000 0.158928
O O18 0.212666 0.727978 0.155448
O O19 0.465755 0.500000 0.536293
O O20 0.634666 0.500000 0.157242
#
# Coordination Sequence:
#
# PCOD9131623 Si02
#       8
#     4   4   4   4   4   4   4   4
#     4  10  20  38  60  82 112 149 184 220 271 331
#     4   9  20  39  59  79 110 151 186 219 272 338
#     4  11  24  40  56  78 109 146 190 234 276 325
#     4   8  17  35  59  82 109 146 180 214 266 333
#     4   9  18  35  59  83 108 141 179 223 275 330
#     4  10  18  30  54  88 117 140 176 226 276 324
#     4  11  23  39  57  81 110 143 190 237 274 319
#     4   8  15  32  56  81 111 146 179 213 268 338
#
# _framework density 19.329792999999999
#
# number of rings (size 3 to 8) (size 9 to 14) (size 15 to 20)
#    0.000    2.500    0.000    3.750    0.000    5.000 
#    0.000   12.500    0.000    0.000    0.000    0.000 
#    0.000    0.000    0.000    0.000    0.000    0.000 
#
# Total GULP energy -89259.416324 kJ/mol
# GULP energy per Si atom -5578.713520 kJ/mol
# Density = 1.928580 g / cm^3
# Si number density = 19.329793 Si / 1000 Ang^3
#
#
#
# Elastic Constant Matrix: (Units=GPa)
#
#
# Indices 1 2 3 4 5 6 
#
# 1 133.7026 43.5810 134.5043 0.0000 -3.7993 0.0000
# 2 43.5810 50.9124 76.4794 0.0000 -0.1802 0.0000
# 3 134.5043 76.4794 282.8045 0.0000 -9.1731 0.0000
# 4 0.0000 0.0000 0.0000 35.9481 0.0000 6.8903
# 5 -3.7993 -0.1802 -9.1731 0.0000 33.1723 0.0000
# 6 0.0000 0.0000 0.0000 6.8903 0.0000 20.9285
#
#
#
# Elastic Compliance Matrix: (Units=1/GPa)
#
#
# Indices 1 2 3 4 5 6 
#
# 1 0.014703 -0.003505 -0.006045 0.000000 -0.000007 0.000000
# 2 -0.003505 0.034092 -0.007628 0.000000 -0.002326 0.000000
# 3 -0.006045 -0.007628 0.008527 0.000000 0.001624 0.000000
# 4 0.000000 0.000000 0.000000 0.029692 0.000000 -0.009775
# 5 -0.000007 -0.002326 0.001624 0.000000 0.030581 0.000000
# 6 0.000000 0.000000 0.000000 -0.009775 0.000000 0.051000
#
#
# Mechanical properties :
#
#
# Convention : Reuss Voigt Hill
#
# Bulk Modulus (GPa) = 43.54318 108.50542 76.02430
# Shear Modulus (GPa) = 23.74091 32.20009 27.97050
#
# Velocity S-wave (km/s) = 3.50838 4.08588 3.80809
# Velocity P-wave (km/s) = 6.24395 8.86086 7.66491
#
# Compressibility (1/GPa) = 0.02296571
#
# Stress axis : x y z
#
# Youngs Moduli (GPa) = 68.01314 29.33215 117.27684
#
# Poissons Ratio (x) = 0.10280 0.70898
# Poissons Ratio (y) = 0.23836 0.89462
# Poissons Ratio (z) = 0.41116 0.22375
#
# Static dielectric constant tensor:
#      x y z
#    x 1.705590 0.000000 -0.024490 
#    y 0.000000 1.650200 0.000000 
#    z -0.024490 0.000000 1.671430 
# 
# From -- ./inp_files/21566.got.cif
#   From: 2010.05.17/outbox.cif.g08.bks.cpg/sg8_11_cif.got.tgz:21566.got - 2010.06.03 19:46:02.
