data_PCOD9131491
_publ_section_title
;
Structure prediction by ZEFSAII (Michael W. Deem and Ramdas Pophale) SiO2 
 PCOD9131491
Probable space group: C M
;
_chemical_formula_sum "Si O2"
_cell_formula_units_Z 24
_cell_length_a 22.247951
_cell_length_b 15.472468
_cell_length_c 7.802453
_cell_angle_alpha 90.000000
_cell_angle_beta 23.804404
_cell_angle_gamma 90.000000
_cell_volume 1084.048573
_symmetry_space_group_name_H-M "C M"
_symmetry_group_IT_number 8
_symmetry_cell_setting 'monoclinic'
loop_
_space_group_symop_operation_xyz
x,y,z
x,-y,z
1/2+x,1/2+y,z
1/2+x,1/2-y,z
loop_
_atom_site_type_symbol
_atom_site_label
_atom_site_fract_x
_atom_site_fract_y
_atom_site_fract_z
Si Si1 0.193341 0.000000 0.016950
Si Si2 0.046439 0.691039 0.257221
Si Si3 0.615611 0.500000 0.815995
Si Si4 0.034067 0.500000 0.262009
Si Si5 0.459674 0.000000 0.853202
Si Si6 0.602500 0.688380 0.786067
Si Si7 0.236207 0.818327 0.949032
Si Si8 0.413158 0.175925 0.121611
O O1 0.147543 0.000000 0.936846
O O2 0.144036 0.906772 0.217845
O O3 0.371692 0.000000 0.593316
O O4 0.100942 0.595706 0.055412
O O5 0.868381 0.685235 0.741904
O O6 0.062525 0.760680 0.064279
O O7 0.139512 0.732825 0.168915
O O8 0.780328 0.500000 0.305216
O O9 0.544584 0.590438 0.948435
O O10 0.020078 0.500000 0.504873
O O11 0.495814 0.086944 0.862106
O O12 0.780772 0.688024 0.331391
O O13 0.523474 0.743830 0.847277
O O14 0.325717 0.832669 0.532790
#
# Coordination Sequence:
#
# PCOD9131491 Si02
#       8
#     2   4   2   2   2   4   4   4
#     4  10  14  30  51  75  90 134 167 207 242 288
#     4   9  17  30  45  72 101 127 165 199 248 289
#     4  10  16  32  56  77  98 129 169 214 246 297
#     4  10  22  30  48  76 105 138 166 205 245 306
#     4  10  18  34  51  72 101 137 176 200 245 299
#     4   9  17  29  53  79 101 126 167 213 251 290
#     4   9  15  28  50  73  95 125 162 211 241 289
#     4   9  16  30  50  76  99 129 164 211 247 291
#
# _framework density 22.139227999999999
#
# number of rings (size 3 to 8) (size 9 to 14) (size 15 to 20)
#    0.000    2.667    5.000    0.000    0.000    0.000 
#    0.000   15.833    0.000    0.000    0.000    9.333 
#    0.000    0.000    0.000    0.000    0.000    0.000 
#
# Total GULP energy -66859.878712 kJ/mol
# GULP energy per Si atom -5571.656559 kJ/mol
# Density = 2.208884 g / cm^3
# Si number density = 22.139228 Si / 1000 Ang^3
#
#
#
# Elastic Constant Matrix: (Units=GPa)
#
#
# Indices 1 2 3 4 5 6 
#
# 1 58.6988 41.6405 36.6409 0.0000 2.0663 0.0000
# 2 41.6405 238.4425 24.1204 0.0000 -27.1472 0.0000
# 3 36.6409 24.1204 6.7063 0.0000 -3.1906 0.0000
# 4 0.0000 0.0000 0.0000 15.9607 0.0000 -22.6242
# 5 2.0663 -27.1472 -3.1906 0.0000 37.3085 0.0000
# 6 0.0000 0.0000 0.0000 -22.6242 0.0000 30.6277
#
#
#
# Elastic Compliance Matrix: (Units=1/GPa)
#
#
# Indices 1 2 3 4 5 6 
#
# 1 -0.005048 -0.002844 0.038526 -0.000003 0.001505 -0.000002
# 2 -0.002844 0.005302 -0.001687 0.000000 0.003871 0.000000
# 3 0.038526 -0.001687 -0.059327 0.000004 -0.008435 0.000003
# 4 -0.000003 0.000000 0.000004 -1.330748 0.000001 -0.983004
# 5 0.001505 0.003871 -0.008435 0.000001 0.028816 0.000001
# 6 -0.000002 0.000000 0.000003 -0.983004 0.000001 -0.693480
#
#
# Mechanical properties :
#
#
# Convention : Reuss Voigt Hill
#
# Bulk Modulus (GPa) = 112.13930 56.51681 84.32805
# Shear Modulus (GPa) = -2.35904 30.20911 13.92503
#
# Velocity S-wave (km/s) = -1.03337 3.69793 2.51066
# Velocity P-wave (km/s) = 7.02410 6.61938 6.82474
#
# Compressibility (1/GPa) = 0.00891748
#
# Stress axis : x y z
#
# Youngs Moduli (GPa) = -198.09801 188.60726 -16.85585
#
# Poissons Ratio (x) = 0.53647 0.64940
# Poissons Ratio (y) = -0.56347 -0.02844
# Poissons Ratio (z) = 7.63202 0.31819
#
# Static dielectric constant tensor:
#      x y z
#    x 1.872330 0.000000 0.022050 
#    y 0.000000 1.918640 0.000000 
#    z 0.022050 0.000000 1.857160 
# 
# From -- ./inp_files/10329.got.cif
#   From: 2010.05.17/outbox.cif.g08.bks.cpg/sg8_6_cif.got.tgz:10329.got - 2010.06.03 19:46:02.
