data_PCOD9131703
_publ_section_title
;
Structure prediction by ZEFSAII (Michael W. Deem and Ramdas Pophale) SiO2 
 PCOD9131703
Probable space group: C M
;
_chemical_formula_sum "Si O2"
_cell_formula_units_Z 30
_cell_length_a 7.452350
_cell_length_b 29.167070
_cell_length_c 6.929036
_cell_angle_alpha 90.000000
_cell_angle_beta 122.608933
_cell_angle_gamma 90.000000
_cell_volume 1268.705799
_symmetry_space_group_name_H-M "C M"
_symmetry_group_IT_number 8
_symmetry_cell_setting 'monoclinic'
loop_
_space_group_symop_operation_xyz
x,y,z
x,-y,z
1/2+x,1/2+y,z
1/2+x,1/2-y,z
loop_
_atom_site_type_symbol
_atom_site_label
_atom_site_fract_x
_atom_site_fract_y
_atom_site_fract_z
Si Si1 0.717110 0.603651 0.852870
Si Si2 0.306909 0.913346 0.359471
Si Si3 0.608599 0.050046 0.003795
Si Si4 0.511830 0.500000 0.167727
Si Si5 0.561627 0.300282 0.834684
Si Si6 0.670003 0.315907 0.333682
Si Si7 0.762408 0.054784 0.534714
Si Si8 0.614102 0.767878 0.574686
O O1 0.682617 0.657503 0.809914
O O2 0.494025 0.577432 0.693084
O O3 0.776824 0.595492 0.111762
O O4 0.920976 0.585228 0.853593
O O5 0.182547 0.960068 0.325124
O O6 0.188751 0.869883 0.388870
O O7 0.562159 0.921701 0.528112
O O8 0.702162 0.058286 0.272501
O O9 0.496333 0.000000 0.947562
O O10 0.825010 0.039847 0.012847
O O11 0.656982 0.252631 0.813104
O O12 0.318003 0.296070 0.627623
O O13 0.567129 0.308701 0.064883
O O14 0.578805 0.277748 0.425901
O O15 0.913962 0.300129 0.453824
O O16 0.773981 0.000000 0.579813
#
# Coordination Sequence:
#
# PCOD9131703 Si02
#       8
#     4   4   4   2   4   4   4   4
#     4  10  20  35  59  82 110 152 208 241 292 360
#     4  10  21  37  57  83 119 156 201 244 297 360
#     4   8  19  36  53  75 113 151 189 247 292 347
#     4  10  20  38  52  78 124 154 188 250 292 340
#     4  10  21  38  60  91 118 156 199 250 299 374
#     4  10  21  39  63  89 121 163 196 250 314 358
#     4  10  18  33  57  80 104 154 200 241 287 350
#     4  10  21  39  63  89 125 153 199 254 310 364
#
# _framework density 23.646141
#
# number of rings (size 3 to 8) (size 9 to 14) (size 15 to 20)
#    0.400    1.867    0.667    2.000    1.867    1.067 
#    0.000   13.333    0.000    0.000    0.000    0.000 
#    0.000    0.000    0.000    0.000    0.000    0.000 
#
# Total GULP energy -83501.024982 kJ/mol
# GULP energy per Si atom -5566.734999 kJ/mol
# Density = 2.359232 g / cm^3
# Si number density = 23.646141 Si / 1000 Ang^3
#
#
#
# Elastic Constant Matrix: (Units=GPa)
#
#
# Indices 1 2 3 4 5 6 
#
# 1 69.2737 8.9556 16.3193 0.0000 23.2955 0.0000
# 2 8.9556 95.0489 21.4512 0.0000 23.8633 0.0000
# 3 16.3193 21.4512 62.3792 0.0000 7.7442 0.0000
# 4 0.0000 0.0000 0.0000 11.6176 0.0000 10.2734
# 5 23.2955 23.8633 7.7442 0.0000 39.0282 0.0000
# 6 0.0000 0.0000 0.0000 10.2734 0.0000 14.2771
#
#
#
# Elastic Compliance Matrix: (Units=1/GPa)
#
#
# Indices 1 2 3 4 5 6 
#
# 1 0.019169 0.002148 -0.004275 0.000000 -0.011907 0.000000
# 2 0.002148 0.013422 -0.004101 0.000000 -0.008675 0.000000
# 3 -0.004275 -0.004101 0.018384 0.000000 0.001411 0.000000
# 4 0.000000 0.000000 0.000000 0.236680 0.000000 -0.170309
# 5 -0.011907 -0.008675 0.001411 0.000000 0.037754 0.000000
# 6 0.000000 0.000000 0.000000 -0.170309 0.000000 0.192592
#
#
# Mechanical properties :
#
#
# Convention : Reuss Voigt Hill
#
# Bulk Modulus (GPa) = 25.96068 35.57267 30.76668
# Shear Modulus (GPa) = 9.20307 24.98296 17.09302
#
# Velocity S-wave (km/s) = 1.97495 3.25396 2.69154
# Velocity P-wave (km/s) = 4.02533 5.40316 4.76431
#
# Compressibility (1/GPa) = 0.03851979
#
# Stress axis : x y z
#
# Youngs Moduli (GPa) = 52.16745 74.50461 54.39388
#
# Poissons Ratio (x) = -0.16005 0.23256
# Poissons Ratio (y) = -0.11206 0.22305
# Poissons Ratio (z) = 0.22304 0.30551
#
# Static dielectric constant tensor:
#      x y z
#    x 1.963650 0.000000 -0.097620 
#    y 0.000000 1.844660 0.000000 
#    z -0.097620 0.000000 1.941890 
# 
# From -- ./inp_files/9297.got.cif
#   From: 2010.05.17/outbox.cif.g08.bks.cpg/sg8_5_cif.got.tgz:9297.got - 2010.06.03 19:46:02.
