data_PCOD9131310
_publ_section_title
;
Structure prediction by ZEFSAII (Michael W. Deem and Ramdas Pophale) SiO2 
 PCOD9131310
Probable space group: P C
;
_chemical_formula_sum "Si O2"
_cell_formula_units_Z 14
_cell_length_a 14.555966
_cell_length_b 13.444895
_cell_length_c 5.032315
_cell_angle_alpha 90.000000
_cell_angle_beta 52.878319
_cell_angle_gamma 90.000000
_cell_volume 785.268763
_symmetry_space_group_name_H-M "P C"
_symmetry_group_IT_number 7
_symmetry_cell_setting 'monoclinic'
loop_
_space_group_symop_operation_xyz
x,y,z
x,-y,1/2+z
loop_
_atom_site_type_symbol
_atom_site_label
_atom_site_fract_x
_atom_site_fract_y
_atom_site_fract_z
Si Si1 0.088700 0.566357 0.351780
Si Si2 0.453956 0.055231 0.623701
Si Si3 0.733719 0.944370 0.685163
Si Si4 0.337903 0.429192 0.527585
Si Si5 0.837183 0.430711 0.400729
Si Si6 0.671521 0.256229 0.513210
Si Si7 0.512677 0.745064 0.786279
O O1 0.089548 0.469302 0.545346
O O2 0.965739 0.613644 0.633040
O O3 0.209879 0.616571 0.209901
O O4 0.593864 0.050375 0.403876
O O5 0.436266 0.164086 0.532870
O O6 0.411890 0.027114 0.988126
O O7 0.750906 0.834639 0.772413
O O8 0.775756 0.973509 0.321295
O O9 0.347633 0.483827 0.792594
O O10 0.435121 0.346655 0.332033
O O11 0.826738 0.477956 0.710348
O O12 0.743212 0.348640 0.497034
O O13 0.594464 0.284394 0.391484
O O14 0.589873 0.220994 0.899838
#
# Coordination Sequence:
#
# PCOD9131310 Si02
#       7
#     2   2   2   2   2   2   2
#     4   8  16  32  50  64  80 112 158 194 214 242
#     4   9  16  28  44  61  85 116 149 184 215 251
#     4   9  16  28  44  61  85 116 149 184 215 251
#     4  10  20  33  48  66  91 121 152 185 218 259
#     4  10  20  33  48  66  91 121 152 185 218 259
#     4  11  21  30  44  69  96 121 148 177 223 278
#     4  11  21  30  44  69  96 121 148 177 223 278
#
# _framework density 17.828289999999999
#
# number of rings (size 3 to 8) (size 9 to 14) (size 15 to 20)
#    0.000    2.286    0.000    6.000    0.000    3.429 
#    0.000    0.000    0.000    0.000    0.000    2.000 
#    0.000    0.000    0.000    8.857    0.000    0.000 
#
# Total GULP energy -77996.060276 kJ/mol
# GULP energy per Si atom -5571.147163 kJ/mol
# Density = 1.778771 g / cm^3
# Si number density = 17.828290 Si / 1000 Ang^3
#
#
#
# Elastic Constant Matrix: (Units=GPa)
#
#
# Indices 1 2 3 4 5 6 
#
# 1 60.3276 17.7372 13.7705 0.0000 9.0924 0.0000
# 2 17.7372 47.3269 0.6410 0.0000 -10.5402 0.0000
# 3 13.7705 0.6410 28.4210 0.0000 13.2955 0.0000
# 4 0.0000 0.0000 0.0000 11.4236 0.0000 12.9791
# 5 9.0924 -10.5402 13.2955 0.0000 25.4482 0.0000
# 6 0.0000 0.0000 0.0000 12.9791 0.0000 8.4193
#
#
#
# Elastic Compliance Matrix: (Units=1/GPa)
#
#
# Indices 1 2 3 4 5 6 
#
# 1 0.022421 -0.010296 -0.006470 0.000000 -0.008895 0.000000
# 2 -0.010296 0.028999 -0.003977 0.000000 0.017768 0.000000
# 3 -0.006470 -0.003977 0.050422 0.000000 -0.025679 0.000000
# 4 0.000000 0.000000 0.000000 -0.116485 0.000000 0.179573
# 5 -0.008895 0.017768 -0.025679 0.000000 0.063249 0.000000
# 6 0.000000 0.000000 0.000000 0.179573 0.000000 -0.158052
#
#
# Mechanical properties :
#
#
# Convention : Reuss Voigt Hill
#
# Bulk Modulus (GPa) = 16.56834 22.26366 19.41600
# Shear Modulus (GPa) = -104.51410 15.98666 -44.26372
#
# Velocity S-wave (km/s) = -7.66485 2.99775 -4.98816
# Velocity P-wave (km/s) = 8.30781 4.94944 4.71820
#
# Compressibility (1/GPa) = 0.06035606
#
# Stress axis : x y z
#
# Youngs Moduli (GPa) = 44.60114 34.48342 19.83244
#
# Poissons Ratio (x) = 0.35505 0.12832
# Poissons Ratio (y) = 0.45923 0.07887
# Poissons Ratio (z) = 0.28857 0.13714
#
# Static dielectric constant tensor:
#      x y z
#    x 1.623920 0.000000 0.000540 
#    y 0.000000 1.623110 0.000000 
#    z 0.000540 0.000000 1.634390 
# 
# From -- ./inp_files/1295.got.cif
#   From: 2010.05.17/outbox.cif.g08.bks.cpg/sg7_cif.got.tgz:1295.got - 2010.06.03 19:44:50.
