data_PCOD9131024
_publ_section_title
;
Structure prediction by ZEFSAII (Michael W. Deem and Ramdas Pophale) SiO2 
 PCOD9131024
Probable space group: P M
;
_chemical_formula_sum "Si O2"
_cell_formula_units_Z 12
_cell_length_a 10.468383
_cell_length_b 10.836423
_cell_length_c 4.839245
_cell_angle_alpha 90.000000
_cell_angle_beta 87.496608
_cell_angle_gamma 90.000000
_cell_volume 548.439202
_symmetry_space_group_name_H-M "P M"
_symmetry_group_IT_number 6
_symmetry_cell_setting 'monoclinic'
loop_
_space_group_symop_operation_xyz
x,y,z
x,-y,z
loop_
_atom_site_type_symbol
_atom_site_label
_atom_site_fract_x
_atom_site_fract_y
_atom_site_fract_z
Si Si1 0.840020 0.203682 0.997370
Si Si2 0.678730 0.857482 0.481948
Si Si3 0.231416 0.355500 0.165700
Si Si4 0.194096 0.000000 0.727809
Si Si5 0.390208 0.860924 0.381248
Si Si6 0.020991 0.000000 0.238673
Si Si7 0.052610 0.640682 0.668837
O O1 0.747499 0.149477 0.769973
O O2 0.933576 0.292428 0.818873
O O3 0.745076 0.235929 0.258754
O O4 0.937601 0.113800 0.146506
O O5 0.527494 0.834489 0.501602
O O6 0.695430 0.000000 0.380483
O O7 0.265572 0.500000 0.227947
O O8 0.340662 0.254034 0.207144
O O9 0.112088 0.317000 0.374174
O O10 0.171640 0.354901 0.868355
O O11 0.281991 0.113107 0.623381
O O12 0.065430 0.000000 0.551204
O O13 0.149586 0.000000 0.044148
O O14 0.403376 0.000000 0.245123
O O15 0.013399 0.500000 0.630719
#
# Coordination Sequence:
#
# PCOD9131024 Si02
#       7
#     2   2   2   1   2   1   2
#     4  12  22  36  60  80 118 147 201 223 288 342
#     4  11  22  40  54  84 116 164 182 239 281 339
#     4  10  20  40  63  87 116 151 190 237 298 347
#     4  10  22  32  54  80 112 140 174 238 282 328
#     4   9  22  40  58  85 122 150 198 235 288 337
#     4  12  20  32  54  84 108 134 184 232 276 330
#     4  10  22  39  60  85 118 150 185 242 298 341
#
# _framework density 21.880272000000001
#
# number of rings (size 3 to 8) (size 9 to 14) (size 15 to 20)
#    0.500    1.000    1.667    4.000    0.000    2.667 
#    0.000    1.667    0.000    0.000    0.000    0.000 
#    0.000    0.000    0.000    0.000    0.000    0.000 
#
# Total GULP energy -66996.062625 kJ/mol
# GULP energy per Si atom -5583.005219 kJ/mol
# Density = 2.183047 g / cm^3
# Si number density = 21.880272 Si / 1000 Ang^3
#
#
#
# Elastic Constant Matrix: (Units=GPa)
#
#
# Indices 1 2 3 4 5 6 
#
# 1 109.2551 40.9619 21.0496 0.0000 33.5114 0.0000
# 2 40.9619 80.9110 11.2012 0.0000 14.5938 0.0000
# 3 21.0496 11.2012 85.2587 0.0000 10.5464 0.0000
# 4 0.0000 0.0000 0.0000 20.5516 0.0000 -4.8421
# 5 33.5114 14.5938 10.5464 0.0000 29.2634 0.0000
# 6 0.0000 0.0000 0.0000 -4.8421 0.0000 18.1158
#
#
#
# Elastic Compliance Matrix: (Units=1/GPa)
#
#
# Indices 1 2 3 4 5 6 
#
# 1 0.016055 -0.005175 -0.001391 0.000000 -0.015304 0.000000
# 2 -0.005175 0.015329 -0.000548 0.000000 -0.001521 0.000000
# 3 -0.001391 -0.000548 0.012469 0.000000 -0.002628 0.000000
# 4 0.000000 0.000000 0.000000 0.051928 0.000000 0.013880
# 5 -0.015304 -0.001521 -0.002628 0.000000 0.053403 0.000000
# 6 0.000000 0.000000 0.000000 0.013880 0.000000 0.058910
#
#
# Mechanical properties :
#
#
# Convention : Reuss Voigt Hill
#
# Bulk Modulus (GPa) = 33.75455 46.87224 40.31340
# Shear Modulus (GPa) = 21.53320 27.06695 24.30007
#
# Velocity S-wave (km/s) = 3.14050 3.52099 3.33617
# Velocity P-wave (km/s) = 5.34890 6.16429 5.77101
#
# Compressibility (1/GPa) = 0.02962563
#
# Stress axis : x y z
#
# Youngs Moduli (GPa) = 62.28501 65.23386 80.19579
#
# Poissons Ratio (x) = 0.33760 0.11155
# Poissons Ratio (y) = 0.32234 0.04396
# Poissons Ratio (z) = 0.08663 0.03576
#
# Static dielectric constant tensor:
#      x y z
#    x 1.818470 0.000000 -0.024920 
#    y 0.000000 1.861470 0.000000 
#    z -0.024920 0.000000 1.799270 
# 
# From -- ./inp_files/1005.got.cif
#   From: 2010.05.17/outbox.cif.g08.bks.cpg/sg6_1_cif.got.tgz:1005.got - 2010.06.03 19:42:10.
