data_PCOD9131299
_publ_section_title
;
Structure prediction by ZEFSAII (Michael W. Deem and Ramdas Pophale) SiO2 
 PCOD9131299
Probable space group: P C
;
_chemical_formula_sum "Si O2"
_cell_formula_units_Z 16
_cell_length_a 8.031270
_cell_length_b 18.937066
_cell_length_c 5.681298
_cell_angle_alpha 90.000000
_cell_angle_beta 59.917457
_cell_angle_gamma 90.000000
_cell_volume 747.675744
_symmetry_space_group_name_H-M "P C"
_symmetry_group_IT_number 7
_symmetry_cell_setting 'monoclinic'
loop_
_space_group_symop_operation_xyz
x,y,z
x,-y,1/2+z
loop_
_atom_site_type_symbol
_atom_site_label
_atom_site_fract_x
_atom_site_fract_y
_atom_site_fract_z
Si Si1 0.905560 0.960188 0.903020
Si Si2 0.683152 0.329531 0.751683
Si Si3 0.142278 0.156536 0.015233
Si Si4 0.447595 0.039693 0.711848
Si Si5 0.002746 0.743373 0.269739
Si Si6 0.687551 0.487194 0.851681
Si Si7 0.921983 0.375624 0.201903
Si Si8 0.254746 0.298232 0.199296
O O1 0.025169 0.888596 0.788043
O O2 0.949794 0.002553 0.623999
O O3 0.676589 0.947069 0.056408
O O4 0.748197 0.405933 0.805914
O O5 0.820388 0.265395 0.728106
O O6 0.725259 0.341160 0.446725
O O7 0.469110 0.320861 0.992781
O O8 0.213038 0.230429 0.067657
O O9 0.319017 0.109610 0.803873
O O10 0.004851 0.182684 0.902103
O O11 0.405410 0.999346 0.493727
O O12 0.978144 0.674933 0.450789
O O13 0.202201 0.730608 0.993311
O O14 0.583101 0.498519 0.674023
O O15 0.865063 0.542856 0.712886
O O16 0.099443 0.359905 0.253332
#
# Coordination Sequence:
#
# PCOD9131299 Si02
#       8
#     2   2   2   2   2   2   2   2
#     4  10  23  43  69  98 132 169 225 272 323 388
#     4  10  21  41  64  90 130 169 218 278 330 400
#     4  11  24  39  66  93 130 180 211 267 334 394
#     4  10  23  42  66  99 134 169 223 279 317 385
#     4  10  22  40  62  92 131 169 217 271 328 395
#     4  10  19  38  69  89 120 172 215 270 340 388
#     4   9  20  41  62  88 125 167 216 274 332 394
#     4  10  24  40  62  97 132 169 225 273 332 398
#
# _framework density 21.399650000000001
#
# number of rings (size 3 to 8) (size 9 to 14) (size 15 to 20)
#    0.000    2.000    1.250    0.750    3.500    6.000 
#    2.250    7.500    0.000    0.000    0.000    0.000 
#    0.000    0.000    0.000    0.000    0.000    0.000 
#
# Total GULP energy -89143.717623 kJ/mol
# GULP energy per Si atom -5571.482351 kJ/mol
# Density = 2.135094 g / cm^3
# Si number density = 21.399650 Si / 1000 Ang^3
#
#
#
# Elastic Constant Matrix: (Units=GPa)
#
#
# Indices 1 2 3 4 5 6 
#
# 1 40.6640 26.5508 31.6422 0.0000 -6.6890 0.0000
# 2 26.5508 87.1005 26.2576 0.0000 -13.0546 0.0000
# 3 31.6422 26.2576 125.1308 0.0000 -2.4198 0.0000
# 4 0.0000 0.0000 0.0000 22.9105 0.0000 4.8332
# 5 -6.6890 -13.0546 -2.4198 0.0000 36.5914 0.0000
# 6 0.0000 0.0000 0.0000 4.8332 0.0000 19.8339
#
#
#
# Elastic Compliance Matrix: (Units=1/GPa)
#
#
# Indices 1 2 3 4 5 6 
#
# 1 0.036310 -0.008374 -0.007363 0.000000 0.003163 0.000000
# 2 -0.008374 0.014871 -0.000931 0.000000 0.003713 0.000000
# 3 -0.007363 -0.000931 0.010029 0.000000 -0.001015 0.000000
# 4 0.000000 0.000000 0.000000 0.046014 0.000000 -0.011213
# 5 0.003163 0.003713 -0.001015 0.000000 0.029165 0.000000
# 6 0.000000 0.000000 0.000000 -0.011213 0.000000 0.053151
#
#
# Mechanical properties :
#
#
# Convention : Reuss Voigt Hill
#
# Bulk Modulus (GPa) = 35.87781 46.86627 41.37204
# Shear Modulus (GPa) = 21.53618 27.09681 24.31649
#
# Velocity S-wave (km/s) = 3.17579 3.56227 3.37457
# Velocity P-wave (km/s) = 5.49996 6.23440 5.87866
#
# Compressibility (1/GPa) = 0.02787238
#
# Stress axis : x y z
#
# Youngs Moduli (GPa) = 27.54092 67.24509 99.70741
#
# Poissons Ratio (x) = 0.56314 0.73417
# Poissons Ratio (y) = 0.23064 0.09283
# Poissons Ratio (z) = 0.20279 0.06261
#
# Static dielectric constant tensor:
#      x y z
#    x 1.863370 0.000000 0.117260 
#    y 0.000000 1.754370 0.000000 
#    z 0.117260 0.000000 1.868960 
# 
# From -- ./inp_files/843.got.cif
#   From: 2010.05.17/outbox.cif.g08.bks.cpg/sg7_cif.got.tgz:843.got - 2010.06.03 19:44:50.
