data_PCOD9131058
_publ_section_title
;
Structure prediction by ZEFSAII (Michael W. Deem and Ramdas Pophale) SiO2 
 PCOD9131058
Probable space group: P M
;
_chemical_formula_sum "Si O2"
_cell_formula_units_Z 16
_cell_length_a 8.377898
_cell_length_b 20.496341
_cell_length_c 5.136830
_cell_angle_alpha 90.000000
_cell_angle_beta 122.227178
_cell_angle_gamma 90.000000
_cell_volume 746.184660
_symmetry_space_group_name_H-M "P M"
_symmetry_group_IT_number 6
_symmetry_cell_setting 'monoclinic'
loop_
_space_group_symop_operation_xyz
x,y,z
x,-y,z
loop_
_atom_site_type_symbol
_atom_site_label
_atom_site_fract_x
_atom_site_fract_y
_atom_site_fract_z
Si Si1 0.921030 0.157540 0.656800
Si Si2 0.762354 0.263185 0.823842
Si Si3 0.512468 0.151463 0.732926
Si Si4 0.029753 0.626866 0.115693
Si Si5 0.833216 0.074607 0.083752
Si Si6 0.448936 0.344166 0.311697
Si Si7 0.799488 0.576898 0.412521
Si Si8 0.329377 0.201124 0.059751
O O1 0.796211 0.223856 0.582007
O O2 0.867971 0.103587 0.827051
O O3 0.115473 0.186008 0.927830
O O4 0.921612 0.119417 0.386700
O O5 0.676747 0.205735 0.920138
O O6 0.595856 0.316100 0.653312
O O7 0.950882 0.299127 0.077095
O O8 0.606058 0.084246 0.900435
O O9 0.356924 0.173131 0.797483
O O10 0.445844 0.161622 0.380594
O O11 0.928012 0.600455 0.766781
O O12 0.257131 0.624617 0.268531
O O13 0.929273 0.591508 0.272279
O O14 0.890878 0.000000 0.158904
O O15 0.593433 0.387449 0.261416
O O16 0.376421 0.277833 0.110944
O O17 0.765271 0.500000 0.398774
#
# Coordination Sequence:
#
# PCOD9131058 Si02
#       8
#     2   2   2   2   2   2   2   2
#     4  11  22  39  65  92 130 165 210 277 332 387
#     4   9  20  40  62  99 127 161 207 272 335 386
#     4  10  21  37  62  87 128 162 209 265 329 387
#     4  11  23  42  67  96 128 170 216 274 330 390
#     4  11  23  41  60  85 124 180 221 255 322 398
#     4  10  22  42  68  98 130 169 219 273 334 392
#     4  11  26  44  64  94 134 177 224 266 321 401
#     4  11  21  39  62  99 123 158 210 278 337 385
#
# _framework density 21.442416000000001
#
# number of rings (size 3 to 8) (size 9 to 14) (size 15 to 20)
#    0.000    1.500    1.250    4.500    0.000    8.000 
#    0.000    3.750    0.000    0.000    0.000    0.000 
#    0.000    0.000    0.000    0.000    0.000    0.000 
#
# Total GULP energy -89104.447162 kJ/mol
# GULP energy per Si atom -5569.027948 kJ/mol
# Density = 2.139361 g / cm^3
# Si number density = 21.442416 Si / 1000 Ang^3
#
#
#
# Elastic Constant Matrix: (Units=GPa)
#
#
# Indices 1 2 3 4 5 6 
#
# 1 86.8852 21.4893 24.2099 0.0000 25.5246 0.0000
# 2 21.4893 75.6010 22.7104 0.0000 20.2008 0.0000
# 3 24.2099 22.7104 67.5394 0.0000 9.1338 0.0000
# 4 0.0000 0.0000 0.0000 4.0449 0.0000 2.9620
# 5 25.5246 20.2008 9.1338 0.0000 37.2454 0.0000
# 6 0.0000 0.0000 0.0000 2.9620 0.0000 9.6857
#
#
#
# Elastic Compliance Matrix: (Units=1/GPa)
#
#
# Indices 1 2 3 4 5 6 
#
# 1 0.015545 -0.000718 -0.004078 0.000000 -0.009263 0.000000
# 2 -0.000718 0.016751 -0.004358 0.000000 -0.007524 0.000000
# 3 -0.004078 -0.004358 0.017620 0.000000 0.000837 0.000000
# 4 0.000000 0.000000 0.000000 0.318564 0.000000 -0.097419
# 5 -0.009263 -0.007524 0.000837 0.000000 0.037073 0.000000
# 6 0.000000 0.000000 0.000000 -0.097419 0.000000 0.133036
#
#
# Mechanical properties :
#
#
# Convention : Reuss Voigt Hill
#
# Bulk Modulus (GPa) = 31.63734 40.76053 36.19893
# Shear Modulus (GPa) = 8.81163 20.96960 14.89061
#
# Velocity S-wave (km/s) = 2.02937 3.13061 2.63809
# Velocity P-wave (km/s) = 4.50308 5.66729 5.11840
#
# Compressibility (1/GPa) = 0.03160822
#
# Stress axis : x y z
#
# Youngs Moduli (GPa) = 64.33080 59.69773 56.75387
#
# Poissons Ratio (x) = 0.04289 0.23143
# Poissons Ratio (y) = 0.04621 0.24731
# Poissons Ratio (z) = 0.26233 0.26013
#
# Static dielectric constant tensor:
#      x y z
#    x 1.887430 0.000000 0.026960 
#    y 0.000000 1.811980 0.000000 
#    z 0.026960 0.000000 1.786430 
# 
# From -- ./inp_files/1402.got.cif
#   From: 2010.05.17/outbox.cif.g08.bks.cpg/sg6_1_cif.got.tgz:1402.got - 2010.06.03 19:42:10.
