data_PCOD9131694
_publ_section_title
;
Structure prediction by ZEFSAII (Michael W. Deem and Ramdas Pophale) SiO2 
 PCOD9131694
Probable space group: C M
;
_chemical_formula_sum "Si O2"
_cell_formula_units_Z 24
_cell_length_a 15.507655
_cell_length_b 7.467754
_cell_length_c 15.157459
_cell_angle_alpha 90.000000
_cell_angle_beta 40.764897
_cell_angle_gamma 90.000000
_cell_volume 1146.164407
_symmetry_space_group_name_H-M "C M"
_symmetry_group_IT_number 8
_symmetry_cell_setting 'monoclinic'
loop_
_space_group_symop_operation_xyz
x,y,z
x,-y,z
1/2+x,1/2+y,z
1/2+x,1/2-y,z
loop_
_atom_site_type_symbol
_atom_site_label
_atom_site_fract_x
_atom_site_fract_y
_atom_site_fract_z
Si Si1 0.666830 0.280120 0.469360
Si Si2 0.666321 0.713135 0.671191
Si Si3 0.893612 0.783728 0.969261
Si Si4 0.372515 0.285754 0.660742
Si Si5 0.406222 0.789209 0.164007
Si Si6 0.203327 0.280663 0.960887
O O1 0.667807 0.500000 0.466921
O O2 0.680287 0.221614 0.560524
O O3 0.522972 0.221569 0.546710
O O4 0.787567 0.216762 0.315509
O O5 0.648137 0.500000 0.678274
O O6 0.534436 0.781973 0.822054
O O7 0.792344 0.745765 0.634519
O O8 0.778491 0.726393 0.991658
O O9 0.895939 0.000000 0.966241
O O10 0.876856 0.729399 0.083172
O O11 0.378296 0.500000 0.665257
O O12 0.288392 0.220751 0.810233
O O13 0.413891 0.000000 0.178176
O O14 0.552851 0.716877 0.069717
O O15 0.202398 0.500000 0.959601
#
# Coordination Sequence:
#
# PCOD9131694 Si02
#       6
#     4   4   4   4   4   4
#     4   9  19  35  54  75 105 139 168 205 257 310
#     4  10  19  33  54  79 103 133 173 213 252 299
#     4  10  19  33  54  78 104 135 170 211 256 301
#     4  10  18  33  55  77 101 135 174 208 250 305
#     4  10  20  35  54  78 104 133 172 213 251 300
#     4   9  17  31  53  75  99 135 173 202 244 309
#
# _framework density 20.939405000000001
#
# number of rings (size 3 to 8) (size 9 to 14) (size 15 to 20)
#    0.000    2.333    3.333    0.000    0.000    1.333 
#    0.000    5.833    0.000    0.000    0.000    0.000 
#    0.000    0.000    0.000    0.000    0.000    0.000 
#
# Total GULP energy -67028.481243 kJ/mol
# GULP energy per Si atom -5585.706770 kJ/mol
# Density = 2.089175 g / cm^3
# Si number density = 20.939405 Si / 1000 Ang^3
#
#
#
# Elastic Constant Matrix: (Units=GPa)
#
#
# Indices 1 2 3 4 5 6 
#
# 1 166.3019 -12.6594 91.2878 0.0000 -5.7988 0.0001
# 2 -12.6594 57.6825 4.4243 -0.0001 -4.8268 0.0002
# 3 91.2878 4.4243 193.8686 0.0000 -3.7002 0.0001
# 4 0.0000 -0.0001 0.0000 -0.7988 0.0000 7.9125
# 5 -5.7988 -4.8268 -3.7002 0.0000 31.2231 0.0000
# 6 0.0001 0.0002 0.0001 7.9125 0.0000 22.4259
#
#
#
# Elastic Compliance Matrix: (Units=1/GPa)
#
#
# Indices 1 2 3 4 5 6 
#
# 1 0.008429 0.002277 -0.003993 0.000000 0.001444 0.000000
# 2 0.002277 0.018202 -0.001429 -0.000001 0.003067 0.000000
# 3 -0.003993 -0.001429 0.007069 0.000000 -0.000125 0.000000
# 4 0.000000 -0.000001 0.000000 -0.278507 0.000000 0.098266
# 5 0.001444 0.003067 -0.000125 0.000000 0.032755 0.000000
# 6 0.000000 0.000000 0.000000 0.098266 0.000000 0.009920
#
#
# Mechanical properties :
#
#
# Convention : Reuss Voigt Hill
#
# Bulk Modulus (GPa) = 36.48414 64.88425 50.68420
# Shear Modulus (GPa) = -26.78032 32.89005 3.05486
#
# Velocity S-wave (km/s) = -3.58011 3.96754 1.20916
# Velocity P-wave (km/s) = 0.60983 7.21404 5.11929
#
# Compressibility (1/GPa) = 0.02740917
#
# Stress axis : x y z
#
# Youngs Moduli (GPa) = 118.63918 54.93813 141.46805
#
# Poissons Ratio (x) = -0.12509 0.56493
# Poissons Ratio (y) = -0.27014 0.20216
# Poissons Ratio (z) = 0.47377 0.07851
#
# Static dielectric constant tensor:
#      x y z
#    x 1.713750 0.000000 -0.017540 
#    y 0.000000 1.803530 0.000000 
#    z -0.017540 0.000000 1.722620 
# 
# From -- ./inp_files/10126.got.cif
#   From: 2010.05.17/outbox.cif.g08.bks.cpg/sg8_6_cif.got.tgz:10126.got - 2010.06.03 19:46:02.
