data_PCOD9131827
_publ_section_title
;
Structure prediction by ZEFSAII (Michael W. Deem and Ramdas Pophale) SiO2 
 PCOD9131827
Probable space group: C M
;
_chemical_formula_sum "Si O2"
_cell_formula_units_Z 32
_cell_length_a 14.615773
_cell_length_b 7.619030
_cell_length_c 26.647230
_cell_angle_alpha 90.000000
_cell_angle_beta 146.564627
_cell_angle_gamma 90.000000
_cell_volume 1635.016081
_symmetry_space_group_name_H-M "C M"
_symmetry_group_IT_number 8
_symmetry_cell_setting 'monoclinic'
loop_
_space_group_symop_operation_xyz
x,y,z
x,-y,z
1/2+x,1/2+y,z
1/2+x,1/2-y,z
loop_
_atom_site_type_symbol
_atom_site_label
_atom_site_fract_x
_atom_site_fract_y
_atom_site_fract_z
Si Si1 0.161730 0.210694 0.806480
Si Si2 0.478830 0.784646 0.452515
Si Si3 0.035992 0.211095 0.955725
Si Si4 0.350090 0.288073 0.600151
Si Si5 0.893561 0.704854 0.303806
Si Si6 0.740287 0.712210 0.953635
Si Si7 0.614232 0.290614 0.102272
Si Si8 0.265227 0.792356 0.449137
O O1 0.340310 0.249796 0.863970
O O2 0.170494 0.275856 0.867972
O O3 0.007003 0.277945 0.703436
O O4 0.145726 0.000000 0.801563
O O5 0.671861 0.730021 0.540512
O O6 0.401750 0.723133 0.364232
O O7 0.374753 0.725944 0.452922
O O8 0.479033 0.000000 0.452389
O O9 0.137201 0.277063 0.954139
O O10 0.052518 0.000000 0.963953
O O11 0.102766 0.279209 0.039995
O O12 0.351037 0.500000 0.602502
O O13 0.352018 0.238929 0.542472
O O14 0.850245 0.500000 0.289780
O O15 0.759840 0.781987 0.204151
O O16 0.080291 0.715453 0.368040
O O17 0.731149 0.500000 0.948974
O O18 0.933827 0.760922 0.043892
O O19 0.640150 0.500000 0.109525
O O20 0.244455 0.000000 0.433096
#
# Coordination Sequence:
#
# PCOD9131827 Si02
#       8
#     4   4   4   4   4   4   4   4
#     4   9  18  32  50  70  92 124 163 194 225 277
#     4   8  16  31  49  67  91 123 155 188 229 280
#     4   9  18  32  49  71  99 126 153 192 239 277
#     4   9  18  34  51  67  93 127 158 190 234 284
#     4   9  18  34  51  67  94 130 159 186 231 285
#     4   9  18  32  49  70  97 127 157 191 233 278
#     4   9  18  32  50  71  95 125 159 193 231 276
#     4  10  19  31  49  73  95 118 156 200 236 273
#
# _framework density 19.571673000000001
#
# number of rings (size 3 to 8) (size 9 to 14) (size 15 to 20)
#    0.000    3.000    0.000    1.125    0.000    3.500 
#    0.000    7.500    0.000    0.000    0.000    0.000 
#    0.000    0.000    0.000    0.000    0.000    0.000 
#
# Total GULP energy -89221.258671 kJ/mol
# GULP energy per Si atom -5576.328667 kJ/mol
# Density = 1.952713 g / cm^3
# Si number density = 19.571673 Si / 1000 Ang^3
#
#
#
# Elastic Constant Matrix: (Units=GPa)
#
#
# Indices 1 2 3 4 5 6 
#
# 1 175.9253 -10.6734 93.7066 0.0000 -6.5742 0.0000
# 2 -10.6734 35.9662 -5.2155 0.0000 -3.8915 0.0000
# 3 93.7066 -5.2155 194.7283 0.0000 -12.2155 0.0000
# 4 0.0000 0.0000 0.0000 16.5617 0.0000 4.5370
# 5 -6.5742 -3.8915 -12.2155 0.0000 5.3605 0.0000
# 6 0.0000 0.0000 0.0000 4.5370 0.0000 15.2125
#
#
#
# Elastic Compliance Matrix: (Units=1/GPa)
#
#
# Indices 1 2 3 4 5 6 
#
# 1 0.007794 0.002147 -0.003495 0.000000 0.003152 0.000000
# 2 0.002147 0.031888 0.001678 0.000000 0.029607 0.000000
# 3 -0.003495 0.001678 0.007782 0.000000 0.014666 0.000000
# 4 0.000000 0.000000 0.000000 0.065752 0.000000 -0.019610
# 5 0.003152 0.029607 0.014666 0.000000 0.245328 0.000000
# 6 0.000000 0.000000 0.000000 -0.019610 0.000000 0.071584
#
#
# Mechanical properties :
#
#
# Convention : Reuss Voigt Hill
#
# Bulk Modulus (GPa) = 20.77963 62.47279 41.62621
# Shear Modulus (GPa) = 11.22309 29.34708 20.28509
#
# Velocity S-wave (km/s) = 2.39725 3.87650 3.22289
# Velocity P-wave (km/s) = 4.27816 7.21288 5.92993
#
# Compressibility (1/GPa) = 0.04812406
#
# Stress axis : x y z
#
# Youngs Moduli (GPa) = 128.30161 31.35988 128.49594
#
# Poissons Ratio (x) = -0.06734 0.44915
# Poissons Ratio (y) = -0.27549 -0.21562
# Poissons Ratio (z) = 0.44847 -0.05262
#
# Static dielectric constant tensor:
#      x y z
#    x 1.665330 0.000000 -0.023550 
#    y 0.000000 1.738770 0.000000 
#    z -0.023550 0.000000 1.676580 
# 
# From -- ./inp_files/25934.got.cif
#   From: 2010.05.17/outbox.cif.g08.bks.cpg/sg8_13_cif.got.tgz:25934.got - 2010.06.03 19:46:02.
