data_PCOD9131656
_publ_section_title
;
Structure prediction by ZEFSAII (Michael W. Deem and Ramdas Pophale) SiO2 
 PCOD9131656
Probable space group: C M
;
_chemical_formula_sum "Si O2"
_cell_formula_units_Z 28
_cell_length_a 23.786589
_cell_length_b 12.700047
_cell_length_c 5.250097
_cell_angle_alpha 90.000000
_cell_angle_beta 120.171789
_cell_angle_gamma 90.000000
_cell_volume 1371.137663
_symmetry_space_group_name_H-M "C M"
_symmetry_group_IT_number 8
_symmetry_cell_setting 'monoclinic'
loop_
_space_group_symop_operation_xyz
x,y,z
x,-y,z
1/2+x,1/2+y,z
1/2+x,1/2-y,z
loop_
_atom_site_type_symbol
_atom_site_label
_atom_site_fract_x
_atom_site_fract_y
_atom_site_fract_z
Si Si1 0.283940 0.876556 0.809460
Si Si2 0.565261 0.500000 0.312157
Si Si3 0.701548 0.374455 0.101485
Si Si4 0.399786 0.882619 0.753934
Si Si5 0.979275 0.000000 0.605181
Si Si6 0.035460 0.618661 0.337218
Si Si7 0.593753 0.713623 0.169435
Si Si8 0.463429 0.729296 0.571824
O O1 0.244201 0.866631 0.456078
O O2 0.355831 0.841751 0.886007
O O3 0.291521 0.000000 0.887951
O O4 0.243500 0.834859 0.956839
O O5 0.536994 0.500000 0.529164
O O6 0.604930 0.607399 0.358744
O O7 0.509982 0.500000 0.961386
O O8 0.685093 0.500000 0.032075
O O9 0.639197 0.303463 0.028834
O O10 0.404219 0.798190 0.541832
O O11 0.474151 0.895145 0.008846
O O12 0.376336 0.000000 0.623181
O O13 0.943475 0.110006 0.462200
O O14 0.050662 0.500000 0.468322
O O15 0.094700 0.678457 0.330822
O O16 0.004379 0.700364 0.467131
O O17 0.518772 0.709853 0.911923
#
# Coordination Sequence:
#
# PCOD9131656 Si02
#       8
#     4   2   4   4   2   4   4   4
#     4   9  20  34  52  80 109 142 180 218 269 325
#     4  10  18  32  50  76 110 144 162 210 265 324
#     4  10  20  33  53  82 113 141 174 219 273 330
#     4   9  19  35  53  79 112 143 179 226 271 323
#     4  10  20  32  50  78 110 136 180 210 263 324
#     4  10  20  33  53  79 109 146 184 221 270 325
#     4  10  20  33  51  79 113 140 176 218 276 328
#     4  10  20  32  53  79 109 147 176 221 277 322
#
# _framework density 20.420997
#
# number of rings (size 3 to 8) (size 9 to 14) (size 15 to 20)
#    0.000    2.286    2.143    0.429    4.000    0.571 
#    0.000    0.000    0.000    0.000    3.714    0.000 
#    0.000    0.000    0.000    0.000    0.000    0.000 
#
# Total GULP energy -77963.458918 kJ/mol
# GULP energy per Si atom -5568.818494 kJ/mol
# Density = 2.037452 g / cm^3
# Si number density = 20.420997 Si / 1000 Ang^3
#
#
#
# Elastic Constant Matrix: (Units=GPa)
#
#
# Indices 1 2 3 4 5 6 
#
# 1 114.0349 43.9673 26.9134 0.0000 -43.5761 0.0000
# 2 43.9673 154.5951 25.4977 0.0000 -27.9313 0.0000
# 3 26.9134 25.4977 62.9286 0.0000 -21.3946 0.0000
# 4 0.0000 0.0000 0.0000 13.5656 0.0000 -12.8679
# 5 -43.5761 -27.9313 -21.3946 0.0000 37.1999 0.0000
# 6 0.0000 0.0000 0.0000 -12.8679 0.0000 24.8506
#
#
#
# Elastic Compliance Matrix: (Units=1/GPa)
#
#
# Indices 1 2 3 4 5 6 
#
# 1 0.016124 -0.001333 -0.000341 0.000000 0.017690 0.000000
# 2 -0.001333 0.007694 -0.001385 0.000000 0.003419 0.000000
# 3 -0.000341 -0.001385 0.020024 0.000000 0.010077 0.000000
# 4 0.000000 0.000000 0.000000 0.144876 0.000000 0.075018
# 5 0.017690 0.003419 0.010077 0.000000 0.055966 0.000000
# 6 0.000000 0.000000 0.000000 0.075018 0.000000 0.079085
#
#
# Mechanical properties :
#
#
# Convention : Reuss Voigt Hill
#
# Bulk Modulus (GPa) = 26.50932 58.25726 42.38329
# Shear Modulus (GPa) = 14.60016 30.80190 22.70103
#
# Velocity S-wave (km/s) = 2.67677 3.88795 3.33776
# Velocity P-wave (km/s) = 4.75006 6.98176 5.97110
#
# Compressibility (1/GPa) = 0.03772259
#
# Stress axis : x y z
#
# Youngs Moduli (GPa) = 62.02036 129.97566 49.93999
#
# Poissons Ratio (x) = 0.17328 0.01704
# Poissons Ratio (y) = 0.08269 0.06916
# Poissons Ratio (z) = 0.02117 0.18001
#
# Static dielectric constant tensor:
#      x y z
#    x 1.770920 0.000000 0.001630 
#    y 0.000000 1.840550 0.000000 
#    z 0.001630 0.000000 1.870610 
# 
# From -- ./inp_files/5911.got.cif
#   From: 2010.05.17/outbox.cif.g08.bks.cpg/sg8_3_cif.got.tgz:5911.got - 2010.06.03 19:46:02.
