data_PCOD9131580
_publ_section_title
;
Structure prediction by ZEFSAII (Michael W. Deem and Ramdas Pophale) SiO2 
 PCOD9131580
Probable space group: C M
;
_chemical_formula_sum "Si O2"
_cell_formula_units_Z 32
_cell_length_a 19.027022
_cell_length_b 7.871457
_cell_length_c 10.882739
_cell_angle_alpha 90.000000
_cell_angle_beta 89.999965
_cell_angle_gamma 90.000000
_cell_volume 1629.912015
_symmetry_space_group_name_H-M "C M"
_symmetry_group_IT_number 8
_symmetry_cell_setting 'monoclinic'
loop_
_space_group_symop_operation_xyz
x,y,z
x,-y,z
1/2+x,1/2+y,z
1/2+x,1/2-y,z
loop_
_atom_site_type_symbol
_atom_site_label
_atom_site_fract_x
_atom_site_fract_y
_atom_site_fract_z
Si Si1 0.962490 0.794819 0.016090
Si Si2 0.624098 0.704504 0.015299
Si Si3 0.213957 0.297779 0.251862
Si Si4 0.977141 0.302605 0.751862
Si Si5 0.635561 0.305558 0.751862
Si Si6 0.873911 0.208532 0.251862
Si Si7 0.962490 0.205181 0.487634
Si Si8 0.124099 0.795496 0.488426
O O1 0.914808 0.736608 0.129026
O O2 0.043516 0.736045 0.032805
O O3 0.962578 0.000000 0.017645
O O4 0.939300 0.738112 0.879981
O O5 0.620331 0.500000 0.003729
O O6 0.671661 0.744813 0.130926
O O7 0.653262 0.771987 0.884468
O O8 0.293643 0.232015 0.251862
O O9 0.171661 0.244813 0.372799
O O10 0.874432 0.000000 0.251862
O O11 0.996687 0.500000 0.751862
O O12 0.939300 0.261888 0.623743
O O13 0.049910 0.196535 0.751862
O O14 0.661293 0.500000 0.751862
O O15 0.653262 0.228013 0.619257
O O16 0.914808 0.263392 0.374697
O O17 0.717905 0.000000 0.251862
O O18 0.043517 0.263955 0.470919
O O19 0.962578 0.000000 0.486079
O O20 0.120331 0.000000 0.499996
#
# Coordination Sequence:
#
# PCOD9131580 Si02
#       8
#     4   4   4   4   4   4   4   4
#     4   9  17  34  57  74  93 129 174 207 233 283
#     4   9  17  32  55  77  95 124 166 207 244 287
#     4  11  22  33  47  73 106 133 160 202 254 297
#     4  10  18  28  47  80 111 125 147 199 261 302
#     4   8  16  32  53  74  95 127 171 205 233 284
#     4   9  19  35  53  71  94 131 176 210 236 281
#     4   9  17  34  57  74  93 129 174 207 233 283
#     4   9  17  32  55  77  95 124 166 207 244 287
#
# _framework density 19.632961000000002
#
# number of rings (size 3 to 8) (size 9 to 14) (size 15 to 20)
#    0.000    2.750    0.000    3.750    0.000    6.000 
#    0.000    4.375    0.000    4.500    0.000    0.000 
#    0.000    0.000    0.000    0.000    0.000    0.000 
#
# Total GULP energy -89189.394134 kJ/mol
# GULP energy per Si atom -5574.337133 kJ/mol
# Density = 1.958828 g / cm^3
# Si number density = 19.632961 Si / 1000 Ang^3
#
#
#
# Elastic Constant Matrix: (Units=GPa)
#
#
# Indices 1 2 3 4 5 6 
#
# 1 92.9870 7.8062 100.7168 0.0000 -0.0007 0.0000
# 2 7.8062 29.0241 6.9484 0.0000 0.0000 0.0000
# 3 100.7168 6.9484 251.3233 0.0000 -0.0009 0.0000
# 4 0.0000 0.0000 0.0000 4.0868 0.0000 0.0000
# 5 -0.0007 0.0000 -0.0009 0.0000 -6.6663 0.0000
# 6 0.0000 0.0000 0.0000 0.0000 0.0000 14.2591
#
#
#
# Elastic Compliance Matrix: (Units=1/GPa)
#
#
# Indices 1 2 3 4 5 6 
#
# 1 0.019324 -0.003366 -0.007651 0.000000 -0.000001 0.000000
# 2 -0.003366 0.035270 0.000374 0.000000 0.000000 0.000000
# 3 -0.007651 0.000374 0.007035 0.000000 0.000000 0.000000
# 4 0.000000 0.000000 0.000000 0.244689 0.000000 0.000000
# 5 -0.000001 0.000000 0.000000 0.000000 -0.150008 0.000000
# 6 0.000000 0.000000 0.000000 0.000000 0.000000 0.070131
#
#
# Mechanical properties :
#
#
# Convention : Reuss Voigt Hill
#
# Bulk Modulus (GPa) = 24.78770 67.14191 45.96480
# Shear Modulus (GPa) = 19.14437 19.52678 19.33557
#
# Velocity S-wave (km/s) = 3.12607 3.15714 3.14164
# Velocity P-wave (km/s) = 5.06781 6.89658 6.05167
#
# Compressibility (1/GPa) = 0.04034259
#
# Stress axis : x y z
#
# Youngs Moduli (GPa) = 51.75044 28.35278 142.15398
#
# Poissons Ratio (x) = 0.09542 1.08759
# Poissons Ratio (y) = 0.17417 -0.05311
# Poissons Ratio (z) = 0.39593 -0.01059
#
# Static dielectric constant tensor:
#      x y z
#    x 1.653140 0.000000 0.000000 
#    y 0.000000 1.722040 0.000000 
#    z 0.000000 0.000000 1.749700 
# 
# From -- ./inp_files/22753.got.cif
#   From: 2010.05.17/outbox.cif.g08.bks.cpg/sg8_12_cif.got.tgz:22753.got - 2010.06.03 19:46:02.
