data_PCOD9131660
_publ_section_title
;
Structure prediction by ZEFSAII (Michael W. Deem and Ramdas Pophale) SiO2 
 PCOD9131660
Probable space group: C M
;
_chemical_formula_sum "Si O2"
_cell_formula_units_Z 28
_cell_length_a 18.917921
_cell_length_b 12.744031
_cell_length_c 14.105162
_cell_angle_alpha 90.000000
_cell_angle_beta 24.595908
_cell_angle_gamma 90.000000
_cell_volume 1415.392613
_symmetry_space_group_name_H-M "C M"
_symmetry_group_IT_number 8
_symmetry_cell_setting 'monoclinic'
loop_
_space_group_symop_operation_xyz
x,y,z
x,-y,z
1/2+x,1/2+y,z
1/2+x,1/2-y,z
loop_
_atom_site_type_symbol
_atom_site_label
_atom_site_fract_x
_atom_site_fract_y
_atom_site_fract_z
Si Si1 0.722210 0.377100 0.706630
Si Si2 0.267773 0.121621 0.868889
Si Si3 0.194368 0.319243 0.512354
Si Si4 0.160339 0.381947 0.351507
Si Si5 0.937261 0.728168 0.966177
Si Si6 0.360598 0.120575 0.253444
Si Si7 0.988564 0.260238 0.266879
O O1 0.727169 0.500000 0.675550
O O2 0.689186 0.368960 0.858783
O O3 0.900402 0.322283 0.460067
O O4 0.578153 0.314798 0.825363
O O5 0.465041 0.145965 0.610241
O O6 0.256105 0.000000 0.913389
O O7 0.164522 0.200287 0.061345
O O8 0.234098 0.382302 0.369237
O O9 0.203428 0.197605 0.467124
O O10 0.347106 0.324546 0.402188
O O11 0.015614 0.333572 0.781736
O O12 0.168946 0.500000 0.300964
O O13 0.264968 0.294974 0.166831
O O14 0.920419 0.650604 0.075845
O O15 0.493142 0.158270 0.172629
O O16 0.321222 0.000000 0.311181
#
# Coordination Sequence:
#
# PCOD9131660 Si02
#       7
#     4   4   4   4   4   4   4
#     4  10  18  32  54  78 100 127 166 212 252 292
#     4  10  20  34  51  71 104 137 167 203 246 295
#     4   8  19  32  50  75  97 131 162 209 252 286
#     4  10  20  33  50  74 102 136 167 199 245 298
#     4  10  18  32  52  78  97 130 162 213 247 294
#     4   9  17  30  49  74  98 126 161 202 252 294
#     4   9  18  31  52  74  96 131 167 204 256 283
#
# _framework density 19.782496999999999
#
# number of rings (size 3 to 8) (size 9 to 14) (size 15 to 20)
#    0.857    1.714    1.429    0.857    0.000    4.000 
#    0.000    2.143    0.000    6.857    0.000    0.000 
#    0.000    0.000    0.000    0.000    0.000    0.000 
#
# Total GULP energy -77945.065581 kJ/mol
# GULP energy per Si atom -5567.504684 kJ/mol
# Density = 1.973747 g / cm^3
# Si number density = 19.782497 Si / 1000 Ang^3
#
#
#
# Elastic Constant Matrix: (Units=GPa)
#
#
# Indices 1 2 3 4 5 6 
#
# 1 17.2936 -6.0082 -1.5303 0.0000 8.0888 0.0000
# 2 -6.0082 64.1558 16.5167 0.0001 -3.7852 0.0000
# 3 -1.5303 16.5167 69.6480 0.0001 7.9014 0.0000
# 4 0.0000 0.0001 0.0001 22.3608 0.0000 -4.0617
# 5 8.0888 -3.7852 7.9014 0.0000 30.6183 0.0000
# 6 0.0000 0.0000 0.0000 -4.0617 0.0000 10.8890
#
#
#
# Elastic Compliance Matrix: (Units=1/GPa)
#
#
# Indices 1 2 3 4 5 6 
#
# 1 0.068107 0.004688 0.002431 0.000000 -0.018041 0.000000
# 2 0.004688 0.017226 -0.004206 0.000000 0.001977 0.000000
# 3 0.002431 -0.004206 0.016009 0.000000 -0.005294 0.000000
# 4 0.000000 0.000000 0.000000 0.047971 0.000000 0.017894
# 5 -0.018041 0.001977 -0.005294 0.000000 0.039037 0.000000
# 6 0.000000 0.000000 0.000000 0.017894 0.000000 0.098510
#
#
# Mechanical properties :
#
#
# Convention : Reuss Voigt Hill
#
# Bulk Modulus (GPa) = 9.33113 18.78376 14.05745
# Shear Modulus (GPa) = 15.78498 22.24824 19.01661
#
# Velocity S-wave (km/s) = 2.82782 3.35721 3.10382
# Velocity P-wave (km/s) = 3.92291 4.95414 4.46838
#
# Compressibility (1/GPa) = 0.10716812
#
# Stress axis : x y z
#
# Youngs Moduli (GPa) = 14.68276 58.05330 62.46346
#
# Poissons Ratio (x) = -0.27215 -0.15187
# Poissons Ratio (y) = -0.06883 0.26273
# Poissons Ratio (z) = -0.03570 0.24418
#
# Static dielectric constant tensor:
#      x y z
#    x 1.771210 0.000000 -0.020970 
#    y 0.000000 1.673620 0.000000 
#    z -0.020970 0.000000 1.733720 
# 
# From -- ./inp_files/29241.got.cif
#   From: 2010.05.17/outbox.cif.g08.bks.cpg/sg8_15_cif.got.tgz:29241.got - 2010.06.03 19:46:02.
