data_PCOD9131643
_publ_section_title
;
Structure prediction by ZEFSAII (Michael W. Deem and Ramdas Pophale) SiO2 
 PCOD9131643
Probable space group: C M
;
_chemical_formula_sum "Si O2"
_cell_formula_units_Z 32
_cell_length_a 20.263407
_cell_length_b 7.978469
_cell_length_c 19.410250
_cell_angle_alpha 90.000000
_cell_angle_beta 156.553258
_cell_angle_gamma 90.000000
_cell_volume 1248.628486
_symmetry_space_group_name_H-M "C M"
_symmetry_group_IT_number 8
_symmetry_cell_setting 'monoclinic'
loop_
_space_group_symop_operation_xyz
x,y,z
x,-y,z
1/2+x,1/2+y,z
1/2+x,1/2-y,z
loop_
_atom_site_type_symbol
_atom_site_label
_atom_site_fract_x
_atom_site_fract_y
_atom_site_fract_z
Si Si1 0.842710 0.194519 0.187860
Si Si2 0.143316 0.706221 0.119556
Si Si3 0.317669 0.694318 0.419300
Si Si4 0.629425 0.809097 0.558523
Si Si5 0.571276 0.697055 0.289990
Si Si6 0.108321 0.306325 0.794776
Si Si7 0.380884 0.196388 0.693610
Si Si8 0.299741 0.198210 0.853064
O O1 0.996097 0.200358 0.389206
O O2 0.916333 0.263979 0.186758
O O3 0.807468 0.000000 0.140041
O O4 0.692818 0.263945 0.090569
O O5 0.141698 0.500000 0.116945
O O6 0.971798 0.766246 0.987844
O O7 0.281620 0.755788 0.308109
O O8 0.370154 0.500000 0.467984
O O9 0.142293 0.707000 0.292264
O O10 0.451827 0.790935 0.592725
O O11 0.806095 0.782947 0.688925
O O12 0.660069 0.764472 0.666914
O O13 0.577027 0.000000 0.500039
O O14 0.546473 0.500000 0.249322
O O15 0.726079 0.703788 0.491907
O O16 0.141937 0.500000 0.839126
O O17 0.037062 0.236331 0.798843
O O18 0.257155 0.236719 0.891291
O O19 0.409523 0.000000 0.737654
O O20 0.303087 0.000000 0.848461
#
# Coordination Sequence:
#
# PCOD9131643 Si02
#       8
#     4   4   4   4   4   4   4   4
#     4   9  17  34  57  77 100 133 173 212 253 304
#     4   9  20  36  53  73  98 134 178 215 248 300
#     4  10  18  31  54  80 104 133 169 209 256 308
#     4  11  21  33  53  82 109 133 170 216 259 306
#     4   8  15  28  49  77 105 131 163 208 256 302
#     4  10  20  35  55  81 108 133 170 216 258 305
#     4   8  16  32  53  76 104 136 169 209 256 305
#     4  11  22  37  54  72 102 143 180 213 256 306
#
# _framework density 25.628119000000002
#
# number of rings (size 3 to 8) (size 9 to 14) (size 15 to 20)
#    0.000    2.500    0.000    4.500    0.000    6.000 
#    0.000    5.625    0.000    4.500    0.000    0.000 
#    0.000    0.000    0.000    0.000    0.000    0.000 
#
# Total GULP energy -89471.330644 kJ/mol
# GULP energy per Si atom -5591.958165 kJ/mol
# Density = 2.556979 g / cm^3
# Si number density = 25.628119 Si / 1000 Ang^3
#
#
#
# Elastic Constant Matrix: (Units=GPa)
#
#
# Indices 1 2 3 4 5 6 
#
# 1 193.4985 0.9401 39.4629 0.0001 10.9181 0.0001
# 2 0.9401 38.7858 2.1976 0.0003 -3.8681 0.0002
# 3 39.4629 2.1976 98.3381 0.0002 7.5107 0.0002
# 4 0.0001 0.0003 0.0002 0.8849 0.0001 10.1296
# 5 10.9181 -3.8681 7.5107 0.0001 58.9147 0.0001
# 6 0.0001 0.0002 0.0002 10.1296 0.0001 31.2321
#
#
#
# Elastic Compliance Matrix: (Units=1/GPa)
#
#
# Indices 1 2 3 4 5 6 
#
# 1 0.005663 -0.000089 -0.002212 0.000000 -0.000773 0.000000
# 2 -0.000089 0.026004 -0.000684 0.000002 0.001811 -0.000001
# 3 -0.002212 -0.000684 0.011152 0.000001 -0.001057 0.000000
# 4 0.000000 0.000002 0.000001 -0.416585 0.000001 0.135112
# 5 -0.000773 0.001811 -0.001057 0.000001 0.017371 0.000000
# 6 0.000000 -0.000001 0.000000 0.135112 0.000000 -0.011803
#
#
# Mechanical properties :
#
#
# Convention : Reuss Voigt Hill
#
# Bulk Modulus (GPa) = 27.13621 46.20262 36.66941
# Shear Modulus (GPa) = -14.28797 37.40780 11.55992
#
# Velocity S-wave (km/s) = -2.36373 3.82467 2.12613
# Velocity P-wave (km/s) = 1.77815 6.12955 4.51293
#
# Compressibility (1/GPa) = 0.03685113
#
# Stress axis : x y z
#
# Youngs Moduli (GPa) = 176.58177 38.45537 89.66619
#
# Poissons Ratio (x) = 0.00343 0.19830
# Poissons Ratio (y) = 0.01573 0.06130
# Poissons Ratio (z) = 0.39052 0.02629
#
# Static dielectric constant tensor:
#      x y z
#    x 2.051630 0.000000 0.066380 
#    y 0.000000 1.920050 0.000000 
#    z 0.066380 0.000000 2.122060 
# 
# From -- ./inp_files/31347.got.cif
#   From: 2010.05.17/outbox.cif.g08.bks.cpg/sg8_16_cif.got.tgz:31347.got - 2010.06.03 19:46:02.
