data_PCOD9131966
_publ_section_title
;
Structure prediction by ZEFSAII (Michael W. Deem and Ramdas Pophale) SiO2 
 PCOD9131966
Probable space group: C M
;
_chemical_formula_sum "Si O2"
_cell_formula_units_Z 28
_cell_length_a 12.210754
_cell_length_b 14.291109
_cell_length_c 7.757024
_cell_angle_alpha 90.000000
_cell_angle_beta 113.044611
_cell_angle_gamma 90.000000
_cell_volume 1245.621058
_symmetry_space_group_name_H-M "C M"
_symmetry_group_IT_number 8
_symmetry_cell_setting 'monoclinic'
loop_
_space_group_symop_operation_xyz
x,y,z
x,-y,z
1/2+x,1/2+y,z
1/2+x,1/2-y,z
loop_
_atom_site_type_symbol
_atom_site_label
_atom_site_fract_x
_atom_site_fract_y
_atom_site_fract_z
Si Si1 0.648770 0.392766 0.151820
Si Si2 0.396655 0.175048 0.178984
Si Si3 0.292978 0.718286 0.652676
Si Si4 0.268069 0.643240 0.967873
Si Si5 0.524641 0.798863 0.932183
Si Si6 0.066541 0.820256 0.468458
Si Si7 0.835151 0.097906 0.386914
O O1 0.612768 0.500000 0.083155
O O2 0.791370 0.383574 0.202395
O O3 0.616254 0.374418 0.331770
O O4 0.580028 0.303548 0.021563
O O5 0.483436 0.232332 0.359683
O O6 0.321550 0.253704 0.030673
O O7 0.481538 0.143024 0.074687
O O8 0.301287 0.629917 0.789346
O O9 0.413388 0.776671 0.741871
O O10 0.179841 0.780104 0.635144
O O11 0.270829 0.682130 0.445075
O O12 0.127850 0.643378 0.905128
O O13 0.321632 0.596992 0.171949
O O14 0.974566 0.886403 0.510568
O O15 0.789880 0.000000 0.425536
#
# Coordination Sequence:
#
# PCOD9131966 Si02
#       7
#     4   4   4   4   4   4   4
#     4  10  19  33  58  88 116 147 187 239 292 335
#     4   8  16  32  54  81 111 147 190 227 273 334
#     4  11  21  35  61  87 113 151 195 232 277 341
#     4   9  19  36  58  81 111 153 194 231 274 335
#     4   9  18  35  57  82 113 151 193 236 277 333
#     4  10  19  35  56  81 114 151 190 230 274 337
#     4  11  23  38  59  88 118 146 185 241 292 333
#
# _framework density 22.478746999999998
#
# number of rings (size 3 to 8) (size 9 to 14) (size 15 to 20)
#    0.000    2.286    0.000    5.571    0.000    1.143 
#    0.000    2.857    0.000    6.857    0.000    0.000 
#    0.000    0.000    0.000    0.000    0.000    0.000 
#
# Total GULP energy -77946.050532 kJ/mol
# GULP energy per Si atom -5567.575038 kJ/mol
# Density = 2.242758 g / cm^3
# Si number density = 22.478747 Si / 1000 Ang^3
#
#
#
# Elastic Constant Matrix: (Units=GPa)
#
#
# Indices 1 2 3 4 5 6 
#
# 1 106.6878 1.6522 8.0209 0.0000 14.1787 0.0000
# 2 1.6522 39.9843 4.2014 0.0000 3.2424 0.0000
# 3 8.0209 4.2014 65.0459 0.0000 13.8486 0.0000
# 4 0.0000 0.0000 0.0000 -5.3917 0.0000 -4.8548
# 5 14.1787 3.2424 13.8486 0.0000 45.0939 0.0000
# 6 0.0000 0.0000 0.0000 -4.8548 0.0000 8.0256
#
#
#
# Elastic Compliance Matrix: (Units=1/GPa)
#
#
# Indices 1 2 3 4 5 6 
#
# 1 0.009804 -0.000109 -0.000586 0.000000 -0.002895 0.000000
# 2 -0.000109 0.025265 -0.001326 0.000000 -0.001375 0.000000
# 3 -0.000586 -0.001326 0.016555 0.000000 -0.004805 0.000000
# 4 0.000000 0.000000 0.000000 -0.120070 0.000000 -0.072632
# 5 -0.002895 -0.001375 -0.004805 0.000000 0.024661 0.000000
# 6 0.000000 0.000000 0.000000 -0.072632 0.000000 0.080664
#
#
# Mechanical properties :
#
#
# Convention : Reuss Voigt Hill
#
# Bulk Modulus (GPa) = 21.01584 26.60745 23.81165
# Shear Modulus (GPa) = 88.06014 22.73513 55.39764
#
# Velocity S-wave (km/s) = 6.26577 3.18371 4.96970
# Velocity P-wave (km/s) = 7.85595 5.03757 6.59898
#
# Compressibility (1/GPa) = 0.04758315
#
# Stress axis : x y z
#
# Youngs Moduli (GPa) = 102.00369 39.58020 60.40649
#
# Poissons Ratio (x) = 0.00431 0.03537
# Poissons Ratio (y) = 0.01110 0.08008
# Poissons Ratio (z) = 0.05973 0.05247
#
# Static dielectric constant tensor:
#      x y z
#    x 1.917550 0.000000 -0.074000 
#    y 0.000000 1.858720 0.000000 
#    z -0.074000 0.000000 1.927660 
# 
# From -- ./inp_files/10598.got.cif
#   From: 2010.05.17/outbox.cif.g08.bks.cpg/sg8_6_cif.got.tgz:10598.got - 2010.06.03 19:46:02.
