data_PCOD9131232
_publ_section_title
;
Structure prediction by ZEFSAII (Michael W. Deem and Ramdas Pophale) SiO2 
 PCOD9131232
Probable space group: P C
;
_chemical_formula_sum "Si O2"
_cell_formula_units_Z 16
_cell_length_a 12.824649
_cell_length_b 10.342086
_cell_length_c 5.544934
_cell_angle_alpha 90.000000
_cell_angle_beta 90.208605
_cell_angle_gamma 90.000000
_cell_volume 735.439811
_symmetry_space_group_name_H-M "P C"
_symmetry_group_IT_number 7
_symmetry_cell_setting 'monoclinic'
loop_
_space_group_symop_operation_xyz
x,y,z
x,-y,1/2+z
loop_
_atom_site_type_symbol
_atom_site_label
_atom_site_fract_x
_atom_site_fract_y
_atom_site_fract_z
Si Si1 0.908440 0.771805 0.147560
Si Si2 0.754089 0.499505 0.939899
Si Si3 0.413411 0.419228 0.050914
Si Si4 0.605394 0.247026 0.978594
Si Si5 0.172297 0.425210 0.019624
Si Si6 0.078660 0.008046 0.683676
Si Si7 0.973916 0.262449 0.148232
Si Si8 0.683319 0.793144 0.979042
O O1 0.896198 0.720569 0.421502
O O2 0.799954 0.834536 0.059046
O O3 0.939433 0.689167 0.911695
O O4 0.007277 0.865500 0.180483
O O5 0.813566 0.503081 0.190426
O O6 0.674616 0.379162 0.950298
O O7 0.691440 0.635861 0.948130
O O8 0.431282 0.496073 0.304789
O O9 0.490957 0.298891 0.038185
O O10 0.291814 0.380089 0.044520
O O11 0.648719 0.167246 0.209811
O O12 0.613682 0.181711 0.715026
O O13 0.159356 0.525394 0.244216
O O14 0.083371 0.322487 0.072930
O O15 0.995839 0.890269 0.682714
O O16 0.139470 0.000559 0.433952
#
# Coordination Sequence:
#
# PCOD9131232 Si02
#       8
#     2   2   2   2   2   2   2   2
#     4  10  19  32  50  73  99 128 165 207 255 300
#     4   8  14  23  34  49  76 111 149 179 208 254
#     4  10  18  30  49  67  89 128 172 212 246 285
#     4  10  17  28  43  62  91 128 165 198 234 282
#     4  10  21  35  50  72 100 133 172 207 250 304
#     4   8  16  30  51  72  91 117 160 210 250 291
#     4  10  19  35  52  69 100 131 166 212 251 297
#     4  10  18  27  41  64  94 122 153 199 240 281
#
# _framework density 21.755690999999999
#
# number of rings (size 3 to 8) (size 9 to 14) (size 15 to 20)
#    0.000    2.500    0.000    4.500    0.000    0.000 
#    0.000   11.250    0.000    0.000    0.000    0.000 
#    0.000   54.000    0.000    0.000    0.000    0.000 
#
# Total GULP energy -89118.061083 kJ/mol
# GULP energy per Si atom -5569.878818 kJ/mol
# Density = 2.170617 g / cm^3
# Si number density = 21.755691 Si / 1000 Ang^3
#
#
#
# Elastic Constant Matrix: (Units=GPa)
#
#
# Indices 1 2 3 4 5 6 
#
# 1 55.7588 5.9993 12.1753 0.0000 -11.0104 0.0000
# 2 5.9993 15.1324 5.1489 0.0000 1.1756 0.0000
# 3 12.1753 5.1489 220.5109 0.0000 -13.3339 0.0000
# 4 0.0000 0.0000 0.0000 13.1044 0.0000 -0.1414
# 5 -11.0104 1.1756 -13.3339 0.0000 28.5336 0.0000
# 6 0.0000 0.0000 0.0000 -0.1414 0.0000 -5.4138
#
#
#
# Elastic Compliance Matrix: (Units=1/GPa)
#
#
# Indices 1 2 3 4 5 6 
#
# 1 0.020555 -0.008625 -0.000445 0.000000 0.008079 0.000000
# 2 -0.008625 0.070588 -0.001594 0.000000 -0.006981 0.000000
# 3 -0.000445 -0.001594 0.004724 0.000000 0.002101 0.000000
# 4 0.000000 0.000000 0.000000 0.076289 0.000000 -0.001993
# 5 0.008079 -0.006981 0.002101 0.000000 0.039434 0.000000
# 6 0.000000 0.000000 0.000000 -0.001993 0.000000 -0.184660
#
#
# Mechanical properties :
#
#
# Convention : Reuss Voigt Hill
#
# Bulk Modulus (GPa) = 13.41608 37.56102 25.48855
# Shear Modulus (GPa) = 68.39640 25.11675 46.75657
#
# Velocity S-wave (km/s) = 5.61308 3.40147 4.64094
# Velocity P-wave (km/s) = 6.94183 5.72093 6.36074
#
# Compressibility (1/GPa) = 0.07453739
#
# Stress axis : x y z
#
# Youngs Moduli (GPa) = 48.65014 14.16681 211.69467
#
# Poissons Ratio (x) = 0.12219 0.09420
# Poissons Ratio (y) = 0.41962 0.33747
# Poissons Ratio (z) = 0.02165 0.02258
#
# Static dielectric constant tensor:
#      x y z
#    x 1.736980 0.000000 -0.002970 
#    y 0.000000 1.887450 0.000000 
#    z -0.002970 0.000000 1.955740 
# 
# From -- ./inp_files/1076.got.cif
#   From: 2010.05.17/outbox.cif.g08.bks.cpg/sg7_cif.got.tgz:1076.got - 2010.06.03 19:44:50.
