data_PCOD9131253
_publ_section_title
;
Structure prediction by ZEFSAII (Michael W. Deem and Ramdas Pophale) SiO2 
 PCOD9131253
Probable space group: P C
;
_chemical_formula_sum "Si O2"
_cell_formula_units_Z 16
_cell_length_a 7.462709
_cell_length_b 16.917014
_cell_length_c 5.492935
_cell_angle_alpha 90.000000
_cell_angle_beta 66.705050
_cell_angle_gamma 90.000000
_cell_volume 636.934783
_symmetry_space_group_name_H-M "P C"
_symmetry_group_IT_number 7
_symmetry_cell_setting 'monoclinic'
loop_
_space_group_symop_operation_xyz
x,y,z
x,-y,1/2+z
loop_
_atom_site_type_symbol
_atom_site_label
_atom_site_fract_x
_atom_site_fract_y
_atom_site_fract_z
Si Si1 0.652100 0.712587 0.600640
Si Si2 0.133859 0.515341 0.567313
Si Si3 0.427468 0.199024 0.553434
Si Si4 0.275013 0.693060 0.485091
Si Si5 0.567658 0.455569 0.333851
Si Si6 0.430477 0.960747 0.325919
Si Si7 0.962842 0.033143 0.072051
Si Si8 0.007265 0.201090 0.843671
O O1 0.438552 0.707627 0.595495
O O2 0.671651 0.627155 0.714288
O O3 0.840672 0.738715 0.342667
O O4 0.614568 0.788791 0.790660
O O5 0.026463 0.502280 0.373632
O O6 0.200187 0.605536 0.538539
O O7 0.327419 0.459186 0.458916
O O8 0.399726 0.286783 0.677912
O O9 0.461506 0.130471 0.733072
O O10 0.204691 0.184674 0.577742
O O11 0.099983 0.754841 0.533400
O O12 0.610775 0.486476 0.581781
O O13 0.197621 0.973306 0.463957
O O14 0.499634 0.986582 0.556961
O O15 0.897675 0.026871 0.390034
O O16 0.929092 0.116749 0.961347
#
# Coordination Sequence:
#
# PCOD9131253 Si02
#       8
#     2   2   2   2   2   2   2   2
#     4  12  22  42  71  89 139 181 213 293 348 387
#     4  10  18  34  62  87 123 175 215 261 335 398
#     4   9  22  40  62  92 130 167 217 272 336 392
#     4  10  22  40  63  93 131 169 218 279 332 393
#     4  10  20  37  65  92 126 181 225 265 344 412
#     4   9  18  33  60  89 123 170 216 264 327 401
#     4   9  18  39  66  89 132 182 214 275 345 398
#     4   9  24  43  61 109 126 167 244 269 331 429
#
# _framework density 25.120312999999999
#
# number of rings (size 3 to 8) (size 9 to 14) (size 15 to 20)
#    0.750    1.500    2.500    1.500    1.750    2.000 
#    4.500    2.500    0.000    0.000    0.000    0.000 
#    0.000    0.000    0.000    0.000    0.000    0.000 
#
# Total GULP energy -89111.519652 kJ/mol
# GULP energy per Si atom -5569.469978 kJ/mol
# Density = 2.506314 g / cm^3
# Si number density = 25.120313 Si / 1000 Ang^3
#
#
#
# Elastic Constant Matrix: (Units=GPa)
#
#
# Indices 1 2 3 4 5 6 
#
# 1 37.7138 0.5520 29.9299 0.0000 -33.9463 0.0000
# 2 0.5520 67.6550 -1.3950 0.0000 -10.2208 0.0000
# 3 29.9299 -1.3950 58.4000 0.0000 26.0989 0.0000
# 4 0.0000 0.0000 0.0000 13.2823 0.0000 1.3840
# 5 -33.9463 -10.2208 26.0989 0.0000 15.5001 0.0000
# 6 0.0000 0.0000 0.0000 1.3840 0.0000 25.3217
#
#
#
# Elastic Compliance Matrix: (Units=1/GPa)
#
#
# Indices 1 2 3 4 5 6 
#
# 1 -0.001142 -0.003066 0.010234 0.000000 -0.021754 0.000000
# 2 -0.003066 0.014696 0.002394 0.000000 -0.001056 0.000000
# 3 0.010234 0.002394 0.004905 0.000000 0.015733 0.000000
# 4 0.000000 0.000000 0.000000 0.075719 0.000000 -0.004139
# 5 -0.021754 -0.001056 0.015733 0.000000 -0.010314 0.000000
# 6 0.000000 0.000000 0.000000 -0.004139 0.000000 0.039718
#
#
# Mechanical properties :
#
#
# Convention : Reuss Voigt Hill
#
# Bulk Modulus (GPa) = 26.60797 24.66028 25.63412
# Shear Modulus (GPa) = 42.74033 19.79961 31.26997
#
# Velocity S-wave (km/s) = 4.12931 2.81052 3.53201
# Velocity P-wave (km/s) = 5.77496 4.51334 5.18268
#
# Compressibility (1/GPa) = 0.03758273
#
# Stress axis : x y z
#
# Youngs Moduli (GPa) = -875.80889 68.04716 203.88298
#
# Poissons Ratio (x) = 0.20864 -2.08647
# Poissons Ratio (y) = -2.68529 -0.48818
# Poissons Ratio (z) = 8.96274 -0.16293
#
# Static dielectric constant tensor:
#      x y z
#    x 2.044440 0.000000 0.039650 
#    y 0.000000 1.948070 0.000000 
#    z 0.039650 0.000000 2.078910 
# 
# From -- ./inp_files/844.got.cif
#   From: 2010.05.17/outbox.cif.g08.bks.cpg/sg7_cif.got.tgz:844.got - 2010.06.03 19:44:50.
