data_PCOD9131889
_publ_section_title
;
Structure prediction by ZEFSAII (Michael W. Deem and Ramdas Pophale) SiO2 
 PCOD9131889
Probable space group: C M
;
_chemical_formula_sum "Si O2"
_cell_formula_units_Z 32
_cell_length_a 24.932456
_cell_length_b 7.466329
_cell_length_c 15.934501
_cell_angle_alpha 90.000000
_cell_angle_beta 28.063574
_cell_angle_gamma 90.000000
_cell_volume 1395.484513
_symmetry_space_group_name_H-M "C M"
_symmetry_group_IT_number 8
_symmetry_cell_setting 'monoclinic'
loop_
_space_group_symop_operation_xyz
x,y,z
x,-y,z
1/2+x,1/2+y,z
1/2+x,1/2-y,z
loop_
_atom_site_type_symbol
_atom_site_label
_atom_site_fract_x
_atom_site_fract_y
_atom_site_fract_z
Si Si1 0.712600 0.208623 0.414310
Si Si2 0.428471 0.703180 0.205762
Si Si3 0.855540 0.703303 0.486249
Si Si4 0.684309 0.719015 0.868533
Si Si5 0.374799 0.217556 0.728600
Si Si6 0.249088 0.782871 0.174487
Si Si7 0.465491 0.218811 0.785122
Si Si8 0.049179 0.205063 0.340054
O O1 0.832004 0.289032 0.280239
O O2 0.705559 0.217482 0.323728
O O3 0.594757 0.284413 0.612898
O O4 0.715858 0.000000 0.435404
O O5 0.447525 0.500000 0.148710
O O6 0.373768 0.699336 0.373855
O O7 0.554915 0.783421 0.038955
O O8 0.823101 0.500000 0.511050
O O9 0.762535 0.774437 0.681111
O O10 0.975943 0.703808 0.369139
O O11 0.683924 0.500000 0.870046
O O12 0.752413 0.771579 0.859063
O O13 0.409560 0.273338 0.773585
O O14 0.468184 0.287449 0.533866
O O15 0.379524 0.000000 0.719749
O O16 0.168428 0.722130 0.209366
O O17 0.242425 0.000000 0.184468
O O18 0.378411 0.728190 0.977897
O O19 0.469013 0.000000 0.779045
O O20 0.066600 0.000000 0.288541
#
# Coordination Sequence:
#
# PCOD9131889 Si02
#       8
#     4   4   4   4   4   4   4   4
#     4  10  21  38  57  78 109 144 180 226 269 311
#     4  10  21  37  58  81 106 142 185 224 264 314
#     4  10  21  37  56  80 109 145 180 217 268 324
#     4   8  17  33  54  78 106 142 178 211 263 327
#     4   9  16  31  56  77 106 146 179 214 263 326
#     4  10  21  35  55  81 108 144 183 219 266 324
#     4   9  18  33  54  79 107 143 181 214 267 329
#     4  10  19  32  54  82 113 140 174 225 272 313
#
# _framework density 22.931104000000001
#
# number of rings (size 3 to 8) (size 9 to 14) (size 15 to 20)
#    0.000    2.500    1.250    1.500    1.750    2.000 
#    0.000    4.375    0.000    0.000    0.000    0.000 
#    0.000    0.000    0.000    0.000    0.000    0.000 
#
# Total GULP energy -89337.518537 kJ/mol
# GULP energy per Si atom -5583.594909 kJ/mol
# Density = 2.287891 g / cm^3
# Si number density = 22.931104 Si / 1000 Ang^3
#
#
#
# Elastic Constant Matrix: (Units=GPa)
#
#
# Indices 1 2 3 4 5 6 
#
# 1 68.6697 -0.0759 23.6152 -0.0010 -31.4713 0.0003
# 2 -0.0759 67.2225 -0.3414 -0.0049 -6.7777 0.0026
# 3 23.6152 -0.3414 96.4624 -0.0026 -39.1146 0.0010
# 4 -0.0010 -0.0049 -0.0026 11.5655 0.0013 6.9952
# 5 -31.4713 -6.7777 -39.1146 0.0013 42.2291 -0.0002
# 6 0.0003 0.0026 0.0010 6.9952 -0.0002 7.4662
#
#
#
# Elastic Compliance Matrix: (Units=1/GPa)
#
#
# Indices 1 2 3 4 5 6 
#
# 1 0.022622 0.001984 0.002297 0.000005 0.019305 -0.000006
# 2 0.001984 0.015463 0.001882 0.000023 0.005703 -0.000027
# 3 0.002297 0.001882 0.017020 0.000010 0.017779 -0.000012
# 4 0.000005 0.000023 0.000010 0.199542 0.000009 -0.186956
# 5 0.019305 0.005703 0.017779 0.000009 0.055450 -0.000012
# 6 -0.000006 -0.000027 -0.000012 -0.186956 -0.000012 0.309100
#
#
# Mechanical properties :
#
#
# Convention : Reuss Voigt Hill
#
# Bulk Modulus (GPa) = 14.83035 30.97227 22.90131
# Shear Modulus (GPa) = 7.94471 26.19594 17.07032
#
# Velocity S-wave (km/s) = 1.86336 3.38357 2.73136
# Velocity P-wave (km/s) = 3.33330 5.36663 4.46719
#
# Compressibility (1/GPa) = 0.06742928
#
# Stress axis : x y z
#
# Youngs Moduli (GPa) = 44.20417 64.67151 58.75394
#
# Poissons Ratio (x) = -0.12829 -0.13495
# Poissons Ratio (y) = -0.08769 -0.11055
# Poissons Ratio (z) = -0.10153 -0.12168
#
# Static dielectric constant tensor:
#      x y z
#    x 1.825050 0.000000 -0.042890 
#    y 0.000000 1.882200 0.000000 
#    z -0.042890 0.000000 1.849570 
# 
# From -- ./inp_files/24826.got.cif
#   From: 2010.05.17/outbox.cif.g08.bks.cpg/sg8_13_cif.got.tgz:24826.got - 2010.06.03 19:46:02.
