data_PCOD9131287
_publ_section_title
;
Structure prediction by ZEFSAII (Michael W. Deem and Ramdas Pophale) SiO2 
 PCOD9131287
Probable space group: P C
;
_chemical_formula_sum "Si O2"
_cell_formula_units_Z 16
_cell_length_a 9.670849
_cell_length_b 16.423344
_cell_length_c 5.435581
_cell_angle_alpha 90.000000
_cell_angle_beta 52.948861
_cell_angle_gamma 90.000000
_cell_volume 689.014579
_symmetry_space_group_name_H-M "P C"
_symmetry_group_IT_number 7
_symmetry_cell_setting 'monoclinic'
loop_
_space_group_symop_operation_xyz
x,y,z
x,-y,1/2+z
loop_
_atom_site_type_symbol
_atom_site_label
_atom_site_fract_x
_atom_site_fract_y
_atom_site_fract_z
Si Si1 0.515340 0.320232 0.099360
Si Si2 0.677605 0.498108 0.885779
Si Si3 0.777729 0.051895 0.625536
Si Si4 0.073883 0.180017 0.396091
Si Si5 0.392421 0.641444 0.225705
Si Si6 0.026994 0.650667 0.729052
Si Si7 0.885624 0.303593 0.878539
Si Si8 0.376761 0.947542 0.574831
O O1 0.567472 0.415359 0.014287
O O2 0.382716 0.315774 0.468483
O O3 0.452157 0.302061 0.891891
O O4 0.690316 0.279321 0.013605
O O5 0.781591 0.501983 0.024252
O O6 0.538160 0.571395 0.040221
O O7 0.577466 0.079687 0.852374
O O8 0.803412 0.998957 0.846620
O O9 0.915943 0.123534 0.480561
O O10 0.008114 0.225213 0.714747
O O11 0.090452 0.255113 0.191671
O O12 0.243809 0.126495 0.236082
O O13 0.205110 0.604059 0.489589
O O14 0.902740 0.655047 0.625417
O O15 0.944219 0.639150 0.086474
O O16 0.349281 0.996840 0.348303
#
# Coordination Sequence:
#
# PCOD9131287 Si02
#       8
#     2   2   2   2   2   2   2   2
#     4  10  19  36  61  84 114 152 200 247 296 358
#     4   8  16  30  56  82 104 142 196 240 290 354
#     4  10  22  39  61  88 117 152 199 249 293 353
#     4  10  24  38  62  84 122 158 200 238 312 354
#     4  10  19  36  61  84 114 152 200 247 296 358
#     4  10  23  38  55  86 122 158 193 245 304 364
#     4  10  23  38  55  86 122 158 193 245 304 364
#     4  10  22  39  61  88 117 152 199 249 293 353
#
# _framework density 23.221568000000001
#
# number of rings (size 3 to 8) (size 9 to 14) (size 15 to 20)
#    0.750    1.500    0.000    2.250    3.500    1.000 
#    0.000    0.000    0.000   40.500    0.000    0.000 
#    0.000    0.000    0.000    0.000    0.000    0.000 
#
# Total GULP energy -89248.566952 kJ/mol
# GULP energy per Si atom -5578.035434 kJ/mol
# Density = 2.316871 g / cm^3
# Si number density = 23.221568 Si / 1000 Ang^3
#
#
#
# Elastic Constant Matrix: (Units=GPa)
#
#
# Indices 1 2 3 4 5 6 
#
# 1 74.5906 36.9567 26.4692 0.0000 17.3538 0.0000
# 2 36.9567 60.6809 14.2230 0.0000 -3.8044 0.0000
# 3 26.4692 14.2230 89.2277 0.0000 32.3150 0.0000
# 4 0.0000 0.0000 0.0000 26.8679 0.0000 -10.8440
# 5 17.3538 -3.8044 32.3150 0.0000 50.4155 0.0000
# 6 0.0000 0.0000 0.0000 -10.8440 0.0000 -0.1286
#
#
#
# Elastic Compliance Matrix: (Units=1/GPa)
#
#
# Indices 1 2 3 4 5 6 
#
# 1 0.022721 -0.013927 -0.001702 0.000000 -0.007781 0.000000
# 2 -0.013927 0.026285 -0.003273 0.000000 0.008875 0.000000
# 3 -0.001702 -0.003273 0.015773 0.000000 -0.009771 0.000000
# 4 0.000000 0.000000 0.000000 0.001062 0.000000 -0.089585
# 5 -0.007781 0.008875 -0.009771 0.000000 0.029446 0.000000
# 6 0.000000 0.000000 0.000000 -0.089585 0.000000 -0.221962
#
#
# Mechanical properties :
#
#
# Convention : Reuss Voigt Hill
#
# Bulk Modulus (GPa) = 37.07127 42.19969 39.63548
# Shear Modulus (GPa) = -62.59314 25.22100 -18.68607
#
# Velocity S-wave (km/s) = -5.19743 3.29918 -2.83978
# Velocity P-wave (km/s) = 4.47425 5.72057 2.52052
#
# Compressibility (1/GPa) = 0.02697507
#
# Stress axis : x y z
#
# Youngs Moduli (GPa) = 44.01241 38.04464 63.40122
#
# Poissons Ratio (x) = 0.52983 0.10793
# Poissons Ratio (y) = 0.61294 0.20750
# Poissons Ratio (z) = 0.07492 0.12451
#
# Static dielectric constant tensor:
#      x y z
#    x 1.916920 0.000000 0.040540 
#    y 0.000000 1.904120 0.000000 
#    z 0.040540 0.000000 1.924630 
# 
# From -- ./inp_files/928.got.cif
#   From: 2010.05.17/outbox.cif.g08.bks.cpg/sg7_cif.got.tgz:928.got - 2010.06.03 19:44:50.
