data_PCOD9131021
_publ_section_title
;
Structure prediction by ZEFSAII (Michael W. Deem and Ramdas Pophale) SiO2 
 PCOD9131021
Probable space group: P M
;
_chemical_formula_sum "Si O2"
_cell_formula_units_Z 16
_cell_length_a 10.383485
_cell_length_b 12.506650
_cell_length_c 10.174024
_cell_angle_alpha 90.000000
_cell_angle_beta 37.599165
_cell_angle_gamma 90.000000
_cell_volume 806.123995
_symmetry_space_group_name_H-M "P M"
_symmetry_group_IT_number 6
_symmetry_cell_setting 'monoclinic'
loop_
_space_group_symop_operation_xyz
x,y,z
x,-y,z
loop_
_atom_site_type_symbol
_atom_site_label
_atom_site_fract_x
_atom_site_fract_y
_atom_site_fract_z
Si Si1 0.185900 0.622280 0.652900
Si Si2 0.710650 0.792123 0.574685
Si Si3 0.316679 0.313337 0.263773
Si Si4 0.928726 0.378976 0.247460
Si Si5 0.590849 0.242544 0.396035
Si Si6 0.774495 0.239828 0.978298
Si Si7 0.993748 0.878979 0.563242
Si Si8 0.376748 0.618423 0.927551
O O1 0.206873 0.500000 0.684082
O O2 0.231643 0.623314 0.458874
O O3 0.359768 0.707059 0.566070
O O4 0.953403 0.670927 0.860792
O O5 0.623434 0.827527 0.501845
O O6 0.814134 0.870203 0.595091
O O7 0.893819 0.708007 0.388583
O O8 0.531111 0.716342 0.779446
O O9 0.300389 0.374347 0.139572
O O10 0.183136 0.202768 0.375909
O O11 0.565276 0.290280 0.083030
O O12 0.901608 0.500000 0.312358
O O13 0.168485 0.368839 0.006147
O O14 0.744177 0.344749 0.298428
O O15 0.684140 0.192073 0.188004
O O16 0.884436 0.159572 0.787005
O O17 0.069976 0.000000 0.511538
O O18 0.467536 0.500000 0.829874
#
# Coordination Sequence:
#
# PCOD9131021 Si02
#       8
#     2   2   2   2   2   2   2   2
#     4  10  21  34  55  87 125 168 207 238 285 358
#     4  10  21  38  57  88 124 152 199 251 293 354
#     4  10  20  40  55  86 123 155 202 259 300 354
#     4   9  19  33  54  84 121 163 198 232 287 355
#     4   9  21  36  57  83 127 163 193 245 295 351
#     4  10  22  40  59  85 121 157 199 253 303 358
#     4  11  23  43  69  89 110 153 208 266 322 358
#     4  11  20  32  57  88 125 167 197 232 298 364
#
# _framework density 19.848063
#
# number of rings (size 3 to 8) (size 9 to 14) (size 15 to 20)
#    0.750    1.250    2.500    1.125    1.750    3.500 
#    0.000    0.625    0.000    3.000    0.000    0.000 
#    0.000    0.000    0.000    0.000    0.000    0.000 
#
# Total GULP energy -89099.051127 kJ/mol
# GULP energy per Si atom -5568.690695 kJ/mol
# Density = 1.980289 g / cm^3
# Si number density = 19.848063 Si / 1000 Ang^3
#
#
#
# Elastic Constant Matrix: (Units=GPa)
#
#
# Indices 1 2 3 4 5 6 
#
# 1 82.8553 6.8938 33.4539 0.0000 -6.4589 0.0000
# 2 6.8938 64.3026 17.4933 0.0000 -5.9031 0.0000
# 3 33.4539 17.4933 88.7782 0.0000 -9.3697 0.0000
# 4 0.0000 0.0000 0.0000 12.9137 0.0000 -4.6275
# 5 -6.4589 -5.9031 -9.3697 0.0000 42.0777 0.0000
# 6 0.0000 0.0000 0.0000 -4.6275 0.0000 13.3391
#
#
#
# Elastic Compliance Matrix: (Units=1/GPa)
#
#
# Indices 1 2 3 4 5 6 
#
# 1 0.014277 -0.000003 -0.005272 0.000000 0.001017 0.000000
# 2 -0.000003 0.016541 -0.003086 0.000000 0.001633 0.000000
# 3 -0.005272 -0.003086 0.014058 0.000000 0.001888 0.000000
# 4 0.000000 0.000000 0.000000 0.088430 0.000000 0.030678
# 5 0.001017 0.001633 0.001888 0.000000 0.024571 0.000000
# 6 0.000000 0.000000 0.000000 0.030678 0.000000 0.085610
#
#
# Mechanical properties :
#
#
# Convention : Reuss Voigt Hill
#
# Bulk Modulus (GPa) = 35.51816 39.06867 37.29341
# Shear Modulus (GPa) = 18.54635 25.53911 22.04273
#
# Velocity S-wave (km/s) = 3.06014 3.59099 3.33614
# Velocity P-wave (km/s) = 5.51541 6.07620 5.80259
#
# Compressibility (1/GPa) = 0.02815461
#
# Stress axis : x y z
#
# Youngs Moduli (GPa) = 70.04034 60.45507 71.13355
#
# Poissons Ratio (x) = 0.00018 0.37503
# Poissons Ratio (y) = 0.00021 0.21951
# Poissons Ratio (z) = 0.36927 0.18656
#
# Static dielectric constant tensor:
#      x y z
#    x 1.766590 0.000000 0.034350 
#    y 0.000000 1.610310 0.000000 
#    z 0.034350 0.000000 1.721330 
# 
# From -- ./inp_files/5167.got.cif
#   From: 2010.05.17/outbox.cif.g08.bks.cpg/sg6_3_cif.got.tgz:5167.got - 2010.06.03 19:42:10.
