data_PCOD9131251
_publ_section_title
;
Structure prediction by ZEFSAII (Michael W. Deem and Ramdas Pophale) SiO2 
 PCOD9131251
Probable space group: P C
;
_chemical_formula_sum "Si O2"
_cell_formula_units_Z 14
_cell_length_a 8.024064
_cell_length_b 13.960396
_cell_length_c 5.495824
_cell_angle_alpha 90.000000
_cell_angle_beta 57.665446
_cell_angle_gamma 90.000000
_cell_volume 520.176240
_symmetry_space_group_name_H-M "P C"
_symmetry_group_IT_number 7
_symmetry_cell_setting 'monoclinic'
loop_
_space_group_symop_operation_xyz
x,y,z
x,-y,1/2+z
loop_
_atom_site_type_symbol
_atom_site_label
_atom_site_fract_x
_atom_site_fract_y
_atom_site_fract_z
Si Si1 0.858760 0.109439 0.687490
Si Si2 0.192670 0.163963 0.137119
Si Si3 0.911720 0.265331 0.034332
Si Si4 0.550783 0.234792 0.620409
Si Si5 0.031054 0.522077 0.337115
Si Si6 0.589661 0.448930 0.695452
Si Si7 0.469103 0.051597 0.174038
O O1 0.954999 0.182559 0.806140
O O2 0.697221 0.166599 0.655683
O O3 0.708127 0.048361 0.972756
O O4 0.033363 0.084256 0.360593
O O5 0.343599 0.180007 0.792564
O O6 0.357218 0.152519 0.220294
O O7 0.038490 0.247060 0.181417
O O8 0.963793 0.368106 0.889919
O O9 0.679637 0.256275 0.279710
O O10 0.526125 0.338792 0.759841
O O11 0.138661 0.502631 0.505381
O O12 0.831429 0.457270 0.499308
O O13 0.532848 0.493053 0.479780
O O14 0.408783 0.997010 0.971934
#
# Coordination Sequence:
#
# PCOD9131251 Si02
#       7
#     2   2   2   2   2   2   2
#     4  10  24  43  71 100 134 181 229 276 349 421
#     4  10  26  44  67 107 138 179 226 284 350 416
#     4  11  22  40  71  95 140 187 235 289 344 412
#     4  10  21  40  64  93 136 185 234 284 346 408
#     4  10  19  34  61  93 130 183 238 288 339 382
#     4  10  18  33  59  89 125 180 238 286 335 384
#     4  11  28  50  77 105 141 179 222 281 351 427
#
# _framework density 26.913954
#
# number of rings (size 3 to 8) (size 9 to 14) (size 15 to 20)
#    0.000    1.714    2.857    1.714   10.000    2.286 
#    0.000    1.429    0.000    0.000    0.000    0.000 
#    0.000    0.000    0.000    0.000    0.000    0.000 
#
# Total GULP energy -78090.104930 kJ/mol
# GULP energy per Si atom -5577.864638 kJ/mol
# Density = 2.685270 g / cm^3
# Si number density = 26.913954 Si / 1000 Ang^3
#
#
#
# Elastic Constant Matrix: (Units=GPa)
#
#
# Indices 1 2 3 4 5 6 
#
# 1 112.4442 37.1578 63.0802 0.0000 -10.5834 0.0000
# 2 37.1578 97.3283 35.9285 0.0000 10.2849 0.0000
# 3 63.0802 35.9285 167.5315 0.0000 -13.7756 0.0000
# 4 0.0000 0.0000 0.0000 21.6265 0.0000 16.3139
# 5 -10.5834 10.2849 -13.7756 0.0000 64.7707 0.0000
# 6 0.0000 0.0000 0.0000 16.3139 0.0000 25.0340
#
#
#
# Elastic Compliance Matrix: (Units=1/GPa)
#
#
# Indices 1 2 3 4 5 6 
#
# 1 0.012318 -0.003510 -0.003739 0.000000 0.001775 0.000000
# 2 -0.003510 0.012512 -0.001600 0.000000 -0.002901 0.000000
# 3 -0.003739 -0.001600 0.007828 0.000000 0.001308 0.000000
# 4 0.000000 0.000000 0.000000 0.090949 0.000000 -0.059268
# 5 0.001775 -0.002901 0.001308 0.000000 0.016468 0.000000
# 6 0.000000 0.000000 0.000000 -0.059268 0.000000 0.078569
#
#
# Mechanical properties :
#
#
# Convention : Reuss Voigt Hill
#
# Bulk Modulus (GPa) = 66.85163 72.18189 69.51676
# Shear Modulus (GPa) = 20.71869 38.36209 29.54039
#
# Velocity S-wave (km/s) = 2.77756 3.77949 3.31658
# Velocity P-wave (km/s) = 5.93122 6.77671 6.36801
#
# Compressibility (1/GPa) = 0.01495850
#
# Stress axis : x y z
#
# Youngs Moduli (GPa) = 81.18227 79.92514 127.75106
#
# Poissons Ratio (x) = 0.28053 0.47771
# Poissons Ratio (y) = 0.28494 0.20442
# Poissons Ratio (z) = 0.30357 0.12789
#
# Static dielectric constant tensor:
#      x y z
#    x 2.080860 0.000000 -0.008000 
#    y 0.000000 2.106890 0.000000 
#    z -0.008000 0.000000 2.189260 
# 
# From -- ./inp_files/599.got.cif
#   From: 2010.05.17/outbox.cif.g08.bks.cpg/sg7_cif.got.tgz:599.got - 2010.06.03 19:44:50.
