data_PCOD9131737
_publ_section_title
;
Structure prediction by ZEFSAII (Michael W. Deem and Ramdas Pophale) SiO2 
 PCOD9131737
Probable space group: C M
;
_chemical_formula_sum "Si O2"
_cell_formula_units_Z 32
_cell_length_a 21.131750
_cell_length_b 8.738118
_cell_length_c 26.049323
_cell_angle_alpha 90.000000
_cell_angle_beta 157.576123
_cell_angle_gamma 90.000000
_cell_volume 1834.821586
_symmetry_space_group_name_H-M "C M"
_symmetry_group_IT_number 8
_symmetry_cell_setting 'monoclinic'
loop_
_space_group_symop_operation_xyz
x,y,z
x,-y,z
1/2+x,1/2+y,z
1/2+x,1/2-y,z
loop_
_atom_site_type_symbol
_atom_site_label
_atom_site_fract_x
_atom_site_fract_y
_atom_site_fract_z
Si Si1 0.166760 0.316150 0.119890
Si Si2 0.069240 0.815267 0.655597
Si Si3 0.817280 0.317382 0.388661
Si Si4 0.619516 0.314761 0.811454
Si Si5 0.485594 0.817052 0.406670
Si Si6 0.345902 0.183629 0.682402
Si Si7 0.895287 0.313653 0.836859
Si Si8 0.997623 0.316531 0.102318
O O1 0.188332 0.500000 0.134066
O O2 0.343981 0.238883 0.261410
O O3 0.057415 0.282519 0.088889
O O4 0.060321 0.265456 0.990994
O O5 0.083464 0.769156 0.725535
O O6 0.232769 0.764365 0.746776
O O7 0.909224 0.751991 0.506471
O O8 0.065873 0.000000 0.651419
O O9 0.819287 0.500000 0.392769
O O10 0.920052 0.269915 0.414400
O O11 0.630899 0.259536 0.239715
O O12 0.613153 0.500000 0.808790
O O13 0.485051 0.246145 0.748727
O O14 0.807634 0.267990 0.966346
O O15 0.664123 0.744168 0.531355
O O16 0.497435 0.000000 0.414379
O O17 0.383031 0.235319 0.768785
O O18 0.345020 0.000000 0.680959
O O19 0.894874 0.500000 0.837312
O O20 0.006413 0.500000 0.114859
#
# Coordination Sequence:
#
# PCOD9131737 Si02
#       8
#     4   4   4   4   4   4   4   4
#     4   9  16  31  56  82 104 132 179 230 269 314
#     4  10  18  34  58  81 106 140 183 225 264 318
#     4  10  20  32  51  82 114 140 174 227 274 311
#     4  10  21  37  57  81 110 143 180 223 270 321
#     4  10  20  34  51  78 113 145 178 220 271 319
#     4  11  22  36  56  80 110 147 181 219 269 326
#     4   9  17  32  56  83 105 133 181 227 263 313
#     4   9  17  32  55  79 104 140 180 219 268 324
#
# _framework density 17.440387000000001
#
# number of rings (size 3 to 8) (size 9 to 14) (size 15 to 20)
#    0.000    2.250    2.500    1.125    0.000    2.000 
#    0.000    3.125    0.000    3.000    0.000    0.000 
#    0.000    0.000    0.000    0.000    0.000    0.000 
#
# Total GULP energy -89277.392196 kJ/mol
# GULP energy per Si atom -5579.837012 kJ/mol
# Density = 1.740069 g / cm^3
# Si number density = 17.440387 Si / 1000 Ang^3
#
#
#
# Elastic Constant Matrix: (Units=GPa)
#
#
# Indices 1 2 3 4 5 6 
#
# 1 114.2404 31.2412 89.6668 -0.0003 3.1696 0.0000
# 2 31.2412 20.9053 42.2660 -0.0001 2.9915 0.0000
# 3 89.6668 42.2660 189.9986 0.0002 -0.1532 0.0000
# 4 -0.0003 -0.0001 0.0002 17.3991 0.0001 7.1781
# 5 3.1696 2.9915 -0.1532 0.0001 26.9508 0.0000
# 6 0.0000 0.0000 0.0000 7.1781 0.0000 20.3607
#
#
#
# Elastic Compliance Matrix: (Units=1/GPa)
#
#
# Indices 1 2 3 4 5 6 
#
# 1 0.016439 -0.016096 -0.004178 0.000000 -0.000170 0.000000
# 2 -0.016096 0.105339 -0.015845 0.000001 -0.009889 0.000000
# 3 -0.004178 -0.015845 0.010761 0.000000 0.002311 0.000000
# 4 0.000000 0.000001 0.000000 0.067256 0.000000 -0.023711
# 5 -0.000170 -0.009889 0.002311 0.000000 0.038235 0.000000
# 6 0.000000 0.000000 0.000000 -0.023711 0.000000 0.057473
#
#
# Mechanical properties :
#
#
# Convention : Reuss Voigt Hill
#
# Bulk Modulus (GPa) = 16.58314 72.38805 44.48559
# Shear Modulus (GPa) = 12.89186 23.74015 18.31600
#
# Velocity S-wave (km/s) = 2.72176 3.69347 3.24420
# Velocity P-wave (km/s) = 4.40528 7.73208 6.29252
#
# Compressibility (1/GPa) = 0.06030220
#
# Stress axis : x y z
#
# Youngs Moduli (GPa) = 60.83111 9.49319 92.92520
#
# Poissons Ratio (x) = 0.15280 0.38820
# Poissons Ratio (y) = 0.97914 1.47238
# Poissons Ratio (z) = 0.25413 0.15042
#
# Static dielectric constant tensor:
#      x y z
#    x 1.576310 0.000000 -0.008590 
#    y 0.000000 1.585800 0.000000 
#    z -0.008590 0.000000 1.582320 
# 
# From -- ./inp_files/31315.got.cif
#   From: 2010.05.17/outbox.cif.g08.bks.cpg/sg8_16_cif.got.tgz:31315.got - 2010.06.03 19:46:02.
