data_PCOD9131999
_publ_section_title
;
Structure prediction by ZEFSAII (Michael W. Deem and Ramdas Pophale) SiO2 
 PCOD9131999
Probable space group: C M
;
_chemical_formula_sum "Si O2"
_cell_formula_units_Z 32
_cell_length_a 14.158742
_cell_length_b 8.064364
_cell_length_c 24.358008
_cell_angle_alpha 90.000000
_cell_angle_beta 30.727692
_cell_angle_gamma 90.000000
_cell_volume 1421.091807
_symmetry_space_group_name_H-M "C M"
_symmetry_group_IT_number 8
_symmetry_cell_setting 'monoclinic'
loop_
_space_group_symop_operation_xyz
x,y,z
x,-y,z
1/2+x,1/2+y,z
1/2+x,1/2-y,z
loop_
_atom_site_type_symbol
_atom_site_label
_atom_site_fract_x
_atom_site_fract_y
_atom_site_fract_z
Si Si1 0.448550 0.307462 0.439620
Si Si2 0.146703 0.694188 0.491392
Si Si3 0.220061 0.305419 0.216966
Si Si4 0.095062 0.203466 0.073631
Si Si5 0.148065 0.810153 0.672057
Si Si6 0.877910 0.304107 0.713347
Si Si7 0.440279 0.304677 0.265879
Si Si8 0.011442 0.308577 0.854154
O O1 0.489577 0.500000 0.427791
O O2 0.295805 0.297129 0.466755
O O3 0.625166 0.218824 0.324450
O O4 0.341371 0.235516 0.545722
O O5 0.114266 0.500000 0.495450
O O6 0.252868 0.769711 0.386209
O O7 0.964083 0.759517 0.612240
O O8 0.211664 0.500000 0.208250
O O9 0.096907 0.211607 0.234254
O O10 0.432166 0.248943 0.113319
O O11 0.303064 0.259652 0.959200
O O12 0.097373 0.000000 0.072285
O O13 0.023169 0.263830 0.168649
O O14 0.087177 0.704594 0.754496
O O15 0.987544 0.786507 0.706740
O O16 0.158349 0.000000 0.685192
O O17 0.921414 0.500000 0.696558
O O18 0.659858 0.279689 0.818991
O O19 0.406054 0.500000 0.274111
O O20 0.004919 0.500000 0.874379
#
# Coordination Sequence:
#
# PCOD9131999 Si02
#       8
#     4   4   4   4   4   4   4   4
#     4   9  17  33  56  85 116 147 180 225 284 346
#     4   7  13  27  52  80 107 135 170 215 273 338
#     4  10  19  34  56  85 114 144 183 232 282 334
#     4   9  21  38  56  78 110 150 194 236 280 331
#     4  11  22  38  60  87 115 150 192 238 289 345
#     4  10  20  37  59  86 116 148 184 233 293 350
#     4   9  17  35  58  79 105 144 183 222 278 343
#     4  11  23  40  57  80 115 156 200 245 285 335
#
# _framework density 22.517899
#
# number of rings (size 3 to 8) (size 9 to 14) (size 15 to 20)
#    0.000    2.500    0.000    4.125    0.000    2.000 
#    0.000   10.625    0.000    0.000    0.000    0.000 
#    0.000    0.000    0.000    0.000    0.000    0.000 
#
# Total GULP energy -89347.413656 kJ/mol
# GULP energy per Si atom -5584.213353 kJ/mol
# Density = 2.246665 g / cm^3
# Si number density = 22.517899 Si / 1000 Ang^3
#
#
#
# Elastic Constant Matrix: (Units=GPa)
#
#
# Indices 1 2 3 4 5 6 
#
# 1 54.4711 -14.1861 32.3834 0.0000 -16.4869 0.0000
# 2 -14.1861 34.6852 -2.1137 0.0001 -4.1618 0.0000
# 3 32.3834 -2.1137 84.4546 0.0002 -33.1080 0.0000
# 4 0.0000 0.0001 0.0002 20.0162 0.0000 -3.3003
# 5 -16.4869 -4.1618 -33.1080 0.0000 40.7353 0.0000
# 6 0.0000 0.0000 0.0000 -3.3003 0.0000 21.2281
#
#
#
# Elastic Compliance Matrix: (Units=1/GPa)
#
#
# Indices 1 2 3 4 5 6 
#
# 1 0.028028 0.011679 -0.008131 0.000000 0.005929 0.000000
# 2 0.011679 0.034510 -0.000557 0.000000 0.007800 0.000000
# 3 -0.008131 -0.000557 0.020006 0.000000 0.012913 0.000000
# 4 0.000000 0.000000 0.000000 0.051274 0.000000 0.007971
# 5 0.005929 0.007800 0.012913 0.000000 0.038240 0.000000
# 6 0.000000 0.000000 0.000000 0.007971 0.000000 0.048347
#
#
# Mechanical properties :
#
#
# Convention : Reuss Voigt Hill
#
# Bulk Modulus (GPa) = 11.29581 22.86421 17.08001
# Shear Modulus (GPa) = 20.49761 26.89774 23.69768
#
# Velocity S-wave (km/s) = 3.02036 3.45991 3.24758
# Velocity P-wave (km/s) = 4.14617 5.11245 4.65445
#
# Compressibility (1/GPa) = 0.08852837
#
# Stress axis : x y z
#
# Youngs Moduli (GPa) = 35.67823 28.97748 49.98378
#
# Poissons Ratio (x) = -0.33844 0.40640
# Poissons Ratio (y) = -0.41670 0.02783
# Poissons Ratio (z) = 0.29009 0.01613
#
# Static dielectric constant tensor:
#      x y z
#    x 1.874980 0.000000 -0.007450 
#    y 0.000000 1.781530 0.000000 
#    z -0.007450 0.000000 1.864540 
# 
# From -- ./inp_files/28334.got.cif
#   From: 2010.05.17/outbox.cif.g08.bks.cpg/sg8_15_cif.got.tgz:28334.got - 2010.06.03 19:46:02.
