data_PCOD9131473
_publ_section_title
;
Structure prediction by ZEFSAII (Michael W. Deem and Ramdas Pophale) SiO2 
 PCOD9131473
Probable space group: P C
;
_chemical_formula_sum "Si O2"
_cell_formula_units_Z 14
_cell_length_a 6.673750
_cell_length_b 23.221497
_cell_length_c 5.031489
_cell_angle_alpha 90.000000
_cell_angle_beta 50.172697
_cell_angle_gamma 90.000000
_cell_volume 598.832944
_symmetry_space_group_name_H-M "P C"
_symmetry_group_IT_number 7
_symmetry_cell_setting 'monoclinic'
loop_
_space_group_symop_operation_xyz
x,y,z
x,-y,1/2+z
loop_
_atom_site_type_symbol
_atom_site_label
_atom_site_fract_x
_atom_site_fract_y
_atom_site_fract_z
Si Si1 0.491990 0.191344 0.103210
Si Si2 0.180692 0.303155 0.167802
Si Si3 0.485849 0.385845 0.226024
Si Si4 0.415108 0.885459 0.164618
Si Si5 0.848167 0.712463 0.447116
Si Si6 0.002378 0.539094 0.224626
Si Si7 0.916816 0.038599 0.221374
O O1 0.322358 0.245200 0.145336
O O2 0.375284 0.155767 0.446122
O O3 0.523373 0.150418 0.823828
O O4 0.750846 0.222638 0.993235
O O5 0.362744 0.358234 0.062547
O O6 0.942906 0.309676 0.579542
O O7 0.075850 0.293612 0.964850
O O8 0.021853 0.487001 0.414799
O O9 0.243833 0.417847 0.567021
O O10 0.724995 0.429486 0.990571
O O11 0.147518 0.916566 0.468886
O O12 0.637485 0.932046 0.909822
O O13 0.616066 0.670910 0.745082
O O14 0.940564 0.014627 0.498571
#
# Coordination Sequence:
#
# PCOD9131473 Si02
#       7
#     2   2   2   2   2   2   2
#     4  11  26  43  70 114 144 187 234 289 366 420
#     4  11  25  45  75 103 149 186 235 287 348 450
#     4  11  26  50  74 106 142 192 236 289 366 420
#     4  12  26  45  76 104 148 185 234 302 352 416
#     4  11  25  45  75 103 149 186 235 287 348 450
#     4  12  28  48  74 104 142 184 242 304 354 416
#     4  12  26  48  72 104 140 190 246 292 350 416
#
# _framework density 23.378806999999998
#
# number of rings (size 3 to 8) (size 9 to 14) (size 15 to 20)
#    0.000    0.571    1.429    5.143    8.000    5.714 
#    0.000    0.000    0.000    0.000    0.000    0.000 
#    0.000    0.000    0.000    0.000    0.000    0.000 
#
# Total GULP energy -78437.901197 kJ/mol
# GULP energy per Si atom -5602.707228 kJ/mol
# Density = 2.332560 g / cm^3
# Si number density = 23.378807 Si / 1000 Ang^3
#
#
#
# Elastic Constant Matrix: (Units=GPa)
#
#
# Indices 1 2 3 4 5 6 
#
# 1 77.4125 15.1631 18.4419 0.0000 0.4927 0.0000
# 2 15.1631 73.2553 18.0420 0.0000 -3.5097 0.0000
# 3 18.4419 18.0420 88.1304 0.0000 -13.1312 0.0000
# 4 0.0000 0.0000 0.0000 34.2671 0.0000 0.9974
# 5 0.4927 -3.5097 -13.1312 0.0000 36.5019 0.0000
# 6 0.0000 0.0000 0.0000 0.9974 0.0000 34.0723
#
#
#
# Elastic Compliance Matrix: (Units=1/GPa)
#
#
# Indices 1 2 3 4 5 6 
#
# 1 0.014014 -0.002310 -0.002664 0.000000 -0.001369 0.000000
# 2 -0.002310 0.014761 -0.002454 0.000000 0.000568 0.000000
# 3 -0.002664 -0.002454 0.013078 0.000000 0.004505 0.000000
# 4 0.000000 0.000000 0.000000 0.029207 0.000000 -0.000855
# 5 -0.001369 0.000568 0.004505 0.000000 0.029089 0.000000
# 6 0.000000 0.000000 0.000000 -0.000855 0.000000 0.029374
#
#
# Mechanical properties :
#
#
# Convention : Reuss Voigt Hill
#
# Bulk Modulus (GPa) = 37.04149 38.01026 37.52588
# Shear Modulus (GPa) = 32.59937 33.44500 33.02219
#
# Velocity S-wave (km/s) = 3.73822 3.78639 3.76238
# Velocity P-wave (km/s) = 5.87459 5.95058 5.91271
#
# Compressibility (1/GPa) = 0.02699675
#
# Stress axis : x y z
#
# Youngs Moduli (GPa) = 71.35928 67.74779 76.46609
#
# Poissons Ratio (x) = 0.15652 0.20367
# Poissons Ratio (y) = 0.16486 0.18763
# Poissons Ratio (z) = 0.19007 0.16624
#
# Static dielectric constant tensor:
#      x y z
#    x 1.847020 0.000000 -0.021730 
#    y 0.000000 1.874980 0.000000 
#    z -0.021730 0.000000 1.890640 
# 
# From -- ./inp_files/344.got.cif
#   From: 2010.05.17/outbox.cif.g08.bks.cpg/sg7_cif.got.tgz:344.got - 2010.06.03 19:44:50.
