data_PCOD9131501
_publ_section_title
;
Structure prediction by ZEFSAII (Michael W. Deem and Ramdas Pophale) SiO2 
 PCOD9131501
Probable space group: C M
;
_chemical_formula_sum "Si O2"
_cell_formula_units_Z 28
_cell_length_a 13.611418
_cell_length_b 25.929766
_cell_length_c 5.497271
_cell_angle_alpha 90.000000
_cell_angle_beta 146.243396
_cell_angle_gamma 90.000000
_cell_volume 1078.109794
_symmetry_space_group_name_H-M "C M"
_symmetry_group_IT_number 8
_symmetry_cell_setting 'monoclinic'
loop_
_space_group_symop_operation_xyz
x,y,z
x,-y,z
1/2+x,1/2+y,z
1/2+x,1/2-y,z
loop_
_atom_site_type_symbol
_atom_site_label
_atom_site_fract_x
_atom_site_fract_y
_atom_site_fract_z
Si Si1 0.517700 0.080932 0.409080
Si Si2 0.224011 0.219793 0.450932
Si Si3 0.090076 0.113638 0.069243
Si Si4 0.590335 0.562150 0.567603
Si Si5 0.449203 0.054923 0.768527
Si Si6 0.202021 0.688226 0.713194
Si Si7 0.401971 0.761145 0.315391
O O1 0.570371 0.061858 0.783530
O O2 0.613910 0.134451 0.560236
O O3 0.302850 0.075222 0.992748
O O4 0.555367 0.052897 0.235779
O O5 0.082298 0.175074 0.101003
O O6 0.175504 0.279489 0.412263
O O7 0.342731 0.220986 0.456042
O O8 0.320114 0.207928 0.909748
O O9 0.018976 0.085442 0.166101
O O10 0.302052 0.099529 0.492053
O O11 0.022721 0.089922 0.675425
O O12 0.569108 0.500000 0.530568
O O13 0.350424 0.000000 0.540827
O O14 0.107087 0.724677 0.717848
O O15 0.396337 0.701466 0.210060
#
# Coordination Sequence:
#
# PCOD9131501 Si02
#       7
#     4   4   4   4   4   4   4
#     4  10  18  28  47  66 104 136 169 206 275 313
#     4  10  22  34  54  75 109 145 196 215 271 322
#     4  10  16  28  44  66  98 137 165 208 266 318
#     4  10  18  28  46  72 104 134 170 216 277 333
#     4  10  18  28  47  72 104 134 170 216 278 332
#     4  10  24  35  56  78 111 153 191 221 270 324
#     4  10  22  35  54  73 110 141 193 228 265 310
#
# _framework density 25.971381999999998
#
# number of rings (size 3 to 8) (size 9 to 14) (size 15 to 20)
#    0.857    1.143    0.000    8.571    4.000    0.000 
#    0.000    0.000    0.000    0.000    0.000    0.000 
#    0.000   12.571    0.000    0.000    0.000    0.000 
#
# Total GULP energy -77987.975315 kJ/mol
# GULP energy per Si atom -5570.569665 kJ/mol
# Density = 2.591227 g / cm^3
# Si number density = 25.971382 Si / 1000 Ang^3
#
#
#
# Elastic Constant Matrix: (Units=GPa)
#
#
# Indices 1 2 3 4 5 6 
#
# 1 169.1403 32.0979 50.0808 0.0000 -77.3225 0.0000
# 2 32.0979 86.5076 24.2872 0.0000 -8.6836 0.0000
# 3 50.0808 24.2872 66.9158 0.0000 -43.1142 0.0000
# 4 0.0000 0.0000 0.0000 16.5608 0.0000 -6.9388
# 5 -77.3225 -8.6836 -43.1142 0.0000 58.0730 0.0000
# 6 0.0000 0.0000 0.0000 -6.9388 0.0000 47.4517
#
#
#
# Elastic Compliance Matrix: (Units=1/GPa)
#
#
# Indices 1 2 3 4 5 6 
#
# 1 0.017574 -0.005607 0.006553 0.000000 0.027426 0.000000
# 2 -0.005607 0.014931 -0.008808 0.000000 -0.011772 0.000000
# 3 0.006553 -0.008808 0.034524 0.000000 0.033040 0.000000
# 4 0.000000 0.000000 0.000000 0.064325 0.000000 0.009406
# 5 0.027426 -0.011772 0.033040 0.000000 0.076505 0.000000
# 6 0.000000 0.000000 0.000000 0.009406 0.000000 0.022449
#
#
# Mechanical properties :
#
#
# Convention : Reuss Voigt Hill
#
# Bulk Modulus (GPa) = 19.49123 59.49950 39.49536
# Shear Modulus (GPa) = 19.00178 38.82362 28.91270
#
# Velocity S-wave (km/s) = 2.70782 3.87054 3.34016
# Velocity P-wave (km/s) = 4.15904 6.55241 5.48779
#
# Compressibility (1/GPa) = 0.05130513
#
# Stress axis : x y z
#
# Youngs Moduli (GPa) = 56.90356 66.97316 28.96543
#
# Poissons Ratio (x) = 0.37555 -0.18982
# Poissons Ratio (y) = 0.31908 0.25512
# Poissons Ratio (z) = -0.37291 0.58988
#
# Static dielectric constant tensor:
#      x y z
#    x 2.318010 0.000000 0.367730 
#    y 0.000000 2.265950 0.000000 
#    z 0.367730 0.000000 2.634740 
# 
# From -- ./inp_files/4356.got.cif
#   From: 2010.05.17/outbox.cif.g08.bks.cpg/sg8_3_cif.got.tgz:4356.got - 2010.06.03 19:46:02.
