data_PCOD9131156
_publ_section_title
;
Structure prediction by ZEFSAII (Michael W. Deem and Ramdas Pophale) SiO2 
 PCOD9131156
Probable space group: P M
;
_chemical_formula_sum "Si O2"
_cell_formula_units_Z 16
_cell_length_a 9.978865
_cell_length_b 18.077915
_cell_length_c 8.611083
_cell_angle_alpha 90.000000
_cell_angle_beta 30.979160
_cell_angle_gamma 90.000000
_cell_volume 799.583076
_symmetry_space_group_name_H-M "P M"
_symmetry_group_IT_number 6
_symmetry_cell_setting 'monoclinic'
loop_
_space_group_symop_operation_xyz
x,y,z
x,-y,z
loop_
_atom_site_type_symbol
_atom_site_label
_atom_site_fract_x
_atom_site_fract_y
_atom_site_fract_z
Si Si1 0.339710 0.811093 0.879760
Si Si2 0.417444 0.653437 0.652412
Si Si3 0.919198 0.416355 0.283859
Si Si4 0.424309 0.911739 0.505057
Si Si5 0.920057 0.910878 0.807721
Si Si6 0.913237 0.363796 0.634100
Si Si7 0.416280 0.588352 0.316248
Si Si8 0.845147 0.195521 0.591463
O O1 0.355231 0.736594 0.762647
O O2 0.382168 0.875912 0.714050
O O3 0.568000 0.808761 0.781001
O O4 0.067970 0.814912 0.240389
O O5 0.372504 0.631682 0.519778
O O6 0.715677 0.635725 0.397742
O O7 0.216181 0.604321 0.952113
O O8 0.866887 0.500000 0.286929
O O9 0.870199 0.405127 0.514175
O O10 0.194151 0.891170 0.614548
O O11 0.417967 0.000000 0.527831
O O12 0.696028 0.891281 0.154456
O O13 0.873990 0.866092 0.695921
O O14 0.911438 0.000000 0.789842
O O15 0.197415 0.384294 0.414086
O O16 0.882847 0.276629 0.629666
O O17 0.698304 0.391319 0.968840
O O18 0.395386 0.500000 0.360739
#
# Coordination Sequence:
#
# PCOD9131156 Si02
#       8
#     2   2   2   2   2   2   2   2
#     4  12  24  43  65  96 133 169 212 261 314 380
#     4  12  25  43  63  95 126 165 214 266 318 382
#     4  12  23  43  67  87 125 170 211 261 322 378
#     4  10  23  43  70 101 132 169 212 256 311 375
#     4  10  23  43  69 100 132 169 212 256 311 375
#     4  12  25  43  63  95 126 165 215 266 317 383
#     4  12  26  43  64  92 125 165 218 271 325 379
#     4  12  25  43  65  96 133 170 212 261 314 380
#
# _framework density 20.010428999999998
#
# number of rings (size 3 to 8) (size 9 to 14) (size 15 to 20)
#    0.000    0.500    2.500    6.000    3.500    1.000 
#    0.000    0.000    0.000    0.000    0.000    0.000 
#    0.000    0.000    0.000    0.000    0.000    0.000 
#
# Total GULP energy -89555.942137 kJ/mol
# GULP energy per Si atom -5597.246384 kJ/mol
# Density = 1.996488 g / cm^3
# Si number density = 20.010429 Si / 1000 Ang^3
#
#
#
# Elastic Constant Matrix: (Units=GPa)
#
#
# Indices 1 2 3 4 5 6 
#
# 1 37.2941 8.5395 -18.5712 0.0000 16.0659 0.0000
# 2 8.5395 35.0199 -2.5761 0.0000 7.0551 0.0000
# 3 -18.5712 -2.5761 50.2146 0.0000 -2.6115 0.0000
# 4 0.0000 0.0000 0.0000 22.4671 0.0000 2.7685
# 5 16.0659 7.0551 -2.6115 0.0000 20.7831 0.0000
# 6 0.0000 0.0000 0.0000 2.7685 0.0000 -2.9560
#
#
#
# Elastic Compliance Matrix: (Units=1/GPa)
#
#
# Indices 1 2 3 4 5 6 
#
# 1 0.052119 -0.004041 0.017156 0.000000 -0.036762 0.000000
# 2 -0.004041 0.031019 -0.000290 0.000000 -0.007442 0.000000
# 3 0.017156 -0.000290 0.025728 0.000000 -0.009931 0.000000
# 4 0.000000 0.000000 0.000000 0.039904 0.000000 0.037372
# 5 -0.036762 -0.007442 -0.009931 0.000000 0.077813 0.000000
# 6 0.000000 0.000000 0.000000 0.037372 0.000000 -0.303289
#
#
# Mechanical properties :
#
#
# Convention : Reuss Voigt Hill
#
# Bulk Modulus (GPa) = 7.43403 10.81256 9.12330
# Shear Modulus (GPa) = -86.92947 17.06793 -34.93077
#
# Velocity S-wave (km/s) = -6.59821 2.92370 -4.18260
# Velocity P-wave (km/s) = 7.37057 4.10031 4.33087
#
# Compressibility (1/GPa) = 0.13451648
#
# Stress axis : x y z
#
# Youngs Moduli (GPa) = 19.18679 32.23880 38.86788
#
# Poissons Ratio (x) = 0.13027 -0.66683
# Poissons Ratio (y) = 0.07753 0.01128
# Poissons Ratio (z) = -0.32918 0.00936
#
# Static dielectric constant tensor:
#      x y z
#    x 1.673000 0.000000 -0.000660 
#    y 0.000000 1.699340 0.000000 
#    z -0.000660 0.000000 1.677020 
# 
# From -- ./inp_files/3233.got.cif
#   From: 2010.05.17/outbox.cif.g08.bks.cpg/sg6_2_cif.got.tgz:3233.got - 2010.06.03 19:42:10.
