data_PCOD9131350
_publ_section_title
;
Structure prediction by ZEFSAII (Michael W. Deem and Ramdas Pophale) SiO2 
 PCOD9131350
Probable space group: P C
;
_chemical_formula_sum "Si O2"
_cell_formula_units_Z 14
_cell_length_a 16.832165
_cell_length_b 8.040117
_cell_length_c 5.446136
_cell_angle_alpha 90.000000
_cell_angle_beta 51.611294
_cell_angle_gamma 90.000000
_cell_volume 577.703354
_symmetry_space_group_name_H-M "P C"
_symmetry_group_IT_number 7
_symmetry_cell_setting 'monoclinic'
loop_
_space_group_symop_operation_xyz
x,y,z
x,-y,1/2+z
loop_
_atom_site_type_symbol
_atom_site_label
_atom_site_fract_x
_atom_site_fract_y
_atom_site_fract_z
Si Si1 0.000000 0.392887 0.178780
Si Si2 0.393109 0.587253 0.311996
Si Si3 0.117045 0.926047 0.554928
Si Si4 0.347004 0.949368 0.588892
Si Si5 0.630943 0.032285 0.326082
Si Si6 0.639880 0.410726 0.330544
Si Si7 0.848923 0.095737 0.408460
O O1 0.001375 0.504134 0.422440
O O2 0.902353 0.270811 0.353423
O O3 0.093343 0.262515 0.024913
O O4 0.361979 0.469625 0.599655
O O5 0.352028 0.767000 0.462343
O O6 0.516394 0.593274 0.072187
O O7 0.074989 0.035020 0.407546
O O8 0.233762 0.979634 0.347883
O O9 0.388884 0.061201 0.285332
O O10 0.671327 0.219572 0.250126
O O11 0.573488 0.001611 0.686860
O O12 0.726264 0.907502 0.146043
O O13 0.672858 0.491724 0.523567
O O14 0.875122 0.977441 0.590036
#
# Coordination Sequence:
#
# PCOD9131350 Si02
#       7
#     2   2   2   2   2   2   2
#     4  12  24  40  64  92 118 150 196 248 298 344
#     4  10  21  38  60  88 120 153 195 247 295 340
#     4  10  21  41  62  85 120 157 193 238 293 353
#     4  10  21  38  59  87 119 158 196 237 292 352
#     4  10  21  38  59  87 119 158 196 237 292 352
#     4  10  21  38  60  88 120 153 195 247 295 340
#     4  10  21  41  62  85 120 157 193 238 293 353
#
# _framework density 24.233891
#
# number of rings (size 3 to 8) (size 9 to 14) (size 15 to 20)
#    0.000    1.714    0.000    4.286    0.000    1.143 
#    0.000   34.286    0.000    0.000    0.000    0.000 
#    0.000    0.000    0.000    0.000    0.000    0.000 
#
# Total GULP energy -78251.696001 kJ/mol
# GULP energy per Si atom -5589.406857 kJ/mol
# Density = 2.417873 g / cm^3
# Si number density = 24.233891 Si / 1000 Ang^3
#
#
#
# Elastic Constant Matrix: (Units=GPa)
#
#
# Indices 1 2 3 4 5 6 
#
# 1 98.8709 2.9176 42.2855 0.0000 39.1995 0.0000
# 2 2.9176 97.1010 19.8361 0.0000 35.4069 0.0000
# 3 42.2855 19.8361 131.2185 0.0000 55.7964 0.0000
# 4 0.0000 0.0000 0.0000 48.0073 0.0000 24.2741
# 5 39.1995 35.4069 55.7964 0.0000 61.4270 0.0000
# 6 0.0000 0.0000 0.0000 24.2741 0.0000 27.1551
#
#
#
# Elastic Compliance Matrix: (Units=1/GPa)
#
#
# Indices 1 2 3 4 5 6 
#
# 1 0.014567 0.003633 -0.000652 0.000000 -0.010797 0.000000
# 2 0.003633 0.014274 0.001883 0.000000 -0.012256 0.000000
# 3 -0.000652 0.001883 0.012759 0.000000 -0.012259 0.000000
# 4 0.000000 0.000000 0.000000 0.038010 0.000000 -0.033978
# 5 -0.010797 -0.012256 -0.012259 0.000000 0.041369 0.000000
# 6 0.000000 0.000000 0.000000 -0.033978 0.000000 0.067198
#
#
# Mechanical properties :
#
#
# Convention : Reuss Voigt Hill
#
# Bulk Modulus (GPa) = 19.48295 50.80765 35.14530
# Shear Modulus (GPa) = 25.56769 44.79464 35.18117
#
# Velocity S-wave (km/s) = 3.25166 4.30400 3.81430
# Velocity P-wave (km/s) = 4.70688 6.76094 5.82516
#
# Compressibility (1/GPa) = 0.05132692
#
# Stress axis : x y z
#
# Youngs Moduli (GPa) = 68.64966 70.05830 78.37608
#
# Poissons Ratio (x) = -0.25450 0.05111
# Poissons Ratio (y) = -0.24938 -0.14760
# Poissons Ratio (z) = 0.04477 -0.13193
#
# Static dielectric constant tensor:
#      x y z
#    x 2.068750 0.000000 0.002420 
#    y 0.000000 1.882650 0.000000 
#    z 0.002420 0.000000 1.976650 
# 
# From -- ./inp_files/1326.got.cif
#   From: 2010.05.17/outbox.cif.g08.bks.cpg/sg7_cif.got.tgz:1326.got - 2010.06.03 19:44:50.
