data_PCOD9131487
_publ_section_title
;
Structure prediction by ZEFSAII (Michael W. Deem and Ramdas Pophale) SiO2 
 PCOD9131487
Probable space group: P C
;
_chemical_formula_sum "Si O2"
_cell_formula_units_Z 8
_cell_length_a 5.281323
_cell_length_b 11.249130
_cell_length_c 6.497466
_cell_angle_alpha 90.000000
_cell_angle_beta 45.036615
_cell_angle_gamma 90.000000
_cell_volume 273.129143
_symmetry_space_group_name_H-M "P C"
_symmetry_group_IT_number 7
_symmetry_cell_setting 'monoclinic'
loop_
_space_group_symop_operation_xyz
x,y,z
x,-y,1/2+z
loop_
_atom_site_type_symbol
_atom_site_label
_atom_site_fract_x
_atom_site_fract_y
_atom_site_fract_z
Si Si1 0.811170 0.505212 0.582460
Si Si2 0.172500 0.152480 0.365592
Si Si3 0.205996 0.692484 0.479599
Si Si4 0.947902 0.897263 0.406860
O O1 0.936685 0.513305 0.261862
O O2 0.486994 0.410936 0.759619
O O3 0.822985 0.646431 0.613230
O O4 0.910844 0.163570 0.706520
O O5 0.048654 0.034054 0.317002
O O6 0.175671 0.273017 0.234722
O O7 0.559598 0.114461 0.229026
O O8 0.247405 0.818903 0.346001
#
# Coordination Sequence:
#
# PCOD9131487 Si02
#       4
#     2   2   2   2
#     4  12  30  54  80 120 164 234 286 352 420 510
#     4  12  28  50  82 126 169 221 282 357 441 518
#     4  12  30  50  84 114 176 216 298 344 438 512
#     4  12  28  50  82 126 169 221 282 357 441 518
#
# _framework density 29.290175000000001
#
# number of rings (size 3 to 8) (size 9 to 14) (size 15 to 20)
#    0.000    0.000    2.500    4.500   14.000    0.000 
#    0.000    0.000    0.000    0.000    0.000    0.000 
#    0.000    0.000    0.000    0.000    0.000    0.000 
#
# Total GULP energy -44535.782157 kJ/mol
# GULP energy per Si atom -5566.972770 kJ/mol
# Density = 2.922351 g / cm^3
# Si number density = 29.290175 Si / 1000 Ang^3
#
#
#
# Elastic Constant Matrix: (Units=GPa)
#
#
# Indices 1 2 3 4 5 6 
#
# 1 138.2928 47.9198 38.0999 0.0000 18.5660 0.0000
# 2 47.9198 105.1310 22.4819 0.0000 -11.8861 0.0000
# 3 38.0999 22.4819 143.8651 0.0000 28.5001 0.0000
# 4 0.0000 0.0000 0.0000 40.0804 0.0000 14.7823
# 5 18.5660 -11.8861 28.5001 0.0000 50.2687 0.0000
# 6 0.0000 0.0000 0.0000 14.7823 0.0000 61.2826
#
#
#
# Elastic Compliance Matrix: (Units=1/GPa)
#
#
# Indices 1 2 3 4 5 6 
#
# 1 0.009675 -0.004654 -0.001024 0.000000 -0.004093 0.000000
# 2 -0.004654 0.012695 -0.001900 0.000000 0.005798 0.000000
# 3 -0.001024 -0.001900 0.008486 0.000000 -0.004882 0.000000
# 4 0.000000 0.000000 0.000000 0.027386 0.000000 -0.006606
# 5 -0.004093 0.005798 -0.004882 0.000000 0.025544 0.000000
# 6 0.000000 0.000000 0.000000 -0.006606 0.000000 0.017911
#
#
# Mechanical properties :
#
#
# Convention : Reuss Voigt Hill
#
# Bulk Modulus (GPa) = 63.69152 67.14354 65.41753
# Shear Modulus (GPa) = 40.95423 48.91215 44.93319
#
# Velocity S-wave (km/s) = 3.74334 4.09089 3.92097
# Velocity P-wave (km/s) = 6.36205 6.72958 6.54839
#
# Compressibility (1/GPa) = 0.01570068
#
# Stress axis : x y z
#
# Youngs Moduli (GPa) = 103.35573 78.77111 117.83707
#
# Poissons Ratio (x) = 0.36659 0.12069
# Poissons Ratio (y) = 0.48100 0.22388
# Poissons Ratio (z) = 0.10586 0.14966
#
# Static dielectric constant tensor:
#      x y z
#    x 2.386530 0.000000 0.031610 
#    y 0.000000 2.201200 0.000000 
#    z 0.031610 0.000000 2.372100 
# 
# From -- ./inp_files/95.got.cif
#   From: 2010.05.17/outbox.cif.g08.bks.cpg/sg7_cif.got.tgz:95.got - 2010.06.03 19:44:50.
