data_PCOD9131259
_publ_section_title
;
Structure prediction by ZEFSAII (Michael W. Deem and Ramdas Pophale) SiO2 
 PCOD9131259
Probable space group: P C
;
_chemical_formula_sum "Si O2"
_cell_formula_units_Z 16
_cell_length_a 9.272537
_cell_length_b 11.428042
_cell_length_c 5.630605
_cell_angle_alpha 90.000000
_cell_angle_beta 112.413593
_cell_angle_gamma 90.000000
_cell_volume 551.583826
_symmetry_space_group_name_H-M "P C"
_symmetry_group_IT_number 7
_symmetry_cell_setting 'monoclinic'
loop_
_space_group_symop_operation_xyz
x,y,z
x,-y,1/2+z
loop_
_atom_site_type_symbol
_atom_site_label
_atom_site_fract_x
_atom_site_fract_y
_atom_site_fract_z
Si Si1 0.763240 0.267125 0.855550
Si Si2 0.301179 0.764523 0.546021
Si Si3 0.489211 0.433055 0.641822
Si Si4 0.893373 0.994213 0.445007
Si Si5 0.209921 0.141547 0.489932
Si Si6 0.490694 0.957959 0.685992
Si Si7 0.871771 0.243980 0.422407
Si Si8 0.154673 0.489114 0.924549
O O1 0.589440 0.315341 0.720482
O O2 0.806745 0.129188 0.891034
O O3 0.849612 0.303170 0.663786
O O4 0.819737 0.308893 0.151850
O O5 0.301182 0.805585 0.274334
O O6 0.468608 0.819218 0.717874
O O7 0.248592 0.632054 0.497535
O O8 0.204502 0.814597 0.711614
O O9 0.525838 0.495903 0.410333
O O10 0.301031 0.420391 0.516927
O O11 0.986358 0.001577 0.753083
O O12 0.792628 0.113187 0.384678
O O13 0.045088 0.196154 0.485881
O O14 0.316273 0.021608 0.544760
O O15 0.557427 0.988618 0.470131
O O16 0.068850 0.503676 0.119913
#
# Coordination Sequence:
#
# PCOD9131259 Si02
#       8
#     2   2   2   2   2   2   2   2
#     4  10  19  32  52  78 109 142 178 224 270 310
#     4  10  19  32  52  78 109 142 178 224 270 310
#     4  10  21  38  60  82  98 128 185 241 282 322
#     4   8  16  27  44  74 107 142 172 207 251 307
#     4  10  19  31  51  82 115 148 180 206 251 325
#     4   8  16  27  44  74 107 142 172 207 251 307
#     4  10  19  31  51  82 115 148 180 206 251 325
#     4  10  21  38  60  82  98 128 185 241 282 322
#
# _framework density 29.007377000000002
#
# number of rings (size 3 to 8) (size 9 to 14) (size 15 to 20)
#    0.000    2.500    0.000    2.250    0.000    9.000 
#    0.000    0.000    0.000   15.000    0.000  189.000 
#    0.000    0.000    0.000    0.000    0.000    0.000 
#
# Total GULP energy -89185.153083 kJ/mol
# GULP energy per Si atom -5574.072068 kJ/mol
# Density = 2.894136 g / cm^3
# Si number density = 29.007377 Si / 1000 Ang^3
#
#
#
# Elastic Constant Matrix: (Units=GPa)
#
#
# Indices 1 2 3 4 5 6 
#
# 1 95.3987 13.3796 40.3208 0.0000 -29.7891 0.0000
# 2 13.3796 65.6541 35.3901 0.0000 -17.1771 0.0000
# 3 40.3208 35.3901 289.9375 0.0000 -59.2297 0.0000
# 4 0.0000 0.0000 0.0000 17.3387 0.0000 -67.2079
# 5 -29.7891 -17.1771 -59.2297 0.0000 52.9147 0.0000
# 6 0.0000 0.0000 0.0000 -67.2079 0.0000 -74.2256
#
#
#
# Elastic Compliance Matrix: (Units=1/GPa)
#
#
# Indices 1 2 3 4 5 6 
#
# 1 0.012782 -0.000695 -0.000348 0.000000 0.006580 0.000000
# 2 -0.000695 0.017013 -0.001208 0.000000 0.003779 0.000000
# 3 -0.000348 -0.001208 0.004570 0.000000 0.004527 0.000000
# 4 0.000000 0.000000 0.000000 0.012789 0.000000 -0.011580
# 5 0.006580 0.003779 0.004527 0.000000 0.028896 0.000000
# 6 0.000000 0.000000 0.000000 -0.011580 0.000000 -0.002987
#
#
# Mechanical properties :
#
#
# Convention : Reuss Voigt Hill
#
# Bulk Modulus (GPa) = 33.48885 69.90794 51.69839
# Shear Modulus (GPa) = 57.13020 23.33221 40.23121
#
# Velocity S-wave (km/s) = 4.44273 2.83919 3.72819
# Velocity P-wave (km/s) = 6.15525 5.90765 6.03272
#
# Compressibility (1/GPa) = 0.02986068
#
# Stress axis : x y z
#
# Youngs Moduli (GPa) = 78.23640 58.77898 218.83480
#
# Poissons Ratio (x) = 0.04088 0.07626
# Poissons Ratio (y) = 0.05441 0.26433
# Poissons Ratio (z) = 0.02726 0.07100
#
# Static dielectric constant tensor:
#      x y z
#    x 2.392100 0.000000 0.009150 
#    y 0.000000 2.699930 0.000000 
#    z 0.009150 0.000000 2.245250 
# 
# From -- ./inp_files/1082.got.cif
#   From: 2010.05.17/outbox.cif.g08.bks.cpg/sg7_cif.got.tgz:1082.got - 2010.06.03 19:44:50.
