data_PCOD9131464
_publ_section_title
;
Structure prediction by ZEFSAII (Michael W. Deem and Ramdas Pophale) SiO2 
 PCOD9131464
Probable space group: P C
;
_chemical_formula_sum "Si O2"
_cell_formula_units_Z 16
_cell_length_a 6.939756
_cell_length_b 24.583115
_cell_length_c 5.250258
_cell_angle_alpha 90.000000
_cell_angle_beta 46.007171
_cell_angle_gamma 90.000000
_cell_volume 644.389319
_symmetry_space_group_name_H-M "P C"
_symmetry_group_IT_number 7
_symmetry_cell_setting 'monoclinic'
loop_
_space_group_symop_operation_xyz
x,y,z
x,-y,1/2+z
loop_
_atom_site_type_symbol
_atom_site_label
_atom_site_fract_x
_atom_site_fract_y
_atom_site_fract_z
Si Si1 0.640480 0.107118 0.256070
Si Si2 0.122785 0.964747 0.139177
Si Si3 0.275006 0.196836 0.485971
Si Si4 0.712893 0.707120 0.998163
Si Si5 0.016324 0.391338 0.482730
Si Si6 0.493865 0.536518 0.389680
Si Si7 0.933823 0.176427 0.320832
Si Si8 0.183615 0.687733 0.213127
O O1 0.371257 0.073208 0.485531
O O2 0.560578 0.167168 0.229119
O O3 0.859649 0.071241 0.917485
O O4 0.758554 0.123319 0.422772
O O5 0.129343 0.011698 0.348767
O O6 0.125385 0.185847 0.894952
O O7 0.280243 0.261935 0.448632
O O8 0.117195 0.171418 0.397167
O O9 0.406910 0.691264 0.229542
O O10 0.870606 0.664122 0.025946
O O11 0.752731 0.769894 0.031890
O O12 0.885615 0.701213 0.580700
O O13 0.159656 0.371036 0.609445
O O14 0.776358 0.434302 0.688743
O O15 0.257809 0.419156 0.111466
O O16 0.470219 0.493911 0.642924
#
# Coordination Sequence:
#
# PCOD9131464 Si02
#       8
#     2   2   2   2   2   2   2   2
#     4  12  26  52  79 110 149 202 238 312 380 428
#     4  12  30  52  77 106 145 194 264 316 362 426
#     4  11  25  46  73 113 154 194 238 293 367 461
#     4  11  24  44  71 110 153 193 237 292 366 460
#     4  12  26  48  79 106 147 202 236 312 378 428
#     4  12  30  52  77 106 145 194 264 316 362 426
#     4  11  25  46  73 113 154 194 238 293 367 461
#     4  11  24  44  71 110 153 193 237 292 366 460
#
# _framework density 24.829709999999999
#
# number of rings (size 3 to 8) (size 9 to 14) (size 15 to 20)
#    0.000    0.500    3.750    3.000    7.000    3.000 
#    0.000    0.000    0.000    0.000    0.000    0.000 
#    0.000    0.000    0.000    0.000    0.000    0.000 
#
# Total GULP energy -89610.468434 kJ/mol
# GULP energy per Si atom -5600.654277 kJ/mol
# Density = 2.477320 g / cm^3
# Si number density = 24.829710 Si / 1000 Ang^3
#
#
#
# Elastic Constant Matrix: (Units=GPa)
#
#
# Indices 1 2 3 4 5 6 
#
# 1 121.1770 18.4423 31.0667 0.0000 -11.1853 0.0000
# 2 18.4423 75.3392 19.9083 0.0000 -4.8524 0.0000
# 3 31.0667 19.9083 67.7743 0.0000 -19.4547 0.0000
# 4 0.0000 0.0000 0.0000 45.7492 0.0000 -8.7555
# 5 -11.1853 -4.8524 -19.4547 0.0000 42.7309 0.0000
# 6 0.0000 0.0000 0.0000 -8.7555 0.0000 52.6195
#
#
#
# Elastic Compliance Matrix: (Units=1/GPa)
#
#
# Indices 1 2 3 4 5 6 
#
# 1 0.009476 -0.001278 -0.003794 0.000000 0.000608 0.000000
# 2 -0.001278 0.014567 -0.003813 0.000000 -0.000416 0.000000
# 3 -0.003794 -0.003813 0.019791 0.000000 0.007585 0.000000
# 4 0.000000 0.000000 0.000000 0.022577 0.000000 0.003757
# 5 0.000608 -0.000416 0.007585 0.000000 0.026967 0.000000
# 6 0.000000 0.000000 0.000000 0.003757 0.000000 0.019629
#
#
# Mechanical properties :
#
#
# Convention : Reuss Voigt Hill
#
# Bulk Modulus (GPa) = 38.36544 44.79166 41.57855
# Shear Modulus (GPa) = 35.85163 41.21146 38.53154
#
# Velocity S-wave (km/s) = 3.80399 4.07844 3.94360
# Velocity P-wave (km/s) = 5.89735 6.34484 6.12518
#
# Compressibility (1/GPa) = 0.02606513
#
# Stress axis : x y z
#
# Youngs Moduli (GPa) = 105.53450 68.64930 50.52845
#
# Poissons Ratio (x) = 0.08773 0.19168
# Poissons Ratio (y) = 0.13487 0.19264
# Poissons Ratio (z) = 0.40035 0.26173
#
# Static dielectric constant tensor:
#      x y z
#    x 1.958020 0.000000 0.045560 
#    y 0.000000 1.996750 0.000000 
#    z 0.045560 0.000000 1.972770 
# 
# From -- ./inp_files/412.got.cif
#   From: 2010.05.17/outbox.cif.g08.bks.cpg/sg7_cif.got.tgz:412.got - 2010.06.03 19:44:50.
