data_PCOD9131860
_publ_section_title
;
Structure prediction by ZEFSAII (Michael W. Deem and Ramdas Pophale) SiO2 
 PCOD9131860
Probable space group: C M
;
_chemical_formula_sum "Si O2"
_cell_formula_units_Z 32
_cell_length_a 15.570608
_cell_length_b 7.372009
_cell_length_c 23.545383
_cell_angle_alpha 90.000000
_cell_angle_beta 147.716917
_cell_angle_gamma 90.000000
_cell_volume 1443.517344
_symmetry_space_group_name_H-M "C M"
_symmetry_group_IT_number 8
_symmetry_cell_setting 'monoclinic'
loop_
_space_group_symop_operation_xyz
x,y,z
x,-y,z
1/2+x,1/2+y,z
1/2+x,1/2-y,z
loop_
_atom_site_type_symbol
_atom_site_label
_atom_site_fract_x
_atom_site_fract_y
_atom_site_fract_z
Si Si1 0.145570 0.781495 0.645360
Si Si2 0.999380 0.287410 0.044874
Si Si3 0.795045 0.217194 0.417008
Si Si4 0.372651 0.781801 0.664264
Si Si5 0.653185 0.781255 0.897831
Si Si6 0.786301 0.222747 0.283972
Si Si7 0.634766 0.285631 0.439518
Si Si8 0.933522 0.721895 0.881184
O O1 0.245253 0.745685 0.643505
O O2 0.258523 0.718217 0.760028
O O3 0.965673 0.711966 0.536477
O O4 0.136203 0.000000 0.645265
O O5 0.032841 0.500000 0.055329
O O6 0.149050 0.213632 0.164214
O O7 0.835918 0.271876 0.989634
O O8 0.971192 0.213679 0.965626
O O9 0.759241 0.280874 0.333658
O O10 0.660347 0.259383 0.387523
O O11 0.810844 0.000000 0.422309
O O12 0.542735 0.715066 0.783280
O O13 0.288947 0.711997 0.560410
O O14 0.389751 0.000000 0.668867
O O15 0.565529 0.724114 0.907348
O O16 0.647488 0.000000 0.894848
O O17 0.964042 0.283737 0.365300
O O18 0.784186 0.000000 0.282045
O O19 0.631992 0.500000 0.450063
O O20 0.931100 0.500000 0.879925
#
# Coordination Sequence:
#
# PCOD9131860 Si02
#       8
#     4   4   4   4   4   4   4   4
#     4   8  13  26  49  72  96 129 165 199 238 295
#     4  10  20  34  53  75 100 133 172 208 243 291
#     4  10  19  32  52  76 100 130 169 208 249 295
#     4   8  14  28  51  74 100 133 166 198 242 305
#     4   9  18  33  52  76 103 132 165 204 251 299
#     4   9  19  36  53  70 100 140 173 199 240 305
#     4  10  19  33  53  76 100 132 170 207 248 295
#     4   8  16  30  49  73  99 129 166 203 241 291
#
# _framework density 22.168074000000001
#
# number of rings (size 3 to 8) (size 9 to 14) (size 15 to 20)
#    0.000    3.000    1.250    1.500    1.750    1.000 
#    0.000    3.750    0.000    3.000    0.000    0.000 
#    0.000    0.000    0.000    0.000    0.000    0.000 
#
# Total GULP energy -89318.672036 kJ/mol
# GULP energy per Si atom -5582.417002 kJ/mol
# Density = 2.211762 g / cm^3
# Si number density = 22.168074 Si / 1000 Ang^3
#
#
#
# Elastic Constant Matrix: (Units=GPa)
#
#
# Indices 1 2 3 4 5 6 
#
# 1 63.7035 -6.9606 37.6938 0.0000 -28.2829 0.0000
# 2 -6.9606 77.1061 5.1634 0.0000 -4.5383 0.0000
# 3 37.6938 5.1634 116.3479 0.0001 -30.4258 0.0000
# 4 0.0000 0.0000 0.0001 -4.0426 0.0000 8.4485
# 5 -28.2829 -4.5383 -30.4258 0.0000 27.8919 0.0000
# 6 0.0000 0.0000 0.0000 8.4485 0.0000 9.9404
#
#
#
# Elastic Compliance Matrix: (Units=1/GPa)
#
#
# Indices 1 2 3 4 5 6 
#
# 1 0.030576 0.004636 -0.002527 0.000000 0.029002 0.000000
# 2 0.004636 0.013798 -0.000417 0.000000 0.006492 0.000000
# 3 -0.002527 -0.000417 0.012234 0.000000 0.010715 0.000000
# 4 0.000000 0.000000 0.000000 -0.089101 0.000000 0.075729
# 5 0.029002 0.006492 0.010715 0.000000 0.078006 0.000000
# 6 0.000000 0.000000 0.000000 0.075729 0.000000 0.036236
#
#
# Mechanical properties :
#
#
# Convention : Reuss Voigt Hill
#
# Bulk Modulus (GPa) = 16.66869 36.55009 26.60939
# Shear Modulus (GPa) = 50.83239 21.50866 36.17053
#
# Velocity S-wave (km/s) = 4.79377 3.11827 4.04375
# Velocity P-wave (km/s) = 6.17866 5.43031 5.81654
#
# Compressibility (1/GPa) = 0.05999272
#
# Stress axis : x y z
#
# Youngs Moduli (GPa) = 32.70529 72.47592 81.73738
#
# Poissons Ratio (x) = -0.33603 0.20658
# Poissons Ratio (y) = -0.15164 0.03406
# Poissons Ratio (z) = 0.08266 0.03020
#
# Static dielectric constant tensor:
#      x y z
#    x 1.779140 0.000000 -0.018990 
#    y 0.000000 1.860310 0.000000 
#    z -0.018990 0.000000 1.802460 
# 
# From -- ./inp_files/20228.got.cif
#   From: 2010.05.17/outbox.cif.g08.bks.cpg/sg8_11_cif.got.tgz:20228.got - 2010.06.03 19:46:02.
