data_PCOD9131389
_publ_section_title
;
Structure prediction by ZEFSAII (Michael W. Deem and Ramdas Pophale) SiO2 
 PCOD9131389
Probable space group: P C
;
_chemical_formula_sum "Si O2"
_cell_formula_units_Z 14
_cell_length_a 7.806262
_cell_length_b 13.878121
_cell_length_c 5.667352
_cell_angle_alpha 90.000000
_cell_angle_beta 59.333555
_cell_angle_gamma 90.000000
_cell_volume 528.115289
_symmetry_space_group_name_H-M "P C"
_symmetry_group_IT_number 7
_symmetry_cell_setting 'monoclinic'
loop_
_space_group_symop_operation_xyz
x,y,z
x,-y,1/2+z
loop_
_atom_site_type_symbol
_atom_site_label
_atom_site_fract_x
_atom_site_fract_y
_atom_site_fract_z
Si Si1 0.689030 0.845692 0.281780
Si Si2 0.205189 0.874230 0.630272
Si Si3 0.721045 0.332430 0.037674
Si Si4 0.295939 0.606203 0.792997
Si Si5 0.195037 0.896343 0.139667
Si Si6 0.664861 0.133816 0.294853
Si Si7 0.147680 0.613079 0.394896
O O1 0.445390 0.853499 0.457920
O O2 0.748196 0.734804 0.286553
O O3 0.750966 0.899462 0.481042
O O4 0.756331 0.885590 0.984622
O O5 0.132343 0.845748 0.941095
O O6 0.162137 0.989203 0.657859
O O7 0.127236 0.843648 0.427326
O O8 0.914588 0.381414 0.003812
O O9 0.534230 0.398976 0.115976
O O10 0.661651 0.249167 0.265390
O O11 0.214527 0.653105 0.605639
O O12 0.208867 0.499035 0.864744
O O13 0.245908 0.652504 0.083352
O O14 0.436651 0.897562 0.968218
#
# Coordination Sequence:
#
# PCOD9131389 Si02
#       7
#     2   2   2   2   2   2   2
#     4   8  16  26  44  73  96 140 175 203 276 312
#     4   8  12  20  34  58  97 129 160 216 249 297
#     4  10  22  36  62  74 120 142 174 240 268 312
#     4  10  24  40  58  86 107 140 187 219 278 337
#     4   8  12  20  34  58  97 129 160 216 249 297
#     4   8  16  26  44  73  96 140 175 203 276 312
#     4  10  24  40  58  86 107 140 187 219 278 337
#
# _framework density 26.509363
#
# number of rings (size 3 to 8) (size 9 to 14) (size 15 to 20)
#    0.857    2.286    0.000    0.000    4.000    4.571 
#    0.000    0.000    0.000    0.000    0.000    0.000 
#    0.000    6.857    0.000    0.000    0.000    0.000 
#
# Total GULP energy -78188.347751 kJ/mol
# GULP energy per Si atom -5584.881982 kJ/mol
# Density = 2.644903 g / cm^3
# Si number density = 26.509363 Si / 1000 Ang^3
#
#
#
# Elastic Constant Matrix: (Units=GPa)
#
#
# Indices 1 2 3 4 5 6 
#
# 1 195.2845 33.2407 64.0760 0.0000 18.1238 0.0000
# 2 33.2407 91.6671 15.3838 0.0000 -10.8587 0.0000
# 3 64.0760 15.3838 209.9969 0.0000 79.1000 0.0000
# 4 0.0000 0.0000 0.0000 22.6615 0.0000 -7.7728
# 5 18.1238 -10.8587 79.1000 0.0000 73.1535 0.0000
# 6 0.0000 0.0000 0.0000 -7.7728 0.0000 28.2337
#
#
#
# Elastic Compliance Matrix: (Units=1/GPa)
#
#
# Indices 1 2 3 4 5 6 
#
# 1 0.005998 -0.001870 -0.001736 0.000000 0.000113 0.000000
# 2 -0.001870 0.012468 -0.002049 0.000000 0.004529 0.000000
# 3 -0.001736 -0.002049 0.009101 0.000000 -0.009715 0.000000
# 4 0.000000 0.000000 0.000000 0.048729 0.000000 0.013415
# 5 0.000113 0.004529 -0.009715 0.000000 0.024819 0.000000
# 6 0.000000 0.000000 0.000000 0.013415 0.000000 0.039112
#
#
# Mechanical properties :
#
#
# Convention : Reuss Voigt Hill
#
# Bulk Modulus (GPa) = 61.51193 80.26107 70.88650
# Shear Modulus (GPa) = 31.85620 50.42627 41.14123
#
# Velocity S-wave (km/s) = 3.47031 4.36616 3.94375
# Velocity P-wave (km/s) = 6.26990 7.46726 6.89462
#
# Compressibility (1/GPa) = 0.01625701
#
# Stress axis : x y z
#
# Youngs Moduli (GPa) = 166.71813 80.20780 109.87722
#
# Poissons Ratio (x) = 0.15002 0.19073
# Poissons Ratio (y) = 0.31182 0.22511
# Poissons Ratio (z) = 0.28940 0.16432
#
# Static dielectric constant tensor:
#      x y z
#    x 2.080910 0.000000 0.039560 
#    y 0.000000 2.198900 0.000000 
#    z 0.039560 0.000000 2.191170 
# 
# From -- ./inp_files/838.got.cif
#   From: 2010.05.17/outbox.cif.g08.bks.cpg/sg7_cif.got.tgz:838.got - 2010.06.03 19:44:50.
