data_PCOD9131762
_publ_section_title
;
Structure prediction by ZEFSAII (Michael W. Deem and Ramdas Pophale) SiO2 
 PCOD9131762
Probable space group: C M
;
_chemical_formula_sum "Si O2"
_cell_formula_units_Z 16
_cell_length_a 19.136227
_cell_length_b 5.599593
_cell_length_c 7.779592
_cell_angle_alpha 90.000000
_cell_angle_beta 46.609099
_cell_angle_gamma 90.000000
_cell_volume 605.780182
_symmetry_space_group_name_H-M "C M"
_symmetry_group_IT_number 8
_symmetry_cell_setting 'monoclinic'
loop_
_space_group_symop_operation_xyz
x,y,z
x,-y,z
1/2+x,1/2+y,z
1/2+x,1/2-y,z
loop_
_atom_site_type_symbol
_atom_site_label
_atom_site_fract_x
_atom_site_fract_y
_atom_site_fract_z
Si Si1 0.731261 0.500000 0.607301
Si Si2 0.364185 0.500000 0.015419
Si Si3 0.753321 0.000000 0.764264
Si Si4 0.941776 0.000000 0.274683
Si Si5 0.084881 0.000000 0.578558
Si Si6 0.851845 0.500000 0.057576
Si Si7 0.549814 0.000000 0.555228
Si Si8 0.535690 0.000000 0.209318
O O1 0.741476 0.744554 0.689958
O O2 0.627292 0.500000 0.695482
O O3 0.808396 0.500000 0.321438
O O4 0.381884 0.500000 0.193841
O O5 0.319271 0.250980 0.033485
O O6 0.471052 0.500000 0.762110
O O7 0.870935 0.000000 0.562241
O O8 0.651651 0.000000 0.039529
O O9 0.000607 0.250364 0.184509
O O10 0.110771 0.741659 0.462198
O O11 0.968456 0.500000 0.843813
O O12 0.492982 0.000000 0.473589
#
# Coordination Sequence:
#
# PCOD9131762 Si02
#       8
#     2   2   2   2   2   2   2   2
#     4  12  21  40  63 101 125 155 207 272 335 370
#     4  10  18  35  58  88 119 151 199 256 319 368
#     4  12  25  42  66 101 133 159 214 273 315 394
#     4  12  23  42  67  95 129 173 210 263 326 375
#     4  10  21  36  65  88 120 164 204 265 323 365
#     4  10  19  36  61  83 125 152 193 260 309 370
#     4  10  23  43  57  88 124 170 215 251 304 382
#     4  12  26  44  65  92 131 180 216 254 315 380
#
# _framework density 26.412220000000001
#
# number of rings (size 3 to 8) (size 9 to 14) (size 15 to 20)
#    0.000    1.000    2.500    5.250    0.000    2.000 
#    4.500    0.000    0.000    0.000    0.000    0.000 
#    0.000    0.000    0.000    0.000    0.000    0.000 
#
# Total GULP energy -44629.718392 kJ/mol
# GULP energy per Si atom -5578.714799 kJ/mol
# Density = 2.635211 g / cm^3
# Si number density = 26.412220 Si / 1000 Ang^3
#
#
#
# Elastic Constant Matrix: (Units=GPa)
#
#
# Indices 1 2 3 4 5 6 
#
# 1 42.3277 24.1647 24.9745 0.0000 -10.5371 0.0000
# 2 24.1647 319.4338 28.0380 0.0000 -8.1395 0.0000
# 3 24.9745 28.0380 138.7900 0.0000 -28.2873 0.0000
# 4 0.0000 0.0000 0.0000 -24.1895 0.0000 -1.7230
# 5 -10.5371 -8.1395 -28.2873 0.0000 35.1235 0.0000
# 6 0.0000 0.0000 0.0000 -1.7230 0.0000 28.9104
#
#
#
# Elastic Compliance Matrix: (Units=1/GPa)
#
#
# Indices 1 2 3 4 5 6 
#
# 1 0.028002 -0.001667 -0.003671 0.000000 0.005058 0.000000
# 2 -0.001667 0.003288 -0.000372 0.000000 -0.000038 0.000000
# 3 -0.003671 -0.000372 0.009211 0.000000 0.006230 0.000000
# 4 0.000000 0.000000 0.000000 -0.041166 0.000000 -0.002453
# 5 0.005058 -0.000038 0.006230 0.000000 0.034997 0.000000
# 6 0.000000 0.000000 0.000000 -0.002453 0.000000 0.034443
#
#
# Mechanical properties :
#
#
# Convention : Reuss Voigt Hill
#
# Bulk Modulus (GPa) = 34.38730 72.76731 53.57731
# Shear Modulus (GPa) = 55.62300 36.19383 45.90841
#
# Velocity S-wave (km/s) = 4.59405 3.70583 4.17364
# Velocity P-wave (km/s) = 6.41780 6.77653 6.59960
#
# Compressibility (1/GPa) = 0.02908050
#
# Stress axis : x y z
#
# Youngs Moduli (GPa) = 35.71147 304.10376 108.56882
#
# Poissons Ratio (x) = 0.50701 0.39858
# Poissons Ratio (y) = 0.05954 0.04039
# Poissons Ratio (z) = 0.13110 0.11312
#
# Static dielectric constant tensor:
#      x y z
#    x 2.038330 0.000000 -0.003790 
#    y 0.000000 2.092540 0.000000 
#    z -0.003790 0.000000 2.092820 
# 
# From -- ./inp_files/11764.got.cif
#   From: 2010.05.17/outbox.cif.g08.bks.cpg/sg8_6_cif.got.tgz:11764.got - 2010.06.03 19:46:02.
