data_PCOD9131008
_publ_section_title
;
Structure prediction by ZEFSAII (Michael W. Deem and Ramdas Pophale) SiO2 
 PCOD9131008
Probable space group: P M
;
_chemical_formula_sum "Si O2"
_cell_formula_units_Z 16
_cell_length_a 7.954469
_cell_length_b 13.036679
_cell_length_c 7.641892
_cell_angle_alpha 90.000000
_cell_angle_beta 113.883830
_cell_angle_gamma 90.000000
_cell_volume 724.603125
_symmetry_space_group_name_H-M "P M"
_symmetry_group_IT_number 6
_symmetry_cell_setting 'monoclinic'
loop_
_space_group_symop_operation_xyz
x,y,z
x,-y,z
loop_
_atom_site_type_symbol
_atom_site_label
_atom_site_fract_x
_atom_site_fract_y
_atom_site_fract_z
Si Si1 0.267910 0.384697 0.617120
Si Si2 0.975607 0.767024 0.996654
Si Si3 0.325130 0.681230 0.240111
Si Si4 0.719308 0.387331 0.378680
Si Si5 0.694917 0.610417 0.791650
Si Si6 0.146910 0.825474 0.732947
Si Si7 0.455922 0.114619 0.126320
Si Si8 0.880403 0.827716 0.319519
O O1 0.192119 0.500000 0.608790
O O2 0.276918 0.353251 0.415656
O O3 0.482917 0.389260 0.752852
O O4 0.179306 0.292526 0.687193
O O5 0.982571 0.828185 0.177982
O O6 0.133457 0.679521 0.058798
O O7 0.786021 0.708189 0.913406
O O8 0.011899 0.832600 0.841681
O O9 0.501686 0.621363 0.243327
O O10 0.389077 0.799267 0.236226
O O11 0.784600 0.500000 0.351829
O O12 0.718915 0.380724 0.591009
O O13 0.829990 0.291319 0.349171
O O14 0.774215 0.500000 0.877738
O O15 0.025953 0.870023 0.522660
O O16 0.342426 0.864007 0.896295
O O17 0.677780 0.123265 0.213142
O O18 0.407072 0.000000 0.160619
#
# Coordination Sequence:
#
# PCOD9131008 Si02
#       8
#     2   2   2   2   2   2   2   2
#     4  10  20  38  62  93 135 182 221 255 317 398
#     4  11  21  36  57  91 123 165 218 268 321 385
#     4   9  19  37  63  89 126 165 209 275 319 379
#     4   9  18  35  55  83 124 172 214 256 317 390
#     4   9  18  31  52  82 121 166 214 259 305 372
#     4  11  23  42  67  91 136 174 209 277 327 378
#     4  10  24  46  70  98 127 167 227 279 336 407
#     4  11  22  41  66  91 128 171 213 273 333 387
#
# _framework density 22.081054000000002
#
# number of rings (size 3 to 8) (size 9 to 14) (size 15 to 20)
#    0.000    2.000    2.500    1.875    0.000    3.000 
#    0.000   12.500    0.000    0.000    0.000    0.000 
#    0.000    0.000    0.000    0.000    0.000    0.000 
#
# Total GULP energy -89220.619140 kJ/mol
# GULP energy per Si atom -5576.288696 kJ/mol
# Density = 2.203080 g / cm^3
# Si number density = 22.081054 Si / 1000 Ang^3
#
#
#
# Elastic Constant Matrix: (Units=GPa)
#
#
# Indices 1 2 3 4 5 6 
#
# 1 70.8055 10.0640 25.2593 0.0000 2.8328 0.0000
# 2 10.0640 95.9898 10.9240 0.0000 5.1108 0.0000
# 3 25.2593 10.9240 108.6293 0.0000 4.9517 0.0000
# 4 0.0000 0.0000 0.0000 -0.5440 0.0000 -11.0127
# 5 2.8328 5.1108 4.9517 0.0000 41.6870 0.0000
# 6 0.0000 0.0000 0.0000 -11.0127 0.0000 3.0499
#
#
#
# Elastic Compliance Matrix: (Units=1/GPa)
#
#
# Indices 1 2 3 4 5 6 
#
# 1 0.015554 -0.001209 -0.003472 0.000000 -0.000496 0.000000
# 2 -0.001209 0.010690 -0.000742 0.000000 -0.001140 0.000000
# 3 -0.003472 -0.000742 0.010128 0.000000 -0.000876 0.000000
# 4 0.000000 0.000000 0.000000 -0.024808 0.000000 -0.089579
# 5 -0.000496 -0.001140 -0.000876 0.000000 0.024266 0.000000
# 6 0.000000 0.000000 0.000000 -0.089579 0.000000 0.004425
#
#
# Mechanical properties :
#
#
# Convention : Reuss Voigt Hill
#
# Bulk Modulus (GPa) = 39.17864 40.87993 40.02929
# Shear Modulus (GPa) = 83.88003 24.11704 53.99853
#
# Velocity S-wave (km/s) = 6.17007 3.30844 4.95053
# Velocity P-wave (km/s) = 8.27897 5.75744 7.13055
#
# Compressibility (1/GPa) = 0.02552411
#
# Stress axis : x y z
#
# Youngs Moduli (GPa) = 64.29348 93.54817 98.74012
#
# Poissons Ratio (x) = 0.11311 0.34287
# Poissons Ratio (y) = 0.07774 0.07325
# Poissons Ratio (z) = 0.22326 0.06940
#
# Static dielectric constant tensor:
#      x y z
#    x 1.819130 0.000000 0.042470 
#    y 0.000000 1.822510 0.000000 
#    z 0.042470 0.000000 1.877040 
# 
# From -- ./inp_files/3069.got.cif
#   From: 2010.05.17/outbox.cif.g08.bks.cpg/sg6_2_cif.got.tgz:3069.got - 2010.06.03 19:42:10.
