data_PCOD9131688
_publ_section_title
;
Structure prediction by ZEFSAII (Michael W. Deem and Ramdas Pophale) SiO2 
 PCOD9131688
Probable space group: C M
;
_chemical_formula_sum "Si O2"
_cell_formula_units_Z 32
_cell_length_a 15.796834
_cell_length_b 8.512051
_cell_length_c 23.098978
_cell_angle_alpha 90.000000
_cell_angle_beta 32.196296
_cell_angle_gamma 90.000000
_cell_volume 1654.926977
_symmetry_space_group_name_H-M "C M"
_symmetry_group_IT_number 8
_symmetry_cell_setting 'monoclinic'
loop_
_space_group_symop_operation_xyz
x,y,z
x,-y,z
1/2+x,1/2+y,z
1/2+x,1/2-y,z
loop_
_atom_site_type_symbol
_atom_site_label
_atom_site_fract_x
_atom_site_fract_y
_atom_site_fract_z
Si Si1 0.103950 0.685205 0.554780
Si Si2 0.763467 0.312188 0.576193
Si Si3 0.043079 0.188092 0.811734
Si Si4 0.090276 0.688961 0.332653
Si Si5 0.428026 0.812187 0.179634
Si Si6 0.259703 0.192122 0.786439
Si Si7 0.911183 0.688412 0.319920
Si Si8 0.727611 0.312821 0.936904
O O1 0.104718 0.500000 0.541732
O O2 0.169615 0.717809 0.581329
O O3 0.230184 0.766981 0.440019
O O4 0.922942 0.742972 0.661044
O O5 0.746697 0.500000 0.573826
O O6 0.682165 0.280902 0.684398
O O7 0.949335 0.275451 0.460149
O O8 0.109072 0.239686 0.835577
O O9 0.881627 0.265793 0.884476
O O10 0.018464 0.000000 0.827138
O O11 0.107592 0.500000 0.320423
O O12 0.257062 0.760259 0.254478
O O13 0.022275 0.743221 0.309174
O O14 0.450783 0.753418 0.232728
O O15 0.433067 0.000000 0.178251
O O16 0.569192 0.752123 0.057659
O O17 0.251141 0.246342 0.857462
O O18 0.264622 0.000000 0.783903
O O19 0.923291 0.500000 0.313052
O O20 0.215995 0.000000 0.941024
#
# Coordination Sequence:
#
# PCOD9131688 Si02
#       8
#     4   4   4   4   4   4   4   4
#     4  10  18  32  58  87 119 151 190 236 283 341
#     4   9  18  33  57  85 120 155 188 231 288 346
#     4  10  20  37  60  85 114 154 196 235 284 344
#     4   9  19  37  59  85 115 152 191 232 287 344
#     4  11  24  41  61  85 114 153 199 242 288 342
#     4   9  20  36  57  85 116 152 189 232 288 345
#     4   9  21  40  58  82 118 155 190 233 291 349
#     4  11  23  42  60  82 118 154 195 243 289 339
#
# _framework density 19.336200000000002
#
# number of rings (size 3 to 8) (size 9 to 14) (size 15 to 20)
#    0.000    2.250    1.250    1.875    1.750    4.000 
#    0.000    7.500    0.000    0.000    0.000    0.000 
#    0.000    0.000    0.000    0.000    0.000    0.000 
#
# Total GULP energy -89300.638941 kJ/mol
# GULP energy per Si atom -5581.289934 kJ/mol
# Density = 1.929219 g / cm^3
# Si number density = 19.336200 Si / 1000 Ang^3
#
#
#
# Elastic Constant Matrix: (Units=GPa)
#
#
# Indices 1 2 3 4 5 6 
#
# 1 64.5891 10.7414 33.2397 0.0000 -22.9640 0.0000
# 2 10.7414 7.7796 16.3593 0.0000 -6.9682 0.0000
# 3 33.2397 16.3593 93.7406 0.0000 -22.0557 0.0000
# 4 0.0000 0.0000 0.0000 31.6443 0.0000 -4.2818
# 5 -22.9640 -6.9682 -22.0557 0.0000 23.3363 0.0000
# 6 0.0000 0.0000 0.0000 -4.2818 0.0000 22.9025
#
#
#
# Elastic Compliance Matrix: (Units=1/GPa)
#
#
# Indices 1 2 3 4 5 6 
#
# 1 0.025693 -0.013686 -0.002231 0.000000 0.019088 0.000000
# 2 -0.013686 0.235156 -0.029363 0.000000 0.028999 0.000000
# 3 -0.002231 -0.029363 0.018008 0.000000 0.006057 0.000000
# 4 0.000000 0.000000 0.000000 0.032421 0.000000 0.006061
# 5 0.019088 0.028999 0.006057 0.000000 0.076019 0.000000
# 6 0.000000 0.000000 0.000000 0.006061 0.000000 0.044797
#
#
# Mechanical properties :
#
#
# Convention : Reuss Voigt Hill
#
# Bulk Modulus (GPa) = 5.31072 31.86557 18.58814
# Shear Modulus (GPa) = 8.54087 22.62787 15.58437
#
# Velocity S-wave (km/s) = 2.10395 3.42458 2.84204
# Velocity P-wave (km/s) = 2.94188 5.67032 4.51703
#
# Compressibility (1/GPa) = 0.18829842
#
# Stress axis : x y z
#
# Youngs Moduli (GPa) = 38.92062 4.25249 55.53017
#
# Poissons Ratio (x) = 0.05820 0.12389
# Poissons Ratio (y) = 0.53266 1.63052
# Poissons Ratio (z) = 0.08684 0.12486
#
# Static dielectric constant tensor:
#      x y z
#    x 1.690480 0.000000 0.017330 
#    y 0.000000 1.671990 0.000000 
#    z 0.017330 0.000000 1.652200 
# 
# From -- ./inp_files/24800.got.cif
#   From: 2010.05.17/outbox.cif.g08.bks.cpg/sg8_13_cif.got.tgz:24800.got - 2010.06.03 19:46:02.
