data_PCOD9131432
_publ_section_title
;
Structure prediction by ZEFSAII (Michael W. Deem and Ramdas Pophale) SiO2 
 PCOD9131432
Probable space group: P C
;
_chemical_formula_sum "Si O2"
_cell_formula_units_Z 16
_cell_length_a 7.584451
_cell_length_b 17.273916
_cell_length_c 5.127781
_cell_angle_alpha 90.000000
_cell_angle_beta 66.267215
_cell_angle_gamma 90.000000
_cell_volume 614.993780
_symmetry_space_group_name_H-M "P C"
_symmetry_group_IT_number 7
_symmetry_cell_setting 'monoclinic'
loop_
_space_group_symop_operation_xyz
x,y,z
x,-y,1/2+z
loop_
_atom_site_type_symbol
_atom_site_label
_atom_site_fract_x
_atom_site_fract_y
_atom_site_fract_z
Si Si1 0.422020 0.619955 0.002170
Si Si2 0.082757 0.801212 0.538527
Si Si3 0.768000 0.049971 0.750014
Si Si4 0.418407 0.286577 0.019684
Si Si5 0.781104 0.216716 0.601157
Si Si6 0.016773 0.662177 0.233098
Si Si7 0.302423 0.044645 0.017628
Si Si8 0.813568 0.544460 0.725978
O O1 0.413614 0.643704 0.311441
O O2 0.200269 0.609993 0.046017
O O3 0.489477 0.687092 0.759905
O O4 0.582861 0.555823 0.864109
O O5 0.211440 0.752975 0.671522
O O6 0.104198 0.743397 0.286540
O O7 0.181170 0.883754 0.481136
O O8 0.862901 0.800265 0.766344
O O9 0.845465 0.137761 0.710137
O O10 0.824188 0.002080 0.460747
O O11 0.534145 0.056074 0.872407
O O12 0.557563 0.225803 0.794830
O O13 0.858231 0.302065 0.635423
O O14 0.914514 0.618051 0.533884
O O15 0.259277 0.025413 0.343881
O O16 0.865126 0.476247 0.491192
#
# Coordination Sequence:
#
# PCOD9131432 Si02
#       8
#     2   2   2   2   2   2   2   2
#     4  11  24  46  71 101 142 178 228 282 343 413
#     4  11  25  43  69 108 134 193 237 299 350 415
#     4  10  24  43  64  97 139 190 237 293 355 415
#     4  11  23  42  70 100 138 179 235 287 342 411
#     4  12  24  42  73 101 139 188 239 297 345 415
#     4  11  27  45  74 110 143 177 240 294 345 412
#     4  10  23  43  65  93 140 190 240 294 355 415
#     4  12  28  48  76 106 145 187 224 276 357 430
#
# _framework density 26.016525999999999
#
# number of rings (size 3 to 8) (size 9 to 14) (size 15 to 20)
#    0.000    1.000    3.750    1.500    5.250    2.000 
#    0.000    0.000    0.000    0.000    0.000    0.000 
#    0.000    0.000    0.000    0.000    0.000    0.000 
#
# Total GULP energy -89448.063630 kJ/mol
# GULP energy per Si atom -5590.503977 kJ/mol
# Density = 2.595731 g / cm^3
# Si number density = 26.016526 Si / 1000 Ang^3
#
#
#
# Elastic Constant Matrix: (Units=GPa)
#
#
# Indices 1 2 3 4 5 6 
#
# 1 73.3029 20.7136 17.5670 0.0000 -21.4397 0.0000
# 2 20.7136 95.4924 26.2638 0.0000 0.0803 0.0000
# 3 17.5670 26.2638 136.1270 0.0000 -1.9263 0.0000
# 4 0.0000 0.0000 0.0000 27.8780 0.0000 2.3774
# 5 -21.4397 0.0803 -1.9263 0.0000 36.8083 0.0000
# 6 0.0000 0.0000 0.0000 2.3774 0.0000 44.9196
#
#
#
# Elastic Compliance Matrix: (Units=1/GPa)
#
#
# Indices 1 2 3 4 5 6 
#
# 1 0.018048 -0.003510 -0.001504 0.000000 0.010441 0.000000
# 2 -0.003510 0.011742 -0.001843 0.000000 -0.002167 0.000000
# 3 -0.001504 -0.001843 0.007889 0.000000 -0.000459 0.000000
# 4 0.000000 0.000000 0.000000 0.036033 0.000000 -0.001907
# 5 0.010441 -0.002167 -0.000459 0.000000 0.033230 0.000000
# 6 0.000000 0.000000 0.000000 -0.001907 0.000000 0.022363
#
#
# Mechanical properties :
#
#
# Convention : Reuss Voigt Hill
#
# Bulk Modulus (GPa) = 41.72740 48.22347 44.97543
# Shear Modulus (GPa) = 33.11055 37.94635 35.52845
#
# Velocity S-wave (km/s) = 3.57133 3.82324 3.69943
# Velocity P-wave (km/s) = 5.75147 6.16972 5.96426
#
# Compressibility (1/GPa) = 0.02396507
#
# Stress axis : x y z
#
# Youngs Moduli (GPa) = 55.40703 85.16314 126.75381
#
# Poissons Ratio (x) = 0.29892 0.19066
# Poissons Ratio (y) = 0.19448 0.23363
# Poissons Ratio (z) = 0.08334 0.15697
#
# Static dielectric constant tensor:
#      x y z
#    x 2.094260 0.000000 0.000540 
#    y 0.000000 2.043500 0.000000 
#    z 0.000540 0.000000 2.024650 
# 
# From -- ./inp_files/753.got.cif
#   From: 2010.05.17/outbox.cif.g08.bks.cpg/sg7_cif.got.tgz:753.got - 2010.06.03 19:44:50.
