data_PCOD9131439
_publ_section_title
;
Structure prediction by ZEFSAII (Michael W. Deem and Ramdas Pophale) SiO2 
 PCOD9131439
Probable space group: P C
;
_chemical_formula_sum "Si O2"
_cell_formula_units_Z 16
_cell_length_a 9.544102
_cell_length_b 16.993672
_cell_length_c 5.245219
_cell_angle_alpha 90.000000
_cell_angle_beta 51.125553
_cell_angle_gamma 90.000000
_cell_volume 662.304111
_symmetry_space_group_name_H-M "P C"
_symmetry_group_IT_number 7
_symmetry_cell_setting 'monoclinic'
loop_
_space_group_symop_operation_xyz
x,y,z
x,-y,1/2+z
loop_
_atom_site_type_symbol
_atom_site_label
_atom_site_fract_x
_atom_site_fract_y
_atom_site_fract_z
Si Si1 0.494680 0.162924 0.081240
Si Si2 0.217940 0.052966 0.597708
Si Si3 0.711717 0.543450 0.321907
Si Si4 0.771420 0.052966 0.564772
Si Si5 0.184290 0.724833 0.004845
Si Si6 0.994680 0.819350 0.581240
Si Si7 0.277643 0.456550 0.340568
Si Si8 0.805070 0.275166 0.657635
O O1 0.400642 0.104736 0.389435
O O2 0.333183 0.221685 0.194593
O O3 0.588718 0.104736 0.773045
O O4 0.656178 0.221684 0.967887
O O5 0.214352 0.003740 0.343610
O O6 0.053042 0.115194 0.803436
O O7 0.778244 0.511975 0.517339
O O8 0.494680 0.538170 0.581237
O O9 0.757494 0.633731 0.216842
O O10 0.936318 0.115194 0.359044
O O11 0.775009 0.996260 0.318871
O O12 0.154092 0.757868 0.327302
O O13 0.994680 0.735230 0.081239
O O14 0.231866 0.633730 0.945637
O O15 0.835267 0.757868 0.835178
O O16 0.211117 0.511976 0.645134
#
# Coordination Sequence:
#
# PCOD9131439 Si02
#       8
#     2   2   2   2   2   2   2   2
#     4  10  24  48  70 106 142 186 248 294 360 426
#     4  11  24  45  72 100 140 192 239 298 359 426
#     4  10  23  46  74 106 143 188 238 291 351 423
#     4  11  24  45  72 100 140 192 239 298 359 426
#     4  11  25  46  72 105 146 193 234 298 357 428
#     4  10  26  42  68 106 146 180 244 294 362 418
#     4  10  23  46  74 106 143 188 238 291 351 423
#     4  11  25  46  72 105 146 193 234 298 357 428
#
# _framework density 24.158086999999998
#
# number of rings (size 3 to 8) (size 9 to 14) (size 15 to 20)
#    0.000    1.500    1.250    1.500   10.500    1.000 
#    4.500    0.000    0.000    0.000    0.000    0.000 
#    0.000    0.000    0.000    0.000    0.000    0.000 
#
# Total GULP energy -89255.876690 kJ/mol
# GULP energy per Si atom -5578.492293 kJ/mol
# Density = 2.410310 g / cm^3
# Si number density = 24.158087 Si / 1000 Ang^3
#
#
#
# Elastic Constant Matrix: (Units=GPa)
#
#
# Indices 1 2 3 4 5 6 
#
# 1 68.7563 24.5155 53.2681 0.0000 4.2648 0.0000
# 2 24.5155 205.5797 106.4771 0.0000 21.1234 0.0000
# 3 53.2681 106.4771 159.9161 0.0000 16.6363 0.0000
# 4 0.0000 0.0000 0.0000 66.4744 0.0000 -19.3940
# 5 4.2648 21.1234 16.6363 0.0000 34.8557 0.0000
# 6 0.0000 0.0000 0.0000 -19.3940 0.0000 10.7451
#
#
#
# Elastic Compliance Matrix: (Units=1/GPa)
#
#
# Indices 1 2 3 4 5 6 
#
# 1 0.019954 0.001601 -0.007742 0.000000 0.000283 0.000000
# 2 0.001601 0.007725 -0.005440 0.000000 -0.002281 0.000000
# 3 -0.007742 -0.005440 0.012640 0.000000 -0.001789 0.000000
# 4 0.000000 0.000000 0.000000 0.031776 0.000000 0.057354
# 5 0.000283 -0.002281 -0.001789 0.000000 0.030891 0.000000
# 6 0.000000 0.000000 0.000000 0.057354 0.000000 0.196584
#
#
# Mechanical properties :
#
#
# Convention : Reuss Voigt Hill
#
# Bulk Modulus (GPa) = 58.28211 89.19705 73.73958
# Shear Modulus (GPa) = 15.22292 39.08114 27.15203
#
# Velocity S-wave (km/s) = 2.51298 4.02646 3.35615
# Velocity P-wave (km/s) = 5.70944 7.65630 6.75339
#
# Compressibility (1/GPa) = 0.01715792
#
# Stress axis : x y z
#
# Youngs Moduli (GPa) = 50.11562 129.44685 79.11156
#
# Poissons Ratio (x) = -0.20730 0.61251
# Poissons Ratio (y) = -0.08026 0.43035
# Poissons Ratio (z) = 0.38802 0.70416
#
# Static dielectric constant tensor:
#      x y z
#    x 2.061950 0.000000 0.035130 
#    y 0.000000 1.884550 0.000000 
#    z 0.035130 0.000000 1.983520 
# 
# From -- ./inp_files/633.got.cif
#   From: 2010.05.17/outbox.cif.g08.bks.cpg/sg7_cif.got.tgz:633.got - 2010.06.03 19:44:50.
