data_PCOD9131323
_publ_section_title
;
Structure prediction by ZEFSAII (Michael W. Deem and Ramdas Pophale) SiO2 
 PCOD9131323
Probable space group: P C
;
_chemical_formula_sum "Si O2"
_cell_formula_units_Z 10
_cell_length_a 6.824957
_cell_length_b 12.418529
_cell_length_c 5.330031
_cell_angle_alpha 90.000000
_cell_angle_beta 72.617372
_cell_angle_gamma 90.000000
_cell_volume 431.120645
_symmetry_space_group_name_H-M "P C"
_symmetry_group_IT_number 7
_symmetry_cell_setting 'monoclinic'
loop_
_space_group_symop_operation_xyz
x,y,z
x,-y,1/2+z
loop_
_atom_site_type_symbol
_atom_site_label
_atom_site_fract_x
_atom_site_fract_y
_atom_site_fract_z
Si Si1 0.302170 0.965605 0.980420
Si Si2 0.745862 0.780423 0.193727
Si Si3 0.287548 0.260425 0.711921
Si Si4 0.948645 0.855765 0.606956
Si Si5 0.027753 0.569727 0.106464
O O1 0.258972 0.840624 0.032587
O O2 0.416289 0.994740 0.684335
O O3 0.096126 0.039617 0.055200
O O4 0.507797 0.753899 0.249793
O O5 0.802380 0.847795 0.420546
O O6 0.243340 0.631297 0.078084
O O7 0.827298 0.837124 0.908895
O O8 0.864361 0.333169 0.674335
O O9 0.114539 0.240244 0.990561
O O10 0.006607 0.509687 0.851036
#
# Coordination Sequence:
#
# PCOD9131323 Si02
#       5
#     2   2   2   2   2
#     4  10  20  39  63  90 131 167 200 253 310 372
#     4  11  24  43  70  96 128 171 218 260 319 385
#     4  10  24  44  68  96 128 170 217 265 315 381
#     4  10  22  43  64  96 136 166 204 263 316 381
#     4  11  24  43  65  92 127 166 213 273 328 373
#
# _framework density 23.195360999999998
#
# number of rings (size 3 to 8) (size 9 to 14) (size 15 to 20)
#    0.000    1.600    0.000    6.000    0.000   11.200 
#    0.000   32.000    0.000    0.000    0.000    0.000 
#    0.000    0.000    0.000    0.000    0.000    0.000 
#
# Total GULP energy -55940.151275 kJ/mol
# GULP energy per Si atom -5594.015128 kJ/mol
# Density = 2.314257 g / cm^3
# Si number density = 23.195361 Si / 1000 Ang^3
#
#
#
# Elastic Constant Matrix: (Units=GPa)
#
#
# Indices 1 2 3 4 5 6 
#
# 1 135.9455 10.3269 39.2152 0.0000 12.7549 0.0000
# 2 10.3269 109.2477 38.2301 0.0000 7.7982 0.0000
# 3 39.2152 38.2301 188.4767 0.0000 17.7945 0.0000
# 4 0.0000 0.0000 0.0000 43.8561 0.0000 6.8429
# 5 12.7549 7.7982 17.7945 0.0000 22.7126 0.0000
# 6 0.0000 0.0000 0.0000 6.8429 0.0000 30.7957
#
#
#
# Elastic Compliance Matrix: (Units=1/GPa)
#
#
# Indices 1 2 3 4 5 6 
#
# 1 0.008072 -0.000046 -0.001343 0.000000 -0.003465 0.000000
# 2 -0.000046 0.009935 -0.001821 0.000000 -0.001959 0.000000
# 3 -0.001343 -0.001821 0.006289 0.000000 -0.003548 0.000000
# 4 0.000000 0.000000 0.000000 0.023621 0.000000 -0.005249
# 5 -0.003465 -0.001959 -0.003548 0.000000 0.049427 0.000000
# 6 0.000000 0.000000 0.000000 -0.005249 0.000000 0.033638
#
#
# Mechanical properties :
#
#
# Convention : Reuss Voigt Hill
#
# Bulk Modulus (GPa) = 55.93704 67.69049 61.81377
# Shear Modulus (GPa) = 34.87723 42.53272 38.70498
#
# Velocity S-wave (km/s) = 3.88187 4.28679 4.08934
# Velocity P-wave (km/s) = 6.65281 7.33132 7.00029
#
# Compressibility (1/GPa) = 0.01787724
#
# Stress axis : x y z
#
# Youngs Moduli (GPa) = 123.88679 100.65630 158.99687
#
# Poissons Ratio (x) = 0.00460 0.21354
# Poissons Ratio (y) = 0.00566 0.28948
# Poissons Ratio (z) = 0.16639 0.18326
#
# Static dielectric constant tensor:
#      x y z
#    x 1.888080 0.000000 0.016020 
#    y 0.000000 1.886600 0.000000 
#    z 0.016020 0.000000 1.960360 
# 
# From -- ./inp_files/139.got.cif
#   From: 2010.05.17/outbox.cif.g08.bks.cpg/sg7_cif.got.tgz:139.got - 2010.06.03 19:44:50.
