data_PCOD9131757
_publ_section_title
;
Structure prediction by ZEFSAII (Michael W. Deem and Ramdas Pophale) SiO2 
 PCOD9131757
Probable space group: C M
;
_chemical_formula_sum "Si O2"
_cell_formula_units_Z 32
_cell_length_a 16.701553
_cell_length_b 20.497722
_cell_length_c 9.833990
_cell_angle_alpha 90.000000
_cell_angle_beta 148.991157
_cell_angle_gamma 90.000000
_cell_volume 1734.375333
_symmetry_space_group_name_H-M "C M"
_symmetry_group_IT_number 8
_symmetry_cell_setting 'monoclinic'
loop_
_space_group_symop_operation_xyz
x,y,z
x,-y,z
1/2+x,1/2+y,z
1/2+x,1/2-y,z
loop_
_atom_site_type_symbol
_atom_site_label
_atom_site_fract_x
_atom_site_fract_y
_atom_site_fract_z
Si Si1 0.245880 0.202288 0.227210
Si Si2 0.367250 0.673388 0.070048
Si Si3 0.885254 0.319587 0.159381
Si Si4 0.242173 0.683864 0.603421
Si Si5 0.227911 0.828378 0.513360
Si Si6 0.267289 0.927373 0.784947
Si Si7 0.914350 0.926810 0.355707
Si Si8 0.417565 0.672213 0.601553
O O1 0.364824 0.171342 0.291062
O O2 0.227479 0.169319 0.349240
O O3 0.323162 0.271887 0.380805
O O4 0.078906 0.198630 0.904984
O O5 0.314115 0.747442 0.026189
O O6 0.553014 0.675243 0.317744
O O7 0.323547 0.622272 0.122975
O O8 0.304531 0.654344 0.832395
O O9 0.058723 0.316233 0.354530
O O10 0.809623 0.378326 0.967610
O O11 0.299252 0.759255 0.666722
O O12 0.306910 0.650253 0.563840
O O13 0.306015 0.889266 0.702032
O O14 0.081930 0.934065 0.528474
O O15 0.335358 0.000000 0.893277
O O16 0.942904 0.887585 0.536494
O O17 0.850224 0.000000 0.280236
#
# Coordination Sequence:
#
# PCOD9131757 Si02
#       8
#     4   4   4   4   4   4   4   4
#     4  11  22  34  60  88 123 145 200 251 290 340
#     4  10  18  35  56  83 114 149 195 237 292 342
#     4  11  21  34  58  89 115 154 193 243 291 353
#     4  10  21  34  59  84 118 151 190 247 294 344
#     4   9  19  34  54  84 114 151 193 236 290 344
#     4  10  20  37  59  84 119 155 194 237 294 357
#     4  10  21  37  59  84 116 155 196 241 294 355
#     4  11  22  39  57  92 119 156 195 248 299 347
#
# _framework density 18.450448000000002
#
# number of rings (size 3 to 8) (size 9 to 14) (size 15 to 20)
#    0.000    1.750    5.000    0.000    1.750    0.000 
#    0.000    3.125    0.000    0.000    0.000    0.000 
#    0.000    0.000    0.000    0.000    0.000    0.000 
#
# Total GULP energy -89072.601212 kJ/mol
# GULP energy per Si atom -5567.037576 kJ/mol
# Density = 1.840845 g / cm^3
# Si number density = 18.450448 Si / 1000 Ang^3
#
#
#
# Elastic Constant Matrix: (Units=GPa)
#
#
# Indices 1 2 3 4 5 6 
#
# 1 101.9653 36.5058 20.4507 0.0000 -24.1663 0.0000
# 2 36.5058 118.3941 34.6080 0.0000 -26.0104 0.0000
# 3 20.4507 34.6080 48.0415 0.0000 -25.4113 0.0000
# 4 0.0000 0.0000 0.0000 27.1893 0.0000 17.6341
# 5 -24.1663 -26.0104 -25.4113 0.0000 36.2532 0.0000
# 6 0.0000 0.0000 0.0000 17.6341 0.0000 34.2461
#
#
#
# Elastic Compliance Matrix: (Units=1/GPa)
#
#
# Indices 1 2 3 4 5 6 
#
# 1 0.012170 -0.002313 -0.000161 0.000000 0.006341 0.000000
# 2 -0.002313 0.011445 -0.005932 0.000000 0.002512 0.000000
# 3 -0.000161 -0.005932 0.036312 0.000000 0.021089 0.000000
# 4 0.000000 0.000000 0.000000 0.055221 0.000000 -0.028434
# 5 0.006341 0.002512 0.021089 0.000000 0.048395 0.000000
# 6 0.000000 0.000000 0.000000 -0.028434 0.000000 0.043842
#
#
# Mechanical properties :
#
#
# Convention : Reuss Voigt Hill
#
# Bulk Modulus (GPa) = 23.19254 50.16999 36.68127
# Shear Modulus (GPa) = 20.95837 31.32681 26.14259
#
# Velocity S-wave (km/s) = 3.37401 4.12501 3.76827
# Velocity P-wave (km/s) = 5.27030 7.06671 6.23356
#
# Compressibility (1/GPa) = 0.04311731
#
# Stress axis : x y z
#
# Youngs Moduli (GPa) = 82.16753 87.37262 27.53915
#
# Poissons Ratio (x) = 0.20205 0.00443
# Poissons Ratio (y) = 0.19002 0.16335
# Poissons Ratio (z) = 0.01323 0.51826
#
# Static dielectric constant tensor:
#      x y z
#    x 1.661400 0.000000 0.018710 
#    y 0.000000 1.664280 0.000000 
#    z 0.018710 0.000000 1.692580 
# 
# From -- ./inp_files/11349.got.cif
#   From: 2010.05.17/outbox.cif.g08.bks.cpg/sg8_6_cif.got.tgz:11349.got - 2010.06.03 19:46:02.
