data_PCOD9131358
_publ_section_title
;
Structure prediction by ZEFSAII (Michael W. Deem and Ramdas Pophale) SiO2 
 PCOD9131358
Probable space group: P C
;
_chemical_formula_sum "Si O2"
_cell_formula_units_Z 16
_cell_length_a 18.315439
_cell_length_b 7.801111
_cell_length_c 5.249537
_cell_angle_alpha 90.000000
_cell_angle_beta 81.759870
_cell_angle_gamma 90.000000
_cell_volume 742.314373
_symmetry_space_group_name_H-M "P C"
_symmetry_group_IT_number 7
_symmetry_cell_setting 'monoclinic'
loop_
_space_group_symop_operation_xyz
x,y,z
x,-y,1/2+z
loop_
_atom_site_type_symbol
_atom_site_label
_atom_site_fract_x
_atom_site_fract_y
_atom_site_fract_z
Si Si1 0.097700 0.385050 0.331980
Si Si2 0.674862 0.385050 0.543372
Si Si3 0.303801 0.430564 0.383310
Si Si4 0.230261 0.112419 0.265882
Si Si5 0.974041 0.111111 0.440100
Si Si6 0.542300 0.887580 0.109854
Si Si7 0.798520 0.111109 0.527880
Si Si8 0.468761 0.430564 0.800821
O O1 0.103057 0.518571 0.560625
O O2 0.160920 0.240346 0.324443
O O3 0.020892 0.282727 0.391606
O O4 0.669506 0.481425 0.277371
O O5 0.611640 0.240349 0.599065
O O6 0.751669 0.282722 0.526194
O O7 0.268415 0.452835 0.679109
O O8 0.299304 0.238662 0.283359
O O9 0.386281 0.499998 0.383325
O O10 0.229712 0.973585 0.490655
O O11 0.886280 0.144124 0.478826
O O12 0.992018 0.013125 0.693558
O O13 0.473257 0.761338 0.196376
O O14 0.542849 0.026413 0.334078
O O15 0.780543 0.013152 0.799343
O O16 0.504147 0.547164 0.561230
#
# Coordination Sequence:
#
# PCOD9131358 Si02
#       8
#     2   2   2   2   2   2   2   2
#     4  12  24  39  62  90 122 161 202 250 302 353
#     4  12  24  39  62  90 122 161 202 250 302 353
#     4  10  21  41  63  86 120 156 189 239 299 355
#     4  12  24  41  64  91 120 156 203 248 296 357
#     4  10  21  39  61  87 123 163 202 249 301 353
#     4  12  24  41  64  91 120 156 203 248 296 357
#     4  10  21  39  61  87 123 163 202 249 301 353
#     4  10  21  41  63  86 120 156 189 239 299 355
#
# _framework density 21.554209
#
# number of rings (size 3 to 8) (size 9 to 14) (size 15 to 20)
#    0.000    1.000    0.000    7.500    0.000    1.000 
#    0.000   15.000    0.000    0.000    0.000    0.000 
#    0.000    0.000    0.000    0.000    0.000    0.000 
#
# Total GULP energy -89509.859135 kJ/mol
# GULP energy per Si atom -5594.366196 kJ/mol
# Density = 2.150515 g / cm^3
# Si number density = 21.554209 Si / 1000 Ang^3
#
#
#
# Elastic Constant Matrix: (Units=GPa)
#
#
# Indices 1 2 3 4 5 6 
#
# 1 50.5524 28.4177 3.9459 0.0000 -3.0560 0.0000
# 2 28.4177 83.6031 9.2974 0.0000 -3.4156 0.0000
# 3 3.9459 9.2974 114.9720 0.0000 14.5245 0.0000
# 4 0.0000 0.0000 0.0000 60.0204 0.0000 0.1665
# 5 -3.0560 -3.4156 14.5245 0.0000 17.8831 0.0000
# 6 0.0000 0.0000 0.0000 0.1665 0.0000 59.1102
#
#
#
# Elastic Compliance Matrix: (Units=1/GPa)
#
#
# Indices 1 2 3 4 5 6 
#
# 1 0.024609 -0.008174 -0.000577 0.000000 0.003113 0.000000
# 2 -0.008174 0.014979 -0.001243 0.000000 0.002474 0.000000
# 3 -0.000577 -0.001243 0.009874 0.000000 -0.008355 0.000000
# 4 0.000000 0.000000 0.000000 0.016661 0.000000 -0.000047
# 5 0.003113 0.002474 -0.008355 0.000000 0.063709 0.000000
# 6 0.000000 0.000000 0.000000 -0.000047 0.000000 0.016918
#
#
# Mechanical properties :
#
#
# Convention : Reuss Voigt Hill
#
# Bulk Modulus (GPa) = 33.92791 36.93884 35.43337
# Shear Modulus (GPa) = 28.31855 41.23384 34.77620
#
# Velocity S-wave (km/s) = 3.62861 4.37856 4.02111
# Velocity P-wave (km/s) = 5.77327 6.53738 6.16717
#
# Compressibility (1/GPa) = 0.02947426
#
# Stress axis : x y z
#
# Youngs Moduli (GPa) = 40.63482 66.76031 101.27968
#
# Poissons Ratio (x) = 0.54568 0.05843
# Poissons Ratio (y) = 0.33214 0.12592
# Poissons Ratio (z) = 0.02344 0.08300
#
# Static dielectric constant tensor:
#      x y z
#    x 1.889850 0.000000 -0.013170 
#    y 0.000000 1.759190 0.000000 
#    z -0.013170 0.000000 1.815960 
# 
# From -- ./inp_files/1341.got.cif
#   From: 2010.05.17/outbox.cif.g08.bks.cpg/sg7_cif.got.tgz:1341.got - 2010.06.03 19:44:50.
