data_PCOD9131953
_publ_section_title
;
Structure prediction by ZEFSAII (Michael W. Deem and Ramdas Pophale) SiO2 
 PCOD9131953
Probable space group: C M
;
_chemical_formula_sum "Si O2"
_cell_formula_units_Z 32
_cell_length_a 25.264592
_cell_length_b 8.791768
_cell_length_c 17.070610
_cell_angle_alpha 90.000000
_cell_angle_beta 153.309883
_cell_angle_gamma 90.000000
_cell_volume 1703.112567
_symmetry_space_group_name_H-M "C M"
_symmetry_group_IT_number 8
_symmetry_cell_setting 'monoclinic'
loop_
_space_group_symop_operation_xyz
x,y,z
x,-y,z
1/2+x,1/2+y,z
1/2+x,1/2-y,z
loop_
_atom_site_type_symbol
_atom_site_label
_atom_site_fract_x
_atom_site_fract_y
_atom_site_fract_z
Si Si1 0.132980 0.819575 0.470250
Si Si2 0.909556 0.323692 0.223408
Si Si3 0.987219 0.679781 0.600893
Si Si4 0.063091 0.817060 0.868595
Si Si5 0.815247 0.181320 0.252161
Si Si6 0.800207 0.821074 0.809693
Si Si7 0.712954 0.326822 0.839579
Si Si8 0.358261 0.680998 0.720346
O O1 0.177920 0.732892 0.607922
O O2 0.234725 0.768732 0.544039
O O3 0.002896 0.755937 0.289269
O O4 0.133944 0.000000 0.480541
O O5 0.940797 0.500000 0.277873
O O6 0.896931 0.234135 0.287536
O O7 0.783320 0.320715 0.013912
O O8 0.972741 0.500000 0.589376
O O9 0.100753 0.718671 0.697258
O O10 0.873968 0.751848 0.408411
O O11 0.019216 0.752542 0.727277
O O12 0.186160 0.747357 0.061147
O O13 0.075468 0.000000 0.879229
O O14 0.962000 0.780837 0.798900
O O15 0.810590 0.000000 0.249975
O O16 0.803535 0.725040 0.892343
O O17 0.886673 0.788254 0.850329
O O18 0.802628 0.000000 0.829470
O O19 0.673868 0.500000 0.773834
O O20 0.334903 0.500000 0.684492
#
# Coordination Sequence:
#
# PCOD9131953 Si02
#       8
#     4   4   4   4   4   4   4   4
#     4  10  19  33  56  84 114 151 200 247 297 361
#     4  11  22  37  57  84 125 165 205 257 316 375
#     4  12  25  41  63  92 127 168 210 260 317 377
#     4  11  22  43  68  94 128 165 212 265 315 374
#     4  12  25  41  63  93 127 166 212 260 317 379
#     4   9  18  35  56  82 113 153 197 242 301 362
#     4  11  22  36  57  87 123 162 205 259 314 374
#     4   8  19  38  62  86 117 162 203 250 311 368
#
# _framework density 18.789128000000002
#
# number of rings (size 3 to 8) (size 9 to 14) (size 15 to 20)
#    0.750    0.750    1.250    5.250    0.000    2.500 
#    0.000    1.250    0.000    3.000    0.000    0.000 
#    0.000    0.000    0.000    0.000    0.000    0.000 
#
# Total GULP energy -89188.053580 kJ/mol
# GULP energy per Si atom -5574.253349 kJ/mol
# Density = 1.874636 g / cm^3
# Si number density = 18.789128 Si / 1000 Ang^3
#
#
#
# Elastic Constant Matrix: (Units=GPa)
#
#
# Indices 1 2 3 4 5 6 
#
# 1 107.8799 44.5156 43.7897 0.0000 5.7719 0.0000
# 2 44.5156 108.7709 45.0408 0.0000 4.4321 0.0000
# 3 43.7897 45.0408 103.1921 0.0000 -1.1154 0.0000
# 4 0.0000 0.0000 0.0000 23.0976 0.0000 -0.3529
# 5 5.7719 4.4321 -1.1154 0.0000 29.1829 0.0000
# 6 0.0000 0.0000 0.0000 -0.3529 0.0000 28.4991
#
#
#
# Elastic Compliance Matrix: (Units=1/GPa)
#
#
# Indices 1 2 3 4 5 6 
#
# 1 0.012308 -0.003395 -0.003764 0.000000 -0.002063 0.000000
# 2 -0.003395 0.012264 -0.003927 0.000000 -0.001341 0.000000
# 3 -0.003764 -0.003927 0.013022 0.000000 0.001838 0.000000
# 4 0.000000 0.000000 0.000000 0.043303 0.000000 0.000536
# 5 -0.002063 -0.001341 0.001838 0.000000 0.034949 0.000000
# 6 0.000000 0.000000 0.000000 0.000536 0.000000 0.035095
#
#
# Mechanical properties :
#
#
# Convention : Reuss Voigt Hill
#
# Bulk Modulus (GPa) = 64.83679 65.17059 65.00369
# Shear Modulus (GPa) = 28.05020 28.58904 28.31962
#
# Velocity S-wave (km/s) = 3.86799 3.90497 3.88652
# Velocity P-wave (km/s) = 7.38451 7.42242 7.40349
#
# Compressibility (1/GPa) = 0.01542334
#
# Stress axis : x y z
#
# Youngs Moduli (GPa) = 81.24470 81.54185 76.79579
#
# Poissons Ratio (x) = 0.27682 0.28903
# Poissons Ratio (y) = 0.27581 0.30155
# Poissons Ratio (z) = 0.30578 0.32019
#
# Static dielectric constant tensor:
#      x y z
#    x 1.662840 0.000000 -0.011100 
#    y 0.000000 1.621830 0.000000 
#    z -0.011100 0.000000 1.667840 
# 
# From -- ./inp_files/28217.got.cif
#   From: 2010.05.17/outbox.cif.g08.bks.cpg/sg8_15_cif.got.tgz:28217.got - 2010.06.03 19:46:02.
