data_PCOD9131700
_publ_section_title
;
Structure prediction by ZEFSAII (Michael W. Deem and Ramdas Pophale) SiO2 
 PCOD9131700
Probable space group: C M
;
_chemical_formula_sum "Si O2"
_cell_formula_units_Z 32
_cell_length_a 21.767137
_cell_length_b 8.727539
_cell_length_c 22.940512
_cell_angle_alpha 90.000000
_cell_angle_beta 158.442365
_cell_angle_gamma 90.000000
_cell_volume 1601.323449
_symmetry_space_group_name_H-M "C M"
_symmetry_group_IT_number 8
_symmetry_cell_setting 'monoclinic'
loop_
_space_group_symop_operation_xyz
x,y,z
x,-y,z
1/2+x,1/2+y,z
1/2+x,1/2-y,z
loop_
_atom_site_type_symbol
_atom_site_label
_atom_site_fract_x
_atom_site_fract_y
_atom_site_fract_z
Si Si1 0.096110 0.183261 0.336310
Si Si2 0.514473 0.822270 0.390331
Si Si3 0.336225 0.185025 0.011694
Si Si4 0.376962 0.822622 0.917951
Si Si5 0.958311 0.315392 0.689947
Si Si6 0.001990 0.829438 0.848167
Si Si7 0.188499 0.668849 0.654709
Si Si8 0.687883 0.172457 0.104572
O O1 0.296280 0.221460 0.506323
O O2 0.050997 0.239488 0.361799
O O3 0.080990 0.000000 0.319904
O O4 0.963619 0.255010 0.173810
O O5 0.587862 0.748863 0.514409
O O6 0.318355 0.807135 0.228067
O O7 0.570084 0.000000 0.435391
O O8 0.404066 0.231775 0.007548
O O9 0.145766 0.250730 0.844364
O O10 0.329310 0.000000 0.010388
O O11 0.227985 0.742145 0.751221
O O12 0.330558 0.000000 0.880989
O O13 0.542082 0.814735 0.023712
O O14 0.966479 0.500000 0.701595
O O15 0.918390 0.236284 0.716782
O O16 0.866312 0.845783 0.779173
O O17 0.074265 0.000000 0.901243
O O18 0.124330 0.702987 0.982686
O O19 0.114704 0.500000 0.598663
O O20 0.757617 0.000000 0.169992
#
# Coordination Sequence:
#
# PCOD9131700 Si02
#       8
#     4   4   4   4   4   4   4   4
#     4  11  24  41  63  92 125 162 202 251 306 362
#     4  11  21  36  57  89 123 152 191 240 299 362
#     4  11  24  43  65  88 119 163 210 255 302 358
#     4   9  21  41  61  82 111 153 202 244 291 350
#     4  11  23  39  61  90 123 160 203 250 306 364
#     4  10  18  33  56  83 114 149 189 235 293 353
#     4   9  19  34  57  84 114 148 185 234 290 347
#     4  10  20  35  56  84 117 153 194 241 297 356
#
# _framework density 19.983470000000001
#
# number of rings (size 3 to 8) (size 9 to 14) (size 15 to 20)
#    0.000    1.750    1.250    3.000    0.000    4.500 
#    2.250    0.000    0.000    0.000    0.000    0.000 
#    0.000    0.000    0.000    0.000    0.000    0.000 
#
# Total GULP energy -89079.004784 kJ/mol
# GULP energy per Si atom -5567.437799 kJ/mol
# Density = 1.993799 g / cm^3
# Si number density = 19.983470 Si / 1000 Ang^3
#
#
#
# Elastic Constant Matrix: (Units=GPa)
#
#
# Indices 1 2 3 4 5 6 
#
# 1 68.4448 32.7414 53.2861 0.0000 -28.4260 -0.0001
# 2 32.7414 70.4949 46.3681 -0.0004 -4.8686 -0.0003
# 3 53.2861 46.3681 125.0869 -0.0016 -25.2224 -0.0006
# 4 0.0000 -0.0004 -0.0016 26.9532 -0.0002 -0.9122
# 5 -28.4260 -4.8686 -25.2224 -0.0002 29.3094 0.0000
# 6 -0.0001 -0.0003 -0.0006 -0.9122 0.0000 16.6693
#
#
#
# Elastic Compliance Matrix: (Units=1/GPa)
#
#
# Indices 1 2 3 4 5 6 
#
# 1 0.035970 -0.011145 -0.005482 0.000000 0.028317 0.000000
# 2 -0.011145 0.022509 -0.006076 0.000000 -0.012299 0.000000
# 3 -0.005482 -0.006076 0.013680 0.000001 0.005447 0.000000
# 4 0.000000 0.000000 0.000001 0.037170 0.000001 0.002034
# 5 0.028317 -0.012299 0.005447 0.000001 0.064227 0.000000
# 6 0.000000 0.000000 0.000000 0.002034 0.000000 0.060102
#
#
# Mechanical properties :
#
#
# Convention : Reuss Voigt Hill
#
# Bulk Modulus (GPa) = 37.37841 58.75751 48.06796
# Shear Modulus (GPa) = 17.36229 23.36178 20.36204
#
# Velocity S-wave (km/s) = 2.95079 3.42285 3.19555
# Velocity P-wave (km/s) = 5.50952 6.71477 6.14178
#
# Compressibility (1/GPa) = 0.02675341
#
# Stress axis : x y z
#
# Youngs Moduli (GPa) = 27.80120 44.42709 73.09829
#
# Poissons Ratio (x) = 0.49513 0.40071
# Poissons Ratio (y) = 0.30984 0.44415
# Poissons Ratio (z) = 0.15240 0.26994
#
# Static dielectric constant tensor:
#      x y z
#    x 1.726750 0.000000 0.010440 
#    y 0.000000 1.709620 0.000000 
#    z 0.010440 0.000000 1.783920 
# 
# From -- ./inp_files/32416.got.cif
#   From: 2010.05.17/outbox.cif.g08.bks.cpg/sg8_17_cif.got.tgz:32416.got - 2010.06.03 19:46:02.
