data_PCOD9131100
_publ_section_title
;
Structure prediction by ZEFSAII (Michael W. Deem and Ramdas Pophale) SiO2 
 PCOD9131100
Probable space group: P M
;
_chemical_formula_sum "Si O2"
_cell_formula_units_Z 12
_cell_length_a 5.264466
_cell_length_b 18.350096
_cell_length_c 5.375593
_cell_angle_alpha 90.000000
_cell_angle_beta 98.939739
_cell_angle_gamma 90.000000
_cell_volume 512.992566
_symmetry_space_group_name_H-M "P M"
_symmetry_group_IT_number 6
_symmetry_cell_setting 'monoclinic'
loop_
_space_group_symop_operation_xyz
x,y,z
x,-y,z
loop_
_atom_site_type_symbol
_atom_site_label
_atom_site_fract_x
_atom_site_fract_y
_atom_site_fract_z
Si Si1 0.998300 0.585941 0.677200
Si Si2 0.671527 0.704189 0.787917
Si Si3 0.280980 0.914179 0.700450
Si Si4 0.372435 0.204579 0.064573
Si Si5 0.772316 0.843513 0.502311
Si Si6 0.095357 0.339331 0.188991
O O1 0.967737 0.500000 0.676566
O O2 0.725112 0.629634 0.651794
O O3 0.118249 0.614131 0.439214
O O4 0.152687 0.613068 0.947350
O O5 0.819330 0.768073 0.660853
O O6 0.415113 0.745033 0.826601
O O7 0.804816 0.683947 0.072029
O O8 0.550325 0.888232 0.618580
O O9 0.032161 0.888415 0.508197
O O10 0.283446 0.000000 0.736977
O O11 0.241834 0.868721 0.949797
O O12 0.636708 0.177574 0.224970
O O13 0.242052 0.262507 0.227029
#
# Coordination Sequence:
#
# PCOD9131100 Si02
#       6
#     2   2   2   2   2   2
#     4  10  21  40  67 100 145 188 236 304 371 430
#     4   9  22  39  66  97 132 183 238 301 348 435
#     4  11  25  44  65 104 148 185 240 306 372 434
#     4  11  24  41  73  98 136 190 251 296 360 439
#     4  11  24  42  72 101 140 190 243 302 363 437
#     4  10  22  40  69  96 137 188 240 299 354 439
#
# _framework density 23.392151999999999
#
# number of rings (size 3 to 8) (size 9 to 14) (size 15 to 20)
#    1.000    0.667    1.667    2.000    9.333    1.333 
#    0.000    1.667    0.000    0.000    0.000    0.000 
#    0.000    0.000    0.000    0.000    0.000    0.000 
#
# Total GULP energy -66912.627923 kJ/mol
# GULP energy per Si atom -5576.052327 kJ/mol
# Density = 2.333891 g / cm^3
# Si number density = 23.392152 Si / 1000 Ang^3
#
#
#
# Elastic Constant Matrix: (Units=GPa)
#
#
# Indices 1 2 3 4 5 6 
#
# 1 70.7519 47.1674 24.3418 0.0000 9.0411 0.0000
# 2 47.1674 241.0148 66.5365 0.0000 -3.5374 0.0000
# 3 24.3418 66.5365 135.1012 0.0000 -5.0150 0.0000
# 4 0.0000 0.0000 0.0000 19.4078 0.0000 -6.2554
# 5 9.0411 -3.5374 -5.0150 0.0000 25.7829 0.0000
# 6 0.0000 0.0000 0.0000 -6.2554 0.0000 30.2108
#
#
#
# Elastic Compliance Matrix: (Units=1/GPa)
#
#
# Indices 1 2 3 4 5 6 
#
# 1 0.017725 -0.003030 -0.001962 0.000000 -0.007013 0.000000
# 2 -0.003030 0.005321 -0.002023 0.000000 0.001399 0.000000
# 3 -0.001962 -0.002023 0.008830 0.000000 0.002128 0.000000
# 4 0.000000 0.000000 0.000000 0.055210 0.000000 0.011432
# 5 -0.007013 0.001399 0.002128 0.000000 0.041850 0.000000
# 6 0.000000 0.000000 0.000000 0.011432 0.000000 0.035468
#
#
# Mechanical properties :
#
#
# Convention : Reuss Voigt Hill
#
# Bulk Modulus (GPa) = 56.02997 80.32882 68.17940
# Shear Modulus (GPa) = 27.11749 35.66848 31.39299
#
# Velocity S-wave (km/s) = 3.40848 3.90911 3.66735
# Velocity P-wave (km/s) = 6.28449 7.40199 6.86601
#
# Compressibility (1/GPa) = 0.01784759
#
# Stress axis : x y z
#
# Youngs Moduli (GPa) = 56.41738 187.93144 113.24483
#
# Poissons Ratio (x) = 0.56948 0.22213
# Poissons Ratio (y) = 0.17096 0.22906
# Poissons Ratio (z) = 0.11066 0.38013
#
# Static dielectric constant tensor:
#      x y z
#    x 2.020820 0.000000 -0.014170 
#    y 0.000000 1.824830 0.000000 
#    z -0.014170 0.000000 1.961700 
# 
# From -- ./inp_files/410.got.cif
#   From: 2010.05.17/outbox.cif.g08.bks.cpg/sg6_1_cif.got.tgz:410.got - 2010.06.03 19:42:10.
