data_PCOD9131274
_publ_section_title
;
Structure prediction by ZEFSAII (Michael W. Deem and Ramdas Pophale) SiO2 
 PCOD9131274
Probable space group: P C
;
_chemical_formula_sum "Si O2"
_cell_formula_units_Z 16
_cell_length_a 21.990977
_cell_length_b 7.686276
_cell_length_c 5.491279
_cell_angle_alpha 90.000000
_cell_angle_beta 43.792846
_cell_angle_gamma 90.000000
_cell_volume 642.352466
_symmetry_space_group_name_H-M "P C"
_symmetry_group_IT_number 7
_symmetry_cell_setting 'monoclinic'
loop_
_space_group_symop_operation_xyz
x,y,z
x,-y,1/2+z
loop_
_atom_site_type_symbol
_atom_site_label
_atom_site_fract_x
_atom_site_fract_y
_atom_site_fract_z
Si Si1 0.530310 0.109620 0.814300
Si Si2 0.451217 0.452849 0.117786
Si Si3 0.083612 0.604988 0.335852
Si Si4 0.860408 0.536775 0.791526
Si Si5 0.807485 0.935776 0.946598
Si Si6 0.257229 0.581965 0.680892
Si Si7 0.009326 0.946951 0.390862
Si Si8 0.672258 0.403574 0.312357
O O1 0.615466 0.235575 0.546586
O O2 0.528406 0.001825 0.568094
O O3 0.448706 0.247109 0.072869
O O4 0.495917 0.471651 0.249038
O O5 0.363219 0.572746 0.389909
O O6 0.081793 0.532148 0.615532
O O7 0.013228 0.752338 0.479619
O O8 0.179712 0.702229 0.010380
O O9 0.909132 0.483258 0.895695
O O10 0.779159 0.399029 0.013895
O O11 0.819482 0.728900 0.911204
O O12 0.908118 0.008568 0.652963
O O13 0.764891 0.001990 0.820724
O O14 0.241478 0.567015 0.436990
O O15 0.048525 0.050956 0.506462
O O16 0.655769 0.460646 0.081540
#
# Coordination Sequence:
#
# PCOD9131274 Si02
#       8
#     2   2   2   2   2   2   2   2
#     4  12  24  38  59  89 118 145 182 233 286 337
#     4  10  19  36  62  82 109 152 189 226 276 333
#     4  10  19  33  56  83 110 146 197 232 266 329
#     4  10  21  38  59  83 113 148 190 231 275 333
#     4  10  21  38  58  83 114 149 185 230 285 336
#     4   8  16  30  53  78 104 139 186 227 262 315
#     4  10  21  36  55  82 119 150 178 229 294 337
#     4  10  21  41  60  82 113 151 189 226 276 336
#
# _framework density 24.908445
#
# number of rings (size 3 to 8) (size 9 to 14) (size 15 to 20)
#    0.000    2.000    0.000    3.750    0.000    1.000 
#    0.000   15.000    0.000   40.500    0.000    0.000 
#    0.000    0.000    0.000    0.000    0.000    0.000 
#
# Total GULP energy -89098.835578 kJ/mol
# GULP energy per Si atom -5568.677224 kJ/mol
# Density = 2.485175 g / cm^3
# Si number density = 24.908445 Si / 1000 Ang^3
#
#
#
# Elastic Constant Matrix: (Units=GPa)
#
#
# Indices 1 2 3 4 5 6 
#
# 1 130.0011 36.2999 59.0514 0.0000 46.0972 0.0000
# 2 36.2999 96.5749 33.9529 0.0000 30.8786 0.0000
# 3 59.0514 33.9529 135.5531 0.0000 48.6466 0.0000
# 4 0.0000 0.0000 0.0000 33.6755 0.0000 20.5703
# 5 46.0972 30.8786 48.6466 0.0000 74.2677 0.0000
# 6 0.0000 0.0000 0.0000 20.5703 0.0000 31.6090
#
#
#
# Elastic Compliance Matrix: (Units=1/GPa)
#
#
# Indices 1 2 3 4 5 6 
#
# 1 0.010966 -0.001782 -0.002816 0.000000 -0.004221 0.000000
# 2 -0.001782 0.012497 -0.001158 0.000000 -0.003331 0.000000
# 3 -0.002816 -0.001158 0.010581 0.000000 -0.004702 0.000000
# 4 0.000000 0.000000 0.000000 0.049288 0.000000 -0.032075
# 5 -0.004221 -0.003331 -0.004702 0.000000 0.020549 0.000000
# 6 0.000000 0.000000 0.000000 -0.032075 0.000000 0.052510
#
#
# Mechanical properties :
#
#
# Convention : Reuss Voigt Hill
#
# Bulk Modulus (GPa) = 44.38358 68.97085 56.67722
# Shear Modulus (GPa) = 28.50401 43.43212 35.96806
#
# Velocity S-wave (km/s) = 3.38650 4.18026 3.80414
# Velocity P-wave (km/s) = 5.75747 7.14488 6.48837
#
# Compressibility (1/GPa) = 0.02253085
#
# Stress axis : x y z
#
# Youngs Moduli (GPa) = 91.19432 80.02051 94.50666
#
# Poissons Ratio (x) = 0.14261 0.26612
# Poissons Ratio (y) = 0.16252 0.10948
# Poissons Ratio (z) = 0.25679 0.09270
#
# Static dielectric constant tensor:
#      x y z
#    x 2.216850 0.000000 -0.058020 
#    y 0.000000 2.010030 0.000000 
#    z -0.058020 0.000000 2.067390 
# 
# From -- ./inp_files/1419.got.cif
#   From: 2010.05.17/outbox.cif.g08.bks.cpg/sg7_cif.got.tgz:1419.got - 2010.06.03 19:44:50.
