data_PCOD9131449
_publ_section_title
;
Structure prediction by ZEFSAII (Michael W. Deem and Ramdas Pophale) SiO2 
 PCOD9131449
Probable space group: P C
;
_chemical_formula_sum "Si O2"
_cell_formula_units_Z 10
_cell_length_a 6.914117
_cell_length_b 11.461723
_cell_length_c 5.258746
_cell_angle_alpha 90.000000
_cell_angle_beta 70.648679
_cell_angle_gamma 90.000000
_cell_volume 393.199371
_symmetry_space_group_name_H-M "P C"
_symmetry_group_IT_number 7
_symmetry_cell_setting 'monoclinic'
loop_
_space_group_symop_operation_xyz
x,y,z
x,-y,1/2+z
loop_
_atom_site_type_symbol
_atom_site_label
_atom_site_fract_x
_atom_site_fract_y
_atom_site_fract_z
Si Si1 0.369250 0.942625 0.695570
Si Si2 0.950926 0.578244 0.151192
Si Si3 0.411851 0.421458 0.495073
Si Si4 0.911355 0.963991 0.454558
Si Si5 0.673775 0.747455 0.569132
O O1 0.472653 0.821702 0.571403
O O2 0.434161 0.037205 0.457336
O O3 0.125990 0.969904 0.803151
O O4 0.937351 0.479569 0.379560
O O5 0.777504 0.668745 0.308412
O O6 0.181215 0.630269 0.074049
O O7 0.426055 0.519865 0.265591
O O8 0.583465 0.330163 0.336499
O O9 0.858234 0.834226 0.573874
O O10 0.818813 0.957017 0.213625
#
# Coordination Sequence:
#
# PCOD9131449 Si02
#       5
#     2   2   2   2   2
#     4  10  24  44  63  98 139 171 228 281 320 399
#     4  10  24  45  66 103 138 168 225 283 329 407
#     4  10  24  45  66 103 138 168 225 283 329 407
#     4  10  24  44  63  98 139 171 228 281 320 399
#     4  12  24  42  78  96 134 192 218 268 356 392
#
# _framework density 25.432392
#
# number of rings (size 3 to 8) (size 9 to 14) (size 15 to 20)
#    0.000    1.600    0.000    2.400    5.600    6.400 
#   14.400    0.000    0.000    0.000    0.000    0.000 
#    0.000    0.000    0.000    0.000    0.000    0.000 
#
# Total GULP energy -55745.208102 kJ/mol
# GULP energy per Si atom -5574.520810 kJ/mol
# Density = 2.537451 g / cm^3
# Si number density = 25.432392 Si / 1000 Ang^3
#
#
#
# Elastic Constant Matrix: (Units=GPa)
#
#
# Indices 1 2 3 4 5 6 
#
# 1 121.8550 53.1211 55.7444 0.0000 -53.8773 0.0000
# 2 53.1211 67.9404 27.0963 0.0000 -28.3655 0.0000
# 3 55.7444 27.0963 139.3247 0.0000 -11.3520 0.0000
# 4 0.0000 0.0000 0.0000 35.8171 0.0000 -20.9260
# 5 -53.8773 -28.3655 -11.3520 0.0000 61.7848 0.0000
# 6 0.0000 0.0000 0.0000 -20.9260 0.0000 45.8556
#
#
#
# Elastic Compliance Matrix: (Units=1/GPa)
#
#
# Indices 1 2 3 4 5 6 
#
# 1 0.019638 -0.008048 -0.005277 0.000000 0.012460 0.000000
# 2 -0.008048 0.022743 -0.000938 0.000000 0.003251 0.000000
# 3 -0.005277 -0.000938 0.009199 0.000000 -0.003342 0.000000
# 4 0.000000 0.000000 0.000000 0.038070 0.000000 0.017373
# 5 0.012460 0.003251 -0.003342 0.000000 0.027929 0.000000
# 6 0.000000 0.000000 0.000000 0.017373 0.000000 0.029736
#
#
# Mechanical properties :
#
#
# Convention : Reuss Voigt Hill
#
# Bulk Modulus (GPa) = 43.37643 66.78263 55.07953
# Shear Modulus (GPa) = 27.24430 41.56872 34.40651
#
# Velocity S-wave (km/s) = 3.27654 4.04726 3.68212
# Velocity P-wave (km/s) = 5.60418 6.93947 6.30726
#
# Compressibility (1/GPa) = 0.02305400
#
# Stress axis : x y z
#
# Youngs Moduli (GPa) = 50.92166 43.97020 108.70827
#
# Poissons Ratio (x) = 0.35386 0.57364
# Poissons Ratio (y) = 0.40980 0.10199
# Poissons Ratio (z) = 0.26871 0.04125
#
# Static dielectric constant tensor:
#      x y z
#    x 2.371430 0.000000 0.087900 
#    y 0.000000 2.017700 0.000000 
#    z 0.087900 0.000000 1.991920 
# 
# From -- ./inp_files/482.got.cif
#   From: 2010.05.17/outbox.cif.g08.bks.cpg/sg7_cif.got.tgz:482.got - 2010.06.03 19:44:50.
