data_PCOD9131764
_publ_section_title
;
Structure prediction by ZEFSAII (Michael W. Deem and Ramdas Pophale) SiO2 
 PCOD9131764
Probable space group: C M
;
_chemical_formula_sum "Si O2"
_cell_formula_units_Z 32
_cell_length_a 11.613075
_cell_length_b 18.477400
_cell_length_c 9.789996
_cell_angle_alpha 90.000000
_cell_angle_beta 56.410416
_cell_angle_gamma 90.000000
_cell_volume 1749.955432
_symmetry_space_group_name_H-M "C M"
_symmetry_group_IT_number 8
_symmetry_cell_setting 'monoclinic'
loop_
_space_group_symop_operation_xyz
x,y,z
x,-y,z
1/2+x,1/2+y,z
1/2+x,1/2-y,z
loop_
_atom_site_type_symbol
_atom_site_label
_atom_site_fract_x
_atom_site_fract_y
_atom_site_fract_z
Si Si1 0.933070 0.418414 0.841400
Si Si2 0.749722 0.358927 0.719916
Si Si3 0.926624 0.413224 0.365513
Si Si4 0.227827 0.586400 0.281608
Si Si5 0.935766 0.830344 0.963834
Si Si6 0.294801 0.694577 0.773707
Si Si7 0.760706 0.084493 0.564078
Si Si8 0.976673 0.678321 0.062155
O O1 0.908856 0.500000 0.904620
O O2 0.837383 0.400337 0.776889
O O3 0.094283 0.412850 0.693991
O O4 0.909035 0.363464 0.979531
O O5 0.798118 0.390398 0.543675
O O6 0.587298 0.364894 0.855907
O O7 0.785705 0.273663 0.711639
O O8 0.925393 0.500000 0.337178
O O9 0.934728 0.363493 0.226067
O O10 0.067164 0.396641 0.358767
O O11 0.236776 0.500000 0.278738
O O12 0.281156 0.611070 0.395435
O O13 0.320966 0.616713 0.099334
O O14 0.896161 0.805683 0.836593
O O15 0.938866 0.761899 0.064540
O O16 0.326213 0.635190 0.636826
O O17 0.142647 0.675544 0.933010
O O18 0.802138 0.000000 0.550528
#
# Coordination Sequence:
#
# PCOD9131764 Si02
#       8
#     4   4   4   4   4   4   4   4
#     4  10  18  35  60  84 115 152 195 244 291 347
#     4  11  23  37  58  89 124 158 193 244 306 361
#     4  11  22  39  62  90 120 156 205 250 291 349
#     4  10  21  38  62  89 117 154 202 249 294 352
#     4  11  23  40  59  88 125 159 193 246 307 362
#     4  10  21  39  59  89 120 156 199 242 301 359
#     4   9  19  36  61  88 112 149 201 248 287 342
#     4  10  21  38  61  89 117 154 202 249 291 352
#
# _framework density 18.286180000000002
#
# number of rings (size 3 to 8) (size 9 to 14) (size 15 to 20)
#    0.000    1.750    3.750    0.750    1.750    2.000 
#    0.000    1.250    0.000    1.500    0.000    0.000 
#    0.000    0.000    0.000    0.000    0.000    0.000 
#
# Total GULP energy -89269.015297 kJ/mol
# GULP energy per Si atom -5579.313456 kJ/mol
# Density = 1.824456 g / cm^3
# Si number density = 18.286180 Si / 1000 Ang^3
#
#
#
# Elastic Constant Matrix: (Units=GPa)
#
#
# Indices 1 2 3 4 5 6 
#
# 1 36.7038 8.1492 8.8242 0.0000 5.2022 0.0000
# 2 8.1492 25.0829 20.0242 0.0000 -4.4920 0.0000
# 3 8.8242 20.0242 68.8354 0.0000 8.1924 0.0000
# 4 0.0000 0.0000 0.0000 32.8586 0.0000 7.4041
# 5 5.2022 -4.4920 8.1924 0.0000 26.8665 0.0000
# 6 0.0000 0.0000 0.0000 7.4041 0.0000 25.3982
#
#
#
# Elastic Compliance Matrix: (Units=1/GPa)
#
#
# Indices 1 2 3 4 5 6 
#
# 1 0.030918 -0.011856 0.000450 0.000000 -0.008107 0.000000
# 2 -0.011856 0.061912 -0.018673 0.000000 0.018341 0.000000
# 3 0.000450 -0.018673 0.021047 0.000000 -0.009627 0.000000
# 4 0.000000 0.000000 0.000000 0.032573 0.000000 -0.009496
# 5 -0.008107 0.018341 -0.009627 0.000000 0.044793 0.000000
# 6 0.000000 0.000000 0.000000 -0.009496 0.000000 0.042141
#
#
# Mechanical properties :
#
#
# Convention : Reuss Voigt Hill
#
# Bulk Modulus (GPa) = 18.61532 22.73526 20.67529
# Shear Modulus (GPa) = 16.05395 23.26628 19.66012
#
# Velocity S-wave (km/s) = 2.96620 3.57086 3.28248
# Velocity P-wave (km/s) = 4.68329 5.42784 5.06925
#
# Compressibility (1/GPa) = 0.05371918
#
# Stress axis : x y z
#
# Youngs Moduli (GPa) = 32.34329 16.15200 47.51162
#
# Poissons Ratio (x) = 0.19150 -0.02140
# Poissons Ratio (y) = 0.38348 0.88719
# Poissons Ratio (z) = -0.01457 0.30161
#
# Static dielectric constant tensor:
#      x y z
#    x 1.614280 0.000000 0.017140 
#    y 0.000000 1.630160 0.000000 
#    z 0.017140 0.000000 1.616810 
# 
# From -- ./inp_files/11142.got.cif
#   From: 2010.05.17/outbox.cif.g08.bks.cpg/sg8_6_cif.got.tgz:11142.got - 2010.06.03 19:46:02.
