data_PCOD9131760
_publ_section_title
;
Structure prediction by ZEFSAII (Michael W. Deem and Ramdas Pophale) SiO2 
 PCOD9131760
Probable space group: C M
;
_chemical_formula_sum "Si O2"
_cell_formula_units_Z 24
_cell_length_a 10.002161
_cell_length_b 17.317452
_cell_length_c 7.347841
_cell_angle_alpha 90.000000
_cell_angle_beta 63.303397
_cell_angle_gamma 90.000000
_cell_volume 1137.057880
_symmetry_space_group_name_H-M "C M"
_symmetry_group_IT_number 8
_symmetry_cell_setting 'monoclinic'
loop_
_space_group_symop_operation_xyz
x,y,z
x,-y,z
1/2+x,1/2+y,z
1/2+x,1/2-y,z
loop_
_atom_site_type_symbol
_atom_site_label
_atom_site_fract_x
_atom_site_fract_y
_atom_site_fract_z
Si Si1 0.076280 0.825020 0.506820
Si Si2 0.367616 0.090803 0.382801
Si Si3 0.491303 0.174255 0.945632
Si Si4 0.650404 0.842536 0.387740
Si Si5 0.281454 0.589570 0.633984
Si Si6 0.683680 0.725861 0.062514
O O1 0.203938 0.875446 0.524117
O O2 0.108682 0.735090 0.527144
O O3 0.103568 0.825449 0.268640
O O4 0.911535 0.857349 0.638061
O O5 0.418804 0.136593 0.171292
O O6 0.498710 0.111032 0.443806
O O7 0.360074 0.000000 0.357044
O O8 0.575935 0.251270 0.964599
O O9 0.344561 0.191681 0.916119
O O10 0.617851 0.115579 0.801777
O O11 0.768377 0.891887 0.426874
O O12 0.709007 0.805731 0.163082
O O13 0.310198 0.500000 0.650990
#
# Coordination Sequence:
#
# PCOD9131760 Si02
#       6
#     4   4   4   4   4   4
#     4   9  19  36  57  77  99 141 183 211 248 311
#     4  10  18  35  58  76 105 142 176 213 257 316
#     4  10  20  34  51  81 107 134 172 217 266 306
#     4   9  19  36  57  77  99 141 183 211 248 311
#     4  12  23  33  51  85 115 132 164 224 276 302
#     4   8  18  36  58  74  96 140 188 210 242 308
#
# _framework density 21.107106000000002
#
# number of rings (size 3 to 8) (size 9 to 14) (size 15 to 20)
#    1.000    1.333    0.000    3.500    2.333    0.000 
#    0.000    0.000    0.000    0.000    0.000    7.000 
#    0.000    0.000    0.000    0.000    0.000    0.000 
#
# Total GULP energy -66893.589076 kJ/mol
# GULP energy per Si atom -5574.465756 kJ/mol
# Density = 2.105906 g / cm^3
# Si number density = 21.107106 Si / 1000 Ang^3
#
#
#
# Elastic Constant Matrix: (Units=GPa)
#
#
# Indices 1 2 3 4 5 6 
#
# 1 74.6270 34.5088 -2.0971 0.0000 -13.4034 0.0000
# 2 34.5088 83.8084 -8.5485 0.0000 -17.2587 0.0000
# 3 -2.0971 -8.5485 41.1900 0.0000 -15.3162 0.0000
# 4 0.0000 0.0000 0.0000 13.4252 0.0000 -5.7086
# 5 -13.4034 -17.2587 -15.3162 0.0000 24.6524 0.0000
# 6 0.0000 0.0000 0.0000 -5.7086 0.0000 27.1869
#
#
#
# Elastic Compliance Matrix: (Units=1/GPa)
#
#
# Indices 1 2 3 4 5 6 
#
# 1 0.017233 -0.005395 0.002389 0.000000 0.007077 0.000000
# 2 -0.005395 0.018355 0.009392 0.000000 0.015752 0.000000
# 3 0.002389 0.009392 0.038072 0.000000 0.031528 0.000000
# 4 0.000000 0.000000 0.000000 0.081789 0.000000 0.017174
# 5 0.007077 0.015752 0.031528 0.000000 0.075028 0.000000
# 6 0.000000 0.000000 0.000000 0.017174 0.000000 0.040388
#
#
# Mechanical properties :
#
#
# Convention : Reuss Voigt Hill
#
# Bulk Modulus (GPa) = 11.56949 27.48353 19.52651
# Shear Modulus (GPa) = 17.42746 24.77038 21.09892
#
# Velocity S-wave (km/s) = 2.87656 3.42944 3.16509
# Velocity P-wave (km/s) = 4.06522 5.36010 4.75692
#
# Compressibility (1/GPa) = 0.08643423
#
# Stress axis : x y z
#
# Youngs Moduli (GPa) = 58.02897 54.48059 26.26586
#
# Poissons Ratio (x) = 0.29390 -0.06276
# Poissons Ratio (y) = 0.31304 -0.24669
# Poissons Ratio (z) = -0.13866 -0.51169
#
# Static dielectric constant tensor:
#      x y z
#    x 1.754820 0.000000 0.036100 
#    y 0.000000 1.725680 0.000000 
#    z 0.036100 0.000000 1.859770 
# 
# From -- ./inp_files/8468.got.cif
#   From: 2010.05.17/outbox.cif.g08.bks.cpg/sg8_5_cif.got.tgz:8468.got - 2010.06.03 19:46:02.
