data_PCOD9131746
_publ_section_title
;
Structure prediction by ZEFSAII (Michael W. Deem and Ramdas Pophale) SiO2 
 PCOD9131746
Probable space group: C M
;
_chemical_formula_sum "Si O2"
_cell_formula_units_Z 32
_cell_length_a 22.688314
_cell_length_b 7.769408
_cell_length_c 22.371296
_cell_angle_alpha 90.000000
_cell_angle_beta 160.637503
_cell_angle_gamma 90.000000
_cell_volume 1307.440825
_symmetry_space_group_name_H-M "C M"
_symmetry_group_IT_number 8
_symmetry_cell_setting 'monoclinic'
loop_
_space_group_symop_operation_xyz
x,y,z
x,-y,z
1/2+x,1/2+y,z
1/2+x,1/2-y,z
loop_
_atom_site_type_symbol
_atom_site_label
_atom_site_fract_x
_atom_site_fract_y
_atom_site_fract_z
Si Si1 0.900450 0.805157 0.708830
Si Si2 0.535583 0.201859 0.392174
Si Si3 0.063475 0.789781 0.223417
Si Si4 0.349670 0.208387 0.327098
Si Si5 0.432528 0.790301 0.542133
Si Si6 0.783251 0.798060 0.052577
Si Si7 0.969294 0.301780 0.907429
Si Si8 0.315630 0.291808 0.882154
O O1 0.703829 0.722439 0.517323
O O2 0.935072 0.800910 0.813862
O O3 0.895235 0.000000 0.681889
O O4 0.073336 0.724370 0.843729
O O5 0.495229 0.274598 0.418882
O O6 0.354739 0.216946 0.182012
O O7 0.576910 0.000000 0.438586
O O8 0.917105 0.728879 0.130449
O O9 0.267290 0.731379 0.424513
O O10 0.063464 0.000000 0.224962
O O11 0.984776 0.740449 0.083446
O O12 0.384100 0.260678 0.427763
O O13 0.357056 0.000000 0.334117
O O14 0.158396 0.258676 0.118344
O O15 0.635879 0.734875 0.743826
O O16 0.433887 0.000000 0.546950
O O17 0.815664 0.000000 0.088688
O O18 0.968268 0.500000 0.888031
O O19 0.831998 0.269984 0.830043
O O20 0.313608 0.500000 0.877566
#
# Coordination Sequence:
#
# PCOD9131746 Si02
#       8
#     4   4   4   4   4   4   4   4
#     4  11  23  41  63  86 115 158 205 240 285 355
#     4  10  22  39  62  88 113 153 202 245 289 348
#     4   9  19  35  57  86 116 150 195 240 285 339
#     4  10  18  34  60  85 112 146 189 240 290 351
#     4   9  17  32  59  89 109 142 194 238 277 333
#     4  11  23  38  59  90 123 154 193 249 306 343
#     4  12  23  35  56  89 122 152 185 237 306 351
#     4  10  19  36  62  85 112 153 195 235 280 344
#
# _framework density 24.475294999999999
#
# number of rings (size 3 to 8) (size 9 to 14) (size 15 to 20)
#    0.000    1.750    2.500    2.625    0.000    4.000 
#    0.000    5.625    0.000    0.000    0.000    0.000 
#    0.000    0.000    0.000    0.000    0.000    0.000 
#
# Total GULP energy -89431.331089 kJ/mol
# GULP energy per Si atom -5589.458193 kJ/mol
# Density = 2.441959 g / cm^3
# Si number density = 24.475295 Si / 1000 Ang^3
#
#
#
# Elastic Constant Matrix: (Units=GPa)
#
#
# Indices 1 2 3 4 5 6 
#
# 1 88.6835 -0.6723 6.8832 -0.0007 39.0725 0.0001
# 2 -0.6723 45.5918 -0.1227 -0.0014 1.0992 0.0000
# 3 6.8832 -0.1227 103.7566 -0.0054 39.2326 -0.0007
# 4 -0.0007 -0.0014 -0.0054 -4.1804 -0.0009 23.7359
# 5 39.0725 1.0992 39.2326 -0.0009 46.6518 0.0000
# 6 0.0001 0.0000 -0.0007 23.7359 0.0000 -4.5747
#
#
#
# Elastic Compliance Matrix: (Units=1/GPa)
#
#
# Indices 1 2 3 4 5 6 
#
# 1 0.021580 0.000937 0.007935 0.000000 -0.024770 0.000002
# 2 0.000937 0.021994 0.000669 0.000000 -0.001866 0.000001
# 3 0.007935 0.000669 0.017054 0.000001 -0.021004 0.000004
# 4 0.000000 0.000000 0.000001 0.008405 -0.000001 0.043611
# 5 -0.024770 -0.001866 -0.021004 -0.000001 0.059889 -0.000003
# 6 0.000002 0.000001 0.000004 0.043611 -0.000003 0.007681
#
#
# Mechanical properties :
#
#
# Convention : Reuss Voigt Hill
#
# Bulk Modulus (GPa) = 12.54510 27.80093 20.17302
# Shear Modulus (GPa) = 34.70017 23.04226 28.87122
#
# Velocity S-wave (km/s) = 3.76940 3.07163 3.43827
# Velocity P-wave (km/s) = 4.90727 4.89524 4.90126
#
# Compressibility (1/GPa) = 0.07971239
#
# Stress axis : x y z
#
# Youngs Moduli (GPa) = 46.33829 45.46623 58.63585
#
# Poissons Ratio (x) = -0.04259 -0.46530
# Poissons Ratio (y) = -0.04341 -0.03925
# Poissons Ratio (z) = -0.36772 -0.03043
#
# Static dielectric constant tensor:
#      x y z
#    x 1.985970 0.000000 0.047920 
#    y 0.000000 1.902420 0.000000 
#    z 0.047920 0.000000 1.942780 
# 
# From -- ./inp_files/32345.got.cif
#   From: 2010.05.17/outbox.cif.g08.bks.cpg/sg8_17_cif.got.tgz:32345.got - 2010.06.03 19:46:02.
