data_PCOD9131222
_publ_section_title
;
Structure prediction by ZEFSAII (Michael W. Deem and Ramdas Pophale) SiO2 
 PCOD9131222
Probable space group: P C
;
_chemical_formula_sum "Si O2"
_cell_formula_units_Z 16
_cell_length_a 17.898415
_cell_length_b 7.117847
_cell_length_c 5.562768
_cell_angle_alpha 90.000000
_cell_angle_beta 118.996033
_cell_angle_gamma 90.000000
_cell_volume 619.854980
_symmetry_space_group_name_H-M "P C"
_symmetry_group_IT_number 7
_symmetry_cell_setting 'monoclinic'
loop_
_space_group_symop_operation_xyz
x,y,z
x,-y,1/2+z
loop_
_atom_site_type_symbol
_atom_site_label
_atom_site_fract_x
_atom_site_fract_y
_atom_site_fract_z
Si Si1 0.286840 0.289041 0.916900
Si Si2 0.874667 0.491692 0.362062
Si Si3 0.481351 0.784887 0.867190
Si Si4 0.049208 0.608005 0.631058
Si Si5 0.222714 0.728506 0.815951
Si Si6 0.922580 0.093373 0.432998
Si Si7 0.716421 0.905044 0.585576
Si Si8 0.545408 0.775426 0.468237
O O1 0.254238 0.506886 0.849269
O O2 0.274639 0.205563 0.631201
O O3 0.384558 0.255994 0.142311
O O4 0.236357 0.204239 0.065589
O O5 0.825850 0.500346 0.535879
O O6 0.938890 0.314782 0.462426
O O7 0.947296 0.652156 0.473091
O O8 0.534004 0.706424 0.721614
O O9 0.511030 0.005225 0.932026
O O10 0.495107 0.703890 0.156027
O O11 0.067641 0.494246 0.412949
O O12 0.123757 0.759798 0.730511
O O13 0.949304 0.999400 0.724342
O O14 0.818189 0.113743 0.266332
O O15 0.644900 0.757736 0.550466
O O16 0.700221 0.053078 0.779344
#
# Coordination Sequence:
#
# PCOD9131222 Si02
#       8
#     2   2   2   2   2   2   2   2
#     4  10  18  27  44  69  93 121 153 213 268 298
#     4  10  21  35  58  90 119 151 192 242 290 348
#     4  10  18  27  44  69  94 122 156 214 267 298
#     4  10  16  30  51  75 101 127 173 227 260 327
#     4  10  17  30  45  68  96 119 173 208 258 311
#     4  10  21  35  58  90 119 151 194 242 294 344
#     4  10  16  30  51  75 100 130 175 231 260 327
#     4  10  17  30  45  68  96 121 176 209 257 311
#
# _framework density 25.812487000000001
#
# number of rings (size 3 to 8) (size 9 to 14) (size 15 to 20)
#    0.000    2.000    5.000    1.500    0.000    0.000 
#    0.000    0.000    0.000    0.000   26.000    0.000 
#    0.000    0.000    0.000    0.000    0.000    0.000 
#
# Total GULP energy -89097.253122 kJ/mol
# GULP energy per Si atom -5568.578320 kJ/mol
# Density = 2.575374 g / cm^3
# Si number density = 25.812487 Si / 1000 Ang^3
#
#
#
# Elastic Constant Matrix: (Units=GPa)
#
#
# Indices 1 2 3 4 5 6 
#
# 1 80.9236 -21.8759 16.3667 0.0000 -15.5557 0.0000
# 2 -21.8759 90.9962 4.0499 0.0000 -22.7051 0.0000
# 3 16.3667 4.0499 131.9244 0.0000 -51.8340 0.0000
# 4 0.0000 0.0000 0.0000 10.1354 0.0000 9.8438
# 5 -15.5557 -22.7051 -51.8340 0.0000 69.6440 0.0000
# 6 0.0000 0.0000 0.0000 9.8438 0.0000 10.7052
#
#
#
# Elastic Compliance Matrix: (Units=1/GPa)
#
#
# Indices 1 2 3 4 5 6 
#
# 1 0.014544 0.004673 -0.000103 0.000000 0.004695 0.000000
# 2 0.004673 0.013722 0.001649 0.000000 0.006745 0.000000
# 3 -0.000103 0.001649 0.010945 0.000000 0.008661 0.000000
# 4 0.000000 0.000000 0.000000 0.922784 0.000000 -0.848529
# 5 0.004695 0.006745 0.008661 0.000000 0.024052 0.000000
# 6 0.000000 0.000000 0.000000 -0.848529 0.000000 0.873663
#
#
# Mechanical properties :
#
#
# Convention : Reuss Voigt Hill
#
# Bulk Modulus (GPa) = 19.36166 33.43617 26.39891
# Shear Modulus (GPa) = 2.68170 38.45049 20.56610
#
# Velocity S-wave (km/s) = 1.02038 3.86373 2.82574
# Velocity P-wave (km/s) = 2.98419 5.73465 4.57119
#
# Compressibility (1/GPa) = 0.05164847
#
# Stress axis : x y z
#
# Youngs Moduli (GPa) = 68.75773 72.87412 91.36489
#
# Poissons Ratio (x) = -0.34051 0.00941
# Poissons Ratio (y) = -0.32127 -0.15067
# Poissons Ratio (z) = 0.00708 -0.12018
#
# Static dielectric constant tensor:
#      x y z
#    x 2.062010 0.000000 -0.002810 
#    y 0.000000 2.319420 0.000000 
#    z -0.002810 0.000000 2.071600 
# 
# From -- ./inp_files/1391.got.cif
#   From: 2010.05.17/outbox.cif.g08.bks.cpg/sg7_cif.got.tgz:1391.got - 2010.06.03 19:44:50.
