data_PCOD9131799
_publ_section_title
;
Structure prediction by ZEFSAII (Michael W. Deem and Ramdas Pophale) SiO2 
 PCOD9131799
Probable space group: C M
;
_chemical_formula_sum "Si O2"
_cell_formula_units_Z 24
_cell_length_a 7.396259
_cell_length_b 19.076389
_cell_length_c 9.952957
_cell_angle_alpha 90.000000
_cell_angle_beta 48.113549
_cell_angle_gamma 90.000000
_cell_volume 1045.459684
_symmetry_space_group_name_H-M "C M"
_symmetry_group_IT_number 8
_symmetry_cell_setting 'monoclinic'
loop_
_space_group_symop_operation_xyz
x,y,z
x,-y,z
1/2+x,1/2+y,z
1/2+x,1/2-y,z
loop_
_atom_site_type_symbol
_atom_site_label
_atom_site_fract_x
_atom_site_fract_y
_atom_site_fract_z
Si Si1 0.185110 0.500000 0.228730
Si Si2 0.069067 0.500000 0.568607
Si Si3 0.382476 0.000000 0.934684
Si Si4 0.858398 0.140008 0.493833
Si Si5 0.551793 0.353975 0.681532
Si Si6 0.049557 0.875510 0.125306
Si Si7 0.335497 0.500000 0.866896
Si Si8 0.344635 0.791236 0.764308
O O1 0.342340 0.429291 0.177076
O O2 0.996226 0.500000 0.446913
O O3 0.153124 0.500000 0.085380
O O4 0.240976 0.565779 0.512762
O O5 0.856811 0.500000 0.785068
O O6 0.264243 0.069460 0.052006
O O7 0.664757 0.000000 0.821835
O O8 0.049815 0.135797 0.520930
O O9 0.973683 0.165368 0.296838
O O10 0.619374 0.183223 0.653129
O O11 0.479996 0.427209 0.785283
O O12 0.353721 0.291330 0.790964
O O13 0.780927 0.321989 0.647749
O O14 0.150845 0.826524 0.958722
#
# Coordination Sequence:
#
# PCOD9131799 Si02
#       8
#     2   2   2   4   4   4   2   4
#     4   9  20  36  62 101 134 175 234 276 327 422
#     4  10  18  38  71  91 143 183 216 287 353 393
#     4  11  20  39  72 100 139 189 225 292 351 406
#     4  11  23  46  67 102 140 185 233 288 346 420
#     4  12  25  44  73 103 142 186 237 281 355 420
#     4  10  22  43  68  99 136 185 235 280 353 412
#     4  12  22  43  69 108 140 183 239 285 337 429
#     4  12  24  46  70  99 141 188 229 294 350 407
#
# _framework density 22.956408
#
# number of rings (size 3 to 8) (size 9 to 14) (size 15 to 20)
#    0.000    1.000    6.667    0.500    0.000    0.667 
#    9.000    0.000    0.000    0.000    0.000    0.000 
#    0.000    0.000    0.000    0.000    0.000    0.000 
#
# Total GULP energy -66953.746363 kJ/mol
# GULP energy per Si atom -5579.478864 kJ/mol
# Density = 2.290416 g / cm^3
# Si number density = 22.956408 Si / 1000 Ang^3
#
#
#
# Elastic Constant Matrix: (Units=GPa)
#
#
# Indices 1 2 3 4 5 6 
#
# 1 88.8524 10.3955 11.7179 0.0000 23.6456 0.0000
# 2 10.3955 117.1784 4.3926 0.0000 0.1824 0.0000
# 3 11.7179 4.3926 125.7264 0.0000 23.0787 0.0000
# 4 0.0000 0.0000 0.0000 -3.7121 0.0000 33.0549
# 5 23.6456 0.1824 23.0787 0.0000 33.6720 0.0000
# 6 0.0000 0.0000 0.0000 33.0549 0.0000 -20.3624
#
#
#
# Elastic Compliance Matrix: (Units=1/GPa)
#
#
# Indices 1 2 3 4 5 6 
#
# 1 0.014058 -0.001255 0.000623 0.000000 -0.010292 0.000000
# 2 -0.001255 0.008658 -0.000387 0.000000 0.001100 0.000000
# 3 0.000623 -0.000387 0.009139 0.000000 -0.006699 0.000000
# 4 0.000000 0.000000 0.000000 0.020021 0.000000 0.032501
# 5 -0.010292 0.001100 -0.006699 0.000000 0.041511 0.000000
# 6 0.000000 0.000000 0.000000 0.032501 0.000000 0.003650
#
#
# Mechanical properties :
#
#
# Convention : Reuss Voigt Hill
#
# Bulk Modulus (GPa) = 33.53771 42.75213 38.14492
# Shear Modulus (GPa) = 45.86523 22.26959 34.06741
#
# Velocity S-wave (km/s) = 4.47467 3.11799 3.85646
# Velocity P-wave (km/s) = 6.42945 5.62371 6.04003
#
# Compressibility (1/GPa) = 0.02981718
#
# Stress axis : x y z
#
# Youngs Moduli (GPa) = 71.13262 115.49879 109.42146
#
# Poissons Ratio (x) = 0.14489 -0.06815
# Poissons Ratio (y) = 0.08924 0.04239
# Poissons Ratio (z) = -0.04431 0.04475
#
# Static dielectric constant tensor:
#      x y z
#    x 1.858170 0.000000 0.045290 
#    y 0.000000 1.925770 0.000000 
#    z 0.045290 0.000000 1.910640 
# 
# From -- ./inp_files/8675.got.cif
#   From: 2010.05.17/outbox.cif.g08.bks.cpg/sg8_5_cif.got.tgz:8675.got - 2010.06.03 19:46:02.
