data_PCOD9131276
_publ_section_title
;
Structure prediction by ZEFSAII (Michael W. Deem and Ramdas Pophale) SiO2 
 PCOD9131276
Probable space group: P C
;
_chemical_formula_sum "Si O2"
_cell_formula_units_Z 14
_cell_length_a 9.763430
_cell_length_b 14.778072
_cell_length_c 5.739748
_cell_angle_alpha 90.000000
_cell_angle_beta 43.240096
_cell_angle_gamma 90.000000
_cell_volume 567.335261
_symmetry_space_group_name_H-M "P C"
_symmetry_group_IT_number 7
_symmetry_cell_setting 'monoclinic'
loop_
_space_group_symop_operation_xyz
x,y,z
x,-y,1/2+z
loop_
_atom_site_type_symbol
_atom_site_label
_atom_site_fract_x
_atom_site_fract_y
_atom_site_fract_z
Si Si1 0.382520 0.288339 0.134740
Si Si2 0.848935 0.537637 0.648020
Si Si3 0.426743 0.150912 0.443294
Si Si4 0.132376 0.983924 0.811202
Si Si5 0.724857 0.264958 0.364476
Si Si6 0.392364 0.526810 0.779938
Si Si7 0.096087 0.214088 0.184820
O O1 0.444758 0.192050 0.165426
O O2 0.399815 0.365380 0.302968
O O3 0.166887 0.287683 0.280975
O O4 0.540575 0.306447 0.735926
O O5 0.926228 0.489356 0.313956
O O6 0.840903 0.647072 0.619364
O O7 0.618060 0.506617 0.960261
O O8 0.333094 0.048730 0.569336
O O9 0.626396 0.185450 0.328371
O O10 0.244156 0.208434 0.781800
O O11 0.030644 0.009483 0.690384
O O12 0.150185 0.878354 0.748161
O O13 0.876803 0.221487 0.360269
O O14 0.304665 0.510864 0.628747
#
# Coordination Sequence:
#
# PCOD9131276 Si02
#       7
#     2   2   2   2   2   2   2
#     4  11  21  40  68  92 132 175 224 274 337 400
#     4  10  19  37  61  92 136 176 216 279 331 388
#     4  10  22  41  70  93 130 180 218 278 340 406
#     4  10  20  44  68  89 134 177 214 273 347 392
#     4  11  23  40  68 101 130 179 231 274 337 407
#     4  10  19  34  62  91 126 177 220 269 328 393
#     4  10  24  42  63 100 134 174 219 287 334 400
#
# _framework density 24.676765
#
# number of rings (size 3 to 8) (size 9 to 14) (size 15 to 20)
#    0.000    1.714    4.286    1.714    2.000    1.143 
#    0.000   10.000    0.000    0.000    0.000    0.000 
#    0.000    0.000    0.000    0.000    0.000    0.000 
#
# Total GULP energy -77995.206281 kJ/mol
# GULP energy per Si atom -5571.086163 kJ/mol
# Density = 2.462060 g / cm^3
# Si number density = 24.676765 Si / 1000 Ang^3
#
#
#
# Elastic Constant Matrix: (Units=GPa)
#
#
# Indices 1 2 3 4 5 6 
#
# 1 155.7150 33.8737 35.4789 0.0000 12.3872 0.0000
# 2 33.8737 92.4211 -7.2885 0.0000 -4.8012 0.0000
# 3 35.4789 -7.2885 87.1233 0.0000 21.9024 0.0000
# 4 0.0000 0.0000 0.0000 -31.6878 0.0000 55.9733
# 5 12.3872 -4.8012 21.9024 0.0000 32.9302 0.0000
# 6 0.0000 0.0000 0.0000 55.9733 0.0000 9.4986
#
#
#
# Elastic Compliance Matrix: (Units=1/GPa)
#
#
# Indices 1 2 3 4 5 6 
#
# 1 0.007956 -0.003236 -0.003170 0.000000 -0.001356 0.000000
# 2 -0.003236 0.012247 0.001906 0.000000 0.001735 0.000000
# 3 -0.003170 0.001906 0.015080 0.000000 -0.008560 0.000000
# 4 0.000000 0.000000 0.000000 -0.002766 0.000000 0.016300
# 5 -0.001356 0.001735 -0.008560 0.000000 0.036824 0.000000
# 6 0.000000 0.000000 0.000000 0.016300 0.000000 0.009228
#
#
# Mechanical properties :
#
#
# Convention : Reuss Voigt Hill
#
# Bulk Modulus (GPa) = 38.04698 51.04306 44.54502
# Shear Modulus (GPa) = 51.90537 20.36123 36.13330
#
# Velocity S-wave (km/s) = 4.59127 2.87560 3.83072
# Velocity P-wave (km/s) = 6.59985 5.63516 6.13649
#
# Compressibility (1/GPa) = 0.02628329
#
# Stress axis : x y z
#
# Youngs Moduli (GPa) = 125.68901 81.65448 66.31238
#
# Poissons Ratio (x) = 0.26427 0.21019
# Poissons Ratio (y) = 0.40679 -0.12641
# Poissons Ratio (z) = 0.39840 -0.15566
#
# Static dielectric constant tensor:
#      x y z
#    x 2.027820 0.000000 0.092170 
#    y 0.000000 2.231820 0.000000 
#    z 0.092170 0.000000 2.045340 
# 
# From -- ./inp_files/600.got.cif
#   From: 2010.05.17/outbox.cif.g08.bks.cpg/sg7_cif.got.tgz:600.got - 2010.06.03 19:44:50.
