data_PCOD9131458
_publ_section_title
;
Structure prediction by ZEFSAII (Michael W. Deem and Ramdas Pophale) SiO2 
 PCOD9131458
Probable space group: P C
;
_chemical_formula_sum "Si O2"
_cell_formula_units_Z 16
_cell_length_a 6.770169
_cell_length_b 19.897138
_cell_length_c 5.214697
_cell_angle_alpha 90.000000
_cell_angle_beta 75.397622
_cell_angle_gamma 90.000000
_cell_volume 679.765880
_symmetry_space_group_name_H-M "P C"
_symmetry_group_IT_number 7
_symmetry_cell_setting 'monoclinic'
loop_
_space_group_symop_operation_xyz
x,y,z
x,-y,1/2+z
loop_
_atom_site_type_symbol
_atom_site_label
_atom_site_fract_x
_atom_site_fract_y
_atom_site_fract_z
Si Si1 0.797920 0.544085 0.626940
Si Si2 0.759079 0.283401 0.525396
Si Si3 0.171653 0.743564 0.587560
Si Si4 0.643442 0.139639 0.642062
Si Si5 0.426023 0.363082 0.316688
Si Si6 0.391558 0.121956 0.202767
Si Si7 0.993112 0.959115 0.865384
Si Si8 0.055182 0.643697 0.264484
O O1 0.819475 0.490599 0.393033
O O2 0.576606 0.420954 0.173646
O O3 0.974028 0.599755 0.525705
O O4 0.686138 0.217300 0.697957
O O5 0.574591 0.314046 0.427329
O O6 0.947922 0.260278 0.286832
O O7 0.853272 0.342042 0.667103
O O8 0.271201 0.813926 0.623726
O O9 0.132911 0.719050 0.310701
O O10 0.317320 0.684214 0.644612
O O11 0.499640 0.138709 0.436800
O O12 0.848157 0.102199 0.490801
O O13 0.547303 0.104413 0.922741
O O14 0.240729 0.389512 0.553233
O O15 0.226647 0.064436 0.305787
O O16 0.954063 0.016342 0.089837
#
# Coordination Sequence:
#
# PCOD9131458 Si02
#       8
#     2   2   2   2   2   2   2   2
#     4  12  29  50  72 104 147 199 250 297 361 451
#     4  11  23  45  73 110 149 182 240 307 380 443
#     4  11  24  43  75 111 143 185 241 308 384 431
#     4  12  27  45  76 110 146 193 246 301 370 447
#     4  11  25  47  74 106 141 191 235 309 373 435
#     4  12  27  46  74 114 147 189 247 310 369 439
#     4  12  28  50  74 103 152 203 250 302 360 433
#     4  11  27  44  76 106 149 188 243 306 375 443
#
# _framework density 23.537516
#
# number of rings (size 3 to 8) (size 9 to 14) (size 15 to 20)
#    0.000    0.500    3.750    3.000   10.500    5.000 
#    0.000    0.000    0.000    0.000    0.000    0.000 
#    0.000    0.000    0.000    0.000    0.000    0.000 
#
# Total GULP energy -89614.866825 kJ/mol
# GULP energy per Si atom -5600.929177 kJ/mol
# Density = 2.348394 g / cm^3
# Si number density = 23.537516 Si / 1000 Ang^3
#
#
#
# Elastic Constant Matrix: (Units=GPa)
#
#
# Indices 1 2 3 4 5 6 
#
# 1 104.3377 20.3043 28.7924 0.0000 -3.4458 0.0000
# 2 20.3043 60.3838 22.5233 0.0000 -15.0383 0.0000
# 3 28.7924 22.5233 97.2823 0.0000 -17.4112 0.0000
# 4 0.0000 0.0000 0.0000 37.5537 0.0000 -7.5399
# 5 -3.4458 -15.0383 -17.4112 0.0000 30.7251 0.0000
# 6 0.0000 0.0000 0.0000 -7.5399 0.0000 32.3713
#
#
#
# Elastic Compliance Matrix: (Units=1/GPa)
#
#
# Indices 1 2 3 4 5 6 
#
# 1 0.010908 -0.003076 -0.002857 0.000000 -0.001901 0.000000
# 2 -0.003076 0.020560 -0.002349 0.000000 0.008387 0.000000
# 3 -0.002857 -0.002349 0.012693 0.000000 0.005723 0.000000
# 4 0.000000 0.000000 0.000000 0.027935 0.000000 0.006507
# 5 -0.001901 0.008387 0.005723 0.000000 0.039681 0.000000
# 6 0.000000 0.000000 0.000000 0.006507 0.000000 0.032407
#
#
# Mechanical properties :
#
#
# Convention : Reuss Voigt Hill
#
# Bulk Modulus (GPa) = 36.23355 45.02709 40.63032
# Shear Modulus (GPa) = 29.42108 32.82229 31.12169
#
# Velocity S-wave (km/s) = 3.53932 3.73831 3.64017
# Velocity P-wave (km/s) = 5.66831 6.14855 5.91331
#
# Compressibility (1/GPa) = 0.02759873
#
# Stress axis : x y z
#
# Youngs Moduli (GPa) = 91.67302 48.63855 78.78452
#
# Poissons Ratio (x) = 0.14961 0.22505
# Poissons Ratio (y) = 0.28197 0.18504
# Poissons Ratio (z) = 0.26187 0.11424
#
# Static dielectric constant tensor:
#      x y z
#    x 1.844340 0.000000 -0.011940 
#    y 0.000000 1.885730 0.000000 
#    z -0.011940 0.000000 1.913600 
# 
# From -- ./inp_files/273.got.cif
#   From: 2010.05.17/outbox.cif.g08.bks.cpg/sg7_cif.got.tgz:273.got - 2010.06.03 19:44:50.
