data_PCOD9131315
_publ_section_title
;
Structure prediction by ZEFSAII (Michael W. Deem and Ramdas Pophale) SiO2 
 PCOD9131315
Probable space group: P C
;
_chemical_formula_sum "Si O2"
_cell_formula_units_Z 12
_cell_length_a 6.628553
_cell_length_b 13.808465
_cell_length_c 5.324312
_cell_angle_alpha 90.000000
_cell_angle_beta 99.094452
_cell_angle_gamma 90.000000
_cell_volume 481.208802
_symmetry_space_group_name_H-M "P C"
_symmetry_group_IT_number 7
_symmetry_cell_setting 'monoclinic'
loop_
_space_group_symop_operation_xyz
x,y,z
x,-y,1/2+z
loop_
_atom_site_type_symbol
_atom_site_label
_atom_site_fract_x
_atom_site_fract_y
_atom_site_fract_z
Si Si1 0.691100 0.940865 0.965090
Si Si2 0.612633 0.266017 0.311800
Si Si3 0.222861 0.257790 0.928968
Si Si4 0.540463 0.471705 0.489445
Si Si5 0.997886 0.450994 0.065904
Si Si6 0.044764 0.184787 0.381164
O O1 0.576945 0.837868 0.935442
O O2 0.928917 0.910004 0.966155
O O3 0.643897 0.004937 0.712245
O O4 0.458988 0.274647 0.048014
O O5 0.583821 0.358569 0.480355
O O6 0.850470 0.255947 0.294235
O O7 0.149128 0.180713 0.129436
O O8 0.092903 0.354045 0.968190
O O9 0.177280 0.226326 0.636654
O O10 0.426748 0.499280 0.716184
O O11 0.747618 0.537171 0.521754
O O12 0.049308 0.532950 0.867660
#
# Coordination Sequence:
#
# PCOD9131315 Si02
#       6
#     2   2   2   2   2   2
#     4  10  23  46  71  99 136 178 226 286 352 407
#     4  10  26  42  73  99 142 184 228 285 346 403
#     4  12  23  43  67 105 130 188 232 274 343 411
#     4  10  20  36  59  93 131 181 217 267 331 390
#     4  10  20  35  58  88 137 173 218 273 318 389
#     4  10  24  42  70  92 140 170 225 291 338 402
#
# _framework density 24.937201000000002
#
# number of rings (size 3 to 8) (size 9 to 14) (size 15 to 20)
#    1.000    0.667    0.000    6.000    0.000    6.667 
#    0.000    5.000    0.000    0.000    0.000    0.000 
#    0.000    0.000    0.000    0.000    0.000    0.000 
#
# Total GULP energy -67058.267498 kJ/mol
# GULP energy per Si atom -5588.188958 kJ/mol
# Density = 2.488044 g / cm^3
# Si number density = 24.937201 Si / 1000 Ang^3
#
#
#
# Elastic Constant Matrix: (Units=GPa)
#
#
# Indices 1 2 3 4 5 6 
#
# 1 96.9880 7.0746 48.3174 0.0000 9.2892 0.0000
# 2 7.0746 104.8946 30.0110 0.0000 15.6508 0.0000
# 3 48.3174 30.0110 151.5111 0.0000 19.0578 0.0000
# 4 0.0000 0.0000 0.0000 37.0336 0.0000 2.4997
# 5 9.2892 15.6508 19.0578 0.0000 18.8085 0.0000
# 6 0.0000 0.0000 0.0000 2.4997 0.0000 18.0887
#
#
#
# Elastic Compliance Matrix: (Units=1/GPa)
#
#
# Indices 1 2 3 4 5 6 
#
# 1 0.012393 0.000661 -0.003718 0.000000 -0.002904 0.000000
# 2 0.000661 0.011103 -0.001383 0.000000 -0.008164 0.000000
# 3 -0.003718 -0.001383 0.008806 0.000000 -0.005936 0.000000
# 4 0.000000 0.000000 0.000000 0.027257 0.000000 -0.003767
# 5 -0.002904 -0.008164 -0.005936 0.000000 0.067409 0.000000
# 6 0.000000 0.000000 0.000000 -0.003767 0.000000 0.055804
#
#
# Mechanical properties :
#
#
# Convention : Reuss Voigt Hill
#
# Bulk Modulus (GPa) = 42.69500 58.24441 50.46970
# Shear Modulus (GPa) = 25.06789 32.65220 28.86004
#
# Velocity S-wave (km/s) = 3.17399 3.62246 3.40561
# Velocity P-wave (km/s) = 5.53087 6.39558 5.97887
#
# Compressibility (1/GPa) = 0.02342195
#
# Stress axis : x y z
#
# Youngs Moduli (GPa) = 80.69383 90.06914 113.55362
#
# Poissons Ratio (x) = -0.05954 0.42216
# Poissons Ratio (y) = -0.05335 0.15706
# Poissons Ratio (z) = 0.30000 0.12458
#
# Static dielectric constant tensor:
#      x y z
#    x 2.025760 0.000000 0.025630 
#    y 0.000000 1.983510 0.000000 
#    z 0.025630 0.000000 1.978530 
# 
# From -- ./inp_files/769.got.cif
#   From: 2010.05.17/outbox.cif.g08.bks.cpg/sg7_cif.got.tgz:769.got - 2010.06.03 19:44:50.
