data_PCOD9131882
_publ_section_title
;
Structure prediction by ZEFSAII (Michael W. Deem and Ramdas Pophale) SiO2 
 PCOD9131882
Probable space group: C M
;
_chemical_formula_sum "Si O2"
_cell_formula_units_Z 32
_cell_length_a 27.124487
_cell_length_b 9.553763
_cell_length_c 10.315547
_cell_angle_alpha 90.000000
_cell_angle_beta 37.809457
_cell_angle_gamma 90.000000
_cell_volume 1638.759701
_symmetry_space_group_name_H-M "C M"
_symmetry_group_IT_number 8
_symmetry_cell_setting 'monoclinic'
loop_
_space_group_symop_operation_xyz
x,y,z
x,-y,z
1/2+x,1/2+y,z
1/2+x,1/2-y,z
loop_
_atom_site_type_symbol
_atom_site_label
_atom_site_fract_x
_atom_site_fract_y
_atom_site_fract_z
Si Si1 0.119850 0.342606 0.971270
Si Si2 0.049977 0.664327 0.383182
Si Si3 0.722874 0.834761 0.159656
Si Si4 0.373429 0.334045 0.173874
Si Si5 0.021389 0.657737 0.908932
Si Si6 0.401152 0.334839 0.809853
Si Si7 0.235590 0.155969 0.594692
Si Si8 0.138698 0.844307 0.534980
O O1 0.150788 0.500000 0.936537
O O2 0.074930 0.350616 0.926745
O O3 0.191288 0.232251 0.805012
O O4 0.058156 0.305199 0.213025
O O5 0.032542 0.500000 0.438542
O O6 0.142173 0.686635 0.241961
O O7 0.978020 0.751278 0.597312
O O8 0.707722 0.723426 0.305036
O O9 0.721993 0.000000 0.203778
O O10 0.814110 0.809947 0.920868
O O11 0.367058 0.500000 0.202063
O O12 0.300541 0.256836 0.395119
O O13 0.451343 0.267464 0.077853
O O14 0.383600 0.304723 0.998800
O O15 0.993810 0.500000 0.935082
O O16 0.070986 0.725399 0.687113
O O17 0.418794 0.500000 0.763005
O O18 0.170863 0.140516 0.613604
O O19 0.266155 0.000000 0.562036
O O20 0.112896 0.000000 0.544100
#
# Coordination Sequence:
#
# PCOD9131882 Si02
#       8
#     4   4   4   4   4   4   4   4
#     4   9  20  40  59  78 110 152 193 235 283 338
#     4  10  22  40  62  84 113 155 202 242 286 343
#     4  10  20  37  59  84 115 155 196 236 291 351
#     4  11  21  35  56  85 118 147 184 233 290 351
#     4  10  20  34  55  80 112 150 188 232 289 344
#     4  10  22  38  58  86 121 153 188 238 295 349
#     4  10  20  34  56  83 112 145 183 230 281 338
#     4  10  19  32  53  82 113 143 184 230 281 344
#
# _framework density 19.526962000000001
#
# number of rings (size 3 to 8) (size 9 to 14) (size 15 to 20)
#    0.000    2.000    1.250    2.250    0.000    6.000 
#    2.250    0.000    0.000    0.000    0.000    0.000 
#    0.000    0.000    0.000    0.000    0.000    0.000 
#
# Total GULP energy -89133.991590 kJ/mol
# GULP energy per Si atom -5570.874474 kJ/mol
# Density = 1.948252 g / cm^3
# Si number density = 19.526962 Si / 1000 Ang^3
#
#
#
# Elastic Constant Matrix: (Units=GPa)
#
#
# Indices 1 2 3 4 5 6 
#
# 1 25.6038 27.8231 28.8804 0.0000 -6.4867 0.0000
# 2 27.8231 122.7235 89.9161 0.0000 4.3723 0.0000
# 3 28.8804 89.9161 135.5993 0.0000 -3.7681 0.0000
# 4 0.0000 0.0000 0.0000 36.5384 0.0000 -6.5574
# 5 -6.4867 4.3723 -3.7681 0.0000 22.0266 0.0000
# 6 0.0000 0.0000 0.0000 -6.5574 0.0000 12.3764
#
#
#
# Elastic Compliance Matrix: (Units=1/GPa)
#
#
# Indices 1 2 3 4 5 6 
#
# 1 0.061783 -0.010598 -0.005594 0.000000 0.019342 0.000000
# 2 -0.010598 0.018226 -0.010063 0.000000 -0.008460 0.000000
# 3 -0.005594 -0.010063 0.015322 0.000000 0.002971 0.000000
# 4 0.000000 0.000000 0.000000 0.030244 0.000000 0.016024
# 5 0.019342 -0.008460 0.002971 0.000000 0.053283 0.000000
# 6 0.000000 0.000000 0.000000 0.016024 0.000000 0.089289
#
#
# Mechanical properties :
#
#
# Convention : Reuss Voigt Hill
#
# Bulk Modulus (GPa) = 23.35337 64.12952 43.74144
# Shear Modulus (GPa) = 14.92845 23.34207 19.13526
#
# Velocity S-wave (km/s) = 2.76797 3.46117 3.13380
# Velocity P-wave (km/s) = 4.71180 6.99184 5.96183
#
# Compressibility (1/GPa) = 0.04282038
#
# Stress axis : x y z
#
# Youngs Moduli (GPa) = 16.18567 54.86769 65.26668
#
# Poissons Ratio (x) = 0.58147 0.36510
# Poissons Ratio (y) = 0.17153 0.65681
# Poissons Ratio (z) = 0.09054 0.55216
#
# Static dielectric constant tensor:
#      x y z
#    x 1.757080 0.000000 -0.034410 
#    y 0.000000 1.698450 0.000000 
#    z -0.034410 0.000000 1.708960 
# 
# From -- ./inp_files/22795.got.cif
#   From: 2010.05.17/outbox.cif.g08.bks.cpg/sg8_12_cif.got.tgz:22795.got - 2010.06.03 19:46:02.
