data_PCOD9131538
_publ_section_title
;
Structure prediction by ZEFSAII (Michael W. Deem and Ramdas Pophale) SiO2 
 PCOD9131538
Probable space group: C M
;
_chemical_formula_sum "Si O2"
_cell_formula_units_Z 28
_cell_length_a 5.410625
_cell_length_b 19.289905
_cell_length_c 14.546838
_cell_angle_alpha 90.000000
_cell_angle_beta 111.689556
_cell_angle_gamma 90.000000
_cell_volume 1410.767044
_symmetry_space_group_name_H-M "C M"
_symmetry_group_IT_number 8
_symmetry_cell_setting 'monoclinic'
loop_
_space_group_symop_operation_xyz
x,y,z
x,-y,z
1/2+x,1/2+y,z
1/2+x,1/2-y,z
loop_
_atom_site_type_symbol
_atom_site_label
_atom_site_fract_x
_atom_site_fract_y
_atom_site_fract_z
Si Si1 0.616160 0.581214 0.846200
Si Si2 0.788300 0.150042 0.130611
Si Si3 0.311693 0.500000 0.186494
Si Si4 0.489327 0.918281 0.720455
Si Si5 0.215650 0.859653 0.056144
Si Si6 0.132433 0.208370 0.336037
Si Si7 0.811376 0.500000 0.185718
Si Si8 0.314887 0.204142 0.562786
O O1 0.644853 0.500000 0.875205
O O2 0.306085 0.591866 0.778415
O O3 0.817934 0.594305 0.789850
O O4 0.684692 0.625717 0.944910
O O5 0.495620 0.179136 0.109653
O O6 0.951187 0.172717 0.063839
O O7 0.978742 0.159696 0.244091
O O8 0.741589 0.067328 0.117344
O O9 0.622128 0.500000 0.246479
O O10 0.121920 0.500000 0.247211
O O11 0.390553 0.862745 0.632618
O O12 0.449387 0.000000 0.690624
O O13 0.243887 0.931990 0.117006
O O14 0.407083 0.233187 0.326627
O O15 0.207446 0.181664 0.447364
O O16 0.577012 0.251685 0.578635
#
# Coordination Sequence:
#
# PCOD9131538 Si02
#       8
#     4   4   2   4   4   4   2   4
#     4  10  19  32  54  82 117 153 187 228 285 344
#     4  10  19  31  51  78 108 139 177 225 264 310
#     4   8  16  26  42  70 100 126 160 204 262 300
#     4  10  21  36  58  89 118 145 187 247 299 333
#     4  10  17  29  49  75 111 144 178 218 260 321
#     4  10  21  38  59  79 102 143 194 227 269 337
#     4   8  14  24  40  64  96 134 170 202 240 298
#     4  10  21  40  65  85 109 151 196 236 288 358
#
# _framework density 19.847358
#
# number of rings (size 3 to 8) (size 9 to 14) (size 15 to 20)
#    0.000    2.286    0.714    2.571    0.000    0.000 
#    1.286    0.000    0.000   17.143    0.000    0.000 
#    0.000    0.000    0.000    0.000    0.000    0.000 
#
# Total GULP energy -77981.496531 kJ/mol
# GULP energy per Si atom -5570.106895 kJ/mol
# Density = 1.980218 g / cm^3
# Si number density = 19.847358 Si / 1000 Ang^3
#
#
#
# Elastic Constant Matrix: (Units=GPa)
#
#
# Indices 1 2 3 4 5 6 
#
# 1 154.6505 -9.4731 11.8482 0.0000 -11.9726 0.0000
# 2 -9.4731 55.7609 28.8259 0.0000 -2.2882 0.0000
# 3 11.8482 28.8259 81.0331 0.0000 0.1250 0.0000
# 4 0.0000 0.0000 0.0000 21.2030 0.0000 7.6909
# 5 -11.9726 -2.2882 0.1250 0.0000 25.5620 0.0000
# 6 0.0000 0.0000 0.0000 7.6909 0.0000 10.1898
#
#
#
# Elastic Compliance Matrix: (Units=1/GPa)
#
#
# Indices 1 2 3 4 5 6 
#
# 1 0.007019 0.002291 -0.001847 0.000000 0.003502 0.000000
# 2 0.002291 0.022826 -0.008460 0.000000 0.003158 0.000000
# 3 -0.001847 -0.008460 0.015623 0.000000 -0.001699 0.000000
# 4 0.000000 0.000000 0.000000 0.064943 0.000000 -0.049017
# 5 0.003502 0.003158 -0.001699 0.000000 0.041052 0.000000
# 6 0.000000 0.000000 0.000000 -0.049017 0.000000 0.135135
#
#
# Mechanical properties :
#
#
# Convention : Reuss Voigt Hill
#
# Bulk Modulus (GPa) = 33.97145 39.31628 36.64386
# Shear Modulus (GPa) = 16.00307 28.74050 22.37179
#
# Velocity S-wave (km/s) = 2.84264 3.80949 3.36101
# Velocity P-wave (km/s) = 5.28466 6.26115 5.79351
#
# Compressibility (1/GPa) = 0.02943648
#
# Stress axis : x y z
#
# Youngs Moduli (GPa) = 142.46905 43.81030 64.00986
#
# Poissons Ratio (x) = -0.10036 0.11820
# Poissons Ratio (y) = -0.32636 0.54150
# Poissons Ratio (z) = 0.26308 0.37062
#
# Static dielectric constant tensor:
#      x y z
#    x 1.802320 0.000000 -0.005420 
#    y 0.000000 1.721310 0.000000 
#    z -0.005420 0.000000 1.644990 
# 
# From -- ./inp_files/18064.got.cif
#   From: 2010.05.17/outbox.cif.g08.bks.cpg/sg8_10_cif.got.tgz:18064.got - 2010.06.03 19:46:02.
