data_PCOD9131842
_publ_section_title
;
Structure prediction by ZEFSAII (Michael W. Deem and Ramdas Pophale) SiO2 
 PCOD9131842
Probable space group: C M
;
_chemical_formula_sum "Si O2"
_cell_formula_units_Z 32
_cell_length_a 20.717978
_cell_length_b 8.505990
_cell_length_c 10.605392
_cell_angle_alpha 90.000000
_cell_angle_beta 74.225612
_cell_angle_gamma 90.000000
_cell_volume 1798.569908
_symmetry_space_group_name_H-M "C M"
_symmetry_group_IT_number 8
_symmetry_cell_setting 'monoclinic'
loop_
_space_group_symop_operation_xyz
x,y,z
x,-y,z
1/2+x,1/2+y,z
1/2+x,1/2-y,z
loop_
_atom_site_type_symbol
_atom_site_label
_atom_site_fract_x
_atom_site_fract_y
_atom_site_fract_z
Si Si1 0.994050 0.312125 0.288950
Si Si2 0.773409 0.688542 0.540312
Si Si3 0.779972 0.690968 0.243247
Si Si4 0.486527 0.810088 0.775085
Si Si5 0.128889 0.688690 0.597826
Si Si6 0.630527 0.311514 0.311518
Si Si7 0.909527 0.186696 0.571212
Si Si8 0.421244 0.807882 0.070385
O O1 0.987443 0.500000 0.301383
O O2 0.952917 0.240337 0.427275
O O3 0.962662 0.260973 0.172632
O O4 0.071269 0.264252 0.263222
O O5 0.771557 0.500000 0.544688
O O6 0.786820 0.736787 0.386893
O O7 0.700230 0.754450 0.612657
O O8 0.834448 0.749392 0.591311
O O9 0.780190 0.500000 0.241974
O O10 0.706220 0.740104 0.236779
O O11 0.844378 0.744447 0.131080
O O12 0.564119 0.764137 0.713389
O O13 0.444181 0.752239 0.678248
O O14 0.484610 0.000000 0.776046
O O15 0.454941 0.753839 0.923156
O O16 0.129545 0.500000 0.584946
O O17 0.121114 0.762551 0.462640
O O18 0.626335 0.500000 0.305080
O O19 0.908582 0.000000 0.576622
O O20 0.421046 0.000000 0.068439
#
# Coordination Sequence:
#
# PCOD9131842 Si02
#       8
#     4   4   4   4   4   4   4   4
#     4  11  20  34  57  82 109 142 185 232 277 326
#     4  10  19  34  57  82 109 141 182 231 280 327
#     4   8  15  30  53  79 106 138 178 222 268 319
#     4  10  21  37  58  81 111 150 187 222 273 333
#     4  10  19  32  52  81 114 146 183 225 274 328
#     4  10  19  31  52  81 111 143 182 229 276 322
#     4  12  23  35  55  83 114 144 183 232 277 326
#     4   9  18  35  58  81 106 144 186 225 273 331
#
# _framework density 17.791913000000001
#
# number of rings (size 3 to 8) (size 9 to 14) (size 15 to 20)
#    0.000    2.000    2.500    3.375    0.000    0.500 
#    0.000    2.500    0.000    3.000    0.000    0.000 
#    0.000    0.000    0.000    0.000    0.000    0.000 
#
# Total GULP energy -89294.112849 kJ/mol
# GULP energy per Si atom -5580.882053 kJ/mol
# Density = 1.775142 g / cm^3
# Si number density = 17.791913 Si / 1000 Ang^3
#
#
#
# Elastic Constant Matrix: (Units=GPa)
#
#
# Indices 1 2 3 4 5 6 
#
# 1 146.2074 5.6953 77.6205 0.0000 -21.7585 0.0000
# 2 5.6953 14.1726 9.2554 0.0000 -3.9659 0.0000
# 3 77.6205 9.2554 125.8253 0.0000 -14.2116 0.0000
# 4 0.0000 0.0000 0.0000 6.9514 0.0000 -8.8863
# 5 -21.7585 -3.9659 -14.2116 0.0000 27.7649 0.0000
# 6 0.0000 0.0000 0.0000 -8.8863 0.0000 22.2960
#
#
#
# Elastic Compliance Matrix: (Units=1/GPa)
#
#
# Indices 1 2 3 4 5 6 
#
# 1 0.010904 0.001213 -0.006189 0.000000 0.005551 0.000000
# 2 0.001213 0.076090 -0.005318 0.000000 0.009097 0.000000
# 3 -0.006189 -0.005318 0.012230 0.000000 0.000650 0.000000
# 4 0.000000 0.000000 0.000000 0.293287 0.000000 0.116893
# 5 0.005551 0.009097 0.000650 0.000000 0.041999 0.000000
# 6 0.000000 0.000000 0.000000 0.116893 0.000000 0.091440
#
#
# Mechanical properties :
#
#
# Convention : Reuss Voigt Hill
#
# Bulk Modulus (GPa) = 12.71673 52.37197 32.54435
# Shear Modulus (GPa) = 8.72982 24.31139 16.52061
#
# Velocity S-wave (km/s) = 2.21749 3.70053 3.05051
# Velocity P-wave (km/s) = 3.70397 6.91074 5.54426
#
# Compressibility (1/GPa) = 0.07863655
#
# Stress axis : x y z
#
# Youngs Moduli (GPa) = 91.70921 13.14237 81.76589
#
# Poissons Ratio (x) = -0.01594 0.50604
# Poissons Ratio (y) = -0.11125 0.43482
# Poissons Ratio (z) = 0.56758 0.06989
#
# Static dielectric constant tensor:
#      x y z
#    x 1.611060 0.000000 -0.022820 
#    y 0.000000 1.602490 0.000000 
#    z -0.022820 0.000000 1.591820 
# 
# From -- ./inp_files/23692.got.cif
#   From: 2010.05.17/outbox.cif.g08.bks.cpg/sg8_12_cif.got.tgz:23692.got - 2010.06.03 19:46:02.
