data_PCOD9131904
_publ_section_title
;
Structure prediction by ZEFSAII (Michael W. Deem and Ramdas Pophale) SiO2 
 PCOD9131904
Probable space group: C M
;
_chemical_formula_sum "Si O2"
_cell_formula_units_Z 32
_cell_length_a 14.570179
_cell_length_b 7.824718
_cell_length_c 25.304544
_cell_angle_alpha 90.000000
_cell_angle_beta 30.398741
_cell_angle_gamma 90.000000
_cell_volume 1459.806613
_symmetry_space_group_name_H-M "C M"
_symmetry_group_IT_number 8
_symmetry_cell_setting 'monoclinic'
loop_
_space_group_symop_operation_xyz
x,y,z
x,-y,z
1/2+x,1/2+y,z
1/2+x,1/2-y,z
loop_
_atom_site_type_symbol
_atom_site_label
_atom_site_fract_x
_atom_site_fract_y
_atom_site_fract_z
Si Si1 0.505130 0.200676 0.730880
Si Si2 0.101567 0.790620 0.911244
Si Si3 0.308474 0.708830 0.141380
Si Si4 0.883152 0.200476 0.516338
Si Si5 0.229614 0.300628 0.292550
Si Si6 0.165862 0.792437 0.764061
Si Si7 0.903869 0.700970 0.315849
Si Si8 0.049622 0.305989 0.543670
O O1 0.304611 0.272472 0.823600
O O2 0.677359 0.262631 0.610621
O O3 0.571646 0.223544 0.758232
O O4 0.487403 0.000000 0.727488
O O5 0.067272 0.744833 0.867232
O O6 0.101376 0.000000 0.913625
O O7 0.953990 0.729461 0.026588
O O8 0.313667 0.500000 0.136369
O O9 0.339294 0.760425 0.186913
O O10 0.103122 0.764876 0.231031
O O11 0.031902 0.216822 0.397178
O O12 0.965825 0.299317 0.525630
O O13 0.875274 0.000000 0.535321
O O14 0.192259 0.500000 0.303438
O O15 0.335509 0.277337 0.294527
O O16 0.377685 0.734494 0.661257
O O17 0.170818 0.000000 0.757460
O O18 0.917373 0.500000 0.300271
O O19 0.747131 0.726605 0.437574
O O20 0.079160 0.500000 0.546510
#
# Coordination Sequence:
#
# PCOD9131904 Si02
#       8
#     4   4   4   4   4   4   4   4
#     4   9  18  32  53  76 100 129 163 200 245 294
#     4   9  18  35  53  71  97 133 170 203 240 294
#     4   9  20  35  51  71  99 133 170 203 242 294
#     4   9  16  28  48  76 103 128 158 198 245 296
#     4  10  19  33  52  75 100 131 165 201 244 293
#     4   9  18  32  53  76 100 129 163 200 245 294
#     4  10  19  33  52  75 100 131 165 201 244 293
#     4   9  16  28  48  76 103 128 158 198 245 296
#
# _framework density 21.920712000000002
#
# number of rings (size 3 to 8) (size 9 to 14) (size 15 to 20)
#    0.000    2.750    0.000    3.000    0.000    3.000 
#    0.000    4.375    0.000    4.500    0.000    0.000 
#    0.000    0.000    0.000    0.000    0.000    0.000 
#
# Total GULP energy -89247.396791 kJ/mol
# GULP energy per Si atom -5577.962299 kJ/mol
# Density = 2.187082 g / cm^3
# Si number density = 21.920712 Si / 1000 Ang^3
#
#
#
# Elastic Constant Matrix: (Units=GPa)
#
#
# Indices 1 2 3 4 5 6 
#
# 1 48.9176 -4.1572 23.7375 0.0000 7.7579 0.0001
# 2 -4.1572 31.2251 8.0482 0.0000 0.4835 0.0003
# 3 23.7375 8.0482 111.7725 -0.0002 23.2963 0.0000
# 4 0.0000 0.0000 -0.0002 15.0079 0.0000 -0.8673
# 5 7.7579 0.4835 23.2963 0.0000 39.3441 0.0000
# 6 0.0001 0.0003 0.0000 -0.8673 0.0000 -2.6308
#
#
#
# Elastic Compliance Matrix: (Units=1/GPa)
#
#
# Indices 1 2 3 4 5 6 
#
# 1 0.023496 0.004429 -0.004942 0.000000 -0.001761 0.000001
# 2 0.004429 0.033510 -0.003520 0.000000 0.000799 0.000004
# 3 -0.004942 -0.003520 0.011451 0.000000 -0.005763 -0.000001
# 4 0.000000 0.000000 0.000000 0.065386 0.000000 -0.021556
# 5 -0.001761 0.000799 -0.005763 0.000000 0.029166 0.000000
# 6 0.000001 0.000004 -0.000001 -0.021556 0.000000 -0.373004
#
#
# Mechanical properties :
#
#
# Convention : Reuss Voigt Hill
#
# Bulk Modulus (GPa) = 16.55854 27.46359 22.01106
# Shear Modulus (GPa) = -27.50294 21.29667 -3.10314
#
# Velocity S-wave (km/s) = -3.54595 3.12032 -1.19109
# Velocity P-wave (km/s) = 3.03230 5.05348 2.85857
#
# Compressibility (1/GPa) = 0.06039180
#
# Stress axis : x y z
#
# Youngs Moduli (GPa) = 42.55982 29.84172 87.33024
#
# Poissons Ratio (x) = -0.13218 0.43157
# Poissons Ratio (y) = -0.18851 0.30741
# Poissons Ratio (z) = 0.21032 0.10505
#
# Static dielectric constant tensor:
#      x y z
#    x 1.823780 0.000000 0.005870 
#    y 0.000000 1.805750 0.000000 
#    z 0.005870 0.000000 1.825830 
# 
# From -- ./inp_files/32864.got.cif
#   From: 2010.05.17/outbox.cif.g08.bks.cpg/sg8_17_cif.got.tgz:32864.got - 2010.06.03 19:46:02.
