data_PCOD9131689
_publ_section_title
;
Structure prediction by ZEFSAII (Michael W. Deem and Ramdas Pophale) SiO2 
 PCOD9131689
Probable space group: C M
;
_chemical_formula_sum "Si O2"
_cell_formula_units_Z 26
_cell_length_a 20.034354
_cell_length_b 7.197901
_cell_length_c 9.451407
_cell_angle_alpha 90.000000
_cell_angle_beta 136.193554
_cell_angle_gamma 90.000000
_cell_volume 943.462326
_symmetry_space_group_name_H-M "C M"
_symmetry_group_IT_number 8
_symmetry_cell_setting 'monoclinic'
loop_
_space_group_symop_operation_xyz
x,y,z
x,-y,z
1/2+x,1/2+y,z
1/2+x,1/2-y,z
loop_
_atom_site_type_symbol
_atom_site_label
_atom_site_fract_x
_atom_site_fract_y
_atom_site_fract_z
Si Si1 0.423620 0.275891 0.649940
Si Si2 0.334701 0.284372 0.110970
Si Si3 0.627254 0.724726 0.921032
Si Si4 0.999264 0.500000 0.460688
Si Si5 0.922670 0.219343 0.969242
Si Si6 0.208327 0.785267 0.335016
Si Si7 0.612158 0.281401 0.454026
O O1 0.428646 0.500000 0.650967
O O2 0.519983 0.199871 0.721020
O O3 0.425724 0.207921 0.815928
O O4 0.316273 0.226662 0.441728
O O5 0.366509 0.500000 0.168026
O O6 0.225118 0.276377 0.993524
O O7 0.342500 0.219587 0.959006
O O8 0.411231 0.160356 0.311641
O O9 0.623866 0.500000 0.911583
O O10 0.642862 0.786682 0.108242
O O11 0.082036 0.660286 0.540465
O O12 0.911877 0.000000 0.933972
O O13 0.021805 0.248265 0.206658
O O14 0.197725 0.714554 0.479152
O O15 0.180765 0.000000 0.307368
O O16 0.620596 0.500000 0.503239
#
# Coordination Sequence:
#
# PCOD9131689 Si02
#       7
#     4   4   4   2   4   4   4
#     4  10  20  36  62  87 116 160 204 250 302 363
#     4  10  20  35  59  89 119 158 205 250 302 364
#     4  10  20  39  61  83 122 169 204 244 305 365
#     4  10  18  32  58  88 114 152 200 248 298 364
#     4   8  15  33  57  83 112 152 191 241 303 350
#     4  10  21  37  58  89 127 155 199 253 307 358
#     4   9  17  33  57  85 117 153 194 246 300 357
#
# _framework density 27.558071999999999
#
# number of rings (size 3 to 8) (size 9 to 14) (size 15 to 20)
#    0.000    2.462    2.308    1.385    1.077    1.231 
#    5.538    0.000    6.769    0.000    0.000    0.000 
#    0.000    0.000    0.000    0.000    0.000    0.000 
#
# Total GULP energy -72495.500007 kJ/mol
# GULP energy per Si atom -5576.576924 kJ/mol
# Density = 2.749535 g / cm^3
# Si number density = 27.558072 Si / 1000 Ang^3
#
#
#
# Elastic Constant Matrix: (Units=GPa)
#
#
# Indices 1 2 3 4 5 6 
#
# 1 200.9066 -13.7671 34.8054 0.0000 35.2306 0.0000
# 2 -13.7671 153.4371 -13.2802 0.0000 14.0346 0.0000
# 3 34.8054 -13.2802 121.4087 0.0000 14.5467 0.0000
# 4 0.0000 0.0000 0.0000 -57.0151 0.0000 50.1462
# 5 35.2306 14.0346 14.5467 0.0000 40.0789 0.0000
# 6 0.0000 0.0000 0.0000 50.1462 0.0000 -4.2562
#
#
#
# Elastic Compliance Matrix: (Units=1/GPa)
#
#
# Indices 1 2 3 4 5 6 
#
# 1 0.006163 0.000957 -0.001017 0.000000 -0.005384 0.000000
# 2 0.000957 0.007016 0.000929 0.000000 -0.003636 0.000000
# 3 -0.001017 0.000929 0.008951 0.000000 -0.002680 0.000000
# 4 0.000000 0.000000 0.000000 0.001873 0.000000 0.022072
# 5 -0.005384 -0.003636 -0.002680 0.000000 0.031929 0.000000
# 6 0.000000 0.000000 0.000000 0.022072 0.000000 0.025095
#
#
# Mechanical properties :
#
#
# Convention : Reuss Voigt Hill
#
# Bulk Modulus (GPa) = 41.89679 54.58540 48.24110
# Shear Modulus (GPa) = 57.30919 26.96115 42.13517
#
# Velocity S-wave (km/s) = 4.56519 3.13124 3.91443
# Velocity P-wave (km/s) = 6.55927 5.73788 6.16228
#
# Compressibility (1/GPa) = 0.02386817
#
# Stress axis : x y z
#
# Youngs Moduli (GPa) = 162.24927 142.52858 111.72079
#
# Poissons Ratio (x) = -0.13646 0.11363
# Poissons Ratio (y) = -0.15534 -0.10374
# Poissons Ratio (z) = 0.16502 -0.13235
#
# Static dielectric constant tensor:
#      x y z
#    x 2.282650 0.000000 -0.078090 
#    y 0.000000 2.139190 0.000000 
#    z -0.078090 0.000000 2.156430 
# 
# From -- ./inp_files/21428.got.cif
#   From: 2010.05.17/outbox.cif.g08.bks.cpg/sg8_11_cif.got.tgz:21428.got - 2010.06.03 19:46:02.
