data_PCOD9131192
_publ_section_title
;
Structure prediction by ZEFSAII (Michael W. Deem and Ramdas Pophale) SiO2 
 PCOD9131192
Probable space group: P M
;
_chemical_formula_sum "Si O2"
_cell_formula_units_Z 12
_cell_length_a 9.000000
_cell_length_b 9.000000
_cell_length_c 12.000000
_cell_angle_alpha 90.000000
_cell_angle_beta 140.000000
_cell_angle_gamma 90.000000
_cell_volume 624.789557
_symmetry_space_group_name_H-M "P M"
_symmetry_group_IT_number 6
_symmetry_cell_setting 'monoclinic'
loop_
_space_group_symop_operation_xyz
x,y,z
x,-y,z
loop_
_atom_site_type_symbol
_atom_site_label
_atom_site_fract_x
_atom_site_fract_y
_atom_site_fract_z
Si Si1 0.305930 0.824431 0.535870
Si Si2 0.846177 0.322444 0.218009
Si Si3 0.203334 0.670296 0.928248
Si Si4 0.436936 0.176921 0.858964
Si Si5 0.608227 0.677956 0.310834
Si Si6 0.671246 0.673073 0.598566
O O1 0.336628 0.776217 0.682069
O O2 0.531535 0.778966 0.598551
O O3 0.101386 0.738632 0.357374
O O4 0.263488 0.000000 0.509953
O O5 0.839118 0.500000 0.209503
O O6 0.757415 0.270972 0.290241
O O7 0.677537 0.255027 0.028737
O O8 0.274545 0.500000 0.939270
O O9 0.271594 0.773171 0.864479
O O10 0.933622 0.671521 0.788941
O O11 0.347963 0.709719 0.121056
O O12 0.466351 0.000000 0.874790
O O13 0.642342 0.500000 0.335620
O O14 0.661824 0.729914 0.465379
O O15 0.586870 0.500000 0.553103
#
# Coordination Sequence:
#
# PCOD9131192 Si02
#       6
#     2   2   2   2   2   2
#     4  11  24  38  52  78 117 152 181 219 271 329
#     4  10  20  37  62  85 106 138 184 233 274 318
#     4   9  18  34  56  80 105 136 180 228 268 315
#     4  10  21  37  57  82 113 146 180 222 273 327
#     4   8  16  32  54  80 104 129 171 226 273 311
#     4  10  20  34  53  77 107 143 182 222 265 318
#
# _framework density 19.206467
#
# number of rings (size 3 to 8) (size 9 to 14) (size 15 to 20)
#    0.000    2.333    0.000    3.500    0.000    6.000 
#    0.000    5.833    0.000    0.000    0.000    0.000 
#    0.000    0.000    0.000    0.000    0.000    0.000 
#
# Total GULP energy -66902.751496 kJ/mol
# GULP energy per Si atom -5575.229291 kJ/mol
# Density = 1.916275 g / cm^3
# Si number density = 19.206467 Si / 1000 Ang^3
#
#
#
# Elastic Constant Matrix: (Units=GPa)
#
#
# Indices 1 2 3 4 5 6 
#
# 1 -6.6114 -3.4099 -3.9796 0.0000 25.3586 0.0000
# 2 -3.4099 31.8699 8.4975 0.0000 16.9875 0.0000
# 3 -3.9796 8.4975 40.6167 0.0000 35.8521 0.0000
# 4 0.0000 0.0000 0.0000 14.3784 0.0000 -18.9510
# 5 25.3586 16.9875 35.8521 0.0000 5.9600 0.0000
# 6 0.0000 0.0000 0.0000 -18.9510 0.0000 -22.4658
#
#
#
# Elastic Compliance Matrix: (Units=1/GPa)
#
#
# Indices 1 2 3 4 5 6 
#
# 1 0.042546 -0.010240 -0.032563 0.000000 0.044040 0.000000
# 2 -0.010240 0.032230 -0.008094 0.000000 0.000394 0.000000
# 3 -0.032563 -0.008094 0.027736 0.000000 -0.005225 0.000000
# 4 0.000000 0.000000 0.000000 0.032933 0.000000 -0.027781
# 5 0.044040 0.000394 -0.005225 0.000000 0.010715 0.000000
# 6 0.000000 0.000000 0.000000 -0.027781 0.000000 -0.021078
#
#
# Mechanical properties :
#
#
# Convention : Reuss Voigt Hill
#
# Bulk Modulus (GPa) = 1391.17913 7.56568 699.37241
# Shear Modulus (GPa) = 22.01527 3.89234 12.95380
#
# Velocity S-wave (km/s) = 3.38929 1.42512 2.59984
# Velocity P-wave (km/s) = 27.22531 2.57986 19.33744
#
# Compressibility (1/GPa) = 0.00071881
#
# Stress axis : x y z
#
# Youngs Moduli (GPa) = 23.50385 31.02696 36.05463
#
# Poissons Ratio (x) = 0.31771 1.17403
# Poissons Ratio (y) = 0.24068 0.29182
# Poissons Ratio (z) = 0.76535 0.25113
#
# Static dielectric constant tensor:
#      x y z
#    x 1.675840 0.000000 0.028810 
#    y 0.000000 1.669450 0.000000 
#    z 0.028810 0.000000 1.666300 
# 
# From -- ./inp_files/2485.got.cif
#   From: 2010.05.17/outbox.ucp.g08.bks.cvg/sg6_2_cif.got.tgz:2485.got - 2010.06.11 12:59:37.
