data_PCOD9131968
_publ_section_title
;
Structure prediction by ZEFSAII (Michael W. Deem and Ramdas Pophale) SiO2 
 PCOD9131968
Probable space group: C M
;
_chemical_formula_sum "Si O2"
_cell_formula_units_Z 32
_cell_length_a 15.630100
_cell_length_b 8.306831
_cell_length_c 23.124275
_cell_angle_alpha 90.000000
_cell_angle_beta 147.899247
_cell_angle_gamma 90.000000
_cell_volume 1595.492418
_symmetry_space_group_name_H-M "C M"
_symmetry_group_IT_number 8
_symmetry_cell_setting 'monoclinic'
loop_
_space_group_symop_operation_xyz
x,y,z
x,-y,z
1/2+x,1/2+y,z
1/2+x,1/2-y,z
loop_
_atom_site_type_symbol
_atom_site_label
_atom_site_fract_x
_atom_site_fract_y
_atom_site_fract_z
Si Si1 0.864840 0.802984 0.757360
Si Si2 0.523725 0.193673 0.608861
Si Si3 0.318236 0.305823 0.599392
Si Si4 0.511497 0.190106 0.354684
Si Si5 0.714949 0.305189 0.362970
Si Si6 0.176649 0.316150 0.125505
Si Si7 0.016359 0.811030 0.139808
Si Si8 0.189882 0.188729 0.006727
O O1 0.702417 0.748265 0.696612
O O2 0.858843 0.750847 0.687087
O O3 0.027433 0.753183 0.882456
O O4 0.862587 0.000000 0.756413
O O5 0.446136 0.253610 0.624134
O O6 0.397059 0.235504 0.485257
O O7 0.528236 0.000000 0.614173
O O8 0.314219 0.500000 0.597172
O O9 0.140752 0.252826 0.476319
O O10 0.601416 0.221361 0.345280
O O11 0.342911 0.279038 0.253987
O O12 0.481871 0.000000 0.345862
O O13 0.695943 0.500000 0.357563
O O14 0.652965 0.260082 0.264296
O O15 0.173762 0.500000 0.105028
O O16 0.037219 0.279393 0.091436
O O17 0.172550 0.210774 0.065462
O O18 0.037746 0.000000 0.140782
O O19 0.846252 0.779693 0.072806
O O20 0.212180 0.000000 0.006584
#
# Coordination Sequence:
#
# PCOD9131968 Si02
#       8
#     4   4   4   4   4   4   4   4
#     4   9  20  38  62  86 114 155 197 237 288 351
#     4   9  18  35  58  85 117 153 191 235 288 346
#     4   9  19  36  58  86 119 153 190 237 292 350
#     4  10  19  33  59  88 121 156 192 240 297 356
#     4   9  18  33  58  86 120 155 190 238 295 353
#     4  12  25  40  59  86 120 160 202 249 299 351
#     4  11  23  39  61  90 119 157 200 245 299 357
#     4  11  23  42  63  87 120 159 202 249 296 350
#
# _framework density 20.056502999999999
#
# number of rings (size 3 to 8) (size 9 to 14) (size 15 to 20)
#    0.000    2.000    1.250    2.250    1.750    2.000 
#    0.000    5.625    0.000    0.000    0.000    0.000 
#    0.000    0.000    0.000    0.000    0.000    0.000 
#
# Total GULP energy -89365.460290 kJ/mol
# GULP energy per Si atom -5585.341268 kJ/mol
# Density = 2.001085 g / cm^3
# Si number density = 20.056503 Si / 1000 Ang^3
#
#
#
# Elastic Constant Matrix: (Units=GPa)
#
#
# Indices 1 2 3 4 5 6 
#
# 1 88.4017 -9.1979 51.6778 0.0000 -10.2065 0.0000
# 2 -9.1979 11.3711 -0.0733 0.0000 -1.7961 0.0000
# 3 51.6778 -0.0733 105.1422 0.0000 -13.6714 0.0000
# 4 0.0000 0.0000 0.0000 17.3868 0.0000 5.9995
# 5 -10.2065 -1.7961 -13.6714 0.0000 13.0396 0.0000
# 6 0.0000 0.0000 0.0000 5.9995 0.0000 22.3003
#
#
#
# Elastic Compliance Matrix: (Units=1/GPa)
#
#
# Indices 1 2 3 4 5 6 
#
# 1 0.018728 0.016429 -0.008097 0.000000 0.008433 0.000000
# 2 0.016429 0.104652 -0.005159 0.000000 0.021866 0.000000
# 3 -0.008097 -0.005159 0.014555 0.000000 0.008212 0.000000
# 4 0.000000 0.000000 0.000000 0.063400 0.000000 -0.017057
# 5 0.008433 0.021866 0.008212 0.000000 0.094912 0.000000
# 6 0.000000 0.000000 0.000000 -0.017057 0.000000 0.049431
#
#
# Mechanical properties :
#
#
# Convention : Reuss Voigt Hill
#
# Bulk Modulus (GPa) = 6.93092 32.19203 19.56148
# Shear Modulus (GPa) = 12.90569 21.37922 17.14245
#
# Velocity S-wave (km/s) = 2.53942 3.26843 2.92671
# Velocity P-wave (km/s) = 3.47295 5.50718 4.60382
#
# Compressibility (1/GPa) = 0.14428089
#
# Stress axis : x y z
#
# Youngs Moduli (GPa) = 53.39484 9.55550 68.70564
#
# Poissons Ratio (x) = -0.15699 0.55632
# Poissons Ratio (y) = -0.87722 0.35444
# Poissons Ratio (z) = 0.43234 0.04929
#
# Static dielectric constant tensor:
#      x y z
#    x 1.691060 0.000000 0.002590 
#    y 0.000000 1.689810 0.000000 
#    z 0.002590 0.000000 1.708800 
# 
# From -- ./inp_files/31986.got.cif
#   From: 2010.05.17/outbox.cif.g08.bks.cpg/sg8_16_cif.got.tgz:31986.got - 2010.06.03 19:46:02.
