data_PCOD9131543
_publ_section_title
;
Structure prediction by ZEFSAII (Michael W. Deem and Ramdas Pophale) SiO2 
 PCOD9131543
Probable space group: C M
;
_chemical_formula_sum "Si O2"
_cell_formula_units_Z 32
_cell_length_a 23.821703
_cell_length_b 8.707355
_cell_length_c 22.394874
_cell_angle_alpha 90.000000
_cell_angle_beta 24.525589
_cell_angle_gamma 90.000000
_cell_volume 1928.235154
_symmetry_space_group_name_H-M "C M"
_symmetry_group_IT_number 8
_symmetry_cell_setting 'monoclinic'
loop_
_space_group_symop_operation_xyz
x,y,z
x,-y,z
1/2+x,1/2+y,z
1/2+x,1/2-y,z
loop_
_atom_site_type_symbol
_atom_site_label
_atom_site_fract_x
_atom_site_fract_y
_atom_site_fract_z
Si Si1 0.941530 0.318048 0.761390
Si Si2 0.168772 0.825326 0.611891
Si Si3 0.860693 0.683708 0.086623
Si Si4 0.652433 0.317150 0.827825
Si Si5 0.880495 0.176099 0.940787
Si Si6 0.342475 0.316401 0.540251
Si Si7 0.071779 0.186224 0.404897
Si Si8 0.864019 0.815340 0.709138
O O1 0.930195 0.500000 0.768563
O O2 0.898076 0.238406 0.742509
O O3 0.095782 0.270631 0.630292
O O4 0.854113 0.253879 0.902151
O O5 0.296007 0.755774 0.522800
O O6 0.192344 0.000000 0.569830
O O7 0.045268 0.828375 0.779744
O O8 0.876434 0.500000 0.076259
O O9 0.837932 0.728623 0.039324
O O10 0.726604 0.735635 0.251589
O O11 0.997381 0.764715 0.975670
O O12 0.662819 0.500000 0.810612
O O13 0.734829 0.233464 0.695012
O O14 0.729464 0.262475 0.812988
O O15 0.833240 0.000000 0.988953
O O16 0.340146 0.500000 0.537182
O O17 0.485881 0.266317 0.429470
O O18 0.985760 0.231824 0.546201
O O19 0.072780 0.000000 0.403374
O O20 0.850827 0.000000 0.719191
#
# Coordination Sequence:
#
# PCOD9131543 Si02
#       8
#     4   4   4   4   4   4   4   4
#     4  10  18  30  49  75  99 126 163 205 246 288
#     4   9  17  28  45  71  99 125 156 198 242 285
#     4  11  19  32  51  74 101 133 165 201 248 296
#     4  11  20  30  46  71  99 128 164 206 243 288
#     4   9  18  30  46  72 100 127 159 200 242 286
#     4  10  17  30  49  72  98 128 164 205 247 289
#     4   8  19  33  49  72 102 133 163 198 245 297
#     4  10  19  35  53  73  98 130 166 205 245 289
#
# _framework density 16.595486999999999
#
# number of rings (size 3 to 8) (size 9 to 14) (size 15 to 20)
#    0.750    1.500    1.250    4.500    0.000    0.000 
#    0.000    7.500    0.000    1.500    0.000    7.000 
#    0.000    0.000    0.000    0.000    0.000    0.000 
#
# Total GULP energy -89068.090262 kJ/mol
# GULP energy per Si atom -5566.755641 kJ/mol
# Density = 1.655771 g / cm^3
# Si number density = 16.595487 Si / 1000 Ang^3
#
#
#
# Elastic Constant Matrix: (Units=GPa)
#
#
# Indices 1 2 3 4 5 6 
#
# 1 91.0600 6.8988 22.7086 0.0000 -6.0359 0.0000
# 2 6.8988 63.5407 7.2524 0.0001 -0.8110 0.0000
# 3 22.7086 7.2524 70.0136 0.0001 -11.0113 0.0000
# 4 0.0000 0.0001 0.0001 7.3380 0.0000 -4.8268
# 5 -6.0359 -0.8110 -11.0113 0.0000 15.7116 0.0000
# 6 0.0000 0.0000 0.0000 -4.8268 0.0000 31.4161
#
#
#
# Elastic Compliance Matrix: (Units=1/GPa)
#
#
# Indices 1 2 3 4 5 6 
#
# 1 0.012059 -0.000884 -0.003482 0.000000 0.002147 0.000000
# 2 -0.000884 0.015993 -0.001454 0.000000 -0.000533 0.000000
# 3 -0.003482 -0.001454 0.017241 0.000000 0.010670 0.000000
# 4 0.000000 0.000000 0.000000 0.151597 0.000000 0.023291
# 5 0.002147 -0.000533 0.010670 0.000000 0.071923 0.000000
# 6 0.000000 0.000000 0.000000 0.023291 0.000000 0.035409
#
#
# Mechanical properties :
#
#
# Convention : Reuss Voigt Hill
#
# Bulk Modulus (GPa) = 29.71493 33.14822 31.43157
# Shear Modulus (GPa) = 15.28673 23.41011 19.34842
#
# Velocity S-wave (km/s) = 3.03832 3.75991 3.41821
# Velocity P-wave (km/s) = 5.50025 6.23433 5.87876
#
# Compressibility (1/GPa) = 0.03365312
#
# Stress axis : x y z
#
# Youngs Moduli (GPa) = 82.92245 62.52701 58.00091
#
# Poissons Ratio (x) = 0.05530 0.20197
# Poissons Ratio (y) = 0.07334 0.08431
# Poissons Ratio (z) = 0.28875 0.09089
#
# Static dielectric constant tensor:
#      x y z
#    x 1.565640 0.000000 -0.013200 
#    y 0.000000 1.556810 0.000000 
#    z -0.013200 0.000000 1.560200 
# 
# From -- ./inp_files/33135.got.cif
#   From: 2010.05.17/outbox.cif.g08.bks.cpg/sg8_17_cif.got.tgz:33135.got - 2010.06.03 19:46:02.
