data_PCOD9131285
_publ_section_title
;
Structure prediction by ZEFSAII (Michael W. Deem and Ramdas Pophale) SiO2 
 PCOD9131285
Probable space group: P C
;
_chemical_formula_sum "Si O2"
_cell_formula_units_Z 14
_cell_length_a 16.393787
_cell_length_b 8.280463
_cell_length_c 5.558021
_cell_angle_alpha 90.000000
_cell_angle_beta 131.836002
_cell_angle_gamma 90.000000
_cell_volume 562.138864
_symmetry_space_group_name_H-M "P C"
_symmetry_group_IT_number 7
_symmetry_cell_setting 'monoclinic'
loop_
_space_group_symop_operation_xyz
x,y,z
x,-y,1/2+z
loop_
_atom_site_type_symbol
_atom_site_label
_atom_site_fract_x
_atom_site_fract_y
_atom_site_fract_z
Si Si1 0.012540 0.194122 0.794690
Si Si2 0.231568 0.076576 0.372721
Si Si3 0.527779 0.742568 0.900552
Si Si4 0.329321 0.521254 0.489121
Si Si5 0.749956 0.587433 0.388770
Si Si6 0.928835 0.816660 0.631475
Si Si7 0.472591 0.798940 0.289011
O O1 0.993048 0.255562 0.487769
O O2 0.141075 0.202788 0.107472
O O3 0.964642 0.006296 0.687328
O O4 0.954972 0.257503 0.921844
O O5 0.359231 0.107016 0.594524
O O6 0.209268 0.051826 0.612193
O O7 0.400698 0.683866 0.635819
O O8 0.545890 0.808736 0.669419
O O9 0.619270 0.608209 0.122340
O O10 0.529898 0.841502 0.151756
O O11 0.268639 0.495334 0.618953
O O12 0.425262 0.384676 0.673971
O O13 0.779392 0.520780 0.712207
O O14 0.805450 0.763103 0.453405
#
# Coordination Sequence:
#
# PCOD9131285 Si02
#       7
#     2   2   2   2   2   2   2
#     4  10  19  40  64  89 109 166 211 257 314 369
#     4  12  21  37  62  91 107 150 212 249 303 369
#     4  10  19  36  56  84 117 163 194 228 290 361
#     4   8  14  27  47  70 100 139 178 212 256 327
#     4  12  23  37  63  98 125 164 209 250 307 379
#     4  10  20  37  64  89 119 155 214 259 308 367
#     4  10  20  32  56  83 117 147 194 247 282 344
#
# _framework density 24.904876000000002
#
# number of rings (size 3 to 8) (size 9 to 14) (size 15 to 20)
#    0.000    1.714    2.857    5.143    0.000    0.000 
#    0.000    0.000   18.857   15.429    0.000    0.000 
#    0.000    0.000    0.000    0.000    0.000    0.000 
#
# Total GULP energy -77992.686697 kJ/mol
# GULP energy per Si atom -5570.906193 kJ/mol
# Density = 2.484819 g / cm^3
# Si number density = 24.904876 Si / 1000 Ang^3
#
#
#
# Elastic Constant Matrix: (Units=GPa)
#
#
# Indices 1 2 3 4 5 6 
#
# 1 94.8213 1.4697 40.2725 0.0000 -39.0544 0.0000
# 2 1.4697 47.1589 5.0370 0.0000 -6.0264 0.0000
# 3 40.2725 5.0370 117.4527 0.0000 -51.7763 0.0000
# 4 0.0000 0.0000 0.0000 0.4902 0.0000 6.2412
# 5 -39.0544 -6.0264 -51.7763 0.0000 54.5870 0.0000
# 6 0.0000 0.0000 0.0000 6.2412 0.0000 22.3114
#
#
#
# Elastic Compliance Matrix: (Units=1/GPa)
#
#
# Indices 1 2 3 4 5 6 
#
# 1 0.015025 0.000908 -0.000701 0.000000 0.010185 0.000000
# 2 0.000908 0.021566 0.000171 0.000000 0.003193 0.000000
# 3 -0.000701 0.000171 0.014667 0.000000 0.013429 0.000000
# 4 0.000000 0.000000 0.000000 -0.796377 0.000000 0.222772
# 5 0.010185 0.003193 0.013429 0.000000 0.038697 0.000000
# 6 0.000000 0.000000 0.000000 0.222772 0.000000 -0.017496
#
#
# Mechanical properties :
#
#
# Convention : Reuss Voigt Hill
#
# Bulk Modulus (GPa) = 19.22507 39.22125 29.22316
# Shear Modulus (GPa) = -7.06876 29.65463 11.29293
#
# Velocity S-wave (km/s) = -1.68655 3.45442 2.13173
# Velocity P-wave (km/s) = 1.98583 5.62968 4.22119
#
# Compressibility (1/GPa) = 0.05201541
#
# Stress axis : x y z
#
# Youngs Moduli (GPa) = 66.55726 46.36851 68.18017
#
# Poissons Ratio (x) = -0.04211 0.04778
# Poissons Ratio (y) = -0.06044 -0.01169
# Poissons Ratio (z) = 0.04665 -0.00795
#
# Static dielectric constant tensor:
#      x y z
#    x 2.007690 0.000000 -0.077200 
#    y 0.000000 2.093330 0.000000 
#    z -0.077200 0.000000 1.992100 
# 
# From -- ./inp_files/1019.got.cif
#   From: 2010.05.17/outbox.cif.g08.bks.cpg/sg7_cif.got.tgz:1019.got - 2010.06.03 19:44:50.
