data_PCOD9131590
_publ_section_title
;
Structure prediction by ZEFSAII (Michael W. Deem and Ramdas Pophale) SiO2 
 PCOD9131590
Probable space group: C M
;
_chemical_formula_sum "Si O2"
_cell_formula_units_Z 32
_cell_length_a 21.471390
_cell_length_b 17.943531
_cell_length_c 11.649221
_cell_angle_alpha 90.000000
_cell_angle_beta 18.684734
_cell_angle_gamma 90.000000
_cell_volume 1437.818463
_symmetry_space_group_name_H-M "C M"
_symmetry_group_IT_number 8
_symmetry_cell_setting 'monoclinic'
loop_
_space_group_symop_operation_xyz
x,y,z
x,-y,z
1/2+x,1/2+y,z
1/2+x,1/2-y,z
loop_
_atom_site_type_symbol
_atom_site_label
_atom_site_fract_x
_atom_site_fract_y
_atom_site_fract_z
Si Si1 0.231010 0.307387 0.537270
Si Si2 0.266301 0.581527 0.668166
Si Si3 0.268110 0.810134 0.928603
Si Si4 0.406592 0.803733 0.922941
Si Si5 0.848842 0.140095 0.760283
Si Si6 0.231137 0.080969 0.798669
Si Si7 0.502820 0.363633 0.726311
Si Si8 0.637101 0.638217 0.728859
O O1 0.184965 0.349370 0.736721
O O2 0.238813 0.217773 0.527374
O O3 0.075535 0.328831 0.712028
O O4 0.437914 0.336609 0.136652
O O5 0.189649 0.500000 0.767492
O O6 0.246269 0.593972 0.839276
O O7 0.498908 0.580046 0.233679
O O8 0.423492 0.822741 0.759108
O O9 0.253199 0.721611 0.939080
O O10 0.314753 0.852906 0.730287
O O11 0.063737 0.840954 0.333704
O O12 0.398649 0.713860 0.944215
O O13 0.206600 0.837176 0.316499
O O14 0.882249 0.104910 0.828513
O O15 0.250566 0.093788 0.628667
O O16 0.308701 0.000000 0.696761
O O17 0.569338 0.401362 0.729208
#
# Coordination Sequence:
#
# PCOD9131590 Si02
#       8
#     4   4   4   4   4   4   4   4
#     4  10  18  29  49  72  93 120 152 189 229 269
#     4   9  18  32  48  67  92 123 158 190 223 269
#     4   9  17  30  50  72  92 118 152 190 229 269
#     4   9  16  27  45  70  96 119 147 186 230 272
#     4   9  17  30  50  72  92 118 152 190 229 269
#     4   9  18  32  48  67  92 123 158 190 223 269
#     4   9  16  27  45  70  96 119 147 186 230 272
#     4  10  18  29  49  72  93 120 152 189 229 269
#
# _framework density 22.255938
#
# number of rings (size 3 to 8) (size 9 to 14) (size 15 to 20)
#    0.000    2.750    0.000    3.750    0.000    1.000 
#    0.000    2.500    0.000    8.250    0.000    0.000 
#    0.000    0.000    0.000    0.000    0.000    0.000 
#
# Total GULP energy -89254.650312 kJ/mol
# GULP energy per Si atom -5578.415644 kJ/mol
# Density = 2.220528 g / cm^3
# Si number density = 22.255938 Si / 1000 Ang^3
#
#
#
# Elastic Constant Matrix: (Units=GPa)
#
#
# Indices 1 2 3 4 5 6 
#
# 1 158.1188 38.2435 -0.9935 -0.0015 8.7895 -0.0090
# 2 38.2435 50.5246 -1.0266 -0.0606 -5.3487 -0.0364
# 3 -0.9935 -1.0266 38.1622 -0.0535 -3.1526 -0.0263
# 4 -0.0015 -0.0606 -0.0535 15.5343 0.0167 6.3118
# 5 8.7895 -5.3487 -3.1526 0.0167 25.0191 0.0127
# 6 -0.0090 -0.0364 -0.0263 6.3118 0.0127 -1.9680
#
#
#
# Elastic Compliance Matrix: (Units=1/GPa)
#
#
# Indices 1 2 3 4 5 6 
#
# 1 0.008172 -0.006651 -0.000324 -0.000020 -0.004334 -0.000003
# 2 -0.006651 0.025695 0.001177 0.000113 0.007978 -0.000045
# 3 -0.000324 0.001177 0.026534 0.000102 0.003709 -0.000024
# 4 -0.000020 0.000113 0.000102 0.027951 -0.000020 0.089644
# 5 -0.004334 0.007978 0.003709 -0.000020 0.043665 0.000041
# 6 -0.000003 -0.000045 -0.000024 0.089644 0.000041 -0.220628
#
#
# Mechanical properties :
#
#
# Convention : Reuss Voigt Hill
#
# Bulk Modulus (GPa) = 20.48966 35.47249 27.98108
# Shear Modulus (GPa) = -82.30794 21.75591 -30.27602
#
# Velocity S-wave (km/s) = -6.08792 3.12994 -3.69230
# Velocity P-wave (km/s) = 6.33961 5.38842 2.36173
#
# Compressibility (1/GPa) = 0.04880510
#
# Stress axis : x y z
#
# Youngs Moduli (GPa) = 122.37166 38.91786 37.68792
#
# Poissons Ratio (x) = 0.25884 0.01222
# Poissons Ratio (y) = 0.81388 -0.04437
# Poissons Ratio (z) = 0.03967 -0.04582
#
# Static dielectric constant tensor:
#      x y z
#    x 1.889600 0.000070 0.012150 
#    y 0.000070 1.453530 -0.000170 
#    z 0.012150 -0.000170 1.878380 
# 
# From -- ./inp_files/19181.got.cif
#   From: 2010.05.17/outbox.cif.g08.bks.cpg/sg8_10_cif.got.tgz:19181.got - 2010.06.03 19:46:02.
