data_PCOD9131667
_publ_section_title
;
Structure prediction by ZEFSAII (Michael W. Deem and Ramdas Pophale) SiO2 
 PCOD9131667
Probable space group: C M
;
_chemical_formula_sum "Si O2"
_cell_formula_units_Z 28
_cell_length_a 13.809688
_cell_length_b 10.384559
_cell_length_c 13.162708
_cell_angle_alpha 90.000000
_cell_angle_beta 135.624728
_cell_angle_gamma 90.000000
_cell_volume 1320.124242
_symmetry_space_group_name_H-M "C M"
_symmetry_group_IT_number 8
_symmetry_cell_setting 'monoclinic'
loop_
_space_group_symop_operation_xyz
x,y,z
x,-y,z
1/2+x,1/2+y,z
1/2+x,1/2-y,z
loop_
_atom_site_type_symbol
_atom_site_label
_atom_site_fract_x
_atom_site_fract_y
_atom_site_fract_z
Si Si1 0.879400 0.769603 0.250000
Si Si2 0.313946 0.143624 0.694982
Si Si3 0.017785 0.847663 0.780055
Si Si4 0.514371 0.648735 0.545497
Si Si5 0.826423 0.353852 0.010546
Si Si6 0.652203 0.361946 0.359835
Si Si7 0.119640 0.347736 0.170232
O O1 0.868757 0.654297 0.161495
O O2 0.726109 0.822165 0.158829
O O3 0.949211 0.756219 0.413481
O O4 0.992313 0.857932 0.277361
O O5 0.422874 0.257978 0.777766
O O6 0.180769 0.161305 0.666752
O O7 0.244264 0.143858 0.530188
O O8 0.373181 0.000000 0.756989
O O9 0.967399 0.838248 0.625524
O O10 0.016024 0.000000 0.807401
O O11 0.174625 0.793946 0.894495
O O12 0.482482 0.500000 0.489349
O O13 0.804197 0.500000 0.961631
O O14 0.957443 0.307718 0.042706
O O15 0.678985 0.500000 0.328343
O O16 0.672542 0.240611 0.302623
O O17 0.121737 0.500000 0.195291
#
# Coordination Sequence:
#
# PCOD9131667 Si02
#       7
#     4   4   4   4   4   4   4
#     4  10  18  32  54  78 104 136 176 216 257 312
#     4   9  18  33  52  77 108 139 174 216 264 314
#     4  10  20  37  57  76 106 144 179 217 263 313
#     4   9  18  33  55  81 107 136 173 218 266 315
#     4   9  21  37  51  76 111 143 175 217 267 312
#     4   9  18  32  50  77 112 140 167 214 270 316
#     4  10  19  32  53  79 105 136 179 220 256 310
#
# _framework density 21.210124
#
# number of rings (size 3 to 8) (size 9 to 14) (size 15 to 20)
#    0.000    2.571    0.000    3.000    0.000    3.429 
#    0.000    9.286    0.000    0.000    0.000    0.000 
#    0.000    0.000    0.000    0.000    0.000    0.000 
#
# Total GULP energy -77979.065022 kJ/mol
# GULP energy per Si atom -5569.933216 kJ/mol
# Density = 2.116185 g / cm^3
# Si number density = 21.210124 Si / 1000 Ang^3
#
#
#
# Elastic Constant Matrix: (Units=GPa)
#
#
# Indices 1 2 3 4 5 6 
#
# 1 109.6925 45.2486 25.4113 0.0000 18.6311 0.0000
# 2 45.2486 69.7098 18.0971 0.0000 4.7081 0.0000
# 3 25.4113 18.0971 56.4541 0.0000 11.0992 0.0000
# 4 0.0000 0.0000 0.0000 18.8412 0.0000 3.6860
# 5 18.6311 4.7081 11.0992 0.0000 44.1150 0.0000
# 6 0.0000 0.0000 0.0000 3.6860 0.0000 15.8851
#
#
#
# Elastic Compliance Matrix: (Units=1/GPa)
#
#
# Indices 1 2 3 4 5 6 
#
# 1 0.013755 -0.007909 -0.002819 0.000000 -0.004256 0.000000
# 2 -0.007909 0.020203 -0.003313 0.000000 0.002018 0.000000
# 3 -0.002819 -0.003313 0.020768 0.000000 -0.003681 0.000000
# 4 0.000000 0.000000 0.000000 0.055599 0.000000 -0.012901
# 5 -0.004256 0.002018 -0.003681 0.000000 0.025176 0.000000
# 6 0.000000 0.000000 0.000000 -0.012901 0.000000 0.065946
#
#
# Mechanical properties :
#
#
# Convention : Reuss Voigt Hill
#
# Bulk Modulus (GPa) = 37.53281 45.93004 41.73142
# Shear Modulus (GPa) = 20.97227 25.57489 23.27358
#
# Velocity S-wave (km/s) = 3.14791 3.47621 3.31613
# Velocity P-wave (km/s) = 5.56296 6.14930 5.86346
#
# Compressibility (1/GPa) = 0.02664335
#
# Stress axis : x y z
#
# Youngs Moduli (GPa) = 72.70198 49.49853 48.15037
#
# Poissons Ratio (x) = 0.39148 0.13575
# Poissons Ratio (y) = 0.57499 0.15952
# Poissons Ratio (z) = 0.20497 0.16398
#
# Static dielectric constant tensor:
#      x y z
#    x 1.785400 0.000000 0.025760 
#    y 0.000000 1.736870 0.000000 
#    z 0.025760 0.000000 1.842200 
# 
# From -- ./inp_files/21398.got.cif
#   From: 2010.05.17/outbox.cif.g08.bks.cpg/sg8_11_cif.got.tgz:21398.got - 2010.06.03 19:46:02.
