data_PCOD9131405
_publ_section_title
;
Structure prediction by ZEFSAII (Michael W. Deem and Ramdas Pophale) SiO2 
 PCOD9131405
Probable space group: P C
;
_chemical_formula_sum "Si O2"
_cell_formula_units_Z 12
_cell_length_a 5.487002
_cell_length_b 16.438382
_cell_length_c 4.900841
_cell_angle_alpha 90.000000
_cell_angle_beta 91.273912
_cell_angle_gamma 90.000000
_cell_volume 441.934030
_symmetry_space_group_name_H-M "P C"
_symmetry_group_IT_number 7
_symmetry_cell_setting 'monoclinic'
loop_
_space_group_symop_operation_xyz
x,y,z
x,-y,1/2+z
loop_
_atom_site_type_symbol
_atom_site_label
_atom_site_fract_x
_atom_site_fract_y
_atom_site_fract_z
Si Si1 0.388200 0.175309 0.910420
Si Si2 0.255528 0.943491 0.015266
Si Si3 0.892563 0.672406 0.785437
Si Si4 0.389959 0.355968 0.164091
Si Si5 0.743431 0.444676 0.875493
Si Si6 0.890022 0.857665 0.712981
O O1 0.376444 0.143799 0.596403
O O2 0.384745 0.270156 0.998126
O O3 0.636253 0.139300 0.047318
O O4 0.128354 0.142475 0.020336
O O5 0.325939 0.001109 0.264747
O O6 0.970157 0.923250 0.941444
O O7 0.625443 0.645722 0.870515
O O8 0.867652 0.641536 0.463037
O O9 0.898637 0.767449 0.837966
O O10 0.155603 0.637238 0.845867
O O11 0.461328 0.425795 0.950186
O O12 0.816008 0.509858 0.108571
#
# Coordination Sequence:
#
# PCOD9131405 Si02
#       6
#     2   2   2   2   2   2
#     4  10  22  46  71 101 139 186 238 284 346 423
#     4  12  26  48  72 110 142 184 232 298 358 412
#     4   8  18  40  64  97 129 182 227 275 335 413
#     4   8  18  40  64  97 129 182 227 275 335 413
#     4  10  22  42  64 102 138 174 224 288 344 402
#     4  10  22  46  71 101 139 186 238 284 346 423
#
# _framework density 27.153376999999999
#
# number of rings (size 3 to 8) (size 9 to 14) (size 15 to 20)
#    1.000    1.333    1.667    0.000    0.000    4.000 
#   12.000    0.000    0.000    0.000    0.000    0.000 
#    0.000    0.000    0.000    0.000    0.000    0.000 
#
# Total GULP energy -66866.053784 kJ/mol
# GULP energy per Si atom -5572.171149 kJ/mol
# Density = 2.709157 g / cm^3
# Si number density = 27.153377 Si / 1000 Ang^3
#
#
#
# Elastic Constant Matrix: (Units=GPa)
#
#
# Indices 1 2 3 4 5 6 
#
# 1 200.5266 11.4078 33.0137 0.0000 15.9903 0.0000
# 2 11.4078 105.2696 37.6535 0.0000 1.9622 0.0000
# 3 33.0137 37.6535 118.4878 0.0000 10.4531 0.0000
# 4 0.0000 0.0000 0.0000 49.5625 0.0000 12.8179
# 5 15.9903 1.9622 10.4531 0.0000 31.9517 0.0000
# 6 0.0000 0.0000 0.0000 12.8179 0.0000 44.4712
#
#
#
# Elastic Compliance Matrix: (Units=1/GPa)
#
#
# Indices 1 2 3 4 5 6 
#
# 1 0.005382 -0.000086 -0.001272 0.000000 -0.002272 0.000000
# 2 -0.000086 0.010726 -0.003429 0.000000 0.000506 0.000000
# 3 -0.001272 -0.003429 0.010101 0.000000 -0.002457 0.000000
# 4 0.000000 0.000000 0.000000 0.021802 0.000000 -0.006284
# 5 -0.002272 0.000506 -0.002457 0.000000 0.033207 0.000000
# 6 0.000000 0.000000 0.000000 -0.006284 0.000000 0.024298
#
#
# Mechanical properties :
#
#
# Convention : Reuss Voigt Hill
#
# Bulk Modulus (GPa) = 60.11537 65.38158 62.74848
# Shear Modulus (GPa) = 41.44751 48.01101 44.72926
#
# Velocity S-wave (km/s) = 3.91118 4.20949 4.06308
# Velocity P-wave (km/s) = 6.52562 6.91066 6.72090
#
# Compressibility (1/GPa) = 0.01663468
#
# Stress axis : x y z
#
# Youngs Moduli (GPa) = 185.79258 93.23243 99.00399
#
# Poissons Ratio (x) = 0.00802 0.12592
# Poissons Ratio (y) = 0.01598 0.33951
# Poissons Ratio (z) = 0.23630 0.31971
#
# Static dielectric constant tensor:
#      x y z
#    x 2.166690 0.000000 -0.066490 
#    y 0.000000 2.142590 0.000000 
#    z -0.066490 0.000000 2.309480 
# 
# From -- ./inp_files/279.got.cif
#   From: 2010.05.17/outbox.cif.g08.bks.cpg/sg7_cif.got.tgz:279.got - 2010.06.03 19:44:50.
