data_PCOD9131797
_publ_section_title
;
Structure prediction by ZEFSAII (Michael W. Deem and Ramdas Pophale) SiO2 
 PCOD9131797
Probable space group: C M
;
_chemical_formula_sum "Si O2"
_cell_formula_units_Z 24
_cell_length_a 9.497696
_cell_length_b 15.390929
_cell_length_c 8.101827
_cell_angle_alpha 90.000000
_cell_angle_beta 94.338719
_cell_angle_gamma 90.000000
_cell_volume 1180.917866
_symmetry_space_group_name_H-M "C M"
_symmetry_group_IT_number 8
_symmetry_cell_setting 'monoclinic'
loop_
_space_group_symop_operation_xyz
x,y,z
x,-y,z
1/2+x,1/2+y,z
1/2+x,1/2-y,z
loop_
_atom_site_type_symbol
_atom_site_label
_atom_site_fract_x
_atom_site_fract_y
_atom_site_fract_z
Si Si1 0.150750 0.317799 0.778240
Si Si2 0.026353 0.500000 0.288227
Si Si3 0.808526 0.815791 0.441204
Si Si4 0.454754 0.305921 0.950455
Si Si5 0.617985 0.000000 0.919818
Si Si6 0.507470 0.194682 0.284296
Si Si7 0.329975 0.500000 0.498361
Si Si8 0.432583 0.500000 0.893751
O O1 0.224112 0.315059 0.606434
O O2 0.287353 0.306680 0.906246
O O3 0.087530 0.412865 0.813706
O O4 0.037649 0.245009 0.813498
O O5 0.163568 0.500000 0.425004
O O6 0.957883 0.594859 0.300757
O O7 0.053801 0.500000 0.094235
O O8 0.677509 0.807107 0.305625
O O9 0.926724 0.744992 0.422136
O O10 0.881903 0.909483 0.430784
O O11 0.502381 0.407544 0.944945
O O12 0.476248 0.249674 0.117048
O O13 0.784389 0.000000 0.974664
O O14 0.377004 0.500000 0.696003
#
# Coordination Sequence:
#
# PCOD9131797 Si02
#       8
#     4   2   4   4   2   4   2   2
#     4  11  21  39  64  90 123 164 212 261 309 372
#     4  10  22  40  63  93 125 161 218 253 319 366
#     4  11  22  40  61  96 125 164 208 257 320 368
#     4  11  22  39  62  92 123 164 212 257 314 370
#     4  10  18  38  63  91 112 165 214 264 288 371
#     4  11  24  39  64  94 128 165 207 263 316 375
#     4  10  20  38  63  89 118 164 208 264 290 380
#     4  10  22  38  61  91 125 160 216 253 317 367
#
# _framework density 20.323174000000002
#
# number of rings (size 3 to 8) (size 9 to 14) (size 15 to 20)
#    0.000    1.333    5.000    2.000    7.000    0.000 
#    0.000    5.833    0.000    0.000    0.000    0.000 
#    0.000    0.000    0.000    0.000    0.000    0.000 
#
# Total GULP energy -66856.271558 kJ/mol
# GULP energy per Si atom -5571.355963 kJ/mol
# Density = 2.027692 g / cm^3
# Si number density = 20.323174 Si / 1000 Ang^3
#
#
#
# Elastic Constant Matrix: (Units=GPa)
#
#
# Indices 1 2 3 4 5 6 
#
# 1 31.3472 39.9238 -1.0524 0.0000 -11.0923 0.0000
# 2 39.9238 230.7372 37.5633 0.0000 -16.1887 0.0000
# 3 -1.0524 37.5633 85.2897 0.0000 1.6661 0.0000
# 4 0.0000 0.0000 0.0000 30.0995 0.0000 -3.8353
# 5 -11.0923 -16.1887 1.6661 0.0000 30.3983 0.0000
# 6 0.0000 0.0000 0.0000 -3.8353 0.0000 29.5307
#
#
#
# Elastic Compliance Matrix: (Units=1/GPa)
#
#
# Indices 1 2 3 4 5 6 
#
# 1 0.046340 -0.007744 0.003737 0.000000 0.012581 0.000000
# 2 -0.007744 0.006178 -0.002828 0.000000 0.000619 0.000000
# 3 0.003737 -0.002828 0.013033 0.000000 -0.000857 0.000000
# 4 0.000000 0.000000 0.000000 0.033782 0.000000 0.004388
# 5 0.012581 0.000619 -0.000857 0.000000 0.037864 0.000000
# 6 0.000000 0.000000 0.000000 0.004388 0.000000 0.034433
#
#
# Mechanical properties :
#
#
# Convention : Reuss Voigt Hill
#
# Bulk Modulus (GPa) = 19.27521 55.58263 37.42892
# Shear Modulus (GPa) = 24.67973 36.06831 30.37402
#
# Velocity S-wave (km/s) = 3.48855 4.21733 3.87014
# Velocity P-wave (km/s) = 5.07263 7.15006 6.19899
#
# Compressibility (1/GPa) = 0.05188012
#
# Stress axis : x y z
#
# Youngs Moduli (GPa) = 21.57943 161.87160 76.72651
#
# Poissons Ratio (x) = 1.25350 -0.28669
# Poissons Ratio (y) = 0.16711 0.21702
# Poissons Ratio (z) = -0.08063 0.45785
#
# Static dielectric constant tensor:
#      x y z
#    x 1.689410 0.000000 0.004640 
#    y 0.000000 1.774880 0.000000 
#    z 0.004640 0.000000 1.827620 
# 
# From -- ./inp_files/7899.got.cif
#   From: 2010.05.17/outbox.cif.g08.bks.cpg/sg8_4_cif.got.tgz:7899.got - 2010.06.03 19:46:02.
