data_PCOD9131282
_publ_section_title
;
Structure prediction by ZEFSAII (Michael W. Deem and Ramdas Pophale) SiO2 
 PCOD9131282
Probable space group: P C
;
_chemical_formula_sum "Si O2"
_cell_formula_units_Z 16
_cell_length_a 8.388735
_cell_length_b 16.789886
_cell_length_c 5.420225
_cell_angle_alpha 90.000000
_cell_angle_beta 59.585317
_cell_angle_gamma 90.000000
_cell_volume 658.358138
_symmetry_space_group_name_H-M "P C"
_symmetry_group_IT_number 7
_symmetry_cell_setting 'monoclinic'
loop_
_space_group_symop_operation_xyz
x,y,z
x,-y,1/2+z
loop_
_atom_site_type_symbol
_atom_site_label
_atom_site_fract_x
_atom_site_fract_y
_atom_site_fract_z
Si Si1 0.028050 0.043296 0.449110
Si Si2 0.926641 0.457156 0.915744
Si Si3 0.793912 0.169365 0.890721
Si Si4 0.691786 0.692368 0.126452
Si Si5 0.006237 0.709791 0.531053
Si Si6 0.514516 0.520687 0.284088
Si Si7 0.379834 0.785810 0.179214
Si Si8 0.404019 0.880333 0.669606
O O1 0.928668 0.126496 0.590154
O O2 0.974202 0.987002 0.721244
O O3 0.250379 0.051360 0.290739
O O4 0.989470 0.502176 0.621288
O O5 0.974527 0.364273 0.873349
O O6 0.702040 0.467158 0.111912
O O7 0.699862 0.247698 0.847143
O O8 0.620889 0.109791 0.069662
O O9 0.920226 0.206015 0.006344
O O10 0.896119 0.682982 0.859556
O O11 0.589545 0.609995 0.249573
O O12 0.571656 0.738847 0.016159
O O13 0.221125 0.725524 0.387846
O O14 0.412193 0.491922 0.607228
O O15 0.395529 0.847449 0.395170
O O16 0.337983 0.822681 0.945447
#
# Coordination Sequence:
#
# PCOD9131282 Si02
#       8
#     2   2   2   2   2   2   2   2
#     4  12  28  47  72 102 141 174 212 269 340 404
#     4  10  20  34  56  88 126 174 220 269 334 385
#     4  11  25  42  75 101 130 176 230 269 325 407
#     4  11  23  40  68  98 132 179 229 282 331 390
#     4  12  22  39  70  93 133 177 226 284 327 387
#     4  10  19  35  58  87 130 177 221 270 336 387
#     4  11  25  40  66 102 128 169 227 278 332 385
#     4  11  24  47  67  97 138 168 215 275 329 389
#
# _framework density 24.302880999999999
#
# number of rings (size 3 to 8) (size 9 to 14) (size 15 to 20)
#    0.000    1.000    5.000    3.000    1.750    1.000 
#    0.000    1.250    0.000    0.000    0.000    0.000 
#    0.000    0.000    0.000    0.000    0.000    0.000 
#
# Total GULP energy -89426.196360 kJ/mol
# GULP energy per Si atom -5589.137273 kJ/mol
# Density = 2.424757 g / cm^3
# Si number density = 24.302881 Si / 1000 Ang^3
#
#
#
# Elastic Constant Matrix: (Units=GPa)
#
#
# Indices 1 2 3 4 5 6 
#
# 1 38.6748 5.7955 33.5207 0.0000 -2.6162 0.0000
# 2 5.7955 58.1384 21.5194 0.0000 12.4035 0.0000
# 3 33.5207 21.5194 118.8749 0.0000 11.8153 0.0000
# 4 0.0000 0.0000 0.0000 18.7175 0.0000 14.6589
# 5 -2.6162 12.4035 11.8153 0.0000 44.0348 0.0000
# 6 0.0000 0.0000 0.0000 14.6589 0.0000 18.5194
#
#
#
# Elastic Compliance Matrix: (Units=1/GPa)
#
#
# Indices 1 2 3 4 5 6 
#
# 1 0.035247 -0.000784 -0.010302 0.000000 0.005079 0.000000
# 2 -0.000784 0.019328 -0.002807 0.000000 -0.004738 0.000000
# 3 -0.010302 -0.002807 0.012131 0.000000 -0.003076 0.000000
# 4 0.000000 0.000000 0.000000 0.140559 0.000000 -0.111258
# 5 0.005079 -0.004738 -0.003076 0.000000 0.025171 0.000000
# 6 0.000000 0.000000 0.000000 -0.111258 0.000000 0.142063
#
#
# Mechanical properties :
#
#
# Convention : Reuss Voigt Hill
#
# Bulk Modulus (GPa) = 25.69351 37.48437 31.58894
# Shear Modulus (GPa) = 12.04073 26.57785 19.30929
#
# Velocity S-wave (km/s) = 2.22827 3.31056 2.82179
# Velocity P-wave (km/s) = 4.14915 5.48365 4.86240
#
# Compressibility (1/GPa) = 0.03892034
#
# Stress axis : x y z
#
# Youngs Moduli (GPa) = 28.37148 51.73790 82.43299
#
# Poissons Ratio (x) = 0.04056 0.84921
# Poissons Ratio (y) = 0.02224 0.23138
# Poissons Ratio (z) = 0.29228 0.14523
#
# Static dielectric constant tensor:
#      x y z
#    x 1.960200 0.000000 0.037590 
#    y 0.000000 1.961290 0.000000 
#    z 0.037590 0.000000 1.938520 
# 
# From -- ./inp_files/754.got.cif
#   From: 2010.05.17/outbox.cif.g08.bks.cpg/sg7_cif.got.tgz:754.got - 2010.06.03 19:44:50.
