data_PCOD9131702
_publ_section_title
;
Structure prediction by ZEFSAII (Michael W. Deem and Ramdas Pophale) SiO2 
 PCOD9131702
Probable space group: C M
;
_chemical_formula_sum "Si O2"
_cell_formula_units_Z 26
_cell_length_a 13.687117
_cell_length_b 7.710581
_cell_length_c 9.314806
_cell_angle_alpha 90.000000
_cell_angle_beta 74.808693
_cell_angle_gamma 90.000000
_cell_volume 948.692640
_symmetry_space_group_name_H-M "C M"
_symmetry_group_IT_number 8
_symmetry_cell_setting 'monoclinic'
loop_
_space_group_symop_operation_xyz
x,y,z
x,-y,z
1/2+x,1/2+y,z
1/2+x,1/2-y,z
loop_
_atom_site_type_symbol
_atom_site_label
_atom_site_fract_x
_atom_site_fract_y
_atom_site_fract_z
Si Si1 0.197610 0.297045 0.223790
Si Si2 0.360491 0.201935 0.474764
Si Si3 0.077322 0.706087 0.540322
Si Si4 0.483661 0.295514 0.177662
Si Si5 0.791382 0.817850 0.789788
Si Si6 0.077219 0.802160 0.864180
Si Si7 0.301425 0.000000 0.981512
O O1 0.233635 0.500000 0.205518
O O2 0.169674 0.241504 0.399671
O O3 0.082960 0.297967 0.200766
O O4 0.256844 0.155005 0.107390
O O5 0.472368 0.238911 0.498544
O O6 0.382466 0.246929 0.301103
O O7 0.293400 0.301317 0.615861
O O8 0.337389 0.000000 0.495512
O O9 0.086268 0.500000 0.556804
O O10 0.065410 0.790986 0.699739
O O11 0.497576 0.500000 0.194212
O O12 0.486436 0.257822 0.006735
O O13 0.672465 0.813466 0.869273
O O14 0.834914 0.650887 0.849670
O O15 0.838547 0.000000 0.816551
O O16 0.110126 0.000000 0.888338
#
# Coordination Sequence:
#
# PCOD9131702 Si02
#       7
#     4   4   4   4   4   4   2
#     4  10  19  34  56  87 116 152 195 246 290 343
#     4  10  21  39  59  85 119 155 200 245 298 357
#     4   9  21  36  59  89 121 155 198 243 296 353
#     4  10  18  33  56  85 114 152 202 242 286 347
#     4  12  23  38  62  89 121 157 197 249 299 351
#     4  11  21  36  60  90 122 155 197 249 296 348
#     4  12  20  36  58  90 120 150 202 244 290 356
#
# _framework density 27.406137000000001
#
# number of rings (size 3 to 8) (size 9 to 14) (size 15 to 20)
#    0.000    1.538    3.846    2.769    1.077    3.077 
#    0.000    0.000    3.385    0.000    0.000    0.000 
#    0.000    0.000    0.000    0.000    0.000    0.000 
#
# Total GULP energy -72583.060584 kJ/mol
# GULP energy per Si atom -5583.312353 kJ/mol
# Density = 2.734376 g / cm^3
# Si number density = 27.406137 Si / 1000 Ang^3
#
#
#
# Elastic Constant Matrix: (Units=GPa)
#
#
# Indices 1 2 3 4 5 6 
#
# 1 55.1832 29.2282 22.3217 0.0000 -18.6020 0.0000
# 2 29.2282 129.8866 86.7589 0.0000 1.3868 0.0000
# 3 22.3217 86.7589 233.5596 0.0000 -33.2169 0.0000
# 4 0.0000 0.0000 0.0000 47.6044 0.0000 1.3288
# 5 -18.6020 1.3868 -33.2169 0.0000 50.1072 0.0000
# 6 0.0000 0.0000 0.0000 1.3288 0.0000 -9.4964
#
#
#
# Elastic Compliance Matrix: (Units=1/GPa)
#
#
# Indices 1 2 3 4 5 6 
#
# 1 0.024512 -0.006711 0.001624 0.000000 0.010362 0.000000
# 2 -0.006711 0.012532 -0.004877 0.000000 -0.006072 0.000000
# 3 0.001624 -0.004877 0.006672 0.000000 0.005161 0.000000
# 4 0.000000 0.000000 0.000000 0.020925 0.000000 0.002928
# 5 0.010362 -0.006072 0.005161 0.000000 0.027394 0.000000
# 6 0.000000 0.000000 0.000000 0.002928 0.000000 -0.104893
#
#
# Mechanical properties :
#
#
# Convention : Reuss Voigt Hill
#
# Bulk Modulus (GPa) = 42.03939 77.24967 59.64453
# Shear Modulus (GPa) = 333.34328 36.33108 184.83718
#
# Velocity S-wave (km/s) = 11.04060 3.64490 8.22132
# Velocity P-wave (km/s) = 13.33789 6.77952 10.57973
#
# Compressibility (1/GPa) = 0.02378722
#
# Stress axis : x y z
#
# Youngs Moduli (GPa) = 40.79564 79.79625 149.87897
#
# Poissons Ratio (x) = 0.53555 -0.24342
# Poissons Ratio (y) = 0.27380 0.73099
# Poissons Ratio (z) = -0.06626 0.38919
#
# Static dielectric constant tensor:
#      x y z
#    x 2.306340 0.000000 0.091670 
#    y 0.000000 2.020990 0.000000 
#    z 0.091670 0.000000 2.201850 
# 
# From -- ./inp_files/15628.got.cif
#   From: 2010.05.17/outbox.cif.g08.bks.cpg/sg8_8_cif.got.tgz:15628.got - 2010.06.03 19:46:02.
