data_PCOD9131502
_publ_section_title
;
Structure prediction by ZEFSAII (Michael W. Deem and Ramdas Pophale) SiO2 
 PCOD9131502
Probable space group: C M
;
_chemical_formula_sum "Si O2"
_cell_formula_units_Z 32
_cell_length_a 15.788778
_cell_length_b 23.580827
_cell_length_c 5.415007
_cell_angle_alpha 90.000000
_cell_angle_beta 69.914506
_cell_angle_gamma 90.000000
_cell_volume 1893.459310
_symmetry_space_group_name_H-M "C M"
_symmetry_group_IT_number 8
_symmetry_cell_setting 'monoclinic'
loop_
_space_group_symop_operation_xyz
x,y,z
x,-y,z
1/2+x,1/2+y,z
1/2+x,1/2-y,z
loop_
_atom_site_type_symbol
_atom_site_label
_atom_site_fract_x
_atom_site_fract_y
_atom_site_fract_z
Si Si1 0.837580 0.065294 0.170000
Si Si2 0.649172 0.228516 0.358707
Si Si3 0.181075 0.295603 0.826752
Si Si4 0.626808 0.090877 0.381071
Si Si5 0.846506 0.130864 0.661070
Si Si6 0.018003 0.563534 0.990011
Si Si7 0.945225 0.749090 0.562967
Si Si8 0.962622 0.315309 0.045548
O O1 0.728568 0.068701 0.279190
O O2 0.867173 0.096970 0.390567
O O3 0.865620 0.000000 0.142175
O O4 0.867151 0.096859 0.889924
O O5 0.701874 0.238058 0.557231
O O6 0.629957 0.159945 0.377947
O O7 0.553600 0.259163 0.454452
O O8 0.701860 0.238060 0.054635
O O9 0.239911 0.352559 0.767821
O O10 0.072932 0.306099 0.935044
O O11 0.576427 0.070917 0.680059
O O12 0.576431 0.070928 0.182950
O O13 0.894958 0.191436 0.612970
O O14 0.979773 0.500000 0.028318
O O15 0.950829 0.617117 0.057239
O O16 0.927901 0.713795 0.330137
O O17 0.927874 0.713863 0.830688
#
# Coordination Sequence:
#
# PCOD9131502 Si02
#       8
#     4   4   4   4   4   4   4   4
#     4  12  23  33  46  66 100 130 161 195 224 274
#     4  10  16  31  46  63  86 126 152 199 234 258
#     4  10  16  28  48  59  91 116 157 191 223 270
#     4  12  18  32  45  67  92 128 168 188 226 259
#     4  12  21  34  47  71  89 127 171 188 236 286
#     4  12  20  27  44  67  92 122 164 197 222 270
#     4  10  20  30  50  62  88 123 162 199 236 276
#     4  10  17  33  44  63  89 126 153 193 245 261
#
# _framework density 16.900286000000001
#
# number of rings (size 3 to 8) (size 9 to 14) (size 15 to 20)
#    0.000    1.000    7.500    3.000    0.000    0.000 
#    0.000    0.000    0.000    0.000    0.000    0.000 
#    0.000    0.000    0.000   90.000    0.000    0.000 
#
# Total GULP energy -89253.927074 kJ/mol
# GULP energy per Si atom -5578.370442 kJ/mol
# Density = 1.686182 g / cm^3
# Si number density = 16.900286 Si / 1000 Ang^3
#
#
#
# Elastic Constant Matrix: (Units=GPa)
#
#
# Indices 1 2 3 4 5 6 
#
# 1 29.0159 38.8532 39.8924 0.0000 13.4565 0.0000
# 2 38.8532 141.1221 64.0416 0.0000 15.0001 0.0000
# 3 39.8924 64.0416 147.0423 0.0000 55.6505 0.0000
# 4 0.0000 0.0000 0.0000 19.3711 0.0000 0.0761
# 5 13.4565 15.0001 55.6505 0.0000 30.6123 0.0000
# 6 0.0000 0.0000 0.0000 0.0761 0.0000 19.3421
#
#
#
# Elastic Compliance Matrix: (Units=1/GPa)
#
#
# Indices 1 2 3 4 5 6 
#
# 1 0.070835 -0.013510 -0.012996 0.000000 -0.000892 0.000000
# 2 -0.013510 0.012165 -0.005207 0.000000 0.009444 0.000000
# 3 -0.012996 -0.005207 0.030344 0.000000 -0.046898 0.000000
# 4 0.000000 0.000000 0.000000 0.051624 0.000000 -0.000203
# 5 -0.000892 0.009444 -0.046898 0.000000 0.113688 0.000000
# 6 0.000000 0.000000 0.000000 -0.000203 0.000000 0.051701
#
#
# Mechanical properties :
#
#
# Convention : Reuss Voigt Hill
#
# Bulk Modulus (GPa) = 20.03284 66.97275 43.50279
# Shear Modulus (GPa) = 12.18259 25.49131 18.83695
#
# Velocity S-wave (km/s) = 2.68778 3.88794 3.34217
# Velocity P-wave (km/s) = 4.63805 7.73751 6.37889
#
# Compressibility (1/GPa) = 0.04991804
#
# Stress axis : x y z
#
# Youngs Moduli (GPa) = 14.11737 82.20502 32.95565
#
# Poissons Ratio (x) = 1.11056 0.42828
# Poissons Ratio (y) = 0.19072 0.17161
# Poissons Ratio (z) = 0.18347 0.42806
#
# Static dielectric constant tensor:
#      x y z
#    x 1.581960 0.000000 0.039170 
#    y 0.000000 1.567860 0.000000 
#    z 0.039170 0.000000 1.649130 
# 
# From -- ./inp_files/5122.got.cif
#   From: 2010.05.17/outbox.cif.g08.bks.cpg/sg8_3_cif.got.tgz:5122.got - 2010.06.03 19:46:02.
