data_PCOD9131219
_publ_section_title
;
Structure prediction by ZEFSAII (Michael W. Deem and Ramdas Pophale) SiO2 
 PCOD9131219
Probable space group: P C
;
_chemical_formula_sum "Si O2"
_cell_formula_units_Z 14
_cell_length_a 16.024451
_cell_length_b 6.975147
_cell_length_c 5.500010
_cell_angle_alpha 90.000000
_cell_angle_beta 61.542150
_cell_angle_gamma 90.000000
_cell_volume 540.470291
_symmetry_space_group_name_H-M "P C"
_symmetry_group_IT_number 7
_symmetry_cell_setting 'monoclinic'
loop_
_space_group_symop_operation_xyz
x,y,z
x,-y,1/2+z
loop_
_atom_site_type_symbol
_atom_site_label
_atom_site_fract_x
_atom_site_fract_y
_atom_site_fract_z
Si Si1 0.115560 0.966979 0.355890
Si Si2 0.642431 0.205141 0.633271
Si Si3 0.715713 0.237132 0.033383
Si Si4 0.046083 0.468227 0.965761
Si Si5 0.256708 0.401873 0.202246
Si Si6 0.904769 0.897749 0.129224
Si Si7 0.446898 0.626013 0.296019
O O1 0.079976 0.749995 0.412109
O O2 0.169186 0.002981 0.530648
O O3 0.019518 0.098139 0.485755
O O4 0.699066 0.301748 0.331633
O O5 0.533170 0.227925 0.709397
O O6 0.680910 0.987708 0.601029
O O7 0.656808 0.299056 0.878105
O O8 0.826051 0.256133 0.808633
O O9 0.992830 0.504497 0.790869
O O10 0.142005 0.600284 0.837712
O O11 0.271788 0.565329 0.968815
O O12 0.343673 0.274320 0.985833
O O13 0.884745 0.046868 0.378735
O O14 0.452972 0.474960 0.519394
#
# Coordination Sequence:
#
# PCOD9131219 Si02
#       7
#     2   2   2   2   2   2   2
#     4  10  21  33  55  89 113 144 188 238 277 326
#     4  10  18  28  49  73  99 124 177 217 250 308
#     4  10  17  30  48  76  92 137 165 216 263 305
#     4  10  19  35  58  85 110 148 192 221 279 350
#     4   8  16  30  51  76  92 134 178 211 254 324
#     4  10  16  30  49  75 101 133 182 209 271 321
#     4  10  19  32  48  76  97 134 174 222 254 314
#
# _framework density 25.903369000000001
#
# number of rings (size 3 to 8) (size 9 to 14) (size 15 to 20)
#    0.000    2.286    2.857    1.714    0.000    0.000 
#    0.000    0.000    0.000    1.714  200.571    0.000 
#    0.000    0.000    0.000    0.000    0.000    0.000 
#
# Total GULP energy -77936.479890 kJ/mol
# GULP energy per Si atom -5566.891421 kJ/mol
# Density = 2.584441 g / cm^3
# Si number density = 25.903369 Si / 1000 Ang^3
#
#
#
# Elastic Constant Matrix: (Units=GPa)
#
#
# Indices 1 2 3 4 5 6 
#
# 1 101.5872 22.2667 23.4844 0.0000 -8.7911 0.0000
# 2 22.2667 68.7922 10.8927 0.0000 1.3324 0.0000
# 3 23.4844 10.8927 164.3635 0.0000 43.7682 0.0000
# 4 0.0000 0.0000 0.0000 7.2556 0.0000 -6.1678
# 5 -8.7911 1.3324 43.7682 0.0000 74.5768 0.0000
# 6 0.0000 0.0000 0.0000 -6.1678 0.0000 34.6754
#
#
#
# Elastic Compliance Matrix: (Units=1/GPa)
#
#
# Indices 1 2 3 4 5 6 
#
# 1 0.011292 -0.003375 -0.002086 0.000000 0.002616 0.000000
# 2 -0.003375 0.015708 -0.000448 0.000000 -0.000416 0.000000
# 3 -0.002086 -0.000448 0.007675 0.000000 -0.004742 0.000000
# 4 0.000000 0.000000 0.000000 0.162376 0.000000 0.028882
# 5 0.002616 -0.000416 -0.004742 0.000000 0.016508 0.000000
# 6 0.000000 0.000000 0.000000 0.028882 0.000000 0.033976
#
#
# Mechanical properties :
#
#
# Convention : Reuss Voigt Hill
#
# Bulk Modulus (GPa) = 43.75338 49.78117 46.76728
# Shear Modulus (GPa) = 18.72846 41.84150 30.28498
#
# Velocity S-wave (km/s) = 2.69181 4.02343 3.42300
# Velocity P-wave (km/s) = 5.15643 6.39091 5.80657
#
# Compressibility (1/GPa) = 0.02285538
#
# Stress axis : x y z
#
# Youngs Moduli (GPa) = 88.55601 63.66150 130.29944
#
# Poissons Ratio (x) = 0.21488 0.27185
# Poissons Ratio (y) = 0.29891 0.05838
# Poissons Ratio (z) = 0.18476 0.02852
#
# Static dielectric constant tensor:
#      x y z
#    x 2.109880 0.000000 0.015670 
#    y 0.000000 2.281820 0.000000 
#    z 0.015670 0.000000 2.072940 
# 
# From -- ./inp_files/1216.got.cif
#   From: 2010.05.17/outbox.cif.g08.bks.cpg/sg7_cif.got.tgz:1216.got - 2010.06.03 19:44:50.
