data_PCOD9131139
_publ_section_title
;
Structure prediction by ZEFSAII (Michael W. Deem and Ramdas Pophale) SiO2 
 PCOD9131139
Probable space group: P M
;
_chemical_formula_sum "Si O2"
_cell_formula_units_Z 16
_cell_length_a 19.694332
_cell_length_b 8.485375
_cell_length_c 9.771248
_cell_angle_alpha 90.000000
_cell_angle_beta 150.429032
_cell_angle_gamma 90.000000
_cell_volume 805.843241
_symmetry_space_group_name_H-M "P M"
_symmetry_group_IT_number 6
_symmetry_cell_setting 'monoclinic'
loop_
_space_group_symop_operation_xyz
x,y,z
x,-y,z
loop_
_atom_site_type_symbol
_atom_site_label
_atom_site_fract_x
_atom_site_fract_y
_atom_site_fract_z
Si Si1 0.981090 0.686128 0.417050
Si Si2 0.419294 0.189002 0.559132
Si Si3 0.145025 0.816333 0.457990
Si Si4 0.671130 0.691067 0.817402
Si Si5 0.685236 0.691557 0.526382
Si Si6 0.982645 0.686757 0.934862
Si Si7 0.433790 0.310608 0.895492
Si Si8 0.119780 0.813101 0.922185
O O1 0.984910 0.500000 0.451308
O O2 0.043351 0.719813 0.377090
O O3 0.077962 0.773299 0.694777
O O4 0.821642 0.738141 0.138348
O O5 0.546321 0.245292 0.688858
O O6 0.433622 0.254361 0.738148
O O7 0.419381 0.000000 0.566138
O O8 0.273560 0.238785 0.235469
O O9 0.300069 0.756182 0.737330
O O10 0.135615 0.000000 0.473687
O O11 0.095914 0.782438 0.217970
O O12 0.666570 0.500000 0.811127
O O13 0.662834 0.743162 0.643753
O O14 0.683896 0.500000 0.526432
O O15 0.833981 0.737353 0.729169
O O16 0.567276 0.742003 0.214572
O O17 0.999512 0.500000 0.988664
O O18 0.009857 0.725019 0.825358
O O19 0.427873 0.500000 0.885553
O O20 0.110466 0.000000 0.928099
#
# Coordination Sequence:
#
# PCOD9131139 Si02
#       8
#     2   2   2   2   2   2   2   2
#     4  11  24  43  68  94 122 166 217 262 310 376
#     4  11  25  43  61  90 131 170 206 256 318 377
#     4  12  24  41  64  94 130 164 205 264 321 374
#     4  10  22  43  66  91 124 164 210 262 311 371
#     4   9  21  41  65  95 124 155 207 263 309 364
#     4  11  21  41  69  94 122 163 213 262 310 376
#     4  11  23  41  67  95 123 166 214 259 309 372
#     4  11  25  43  62  93 132 166 206 262 320 376
#
# _framework density 19.854979
#
# number of rings (size 3 to 8) (size 9 to 14) (size 15 to 20)
#    0.000    1.250    2.500    3.000    3.500    2.500 
#    0.000    2.500    0.000    0.000    0.000    0.000 
#    0.000    0.000    0.000    0.000    0.000    0.000 
#
# Total GULP energy -89438.235970 kJ/mol
# GULP energy per Si atom -5589.889748 kJ/mol
# Density = 1.980979 g / cm^3
# Si number density = 19.854979 Si / 1000 Ang^3
#
#
#
# Elastic Constant Matrix: (Units=GPa)
#
#
# Indices 1 2 3 4 5 6 
#
# 1 62.3434 6.4654 16.9582 0.0000 18.3165 0.0000
# 2 6.4654 41.9793 26.9433 0.0000 7.5293 0.0000
# 3 16.9582 26.9433 118.4735 0.0000 7.6161 0.0000
# 4 0.0000 0.0000 0.0000 -39.0760 0.0000 -9.2947
# 5 18.3165 7.5293 7.6161 0.0000 36.1989 0.0000
# 6 0.0000 0.0000 0.0000 -9.2947 0.0000 16.9079
#
#
#
# Elastic Compliance Matrix: (Units=1/GPa)
#
#
# Indices 1 2 3 4 5 6 
#
# 1 0.019378 0.000104 -0.002195 0.000000 -0.009365 0.000000
# 2 0.000104 0.028645 -0.006227 0.000000 -0.004701 0.000000
# 3 -0.002195 -0.006227 0.010154 0.000000 0.000270 0.000000
# 4 0.000000 0.000000 0.000000 -0.022632 0.000000 -0.012441
# 5 -0.009365 -0.004701 0.000270 0.000000 0.033285 0.000000
# 6 0.000000 0.000000 0.000000 -0.012441 0.000000 0.052305
#
#
# Mechanical properties :
#
#
# Convention : Reuss Voigt Hill
#
# Bulk Modulus (GPa) = 24.07311 35.94779 30.01045
# Shear Modulus (GPa) = 32.97762 14.30144 23.63953
#
# Velocity S-wave (km/s) = 4.07987 2.68674 3.45426
# Velocity P-wave (km/s) = 5.86042 5.26965 5.57287
#
# Compressibility (1/GPa) = 0.04154013
#
# Stress axis : x y z
#
# Youngs Moduli (GPa) = 51.60490 34.91001 98.48516
#
# Poissons Ratio (x) = -0.00364 0.21622
# Poissons Ratio (y) = -0.00538 0.61329
# Poissons Ratio (z) = 0.11330 0.21739
#
# Static dielectric constant tensor:
#      x y z
#    x 1.646960 0.000000 0.003910 
#    y 0.000000 1.673850 0.000000 
#    z 0.003910 0.000000 1.686850 
# 
# From -- ./inp_files/3713.got.cif
#   From: 2010.05.17/outbox.cif.g08.bks.cpg/sg6_2_cif.got.tgz:3713.got - 2010.06.03 19:42:10.
