data_PCOD9131266
_publ_section_title
;
Structure prediction by ZEFSAII (Michael W. Deem and Ramdas Pophale) SiO2 
 PCOD9131266
Probable space group: P C
;
_chemical_formula_sum "Si O2"
_cell_formula_units_Z 16
_cell_length_a 9.654288
_cell_length_b 16.453925
_cell_length_c 5.338563
_cell_angle_alpha 90.000000
_cell_angle_beta 106.048928
_cell_angle_gamma 90.000000
_cell_volume 814.984327
_symmetry_space_group_name_H-M "P C"
_symmetry_group_IT_number 7
_symmetry_cell_setting 'monoclinic'
loop_
_space_group_symop_operation_xyz
x,y,z
x,-y,1/2+z
loop_
_atom_site_type_symbol
_atom_site_label
_atom_site_fract_x
_atom_site_fract_y
_atom_site_fract_z
Si Si1 0.751280 0.547184 0.529960
Si Si2 0.401085 0.731006 0.433139
Si Si3 0.398852 0.452816 0.853837
Si Si4 0.134150 0.091359 0.164496
Si Si5 0.016028 0.091360 0.605440
Si Si6 0.745923 0.828846 0.106890
Si Si7 0.749089 0.268999 0.107128
Si Si8 0.404261 0.171147 0.436070
O O1 0.795250 0.507138 0.289613
O O2 0.575066 0.548630 0.441486
O O3 0.802918 0.639668 0.589376
O O4 0.347234 0.639674 0.361582
O O5 0.575087 0.726189 0.509066
O O6 0.370728 0.765898 0.693742
O O7 0.364051 0.790035 0.183226
O O8 0.354876 0.492876 0.569541
O O9 0.049455 0.130590 0.354518
O O10 0.301217 0.095603 0.322002
O O11 0.075090 0.999999 0.107365
O O12 0.100722 0.130590 0.880151
O O13 0.848961 0.095607 0.595879
O O14 0.786132 0.790029 0.394250
O O15 0.779457 0.765892 0.898085
O O16 0.575093 0.846830 0.017939
#
# Coordination Sequence:
#
# PCOD9131266 Si02
#       8
#     2   2   2   2   2   2   2   2
#     4   9  15  23  37  61  99 141 170 199 251 309
#     4   9  17  28  45  72 104 137 174 215 256 304
#     4   9  15  23  37  61  99 141 170 199 251 309
#     4  10  21  38  56  77 105 135 167 214 265 313
#     4  10  21  38  56  77 105 135 167 214 265 313
#     4  10  19  33  53  76 104 137 174 216 262 308
#     4   9  17  28  45  72 104 137 174 215 256 304
#     4  10  19  33  53  76 104 137 174 216 262 308
#
# _framework density 19.632277999999999
#
# number of rings (size 3 to 8) (size 9 to 14) (size 15 to 20)
#    0.000    2.500    0.000    3.000    0.000    6.000 
#    0.000    5.000    0.000    0.000    0.000    0.000 
#    0.000   70.000    0.000    0.000    0.000    0.000 
#
# Total GULP energy -89129.358541 kJ/mol
# GULP energy per Si atom -5570.584909 kJ/mol
# Density = 1.958759 g / cm^3
# Si number density = 19.632278 Si / 1000 Ang^3
#
#
#
# Elastic Constant Matrix: (Units=GPa)
#
#
# Indices 1 2 3 4 5 6 
#
# 1 45.3880 18.8638 14.6520 0.0000 -1.9499 0.0000
# 2 18.8638 44.0488 -4.1827 0.0000 6.2591 0.0000
# 3 14.6520 -4.1827 121.8253 0.0000 -18.8176 0.0000
# 4 0.0000 0.0000 0.0000 21.7246 0.0000 -4.5916
# 5 -1.9499 6.2591 -18.8176 0.0000 23.5360 0.0000
# 6 0.0000 0.0000 0.0000 -4.5916 0.0000 4.8242
#
#
#
# Elastic Compliance Matrix: (Units=1/GPa)
#
#
# Indices 1 2 3 4 5 6 
#
# 1 0.028696 -0.013056 -0.003418 0.000000 0.003117 0.000000
# 2 -0.013056 0.029538 0.001374 0.000000 -0.007839 0.000000
# 3 -0.003418 0.001374 0.009774 0.000000 0.007166 0.000000
# 4 0.000000 0.000000 0.000000 0.057623 0.000000 0.054845
# 5 0.003117 -0.007839 0.007166 0.000000 0.050560 0.000000
# 6 0.000000 0.000000 0.000000 0.054845 0.000000 0.259490
#
#
# Mechanical properties :
#
#
# Convention : Reuss Voigt Hill
#
# Bulk Modulus (GPa) = 26.45116 29.99201 28.22159
# Shear Modulus (GPa) = 10.44968 22.14556 16.29762
#
# Velocity S-wave (km/s) = 2.30960 3.36224 2.88435
# Velocity P-wave (km/s) = 4.54036 5.51207 5.04965
#
# Compressibility (1/GPa) = 0.03780552
#
# Stress axis : x y z
#
# Youngs Moduli (GPa) = 34.84808 33.85496 102.31669
#
# Poissons Ratio (x) = 0.44203 0.34973
# Poissons Ratio (y) = 0.45499 -0.14055
# Poissons Ratio (z) = 0.11912 -0.04651
#
# Static dielectric constant tensor:
#      x y z
#    x 1.707610 0.000000 -0.008690 
#    y 0.000000 1.660510 0.000000 
#    z -0.008690 0.000000 1.739580 
# 
# From -- ./inp_files/631.got.cif
#   From: 2010.05.17/outbox.cif.g08.bks.cpg/sg7_cif.got.tgz:631.got - 2010.06.03 19:44:50.
