data_PCOD9131039
_publ_section_title
;
Structure prediction by ZEFSAII (Michael W. Deem and Ramdas Pophale) SiO2 
 PCOD9131039
Probable space group: P M
;
_chemical_formula_sum "Si O2"
_cell_formula_units_Z 14
_cell_length_a 5.372615
_cell_length_b 21.701988
_cell_length_c 5.419466
_cell_angle_alpha 90.000000
_cell_angle_beta 76.507481
_cell_angle_gamma 90.000000
_cell_volume 614.450442
_symmetry_space_group_name_H-M "P M"
_symmetry_group_IT_number 6
_symmetry_cell_setting 'monoclinic'
loop_
_space_group_symop_operation_xyz
x,y,z
x,-y,z
loop_
_atom_site_type_symbol
_atom_site_label
_atom_site_fract_x
_atom_site_fract_y
_atom_site_fract_z
Si Si1 0.781610 0.067402 0.429950
Si Si2 0.311498 0.324455 0.639821
Si Si3 0.377864 0.778523 0.230663
Si Si4 0.243749 0.888362 0.597106
Si Si5 0.627606 0.572154 0.367809
Si Si6 0.922182 0.185672 0.059325
Si Si7 0.764482 0.633368 0.828432
O O1 0.506654 0.080261 0.620991
O O2 0.844867 0.125535 0.240100
O O3 0.015951 0.067504 0.566776
O O4 0.768214 0.000000 0.309664
O O5 0.405445 0.268107 0.451679
O O6 0.494275 0.332218 0.836335
O O7 0.012053 0.323618 0.759347
O O8 0.374861 0.386540 0.469987
O O9 0.327168 0.847029 0.346216
O O10 0.653856 0.784929 0.037064
O O11 0.106828 0.766619 0.160636
O O12 0.111296 0.840736 0.811135
O O13 0.580495 0.500000 0.356399
O O14 0.756100 0.598144 0.089645
O O15 0.777297 0.587833 0.587326
#
# Coordination Sequence:
#
# PCOD9131039 Si02
#       7
#     2   2   2   2   2   2   2
#     4  10  21  36  54  82 118 153 202 249 293 363
#     4  10  24  41  64  96 126 165 213 266 318 387
#     4  10  21  39  61  88 119 153 201 248 307 365
#     4  10  21  37  57  85 116 158 195 249 305 360
#     4  10  24  43  65  94 129 171 213 266 326 389
#     4  10  21  37  61  85 118 157 198 245 308 362
#     4  10  24  41  64  92 127 165 213 261 325 380
#
# _framework density 22.784586999999998
#
# number of rings (size 3 to 8) (size 9 to 14) (size 15 to 20)
#    0.857    1.143    0.000    2.571    2.000    4.571 
#    0.000    0.000    0.000    0.000    0.000    0.000 
#    0.000    0.000    0.000    0.000    0.000    0.000 
#
# Total GULP energy -78061.803952 kJ/mol
# GULP energy per Si atom -5575.843139 kJ/mol
# Density = 2.273273 g / cm^3
# Si number density = 22.784587 Si / 1000 Ang^3
#
#
#
# Elastic Constant Matrix: (Units=GPa)
#
#
# Indices 1 2 3 4 5 6 
#
# 1 162.7940 38.7847 33.5133 0.0000 -30.3232 0.0000
# 2 38.7847 84.9201 10.2116 0.0000 1.3352 0.0000
# 3 33.5133 10.2116 81.8059 0.0000 -3.6343 0.0000
# 4 0.0000 0.0000 0.0000 17.2508 0.0000 19.1947
# 5 -30.3232 1.3352 -3.6343 0.0000 23.8101 0.0000
# 6 0.0000 0.0000 0.0000 19.1947 0.0000 -27.8703
#
#
#
# Elastic Compliance Matrix: (Units=1/GPa)
#
#
# Indices 1 2 3 4 5 6 
#
# 1 0.010235 -0.004508 -0.003061 0.000000 0.012820 0.000000
# 2 -0.004508 0.013960 -0.000187 0.000000 -0.006552 0.000000
# 3 -0.003061 -0.000187 0.013420 0.000000 -0.001839 0.000000
# 4 0.000000 0.000000 0.000000 0.032819 0.000000 0.022603
# 5 0.012820 -0.006552 -0.001839 0.000000 0.058413 0.000000
# 6 0.000000 0.000000 0.000000 0.022603 0.000000 -0.020314
#
#
# Mechanical properties :
#
#
# Convention : Reuss Voigt Hill
#
# Bulk Modulus (GPa) = 45.24182 54.94881 50.09532
# Shear Modulus (GPa) = 38.04859 19.10548 28.57703
#
# Velocity S-wave (km/s) = 4.09091 2.89887 3.54535
# Velocity P-wave (km/s) = 6.49719 5.94757 6.22845
#
# Compressibility (1/GPa) = 0.02210344
#
# Stress axis : x y z
#
# Youngs Moduli (GPa) = 97.70634 71.63245 74.51826
#
# Poissons Ratio (x) = 0.32292 0.22807
# Poissons Ratio (y) = 0.44046 0.01393
# Poissons Ratio (z) = 0.29904 0.01339
#
# Static dielectric constant tensor:
#      x y z
#    x 1.875530 0.000000 0.044460 
#    y 0.000000 1.825110 0.000000 
#    z 0.044460 0.000000 1.916260 
# 
# From -- ./inp_files/596.got.cif
#   From: 2010.05.17/outbox.cif.g08.bks.cpg/sg6_1_cif.got.tgz:596.got - 2010.06.03 19:42:10.
