data_PCOD9131286
_publ_section_title
;
Structure prediction by ZEFSAII (Michael W. Deem and Ramdas Pophale) SiO2 
 PCOD9131286
Probable space group: P C
;
_chemical_formula_sum "Si O2"
_cell_formula_units_Z 16
_cell_length_a 26.163995
_cell_length_b 7.373756
_cell_length_c 5.291636
_cell_angle_alpha 90.000000
_cell_angle_beta 48.315918
_cell_angle_gamma 90.000000
_cell_volume 762.430829
_symmetry_space_group_name_H-M "P C"
_symmetry_group_IT_number 7
_symmetry_cell_setting 'monoclinic'
loop_
_space_group_symop_operation_xyz
x,y,z
x,-y,1/2+z
loop_
_atom_site_type_symbol
_atom_site_label
_atom_site_fract_x
_atom_site_fract_y
_atom_site_fract_z
Si Si1 0.626210 0.544138 0.676210
Si Si2 0.076044 0.376756 0.604661
Si Si3 0.476555 0.593453 0.654246
Si Si4 0.811745 0.378588 0.446697
Si Si5 0.208170 0.877530 0.661517
Si Si6 0.339508 0.625599 0.257450
Si Si7 0.943640 0.122986 0.051654
Si Si8 0.681982 0.111940 0.876374
O O1 0.665007 0.470764 0.308070
O O2 0.617809 0.755369 0.648443
O O3 0.559209 0.413953 0.903413
O O4 0.071630 0.498876 0.368110
O O5 0.147329 0.268415 0.370353
O O6 0.014475 0.233043 0.809490
O O7 0.464410 0.572200 0.395717
O O8 0.415595 0.715414 0.965561
O O9 0.810439 0.524319 0.678084
O O10 0.749861 0.233944 0.680029
O O11 0.881520 0.264393 0.241537
O O12 0.279851 0.770752 0.434545
O O13 0.202957 0.992550 0.421711
O O14 0.333845 0.517432 0.541649
O O15 0.939576 0.989993 0.824375
O O16 0.680487 0.038551 0.597870
#
# Coordination Sequence:
#
# PCOD9131286 Si02
#       8
#     2   2   2   2   2   2   2   2
#     4  10  19  36  60  84 110 152 197 238 286 356
#     4  12  24  42  64  90 120 162 211 246 287 357
#     4   8  16  30  56  80 104 140 192 234 276 340
#     4  12  24  42  64  90 120 162 211 246 287 357
#     4  12  24  39  59  89 124 155 194 251 310 352
#     4  10  19  36  60  84 110 152 197 238 286 356
#     4  12  24  42  64  92 128 162 196 250 312 348
#     4  12  24  39  59  89 124 155 194 251 310 352
#
# _framework density 20.985512
#
# number of rings (size 3 to 8) (size 9 to 14) (size 15 to 20)
#    0.000    1.000    0.000    8.250    0.000    0.000 
#    0.000    0.000    0.000   40.500    0.000    0.000 
#    0.000    0.000    0.000    0.000    0.000    0.000 
#
# Total GULP energy -89197.989050 kJ/mol
# GULP energy per Si atom -5574.874316 kJ/mol
# Density = 2.093775 g / cm^3
# Si number density = 20.985512 Si / 1000 Ang^3
#
#
#
# Elastic Constant Matrix: (Units=GPa)
#
#
# Indices 1 2 3 4 5 6 
#
# 1 84.1323 23.3101 39.5012 0.0000 14.0660 0.0000
# 2 23.3101 49.3261 19.8825 0.0000 3.0355 0.0000
# 3 39.5012 19.8825 93.9433 0.0000 8.2447 0.0000
# 4 0.0000 0.0000 0.0000 41.1143 0.0000 17.7168
# 5 14.0660 3.0355 8.2447 0.0000 66.3327 0.0000
# 6 0.0000 0.0000 0.0000 17.7168 0.0000 43.2615
#
#
#
# Elastic Compliance Matrix: (Units=1/GPa)
#
#
# Indices 1 2 3 4 5 6 
#
# 1 0.016396 -0.005360 -0.005536 0.000000 -0.002543 0.000000
# 2 -0.005360 0.023929 -0.002845 0.000000 0.000395 0.000000
# 3 -0.005536 -0.002845 0.013609 0.000000 -0.000387 0.000000
# 4 0.000000 0.000000 0.000000 0.029534 0.000000 -0.012095
# 5 -0.002543 0.000395 -0.000387 0.000000 0.015645 0.000000
# 6 0.000000 0.000000 0.000000 -0.012095 0.000000 0.028068
#
#
# Mechanical properties :
#
#
# Convention : Reuss Voigt Hill
#
# Bulk Modulus (GPa) = 37.80733 43.64327 40.72530
# Shear Modulus (GPa) = 30.58452 39.78889 35.18671
#
# Velocity S-wave (km/s) = 3.82175 4.35905 4.09921
# Velocity P-wave (km/s) = 6.12612 6.79537 6.46941
#
# Compressibility (1/GPa) = 0.02644990
#
# Stress axis : x y z
#
# Youngs Moduli (GPa) = 60.99130 41.79065 73.48148
#
# Poissons Ratio (x) = 0.22400 0.40683
# Poissons Ratio (y) = 0.32691 0.20908
# Poissons Ratio (z) = 0.33768 0.11891
#
# Static dielectric constant tensor:
#      x y z
#    x 1.830550 0.000000 -0.021440 
#    y 0.000000 1.761830 0.000000 
#    z -0.021440 0.000000 1.811970 
# 
# From -- ./inp_files/1352.got.cif
#   From: 2010.05.17/outbox.cif.g08.bks.cpg/sg7_cif.got.tgz:1352.got - 2010.06.03 19:44:50.
