data_PCOD9131109
_publ_section_title
;
Structure prediction by ZEFSAII (Michael W. Deem and Ramdas Pophale) SiO2 
 PCOD9131109
Probable space group: P M
;
_chemical_formula_sum "Si O2"
_cell_formula_units_Z 12
_cell_length_a 9.764211
_cell_length_b 11.152355
_cell_length_c 10.425242
_cell_angle_alpha 90.000000
_cell_angle_beta 151.266662
_cell_angle_gamma 90.000000
_cell_volume 545.750994
_symmetry_space_group_name_H-M "P M"
_symmetry_group_IT_number 6
_symmetry_cell_setting 'monoclinic'
loop_
_space_group_symop_operation_xyz
x,y,z
x,-y,z
loop_
_atom_site_type_symbol
_atom_site_label
_atom_site_fract_x
_atom_site_fract_y
_atom_site_fract_z
Si Si1 0.506400 0.134040 0.111230
Si Si2 0.852270 0.218500 0.157503
Si Si3 0.396896 0.366945 0.655498
Si Si4 0.904320 0.782806 0.666845
Si Si5 0.462098 0.368413 0.408928
Si Si6 0.068666 0.133234 0.067401
O O1 0.680384 0.147988 0.123475
O O2 0.722400 0.157602 0.404760
O O3 0.387308 0.000000 0.022885
O O4 0.233774 0.220285 0.897177
O O5 0.150046 0.267541 0.456831
O O6 0.267480 0.251663 0.223386
O O7 0.904423 0.148294 0.067222
O O8 0.287660 0.500000 0.594855
O O9 0.505343 0.367471 0.597569
O O10 0.658678 0.331550 0.959260
O O11 0.754836 0.656825 0.575735
O O12 0.887576 0.854514 0.788236
O O13 0.340757 0.500000 0.276696
O O14 0.202575 0.000000 0.177508
#
# Coordination Sequence:
#
# PCOD9131109 Si02
#       6
#     2   2   2   2   2   2
#     4  12  26  44  65  95 142 184 216 278 356 409
#     4  11  23  43  65 101 130 178 224 280 338 402
#     4  10  21  41  69  97 131 173 227 283 341 397
#     4  12  24  44  67 100 132 184 227 274 337 411
#     4  10  23  44  71 104 139 179 228 286 344 401
#     4  11  23  42  73 107 135 174 235 291 333 400
#
# _framework density 21.988050000000001
#
# number of rings (size 3 to 8) (size 9 to 14) (size 15 to 20)
#    0.000    1.000    3.333    3.500    0.000    2.667 
#    0.000    6.667    0.000    0.000    0.000    0.000 
#    0.000    0.000    0.000    0.000    0.000    0.000 
#
# Total GULP energy -67042.111098 kJ/mol
# GULP energy per Si atom -5586.842592 kJ/mol
# Density = 2.193800 g / cm^3
# Si number density = 21.988050 Si / 1000 Ang^3
#
#
#
# Elastic Constant Matrix: (Units=GPa)
#
#
# Indices 1 2 3 4 5 6 
#
# 1 125.4415 32.9728 32.1542 0.0000 14.7967 0.0000
# 2 32.9728 123.5892 27.8793 0.0000 0.7998 0.0000
# 3 32.1542 27.8793 86.9973 0.0000 6.1999 0.0000
# 4 0.0000 0.0000 0.0000 20.5869 0.0000 12.0710
# 5 14.7967 0.7998 6.1999 0.0000 32.4291 0.0000
# 6 0.0000 0.0000 0.0000 12.0710 0.0000 0.7740
#
#
#
# Elastic Compliance Matrix: (Units=1/GPa)
#
#
# Indices 1 2 3 4 5 6 
#
# 1 0.009615 -0.001941 -0.002659 0.000000 -0.003831 0.000000
# 2 -0.001941 0.009117 -0.002282 0.000000 0.001097 0.000000
# 3 -0.002659 -0.002282 0.013300 0.000000 -0.001273 0.000000
# 4 0.000000 0.000000 0.000000 -0.005965 0.000000 0.093016
# 5 -0.003831 0.001097 -0.001273 0.000000 0.032801 0.000000
# 6 0.000000 0.000000 0.000000 0.093016 0.000000 -0.158638
#
#
# Mechanical properties :
#
#
# Convention : Reuss Voigt Hill
#
# Bulk Modulus (GPa) = 54.74184 58.00449 56.37317
# Shear Modulus (GPa) = -62.56574 26.95946 -17.80314
#
# Velocity S-wave (km/s) = -5.34006 3.50536 -2.84856
# Velocity P-wave (km/s) = 3.61544 6.54375 3.85677
#
# Compressibility (1/GPa) = 0.01826756
#
# Stress axis : x y z
#
# Youngs Moduli (GPa) = 103.99942 109.68662 75.19064
#
# Poissons Ratio (x) = 0.21287 0.19992
# Poissons Ratio (y) = 0.20184 0.17162
# Poissons Ratio (z) = 0.27652 0.25036
#
# Static dielectric constant tensor:
#      x y z
#    x 1.804700 0.000000 0.017890 
#    y 0.000000 1.808230 0.000000 
#    z 0.017890 0.000000 1.811430 
# 
# From -- ./inp_files/4786.got.cif
#   From: 2010.05.17/outbox.cif.g08.bks.cpg/sg6_3_cif.got.tgz:4786.got - 2010.06.03 19:42:10.
