data_PCOD9131828
_publ_section_title
;
Structure prediction by ZEFSAII (Michael W. Deem and Ramdas Pophale) SiO2 
 PCOD9131828
Probable space group: C M
;
_chemical_formula_sum "Si O2"
_cell_formula_units_Z 32
_cell_length_a 20.450641
_cell_length_b 7.377489
_cell_length_c 19.391092
_cell_angle_alpha 90.000000
_cell_angle_beta 22.963013
_cell_angle_gamma 90.000000
_cell_volume 1141.391679
_symmetry_space_group_name_H-M "C M"
_symmetry_group_IT_number 8
_symmetry_cell_setting 'monoclinic'
loop_
_space_group_symop_operation_xyz
x,y,z
x,-y,z
1/2+x,1/2+y,z
1/2+x,1/2-y,z
loop_
_atom_site_type_symbol
_atom_site_label
_atom_site_fract_x
_atom_site_fract_y
_atom_site_fract_z
Si Si1 0.326120 0.782658 0.213830
Si Si2 0.587881 0.711343 0.788953
Si Si3 0.097434 0.288917 0.316077
Si Si4 0.267604 0.277075 0.019356
Si Si5 0.069304 0.710223 0.088475
Si Si6 0.255431 0.281959 0.492309
Si Si7 0.508172 0.211296 0.622158
Si Si8 0.299372 0.777556 0.702962
O O1 0.270921 0.723869 0.191373
O O2 0.491025 0.710386 0.093929
O O3 0.168208 0.724229 0.414635
O O4 0.332917 0.000000 0.208061
O O5 0.552046 0.500000 0.834230
O O6 0.435921 0.790372 0.892469
O O7 0.740966 0.723548 0.585486
O O8 0.641093 0.785972 0.811748
O O9 0.059929 0.500000 0.344898
O O10 0.953567 0.213778 0.504579
O O11 0.128039 0.216148 0.210376
O O12 0.269315 0.500000 0.015799
O O13 0.219811 0.213862 0.989309
O O14 0.101361 0.500000 0.045140
O O15 0.913174 0.717768 0.294600
O O16 0.255490 0.500000 0.489663
O O17 0.088402 0.210199 0.613865
O O18 0.352420 0.283534 0.727971
O O19 0.478709 0.000000 0.661605
O O20 0.298565 0.000000 0.705164
#
# Coordination Sequence:
#
# PCOD9131828 Si02
#       8
#     4   4   4   4   4   4   4   4
#     4   9  16  26  45  72  95 115 146 191 237 276
#     4  10  19  32  50  70  94 125 161 197 231 273
#     4   9  16  29  48  68  92 121 154 192 231 274
#     4   9  18  32  50  70  92 125 166 198 225 268
#     4   9  17  32  52  71  93 123 160 196 228 272
#     4  10  19  31  49  73  98 123 153 192 239 284
#     4   8  15  29  47  66  91 121 152 188 229 275
#     4   8  14  27  49  70  87 115 154 192 228 268
#
# _framework density 28.035952000000002
#
# number of rings (size 3 to 8) (size 9 to 14) (size 15 to 20)
#    0.000    3.000    0.000    2.250    0.000    3.000 
#    0.000    8.125    0.000    1.500    0.000    0.000 
#    0.000    0.000    0.000    0.000    0.000    0.000 
#
# Total GULP energy -89511.237296 kJ/mol
# GULP energy per Si atom -5594.452331 kJ/mol
# Density = 2.797214 g / cm^3
# Si number density = 28.035952 Si / 1000 Ang^3
#
#
#
# Elastic Constant Matrix: (Units=GPa)
#
#
# Indices 1 2 3 4 5 6 
#
# 1 260.4497 5.1784 41.5459 -0.0016 -4.9630 0.0003
# 2 5.1784 146.5326 17.5582 -0.0066 0.8047 0.0023
# 3 41.5459 17.5582 82.2451 -0.0051 -8.2386 0.0024
# 4 -0.0016 -0.0066 -0.0051 19.2971 0.0023 3.6751
# 5 -4.9630 0.8047 -8.2386 0.0023 66.7921 -0.0005
# 6 0.0003 0.0023 0.0024 3.6751 -0.0005 13.2370
#
#
#
# Elastic Compliance Matrix: (Units=1/GPa)
#
#
# Indices 1 2 3 4 5 6 
#
# 1 0.004178 0.000107 -0.002129 0.000000 0.000047 0.000000
# 2 0.000107 0.007011 -0.001578 0.000002 -0.000271 -0.000002
# 3 -0.002129 -0.001578 0.013727 0.000003 0.001554 -0.000003
# 4 0.000000 0.000002 0.000003 0.054714 -0.000002 -0.015191
# 5 0.000047 -0.000271 0.001554 -0.000002 0.015170 0.000001
# 6 0.000000 -0.000002 -0.000003 -0.015191 0.000001 0.079763
#
#
# Mechanical properties :
#
#
# Convention : Reuss Voigt Hill
#
# Bulk Modulus (GPa) = 56.44446 68.64361 62.54404
# Shear Modulus (GPa) = 26.64279 48.19490 37.41884
#
# Velocity S-wave (km/s) = 3.08605 4.15063 3.65728
# Velocity P-wave (km/s) = 5.73366 6.89257 6.33965
#
# Compressibility (1/GPa) = 0.01771653
#
# Stress axis : x y z
#
# Youngs Moduli (GPa) = 239.35931 142.62861 72.85124
#
# Poissons Ratio (x) = -0.01528 0.15507
# Poissons Ratio (y) = -0.02565 0.11497
# Poissons Ratio (z) = 0.50951 0.22508
#
# Static dielectric constant tensor:
#      x y z
#    x 2.186720 0.000000 -0.068290 
#    y 0.000000 1.997660 0.000000 
#    z -0.068290 0.000000 2.312020 
# 
# From -- ./inp_files/16781.got.cif
#   From: 2010.05.17/outbox.cif.g08.bks.cpg/sg8_9_cif.got.tgz:16781.got - 2010.06.03 19:46:02.
