data_PCOD9131693
_publ_section_title
;
Structure prediction by ZEFSAII (Michael W. Deem and Ramdas Pophale) SiO2 
 PCOD9131693
Probable space group: C M
;
_chemical_formula_sum "Si O2"
_cell_formula_units_Z 24
_cell_length_a 15.026942
_cell_length_b 15.990646
_cell_length_c 5.271126
_cell_angle_alpha 90.000000
_cell_angle_beta 88.155625
_cell_angle_gamma 90.000000
_cell_volume 1265.945371
_symmetry_space_group_name_H-M "C M"
_symmetry_group_IT_number 8
_symmetry_cell_setting 'monoclinic'
loop_
_space_group_symop_operation_xyz
x,y,z
x,-y,z
1/2+x,1/2+y,z
1/2+x,1/2-y,z
loop_
_atom_site_type_symbol
_atom_site_label
_atom_site_fract_x
_atom_site_fract_y
_atom_site_fract_z
Si Si1 0.439830 0.265629 0.610500
Si Si2 0.748791 0.826177 0.531228
Si Si3 0.713177 0.500000 0.689194
Si Si4 0.453172 0.155772 0.108936
Si Si5 0.827394 0.500000 0.173916
Si Si6 0.655129 0.841936 0.032031
Si Si7 0.636168 0.318367 0.735845
O O1 0.352325 0.322328 0.588852
O O2 0.449035 0.219501 0.342159
O O3 0.534763 0.308189 0.654876
O O4 0.426977 0.201320 0.847431
O O5 0.719625 0.858507 0.260516
O O6 0.707433 0.731543 0.553460
O O7 0.696424 0.871881 0.763051
O O8 0.753790 0.500000 0.402328
O O9 0.659895 0.414682 0.744908
O O10 0.788924 0.500000 0.894658
O O11 0.555449 0.126060 0.077831
O O12 0.387929 0.081589 0.185975
O O13 0.644798 0.740629 0.985864
#
# Coordination Sequence:
#
# PCOD9131693 Si02
#       7
#     4   4   2   4   2   4   4
#     4  11  21  34  62  78 114 153 203 233 274 343
#     4  10  18  33  54  83 102 142 196 241 272 323
#     4  12  26  36  56  84 134 148 178 242 296 372
#     4  11  20  38  53  84 113 152 187 237 284 350
#     4  12  26  36  58  90 120 156 180 232 322 348
#     4   9  19  34  56  76 111 141 194 235 274 327
#     4   9  22  36  54  83 115 152 189 231 295 330
#
# _framework density 18.958162999999999
#
# number of rings (size 3 to 8) (size 9 to 14) (size 15 to 20)
#    1.000    0.667    1.667    4.000    4.667    0.000 
#    0.000    0.000    0.000    2.000    0.000    0.000 
#    0.000    0.000    0.000    0.000    0.000    0.000 
#
# Total GULP energy -66874.709833 kJ/mol
# GULP energy per Si atom -5572.892486 kJ/mol
# Density = 1.891501 g / cm^3
# Si number density = 18.958163 Si / 1000 Ang^3
#
#
#
# Elastic Constant Matrix: (Units=GPa)
#
#
# Indices 1 2 3 4 5 6 
#
# 1 57.7091 -1.4138 2.4841 0.0000 0.6289 0.0000
# 2 -1.4138 21.2244 -16.9652 0.0000 -6.7983 0.0000
# 3 2.4841 -16.9652 88.8200 0.0000 4.0119 0.0000
# 4 0.0000 0.0000 0.0000 9.7104 0.0000 -2.4607
# 5 0.6289 -6.7983 4.0119 0.0000 22.6920 0.0000
# 6 0.0000 0.0000 0.0000 -2.4607 0.0000 31.7447
#
#
#
# Elastic Compliance Matrix: (Units=1/GPa)
#
#
# Indices 1 2 3 4 5 6 
#
# 1 0.017365 0.000850 -0.000316 0.000000 -0.000171 0.000000
# 2 0.000850 0.061138 0.010915 0.000000 0.016363 0.000000
# 3 -0.000316 0.010915 0.013311 0.000000 0.000925 0.000000
# 4 0.000000 0.000000 0.000000 0.105046 0.000000 0.008143
# 5 -0.000171 0.016363 0.000925 0.000000 0.048812 0.000000
# 6 0.000000 0.000000 0.000000 0.008143 0.000000 0.032132
#
#
# Mechanical properties :
#
#
# Convention : Reuss Voigt Hill
#
# Bulk Modulus (GPa) = 8.71759 15.10709 11.91234
# Shear Modulus (GPa) = 17.05659 25.07266 21.06462
#
# Velocity S-wave (km/s) = 3.00275 3.64060 3.33695
# Velocity P-wave (km/s) = 4.07803 5.06536 4.59827
#
# Compressibility (1/GPa) = 0.11471061
#
# Stress axis : x y z
#
# Youngs Moduli (GPa) = 57.58858 16.35649 75.12835
#
# Poissons Ratio (x) = -0.01390 0.02371
# Poissons Ratio (y) = -0.04893 -0.82002
# Poissons Ratio (z) = 0.01818 -0.17853
#
# Static dielectric constant tensor:
#      x y z
#    x 1.685390 0.000000 -0.011310 
#    y 0.000000 1.660800 0.000000 
#    z -0.011310 0.000000 1.657690 
# 
# From -- ./inp_files/3871.got.cif
#   From: 2010.05.17/outbox.cif.g08.bks.cpg/sg8_2_cif.got.tgz:3871.got - 2010.06.03 19:46:02.
