data_PCOD9131367
_publ_section_title
;
Structure prediction by ZEFSAII (Michael W. Deem and Ramdas Pophale) SiO2 
 PCOD9131367
Probable space group: P C
;
_chemical_formula_sum "Si O2"
_cell_formula_units_Z 16
_cell_length_a 4.877535
_cell_length_b 22.312349
_cell_length_c 5.493800
_cell_angle_alpha 90.000000
_cell_angle_beta 93.789525
_cell_angle_gamma 90.000000
_cell_volume 596.578969
_symmetry_space_group_name_H-M "P C"
_symmetry_group_IT_number 7
_symmetry_cell_setting 'monoclinic'
loop_
_space_group_symop_operation_xyz
x,y,z
x,-y,1/2+z
loop_
_atom_site_type_symbol
_atom_site_label
_atom_site_fract_x
_atom_site_fract_y
_atom_site_fract_z
Si Si1 0.644570 0.423842 0.710490
Si Si2 0.613666 0.963632 0.918375
Si Si3 0.955304 0.792403 0.734948
Si Si4 0.144757 0.110866 0.555399
Si Si5 0.708206 0.550926 0.709321
Si Si6 0.418389 0.693748 0.225595
Si Si7 0.085037 0.332577 0.207437
Si Si8 0.451446 0.819932 0.437331
O O1 0.839055 0.483658 0.718593
O O2 0.528646 0.434782 0.436642
O O3 0.677192 0.352445 0.728395
O O4 0.516176 0.439785 0.962425
O O5 0.401838 0.908316 0.906224
O O6 0.919010 0.938894 0.987518
O O7 0.567179 0.002684 0.160971
O O8 0.868255 0.723411 0.713589
O O9 0.255972 0.794879 0.635988
O O10 0.750698 0.831244 0.559219
O O11 0.992486 0.826435 0.988690
O O12 0.296431 0.123369 0.817067
O O13 0.930748 0.603842 0.710021
O O14 0.249601 0.675558 0.461774
O O15 0.479635 0.764065 0.250875
O O16 0.255655 0.679713 0.966539
#
# Coordination Sequence:
#
# PCOD9131367 Si02
#       8
#     2   2   2   2   2   2   2   2
#     4  10  21  40  62  89 127 182 239 300 367 442
#     4  12  30  52  82 114 160 212 258 314 374 446
#     4  11  25  45  75 113 155 201 251 318 390 452
#     4  12  26  50  80 116 158 202 264 314 378 458
#     4  10  21  40  62  89 127 182 239 300 367 442
#     4  11  23  43  66 103 141 188 244 311 382 457
#     4  11  23  43  66 103 141 188 244 311 382 457
#     4  11  25  45  75 113 155 201 251 318 390 452
#
# _framework density 26.819583000000002
#
# number of rings (size 3 to 8) (size 9 to 14) (size 15 to 20)
#    0.000    1.000    1.250    4.500    5.250    2.000 
#    2.250   15.000    0.000    1.500    0.000    0.000 
#    0.000    0.000    0.000    0.000    0.000    0.000 
#
# Total GULP energy -89237.572071 kJ/mol
# GULP energy per Si atom -5577.348254 kJ/mol
# Density = 2.675854 g / cm^3
# Si number density = 26.819583 Si / 1000 Ang^3
#
#
#
# Elastic Constant Matrix: (Units=GPa)
#
#
# Indices 1 2 3 4 5 6 
#
# 1 82.5472 28.9132 37.6645 0.0000 13.0329 0.0000
# 2 28.9132 98.1239 28.7169 0.0000 5.7354 0.0000
# 3 37.6645 28.7169 184.8574 0.0000 -9.7910 0.0000
# 4 0.0000 0.0000 0.0000 36.3289 0.0000 4.5256
# 5 13.0329 5.7354 -9.7910 0.0000 26.9213 0.0000
# 6 0.0000 0.0000 0.0000 4.5256 0.0000 45.5233
#
#
#
# Elastic Compliance Matrix: (Units=1/GPa)
#
#
# Indices 1 2 3 4 5 6 
#
# 1 0.016023 -0.003309 -0.003186 0.000000 -0.008211 0.000000
# 2 -0.003309 0.011592 -0.001196 0.000000 -0.001302 0.000000
# 3 -0.003186 -0.001196 0.006464 0.000000 0.004148 0.000000
# 4 0.000000 0.000000 0.000000 0.027871 0.000000 -0.002771
# 5 -0.008211 -0.001302 0.004148 0.000000 0.042906 0.000000
# 6 0.000000 0.000000 0.000000 -0.002771 0.000000 0.022242
#
#
# Mechanical properties :
#
#
# Convention : Reuss Voigt Hill
#
# Bulk Modulus (GPa) = 53.47885 61.79083 57.63484
# Shear Modulus (GPa) = 33.62185 39.77030 36.69607
#
# Velocity S-wave (km/s) = 3.54451 3.85500 3.70301
# Velocity P-wave (km/s) = 6.06093 6.55013 6.31027
#
# Compressibility (1/GPa) = 0.01869898
#
# Stress axis : x y z
#
# Youngs Moduli (GPa) = 62.40961 86.26412 154.70216
#
# Poissons Ratio (x) = 0.28547 0.49280
# Poissons Ratio (y) = 0.20653 0.18496
# Poissons Ratio (z) = 0.19881 0.10313
#
# Static dielectric constant tensor:
#      x y z
#    x 2.049760 0.000000 -0.020750 
#    y 0.000000 2.176850 0.000000 
#    z -0.020750 0.000000 2.207170 
# 
# From -- ./inp_files/366.got.cif
#   From: 2010.05.17/outbox.cif.g08.bks.cpg/sg7_cif.got.tgz:366.got - 2010.06.03 19:44:50.
