data_PCOD9131993
_publ_section_title
;
Structure prediction by ZEFSAII (Michael W. Deem and Ramdas Pophale) SiO2 
 PCOD9131993
Probable space group: C M
;
_chemical_formula_sum "Si O2"
_cell_formula_units_Z 28
_cell_length_a 19.189945
_cell_length_b 10.149310
_cell_length_c 9.390148
_cell_angle_alpha 90.000000
_cell_angle_beta 45.063487
_cell_angle_gamma 90.000000
_cell_volume 1294.638082
_symmetry_space_group_name_H-M "C M"
_symmetry_group_IT_number 8
_symmetry_cell_setting 'monoclinic'
loop_
_space_group_symop_operation_xyz
x,y,z
x,-y,z
1/2+x,1/2+y,z
1/2+x,1/2-y,z
loop_
_atom_site_type_symbol
_atom_site_label
_atom_site_fract_x
_atom_site_fract_y
_atom_site_fract_z
Si Si1 0.778730 0.154295 0.123960
Si Si2 0.037344 0.719504 0.130709
Si Si3 0.348899 0.151517 0.788558
Si Si4 0.147411 0.649644 0.703656
Si Si5 0.067070 0.342211 0.403847
Si Si6 0.989166 0.145430 0.939010
Si Si7 0.314377 0.145782 0.501939
O O1 0.668883 0.181442 0.338930
O O2 0.873961 0.174872 0.084706
O O3 0.780365 0.000000 0.081193
O O4 0.793284 0.247631 0.968233
O O5 0.018844 0.849694 0.063145
O O6 0.928443 0.654803 0.290835
O O7 0.069932 0.728018 0.245779
O O8 0.116212 0.645071 0.917520
O O9 0.463787 0.191656 0.623322
O O10 0.315702 0.154895 0.672180
O O11 0.339595 0.000000 0.851793
O O12 0.154432 0.500000 0.640250
O O13 0.245624 0.736129 0.548374
O O14 0.056030 0.737720 0.779883
O O15 0.060219 0.500000 0.384378
O O16 0.009168 0.000000 0.851467
O O17 0.276139 0.000000 0.517196
#
# Coordination Sequence:
#
# PCOD9131993 Si02
#       7
#     4   4   4   4   4   4   4
#     4  10  20  38  58  77 110 150 183 223 273 325
#     4   9  19  34  57  81 111 141 182 222 273 328
#     4   9  19  34  54  83 112 142 182 223 268 327
#     4  10  20  34  55  81 106 140 188 228 267 325
#     4   9  17  34  59  82 107 142 181 221 274 327
#     4   9  21  38  55  78 114 151 183 226 280 325
#     4  10  19  34  56  82 116 148 177 223 283 329
#
# _framework density 21.627666000000001
#
# number of rings (size 3 to 8) (size 9 to 14) (size 15 to 20)
#    0.857    1.714    0.000    3.429    0.000    2.857 
#    2.571    2.857    0.000    0.000    0.000    0.000 
#    0.000    0.000    0.000    0.000    0.000    0.000 
#
# Total GULP energy -78026.086532 kJ/mol
# GULP energy per Si atom -5573.291895 kJ/mol
# Density = 2.157844 g / cm^3
# Si number density = 21.627666 Si / 1000 Ang^3
#
#
#
# Elastic Constant Matrix: (Units=GPa)
#
#
# Indices 1 2 3 4 5 6 
#
# 1 74.1521 38.4245 27.1456 0.0000 -27.0862 0.0000
# 2 38.4245 110.5837 47.5457 0.0000 -22.5477 0.0000
# 3 27.1456 47.5457 96.0167 0.0000 -23.2048 0.0000
# 4 0.0000 0.0000 0.0000 19.0495 0.0000 -4.9271
# 5 -27.0862 -22.5477 -23.2048 0.0000 43.9999 0.0000
# 6 0.0000 0.0000 0.0000 -4.9271 0.0000 23.7614
#
#
#
# Elastic Compliance Matrix: (Units=1/GPa)
#
#
# Indices 1 2 3 4 5 6 
#
# 1 0.019544 -0.004445 -0.001109 0.000000 0.009169 0.000000
# 2 -0.004445 0.012936 -0.004823 0.000000 0.001349 0.000000
# 3 -0.001109 -0.004823 0.014159 0.000000 0.004313 0.000000
# 4 0.000000 0.000000 0.000000 0.055470 0.000000 0.011502
# 5 0.009169 0.001349 0.004313 0.000000 0.031338 0.000000
# 6 0.000000 0.000000 0.000000 0.011502 0.000000 0.044470
#
#
# Mechanical properties :
#
#
# Convention : Reuss Voigt Hill
#
# Bulk Modulus (GPa) = 38.63046 56.33156 47.48101
# Shear Modulus (GPa) = 24.11982 28.53795 26.32888
#
# Velocity S-wave (km/s) = 3.34313 3.63645 3.49287
# Velocity P-wave (km/s) = 5.72734 6.61319 6.18614
#
# Compressibility (1/GPa) = 0.02588631
#
# Stress axis : x y z
#
# Youngs Moduli (GPa) = 51.16648 77.30275 70.62682
#
# Poissons Ratio (x) = 0.34360 0.07830
# Poissons Ratio (y) = 0.22743 0.34063
# Poissons Ratio (z) = 0.05672 0.37283
#
# Static dielectric constant tensor:
#      x y z
#    x 1.814390 0.000000 0.005620 
#    y 0.000000 1.748200 0.000000 
#    z 0.005620 0.000000 1.802570 
# 
# From -- ./inp_files/23811.got.cif
#   From: 2010.05.17/outbox.cif.g08.bks.cpg/sg8_12_cif.got.tgz:23811.got - 2010.06.03 19:46:02.
