data_PCOD9131745
_publ_section_title
;
Structure prediction by ZEFSAII (Michael W. Deem and Ramdas Pophale) SiO2 
 PCOD9131745
Probable space group: C M
;
_chemical_formula_sum "Si O2"
_cell_formula_units_Z 26
_cell_length_a 26.881258
_cell_length_b 8.609111
_cell_length_c 7.469764
_cell_angle_alpha 90.000000
_cell_angle_beta 140.222704
_cell_angle_gamma 90.000000
_cell_volume 1106.018903
_symmetry_space_group_name_H-M "C M"
_symmetry_group_IT_number 8
_symmetry_cell_setting 'monoclinic'
loop_
_space_group_symop_operation_xyz
x,y,z
x,-y,z
1/2+x,1/2+y,z
1/2+x,1/2-y,z
loop_
_atom_site_type_symbol
_atom_site_label
_atom_site_fract_x
_atom_site_fract_y
_atom_site_fract_z
Si Si1 0.908770 0.177135 0.521940
Si Si2 0.628299 0.000000 0.073581
Si Si3 0.759633 0.000000 0.170594
Si Si4 0.517242 0.323592 0.122688
Si Si5 0.209400 0.500000 0.656735
Si Si6 0.279713 0.177232 0.712074
Si Si7 0.127162 0.832400 0.099821
Si Si8 0.952765 0.677350 0.265908
O O1 0.818172 0.146379 0.310322
O O2 0.955074 0.252277 0.813659
O O3 0.929104 0.248571 0.388954
O O4 0.940137 0.000000 0.599318
O O5 0.714948 0.000000 0.231319
O O6 0.597133 0.170318 0.934999
O O7 0.638802 0.000000 0.319116
O O8 0.698191 0.000000 0.838468
O O9 0.491489 0.500000 0.090124
O O10 0.593949 0.331888 0.212250
O O11 0.518341 0.245010 0.317463
O O12 0.255641 0.338200 0.745376
O O13 0.219884 0.174545 0.380961
O O14 0.270578 0.000000 0.770032
O O15 0.371133 0.191190 0.929998
O O16 0.107007 0.000000 0.961751
O O17 0.970217 0.500000 0.347380
#
# Coordination Sequence:
#
# PCOD9131745 Si02
#       8
#     4   2   2   4   2   4   4   4
#     4   9  20  36  59  85 118 146 199 240 287 358
#     4  10  22  36  64  84 118 153 192 245 298 346
#     4  10  20  34  60  94 106 149 199 235 305 350
#     4  10  22  37  62  85 114 160 200 237 299 356
#     4  10  18  34  60  80 122 144 181 242 295 338
#     4   9  18  33  57  84 111 147 190 237 288 338
#     4   9  20  39  58  85 119 155 197 243 289 352
#     4  11  22  36  59  89 119 154 193 248 301 346
#
# _framework density 23.507736999999999
#
# number of rings (size 3 to 8) (size 9 to 14) (size 15 to 20)
#    0.462    1.846    1.538    0.462    6.462    0.615 
#    0.000    4.615    0.000    5.538    0.000    0.000 
#    0.000    0.000    0.000    0.000    0.000    0.000 
#
# Total GULP energy -72375.403743 kJ/mol
# GULP energy per Si atom -5567.338749 kJ/mol
# Density = 2.345423 g / cm^3
# Si number density = 23.507737 Si / 1000 Ang^3
#
#
#
# Elastic Constant Matrix: (Units=GPa)
#
#
# Indices 1 2 3 4 5 6 
#
# 1 76.2627 29.1067 11.9916 0.0000 -12.0770 0.0000
# 2 29.1067 169.4288 -0.9748 0.0000 -6.9659 0.0000
# 3 11.9916 -0.9748 55.7993 0.0000 1.2096 0.0000
# 4 0.0000 0.0000 0.0000 17.4534 0.0000 2.9432
# 5 -12.0770 -6.9659 1.2096 0.0000 20.9084 0.0000
# 6 0.0000 0.0000 0.0000 2.9432 0.0000 14.1358
#
#
#
# Elastic Compliance Matrix: (Units=1/GPa)
#
#
# Indices 1 2 3 4 5 6 
#
# 1 0.015976 -0.002411 -0.003663 0.000000 0.008637 0.000000
# 2 -0.002411 0.006348 0.000614 0.000000 0.000687 0.000000
# 3 -0.003663 0.000614 0.018784 0.000000 -0.002998 0.000000
# 4 0.000000 0.000000 0.000000 0.059380 0.000000 -0.012364
# 5 0.008637 0.000687 -0.002998 0.000000 0.053219 0.000000
# 6 0.000000 0.000000 0.000000 -0.012364 0.000000 0.073317
#
#
# Mechanical properties :
#
#
# Convention : Reuss Voigt Hill
#
# Bulk Modulus (GPa) = 33.12349 42.41531 37.76940
# Shear Modulus (GPa) = 20.16077 27.92400 24.04239
#
# Velocity S-wave (km/s) = 2.93170 3.45028 3.20151
# Velocity P-wave (km/s) = 5.05775 5.82708 5.45599
#
# Compressibility (1/GPa) = 0.03019005
#
# Stress axis : x y z
#
# Youngs Moduli (GPa) = 62.59285 157.52783 53.23612
#
# Poissons Ratio (x) = 0.37973 0.19499
# Poissons Ratio (y) = 0.15089 -0.03269
# Poissons Ratio (z) = 0.22926 -0.09673
#
# Static dielectric constant tensor:
#      x y z
#    x 1.854400 0.000000 -0.004230 
#    y 0.000000 1.949740 0.000000 
#    z -0.004230 0.000000 1.963270 
# 
# From -- ./inp_files/17382.got.cif
#   From: 2010.05.17/outbox.cif.g08.bks.cpg/sg8_9_cif.got.tgz:17382.got - 2010.06.03 19:46:02.
