data_PCOD9131848
_publ_section_title
;
Structure prediction by ZEFSAII (Michael W. Deem and Ramdas Pophale) SiO2 
 PCOD9131848
Probable space group: C M
;
_chemical_formula_sum "Si O2"
_cell_formula_units_Z 28
_cell_length_a 5.607796
_cell_length_b 24.598773
_cell_length_c 13.780737
_cell_angle_alpha 90.000000
_cell_angle_beta 142.059113
_cell_angle_gamma 90.000000
_cell_volume 1168.815500
_symmetry_space_group_name_H-M "C M"
_symmetry_group_IT_number 8
_symmetry_cell_setting 'monoclinic'
loop_
_space_group_symop_operation_xyz
x,y,z
x,-y,z
1/2+x,1/2+y,z
1/2+x,1/2-y,z
loop_
_atom_site_type_symbol
_atom_site_label
_atom_site_fract_x
_atom_site_fract_y
_atom_site_fract_z
Si Si1 0.463620 0.500000 0.528331
Si Si2 0.212144 0.733255 0.693126
Si Si3 0.773626 0.940827 0.294272
Si Si4 0.804749 0.126239 0.142027
Si Si5 0.425208 0.725636 0.058531
Si Si6 0.860265 0.940755 0.987130
Si Si7 0.822272 0.000000 0.711119
Si Si8 0.931189 0.118541 0.833371
O O1 0.293275 0.447002 0.416563
O O2 0.358662 0.500000 0.606503
O O3 0.901961 0.500000 0.628058
O O4 0.316092 0.747695 0.616332
O O5 0.240516 0.668211 0.716093
O O6 0.554198 0.765029 0.866508
O O7 0.949633 0.889622 0.294807
O O8 0.322897 0.940963 0.120385
O O9 0.934749 0.000000 0.313449
O O10 0.004642 0.167067 0.131761
O O11 0.805131 0.070844 0.081281
O O12 0.353519 0.143321 0.995744
O O13 0.792484 0.742328 0.112657
O O14 0.705229 0.000000 0.914596
O O15 0.708638 0.896712 0.861871
O O16 0.975827 0.940002 0.794431
#
# Coordination Sequence:
#
# PCOD9131848 Si02
#       8
#     2   4   4   4   4   4   2   4
#     4  10  26  47  58  77 122 150 228 240 292 342
#     4  10  19  34  54  80 121 161 189 229 279 360
#     4   8  20  37  57  83 109 157 194 250 283 351
#     4  11  20  30  60  86 124 152 191 238 303 372
#     4  10  19  33  48  82 123 156 181 223 289 356
#     4  10  19  31  54  86 121 153 185 235 301 371
#     4  12  28  41  60  85 118 174 192 266 286 352
#     4  11  23  35  53  91 130 155 198 231 314 363
#
# _framework density 23.955876
#
# number of rings (size 3 to 8) (size 9 to 14) (size 15 to 20)
#    0.429    1.429    3.571    2.143    8.000    0.000 
#    0.000    0.000    0.000    0.000    0.000    6.000 
#    0.000    0.000    0.000    0.000    0.000    0.000 
#
# Total GULP energy -77954.039818 kJ/mol
# GULP energy per Si atom -5568.145701 kJ/mol
# Density = 2.390135 g / cm^3
# Si number density = 23.955876 Si / 1000 Ang^3
#
#
#
# Elastic Constant Matrix: (Units=GPa)
#
#
# Indices 1 2 3 4 5 6 
#
# 1 138.0107 33.7451 22.0388 0.0000 -26.4442 0.0000
# 2 33.7451 97.4573 13.9671 0.0000 -11.8407 0.0000
# 3 22.0388 13.9671 34.2649 0.0000 -15.9949 0.0000
# 4 0.0000 0.0000 0.0000 0.4718 0.0000 -10.1356
# 5 -26.4442 -11.8407 -15.9949 0.0000 30.2726 0.0000
# 6 0.0000 0.0000 0.0000 -10.1356 0.0000 40.6814
#
#
#
# Elastic Compliance Matrix: (Units=1/GPa)
#
#
# Indices 1 2 3 4 5 6 
#
# 1 0.009300 -0.002157 -0.002262 0.000000 0.006085 0.000000
# 2 -0.002157 0.011547 -0.002775 0.000000 0.001166 0.000000
# 3 -0.002262 -0.002775 0.040275 0.000000 0.018218 0.000000
# 4 0.000000 0.000000 0.000000 -0.486975 0.000000 -0.121328
# 5 0.006085 0.001166 0.018218 0.000000 0.048431 0.000000
# 6 0.000000 0.000000 0.000000 -0.121328 0.000000 -0.005647
#
#
# Mechanical properties :
#
#
# Convention : Reuss Voigt Hill
#
# Bulk Modulus (GPa) = 21.39762 45.47056 33.43409
# Shear Modulus (GPa) = -14.16018 27.61728 6.72855
#
# Velocity S-wave (km/s) = -2.43388 3.39903 1.67774
# Velocity P-wave (km/s) = 1.02622 5.86743 4.21188
#
# Compressibility (1/GPa) = 0.04673417
#
# Stress axis : x y z
#
# Youngs Moduli (GPa) = 107.52191 86.60170 24.82939
#
# Poissons Ratio (x) = 0.18678 0.05617
# Poissons Ratio (y) = 0.23190 0.06891
# Poissons Ratio (z) = 0.24322 0.24035
#
# Static dielectric constant tensor:
#      x y z
#    x 1.938260 0.000000 0.013280 
#    y 0.000000 2.112520 0.000000 
#    z 0.013280 0.000000 1.957760 
# 
# From -- ./inp_files/18109.got.cif
#   From: 2010.05.17/outbox.cif.g08.bks.cpg/sg8_10_cif.got.tgz:18109.got - 2010.06.03 19:46:02.
