data_PCOD9131370
_publ_section_title
;
Structure prediction by ZEFSAII (Michael W. Deem and Ramdas Pophale) SiO2 
 PCOD9131370
Probable space group: P C
;
_chemical_formula_sum "Si O2"
_cell_formula_units_Z 16
_cell_length_a 8.932407
_cell_length_b 13.060342
_cell_length_c 5.639011
_cell_angle_alpha 90.000000
_cell_angle_beta 63.886683
_cell_angle_gamma 90.000000
_cell_volume 590.698955
_symmetry_space_group_name_H-M "P C"
_symmetry_group_IT_number 7
_symmetry_cell_setting 'monoclinic'
loop_
_space_group_symop_operation_xyz
x,y,z
x,-y,1/2+z
loop_
_atom_site_type_symbol
_atom_site_label
_atom_site_fract_x
_atom_site_fract_y
_atom_site_fract_z
Si Si1 0.000000 0.033035 0.515850
Si Si2 0.733327 0.864762 0.679691
Si Si3 0.293768 0.756928 0.626794
Si Si4 0.656011 0.298526 0.892455
Si Si5 0.940820 0.744900 0.871720
Si Si6 0.386077 0.794203 0.069383
Si Si7 0.896552 0.555792 0.448886
Si Si8 0.281086 0.562038 0.137546
O O1 0.819953 0.973986 0.630933
O O2 0.078995 0.994910 0.213202
O O3 0.971561 0.153084 0.506231
O O4 0.674211 0.817898 0.473439
O O5 0.883890 0.791562 0.663438
O O6 0.570001 0.844207 0.953094
O O7 0.461731 0.690626 0.489366
O O8 0.292234 0.818735 0.379794
O O9 0.312691 0.818975 0.859777
O O10 0.121373 0.694058 0.750966
O O11 0.784007 0.312361 0.589136
O O12 0.735495 0.372667 0.029717
O O13 0.383054 0.669102 0.060377
O O14 0.887237 0.515173 0.722000
O O15 0.085568 0.597337 0.285528
O O16 0.308400 0.498630 0.366719
#
# Coordination Sequence:
#
# PCOD9131370 Si02
#       8
#     2   2   2   2   2   2   2   2
#     4  10  21  40  70  99 135 180 231 285 353 413
#     4  10  23  42  72  98 142 186 236 284 359 417
#     4  11  26  40  68 102 137 172 240 285 347 415
#     4  11  23  45  70 103 139 185 233 295 345 425
#     4  11  23  42  76  98 139 191 228 292 353 418
#     4  11  23  44  66 106 138 184 236 294 352 419
#     4  10  24  41  68 100 137 183 235 287 354 419
#     4  10  21  40  64  98 139 183 233 294 349 412
#
# _framework density 27.086554
#
# number of rings (size 3 to 8) (size 9 to 14) (size 15 to 20)
#    0.000    1.500    2.500    1.500    5.250    1.000 
#    0.000    8.750   16.500    1.500    0.000    0.000 
#    0.000    0.000    0.000    0.000    0.000    0.000 
#
# Total GULP energy -89383.882566 kJ/mol
# GULP energy per Si atom -5586.492660 kJ/mol
# Density = 2.702490 g / cm^3
# Si number density = 27.086554 Si / 1000 Ang^3
#
#
#
# Elastic Constant Matrix: (Units=GPa)
#
#
# Indices 1 2 3 4 5 6 
#
# 1 136.3072 35.1803 57.7517 0.0000 -14.7750 0.0000
# 2 35.1803 59.4191 41.0029 0.0000 -16.9759 0.0000
# 3 57.7517 41.0029 199.7968 0.0000 28.2931 0.0000
# 4 0.0000 0.0000 0.0000 48.3552 0.0000 -0.3129
# 5 -14.7750 -16.9759 28.2931 0.0000 53.7181 0.0000
# 6 0.0000 0.0000 0.0000 -0.3129 0.0000 31.7081
#
#
#
# Elastic Compliance Matrix: (Units=1/GPa)
#
#
# Indices 1 2 3 4 5 6 
#
# 1 0.009526 -0.003008 -0.002564 0.000000 0.003020 0.000000
# 2 -0.003008 0.025603 -0.005850 0.000000 0.010344 0.000000
# 3 -0.002564 -0.005850 0.007897 0.000000 -0.006713 0.000000
# 4 0.000000 0.000000 0.000000 0.020682 0.000000 0.000204
# 5 0.003020 0.010344 -0.006713 0.000000 0.026251 0.000000
# 6 0.000000 0.000000 0.000000 0.000204 0.000000 0.031540
#
#
# Mechanical properties :
#
#
# Convention : Reuss Voigt Hill
#
# Bulk Modulus (GPa) = 49.54688 73.71033 61.62860
# Shear Modulus (GPa) = 33.09721 44.19550 38.64636
#
# Velocity S-wave (km/s) = 3.49937 4.04374 3.78136
# Velocity P-wave (km/s) = 5.88721 7.00531 6.47046
#
# Compressibility (1/GPa) = 0.02018291
#
# Stress axis : x y z
#
# Youngs Moduli (GPa) = 104.97100 39.05838 126.62512
#
# Poissons Ratio (x) = 0.11750 0.32466
# Poissons Ratio (y) = 0.31578 0.74071
# Poissons Ratio (z) = 0.26914 0.22848
#
# Static dielectric constant tensor:
#      x y z
#    x 2.090330 0.000000 0.025960 
#    y 0.000000 2.191930 0.000000 
#    z 0.025960 0.000000 2.218010 
# 
# From -- ./inp_files/807.got.cif
#   From: 2010.05.17/outbox.cif.g08.bks.cpg/sg7_cif.got.tgz:807.got - 2010.06.03 19:44:50.
