data_PCOD9131188
_publ_section_title
;
Structure prediction by ZEFSAII (Michael W. Deem and Ramdas Pophale) SiO2 
 PCOD9131188
Probable space group: P M
;
_chemical_formula_sum "Si O2"
_cell_formula_units_Z 16
_cell_length_a 11.669349
_cell_length_b 9.120200
_cell_length_c 11.732666
_cell_angle_alpha 90.000000
_cell_angle_beta 142.879659
_cell_angle_gamma 90.000000
_cell_volume 753.561275
_symmetry_space_group_name_H-M "P M"
_symmetry_group_IT_number 6
_symmetry_cell_setting 'monoclinic'
loop_
_space_group_symop_operation_xyz
x,y,z
x,-y,z
loop_
_atom_site_type_symbol
_atom_site_label
_atom_site_fract_x
_atom_site_fract_y
_atom_site_fract_z
Si Si1 0.042790 0.677618 0.375000
Si Si2 0.870040 0.334446 0.720758
Si Si3 0.740605 0.831450 0.827131
Si Si4 0.639916 0.176832 0.987660
Si Si5 0.509921 0.668390 0.096001
Si Si6 0.178266 0.830982 0.269524
Si Si7 0.939509 0.332210 0.529490
Si Si8 0.296773 0.333049 0.150190
O O1 0.032511 0.500000 0.363285
O O2 0.181908 0.738373 0.388662
O O3 0.841080 0.748886 0.179721
O O4 0.068880 0.724168 0.528044
O O5 0.448946 0.500000 0.026743
O O6 0.737811 0.256888 0.707991
O O7 0.910725 0.260930 0.630254
O O8 0.075803 0.342763 0.942088
O O9 0.696682 0.000000 0.768160
O O10 0.613557 0.782084 0.833947
O O11 0.959459 0.826668 0.048179
O O12 0.499388 0.238793 0.972227
O O13 0.653650 0.000000 0.004723
O O14 0.003461 0.500000 0.602606
O O15 0.728758 0.663357 0.309427
O O16 0.398664 0.726593 0.117906
O O17 0.305517 0.762771 0.270446
O O18 0.223412 0.000000 0.327639
O O19 0.799723 0.500000 0.644530
O O20 0.365432 0.500000 0.223541
#
# Coordination Sequence:
#
# PCOD9131188 Si02
#       8
#     2   2   2   2   2   2   2   2
#     4   9  15  25  42  62  85 112 141 174 212 250
#     4   9  16  27  44  64  84 108 139 172 206 248
#     4   8  15  26  39  59  85 109 134 170 211 245
#     4   9  16  26  41  62  86 110 140 177 213 248
#     4   9  17  29  44  63  87 112 139 173 212 252
#     4   9  16  26  41  62  87 111 139 176 213 248
#     4   8  15  27  43  63  86 110 135 169 212 251
#     4   9  17  28  44  65  86 110 141 175 209 248
#
# _framework density 21.232514999999999
#
# number of rings (size 3 to 8) (size 9 to 14) (size 15 to 20)
#    0.000    3.250    0.000    2.625    0.000    4.000 
#    0.000    3.125    0.000    1.500    0.000    8.750 
#    0.000    0.000    0.000    0.000    0.000    0.000 
#
# Total GULP energy -89119.457327 kJ/mol
# GULP energy per Si atom -5569.966083 kJ/mol
# Density = 2.118419 g / cm^3
# Si number density = 21.232515 Si / 1000 Ang^3
#
#
#
# Elastic Constant Matrix: (Units=GPa)
#
#
# Indices 1 2 3 4 5 6 
#
# 1 200.7724 71.7391 39.8062 0.0000 -73.6131 0.0000
# 2 71.7391 66.5779 23.1224 0.0000 -36.1592 0.0000
# 3 39.8062 23.1224 60.0123 0.0000 -11.0409 0.0000
# 4 0.0000 0.0000 0.0000 -24.1849 0.0000 11.0910
# 5 -73.6131 -36.1592 -11.0409 0.0000 56.3185 0.0000
# 6 0.0000 0.0000 0.0000 11.0910 0.0000 8.5802
#
#
#
# Elastic Compliance Matrix: (Units=1/GPa)
#
#
# Indices 1 2 3 4 5 6 
#
# 1 0.011681 -0.005236 -0.003673 0.000000 0.011187 0.000000
# 2 -0.005236 0.028042 -0.005476 0.000000 0.010087 0.000000
# 3 -0.003673 -0.005476 0.020416 0.000000 -0.004314 0.000000
# 4 0.000000 0.000000 0.000000 -0.025960 0.000000 0.033556
# 5 0.011187 0.010087 -0.004314 0.000000 0.038009 0.000000
# 6 0.000000 0.000000 0.000000 0.033556 0.000000 0.073172
#
#
# Mechanical properties :
#
#
# Convention : Reuss Voigt Hill
#
# Bulk Modulus (GPa) = 31.87726 66.29979 49.08852
# Shear Modulus (GPa) = 27.08764 20.98909 24.03836
#
# Velocity S-wave (km/s) = 3.57566 3.14751 3.36839
# Velocity P-wave (km/s) = 5.66508 6.67102 6.18852
#
# Compressibility (1/GPa) = 0.03137032
#
# Stress axis : x y z
#
# Youngs Moduli (GPa) = 85.60554 35.66114 48.98220
#
# Poissons Ratio (x) = 0.18671 0.17991
# Poissons Ratio (y) = 0.44819 0.26821
# Poissons Ratio (z) = 0.31442 0.19527
#
# Static dielectric constant tensor:
#      x y z
#    x 1.854810 0.000000 0.017130 
#    y 0.000000 1.736180 0.000000 
#    z 0.017130 0.000000 1.818100 
# 
# From -- ./inp_files/4891.got.cif
#   From: 2010.05.17/outbox.cif.g08.bks.cpg/sg6_3_cif.got.tgz:4891.got - 2010.06.03 19:42:10.
