data_PCOD9131042
_publ_section_title
;
Structure prediction by ZEFSAII (Michael W. Deem and Ramdas Pophale) SiO2 
 PCOD9131042
Probable space group: P M
;
_chemical_formula_sum "Si O2"
_cell_formula_units_Z 16
_cell_length_a 12.645687
_cell_length_b 7.466824
_cell_length_c 13.268762
_cell_angle_alpha 90.000000
_cell_angle_beta 34.358214
_cell_angle_gamma 90.000000
_cell_volume 707.080553
_symmetry_space_group_name_H-M "P M"
_symmetry_group_IT_number 6
_symmetry_cell_setting 'monoclinic'
loop_
_space_group_symop_operation_xyz
x,y,z
x,-y,z
loop_
_atom_site_type_symbol
_atom_site_label
_atom_site_fract_x
_atom_site_fract_y
_atom_site_fract_z
Si Si1 0.354330 0.211233 0.947930
Si Si2 0.259544 0.784890 0.806109
Si Si3 0.783821 0.702699 0.561127
Si Si4 0.649226 0.218318 0.226893
Si Si5 0.990660 0.218684 0.838311
Si Si6 0.251071 0.780366 0.460263
Si Si7 0.694286 0.786949 0.411272
Si Si8 0.196882 0.794999 0.280460
O O1 0.256461 0.285046 0.923243
O O2 0.579258 0.225925 0.754932
O O3 0.308501 0.000000 0.985053
O O4 0.281884 0.286455 0.111057
O O5 0.471917 0.758706 0.601459
O O6 0.119954 0.719854 0.830065
O O7 0.229906 0.000000 0.835236
O O8 0.793394 0.500000 0.589216
O O9 0.789712 0.707665 0.434577
O O10 0.971276 0.796749 0.451266
O O11 0.437911 0.273992 0.372646
O O12 0.733978 0.277679 0.267367
O O13 0.646860 0.000000 0.234442
O O14 0.781552 0.271647 0.031055
O O15 0.075183 0.277101 0.665954
O O16 0.997046 0.000000 0.833069
O O17 0.250413 0.715385 0.346277
O O18 0.248819 0.000000 0.459285
O O19 0.731862 0.000000 0.386383
O O20 0.266496 0.000000 0.227922
#
# Coordination Sequence:
#
# PCOD9131042 Si02
#       8
#     2   2   2   2   2   2   2   2
#     4   9  19  35  56  82 110 143 184 227 273 323
#     4   8  13  24  43  70 104 134 164 208 259 314
#     4  11  23  37  54  79 113 148 184 226 276 330
#     4   9  16  25  44  74 106 139 171 212 269 324
#     4   9  15  23  41  72 107 138 164 203 266 325
#     4   9  17  30  45  73 111 137 167 218 271 316
#     4   9  16  30  52  76 107 139 176 222 267 321
#     4  10  21  36  58  82 110 146 186 230 271 321
#
# _framework density 22.628256
#
# number of rings (size 3 to 8) (size 9 to 14) (size 15 to 20)
#    0.000    2.750    1.250    1.875    1.750    1.500 
#    0.000    3.750    0.000    0.750    0.000    0.875 
#    0.000    0.000    0.000    0.000    0.000    0.000 
#
# Total GULP energy -89297.037845 kJ/mol
# GULP energy per Si atom -5581.064865 kJ/mol
# Density = 2.257675 g / cm^3
# Si number density = 22.628256 Si / 1000 Ang^3
#
#
#
# Elastic Constant Matrix: (Units=GPa)
#
#
# Indices 1 2 3 4 5 6 
#
# 1 65.5472 -7.9243 25.8365 0.0000 27.3092 0.0000
# 2 -7.9243 53.4135 -0.0859 0.0000 4.2889 0.0000
# 3 25.8365 -0.0859 105.2105 0.0000 38.2983 0.0000
# 4 0.0000 0.0000 0.0000 -26.3106 0.0000 53.6841
# 5 27.3092 4.2889 38.2983 0.0000 36.5790 0.0000
# 6 0.0000 0.0000 0.0000 53.6841 0.0000 18.9677
#
#
#
# Elastic Compliance Matrix: (Units=1/GPa)
#
#
# Indices 1 2 3 4 5 6 
#
# 1 0.023471 0.005052 0.001349 0.000000 -0.019528 0.000000
# 2 0.005052 0.020103 0.001627 0.000000 -0.007832 0.000000
# 3 0.001349 0.001627 0.015530 0.000000 -0.017457 0.000000
# 4 0.000000 0.000000 0.000000 -0.005610 0.000000 0.015878
# 5 -0.019528 -0.007832 -0.017457 0.000000 0.061113 0.000000
# 6 0.000000 0.000000 0.000000 0.015878 0.000000 0.007782
#
#
# Mechanical properties :
#
#
# Convention : Reuss Voigt Hill
#
# Bulk Modulus (GPa) = 13.30507 28.86931 21.08719
# Shear Modulus (GPa) = 38.05578 19.60354 28.82966
#
# Velocity S-wave (km/s) = 4.10540 2.94654 3.57326
# Velocity P-wave (km/s) = 5.32588 4.93578 5.13454
#
# Compressibility (1/GPa) = 0.07515932
#
# Stress axis : x y z
#
# Youngs Moduli (GPa) = 42.60530 49.74394 64.39342
#
# Poissons Ratio (x) = -0.25132 -0.08684
# Poissons Ratio (y) = -0.21526 -0.10475
# Poissons Ratio (z) = -0.05746 -0.08092
#
# Static dielectric constant tensor:
#      x y z
#    x 1.803160 0.000000 0.021750 
#    y 0.000000 1.843020 0.000000 
#    z 0.021750 0.000000 1.835500 
# 
# From -- ./inp_files/3541.got.cif
#   From: 2010.05.17/outbox.cif.g08.bks.cpg/sg6_2_cif.got.tgz:3541.got - 2010.06.03 19:42:10.
