data_PCOD9131704
_publ_section_title
;
Structure prediction by ZEFSAII (Michael W. Deem and Ramdas Pophale) SiO2 
 PCOD9131704
Probable space group: C M
;
_chemical_formula_sum "Si O2"
_cell_formula_units_Z 32
_cell_length_a 20.874162
_cell_length_b 7.718295
_cell_length_c 20.720925
_cell_angle_alpha 90.000000
_cell_angle_beta 150.902831
_cell_angle_gamma 90.000000
_cell_volume 1623.442352
_symmetry_space_group_name_H-M "C M"
_symmetry_group_IT_number 8
_symmetry_cell_setting 'monoclinic'
loop_
_space_group_symop_operation_xyz
x,y,z
x,-y,z
1/2+x,1/2+y,z
1/2+x,1/2-y,z
loop_
_atom_site_type_symbol
_atom_site_label
_atom_site_fract_x
_atom_site_fract_y
_atom_site_fract_z
Si Si1 0.609830 0.711519 0.218960
Si Si2 0.406811 0.204657 0.789186
Si Si3 0.656396 0.298368 0.799491
Si Si4 0.409466 0.703499 0.938539
Si Si5 0.170371 0.297751 0.958888
Si Si6 0.868646 0.290812 0.515133
Si Si7 0.462418 0.711996 0.221107
Si Si8 0.218535 0.211095 0.514555
O O1 0.610755 0.500000 0.218354
O O2 0.759229 0.766258 0.366486
O O3 0.520721 0.760726 0.202392
O O4 0.534873 0.773592 0.089191
O O5 0.391548 0.222407 0.851741
O O6 0.545487 0.279710 0.885965
O O7 0.287017 0.273637 0.640107
O O8 0.411188 0.000000 0.778028
O O9 0.679255 0.500000 0.831135
O O10 0.779062 0.228836 0.866731
O O11 0.647305 0.211132 0.861702
O O12 0.517092 0.274478 0.640842
O O13 0.430794 0.500000 0.948886
O O14 0.177936 0.500000 0.984090
O O15 0.314655 0.222519 0.099823
O O16 0.873415 0.500000 0.517891
O O17 0.809294 0.240661 0.532983
O O18 0.458815 0.500000 0.217798
O O19 0.570430 0.768803 0.368420
O O20 0.213356 0.000000 0.510098
#
# Coordination Sequence:
#
# PCOD9131704 Si02
#       8
#     4   4   4   4   4   4   4   4
#     4   8  15  29  55  82 102 132 182 226 261 315
#     4  10  20  34  52  78 111 145 178 217 265 319
#     4  12  23  34  52  82 114 141 178 227 270 315
#     4  11  22  38  57  77 107 149 185 219 267 324
#     4  10  18  33  57  80 106 140 181 221 264 318
#     4   9  16  32  57  82 104 136 179 224 270 318
#     4   8  13  25  51  82 102 127 175 222 259 308
#     4   8  14  27  51  79 106 136 172 216 262 311
#
# _framework density 19.711203000000001
#
# number of rings (size 3 to 8) (size 9 to 14) (size 15 to 20)
#    0.000    2.500    2.500    3.000    0.000    0.500 
#    0.000    2.500    0.000    2.250    0.000    0.000 
#    0.000    0.000    0.000    0.000    0.000    0.000 
#
# Total GULP energy -89232.818122 kJ/mol
# GULP energy per Si atom -5577.051133 kJ/mol
# Density = 1.966634 g / cm^3
# Si number density = 19.711203 Si / 1000 Ang^3
#
#
#
# Elastic Constant Matrix: (Units=GPa)
#
#
# Indices 1 2 3 4 5 6 
#
# 1 55.8598 -14.2667 39.0363 0.0000 -7.2483 0.0000
# 2 -14.2667 28.5682 -5.0876 0.0000 -0.6252 0.0000
# 3 39.0363 -5.0876 170.9255 0.0000 -9.4586 0.0000
# 4 0.0000 0.0000 0.0000 -2.7480 0.0000 -10.4624
# 5 -7.2483 -0.6252 -9.4586 0.0000 24.7054 0.0000
# 6 0.0000 0.0000 0.0000 -10.4624 0.0000 8.5567
#
#
#
# Elastic Compliance Matrix: (Units=1/GPa)
#
#
# Indices 1 2 3 4 5 6 
#
# 1 0.025223 0.011816 -0.005091 0.000000 0.005750 0.000000
# 2 0.011816 0.040768 -0.001263 0.000000 0.004015 0.000000
# 3 -0.005091 -0.001263 0.007040 0.000000 0.001170 0.000000
# 4 0.000000 0.000000 0.000000 -0.064348 0.000000 -0.078679
# 5 0.005750 0.004015 0.001170 0.000000 0.042714 0.000000
# 6 0.000000 0.000000 0.000000 -0.078679 0.000000 0.020666
#
#
# Mechanical properties :
#
#
# Convention : Reuss Voigt Hill
#
# Bulk Modulus (GPa) = 11.91112 32.74638 22.32875
# Shear Modulus (GPa) = 56.10221 21.81425 38.95823
#
# Velocity S-wave (km/s) = 5.34078 3.33031 4.45055
# Velocity P-wave (km/s) = 6.63986 5.60688 6.14511
#
# Compressibility (1/GPa) = 0.08395513
#
# Stress axis : x y z
#
# Youngs Moduli (GPa) = 39.64592 24.52934 142.04012
#
# Poissons Ratio (x) = -0.28983 0.72308
# Poissons Ratio (y) = -0.46844 0.17937
# Poissons Ratio (z) = 0.20182 0.03098
#
# Static dielectric constant tensor:
#      x y z
#    x 1.654660 0.000000 -0.000180 
#    y 0.000000 1.730860 0.000000 
#    z -0.000180 0.000000 1.740540 
# 
# From -- ./inp_files/31360.got.cif
#   From: 2010.05.17/outbox.cif.g08.bks.cpg/sg8_16_cif.got.tgz:31360.got - 2010.06.03 19:46:02.
