data_PCOD9131401
_publ_section_title
;
Structure prediction by ZEFSAII (Michael W. Deem and Ramdas Pophale) SiO2 
 PCOD9131401
Probable space group: P C
;
_chemical_formula_sum "Si O2"
_cell_formula_units_Z 10
_cell_length_a 5.046420
_cell_length_b 13.530675
_cell_length_c 5.555453
_cell_angle_alpha 90.000000
_cell_angle_beta 83.380573
_cell_angle_gamma 90.000000
_cell_volume 376.805748
_symmetry_space_group_name_H-M "P C"
_symmetry_group_IT_number 7
_symmetry_cell_setting 'monoclinic'
loop_
_space_group_symop_operation_xyz
x,y,z
x,-y,1/2+z
loop_
_atom_site_type_symbol
_atom_site_label
_atom_site_fract_x
_atom_site_fract_y
_atom_site_fract_z
Si Si1 0.192440 0.828205 0.447040
Si Si2 0.320189 0.439946 0.931812
Si Si3 0.794005 0.688109 0.559060
Si Si4 0.641231 0.999695 0.918324
Si Si5 0.426606 0.779080 0.927192
O O1 0.245034 0.781490 0.706179
O O2 0.873487 0.800773 0.464739
O O3 0.380692 0.927110 0.433476
O O4 0.281404 0.771912 0.194608
O O5 0.334274 0.511316 0.166012
O O6 0.566886 0.365490 0.931950
O O7 0.042858 0.383261 0.003366
O O8 0.661892 0.703433 0.836058
O O9 0.535275 0.889251 0.923185
O O10 0.802936 0.002765 0.651690
#
# Coordination Sequence:
#
# PCOD9131401 Si02
#       5
#     2   2   2   2   2
#     4  10  22  41  69 105 146 192 241 295 347 431
#     4  12  30  52  78 108 146 184 244 316 384 442
#     4  12  26  50  80 108 148 194 246 298 376 442
#     4   8  16  36  60  96 144 186 236 284 342 400
#     4  10  22  41  69 105 146 192 241 295 347 431
#
# _framework density 26.538874
#
# number of rings (size 3 to 8) (size 9 to 14) (size 15 to 20)
#    0.000    1.600    2.000    1.200    2.800    4.800 
#    0.000   18.000    0.000    0.000    0.000    0.000 
#    0.000    0.000    0.000    0.000    0.000    0.000 
#
# Total GULP energy -55761.089673 kJ/mol
# GULP energy per Si atom -5576.108967 kJ/mol
# Density = 2.647847 g / cm^3
# Si number density = 26.538874 Si / 1000 Ang^3
#
#
#
# Elastic Constant Matrix: (Units=GPa)
#
#
# Indices 1 2 3 4 5 6 
#
# 1 122.2284 34.7987 24.1603 0.0000 -16.1750 0.0000
# 2 34.7987 68.8820 17.4264 0.0000 -3.2547 0.0000
# 3 24.1603 17.4264 213.2977 0.0000 9.0902 0.0000
# 4 0.0000 0.0000 0.0000 55.2043 0.0000 -4.6136
# 5 -16.1750 -3.2547 9.0902 0.0000 32.5974 0.0000
# 6 0.0000 0.0000 0.0000 -4.6136 0.0000 30.8759
#
#
#
# Elastic Compliance Matrix: (Units=1/GPa)
#
#
# Indices 1 2 3 4 5 6 
#
# 1 0.010391 -0.004762 -0.000999 0.000000 0.004959 0.000000
# 2 -0.004762 0.017116 -0.000841 0.000000 -0.000420 0.000000
# 3 -0.000999 -0.000841 0.004954 0.000000 -0.001961 0.000000
# 4 0.000000 0.000000 0.000000 0.018344 0.000000 0.002741
# 5 0.004959 -0.000420 -0.001961 0.000000 0.033643 0.000000
# 6 0.000000 0.000000 0.000000 0.002741 0.000000 0.032797
#
#
# Mechanical properties :
#
#
# Convention : Reuss Voigt Hill
#
# Bulk Modulus (GPa) = 51.93229 61.90876 56.92052
# Shear Modulus (GPa) = 36.53120 45.60370 41.06745
#
# Velocity S-wave (km/s) = 3.71417 4.14982 3.93803
# Velocity P-wave (km/s) = 6.16476 6.80732 6.49399
#
# Compressibility (1/GPa) = 0.01925584
#
# Stress axis : x y z
#
# Youngs Moduli (GPa) = 96.23659 58.42327 201.86638
#
# Poissons Ratio (x) = 0.27823 0.20172
# Poissons Ratio (y) = 0.45831 0.16979
# Poissons Ratio (z) = 0.09617 0.04914
#
# Static dielectric constant tensor:
#      x y z
#    x 2.239530 0.000000 0.037240 
#    y 0.000000 2.167710 0.000000 
#    z 0.037240 0.000000 2.111020 
# 
# From -- ./inp_files/118.got.cif
#   From: 2010.05.17/outbox.cif.g08.bks.cpg/sg7_cif.got.tgz:118.got - 2010.06.03 19:44:50.
