data_PCOD9131144
_publ_section_title
;
Structure prediction by ZEFSAII (Michael W. Deem and Ramdas Pophale) SiO2 
 PCOD9131144
Probable space group: P M
;
_chemical_formula_sum "Si O2"
_cell_formula_units_Z 10
_cell_length_a 4.926229
_cell_length_b 13.615294
_cell_length_c 6.954329
_cell_angle_alpha 90.000000
_cell_angle_beta 78.498572
_cell_angle_gamma 90.000000
_cell_volume 457.074884
_symmetry_space_group_name_H-M "P M"
_symmetry_group_IT_number 6
_symmetry_cell_setting 'monoclinic'
loop_
_space_group_symop_operation_xyz
x,y,z
x,-y,z
loop_
_atom_site_type_symbol
_atom_site_label
_atom_site_fract_x
_atom_site_fract_y
_atom_site_fract_z
Si Si1 0.610830 0.811440 0.294470
Si Si2 0.259614 0.388385 0.787113
Si Si3 0.618860 0.107931 0.698105
Si Si4 0.163731 0.802264 0.034736
Si Si5 0.835131 0.308527 0.588491
O O1 0.543281 0.882367 0.482402
O O2 0.342870 0.794931 0.205108
O O3 0.740039 0.715797 0.385399
O O4 0.864969 0.846503 0.126399
O O5 0.202300 0.500000 0.847846
O O6 0.116382 0.361580 0.602989
O O7 0.585644 0.368500 0.720715
O O8 0.143203 0.306912 0.948942
O O9 0.830608 0.199361 0.685177
O O10 0.726068 0.000000 0.725409
O O11 0.354255 0.134287 0.864389
#
# Coordination Sequence:
#
# PCOD9131144 Si02
#       5
#     2   2   2   2   2
#     4  10  23  40  64  90 132 164 212 262 316 367
#     4  11  21  40  66  93 126 171 213 262 322 381
#     4   9  22  41  66  96 131 173 213 259 324 380
#     4  11  22  41  65  93 129 168 209 268 316 375
#     4   9  21  40  62  90 128 168 202 273 307 369
#
# _framework density 21.878252
#
# number of rings (size 3 to 8) (size 9 to 14) (size 15 to 20)
#    1.200    0.800    0.000    4.200    0.000    1.600 
#    0.000   20.000    0.000    0.000    0.000    0.000 
#    0.000    0.000    0.000    0.000    0.000    0.000 
#
# Total GULP energy -55785.242409 kJ/mol
# GULP energy per Si atom -5578.524241 kJ/mol
# Density = 2.182846 g / cm^3
# Si number density = 21.878252 Si / 1000 Ang^3
#
#
#
# Elastic Constant Matrix: (Units=GPa)
#
#
# Indices 1 2 3 4 5 6 
#
# 1 84.7638 17.9978 1.4762 0.0000 10.9281 0.0000
# 2 17.9978 118.9547 14.9462 0.0000 6.7485 0.0000
# 3 1.4762 14.9462 70.8925 0.0000 -6.2386 0.0000
# 4 0.0000 0.0000 0.0000 10.0446 0.0000 4.3601
# 5 10.9281 6.7485 -6.2386 0.0000 34.0178 0.0000
# 6 0.0000 0.0000 0.0000 4.3601 0.0000 8.1254
#
#
#
# Elastic Compliance Matrix: (Units=1/GPa)
#
#
# Indices 1 2 3 4 5 6 
#
# 1 0.012643 -0.001668 -0.000244 0.000000 -0.003775 0.000000
# 2 -0.001668 0.009003 -0.002006 0.000000 -0.001618 0.000000
# 3 -0.000244 -0.002006 0.014815 0.000000 0.003193 0.000000
# 4 0.000000 0.000000 0.000000 0.129785 0.000000 -0.069643
# 5 -0.003775 -0.001618 0.003193 0.000000 0.031516 0.000000
# 6 0.000000 0.000000 0.000000 -0.069643 0.000000 0.160441
#
#
# Mechanical properties :
#
#
# Convention : Reuss Voigt Hill
#
# Bulk Modulus (GPa) = 34.93436 38.16126 36.54781
# Shear Modulus (GPa) = 13.31277 26.45029 19.88153
#
# Velocity S-wave (km/s) = 2.46944 3.48081 3.01779
# Velocity P-wave (km/s) = 4.91255 5.79958 5.37439
#
# Compressibility (1/GPa) = 0.02862512
#
# Stress axis : x y z
#
# Youngs Moduli (GPa) = 79.09754 111.07748 67.50005
#
# Poissons Ratio (x) = 0.18528 0.01646
# Poissons Ratio (y) = 0.13194 0.13538
# Poissons Ratio (z) = 0.01929 0.22279
#
# Static dielectric constant tensor:
#      x y z
#    x 1.788110 0.000000 0.016720 
#    y 0.000000 1.775810 0.000000 
#    z 0.016720 0.000000 1.871530 
# 
# From -- ./inp_files/223.got.cif
#   From: 2010.05.17/outbox.cif.g08.bks.cpg/sg6_1_cif.got.tgz:223.got - 2010.06.03 19:42:10.
