data_PCOD9131071
_publ_section_title
;
Structure prediction by ZEFSAII (Michael W. Deem and Ramdas Pophale) SiO2 
 PCOD9131071
Probable space group: P M
;
_chemical_formula_sum "Si O2"
_cell_formula_units_Z 13
_cell_length_a 9.524964
_cell_length_b 7.591154
_cell_length_c 13.439138
_cell_angle_alpha 90.000000
_cell_angle_beta 30.849586
_cell_angle_gamma 90.000000
_cell_volume 498.286087
_symmetry_space_group_name_H-M "P M"
_symmetry_group_IT_number 6
_symmetry_cell_setting 'monoclinic'
loop_
_space_group_symop_operation_xyz
x,y,z
x,-y,z
loop_
_atom_site_type_symbol
_atom_site_label
_atom_site_fract_x
_atom_site_fract_y
_atom_site_fract_z
Si Si1 0.363970 0.797589 0.506230
Si Si2 0.271676 0.788501 0.992779
Si Si3 0.954173 0.704298 0.385891
Si Si4 0.818671 0.200835 0.752071
Si Si5 0.346827 0.709151 0.732573
Si Si6 0.500265 0.697882 0.134026
Si Si7 0.646922 0.500000 0.241387
O O1 0.255848 0.795154 0.685452
O O2 0.602476 0.656415 0.351674
O O3 0.117198 0.719269 0.588065
O O4 0.430297 0.000000 0.440074
O O5 0.583176 0.721688 0.825256
O O6 0.189481 0.733841 0.931995
O O7 0.274776 0.000000 0.996272
O O8 0.089214 0.724081 0.195050
O O9 0.907610 0.500000 0.438588
O O10 0.189644 0.770843 0.318055
O O11 0.652579 0.783657 0.566456
O O12 0.864209 0.000000 0.693336
O O13 0.680453 0.199090 0.945673
O O14 0.342207 0.500000 0.717496
O O15 0.478589 0.500000 0.101185
O O16 0.626241 0.654246 0.164130
#
# Coordination Sequence:
#
# PCOD9131071 Si02
#       7
#     2   2   2   2   2   2   1
#     4  11  24  42  60  88 126 161 205 254 302 364
#     4  10  21  38  62  93 123 158 204 252 313 369
#     4   9  19  38  61  89 121 154 203 255 300 365
#     4   9  20  38  61  88 121 158 202 255 303 364
#     4  11  23  40  62  88 122 166 208 253 307 368
#     4   8  18  35  58  91 115 150 197 249 305 355
#     4  10  22  38  62  92 120 162 202 246 314 368
#
# _framework density 26.089428999999999
#
# number of rings (size 3 to 8) (size 9 to 14) (size 15 to 20)
#    0.462    1.846    0.769    0.923    3.231    2.462 
#    2.769    0.000    0.000    0.000    0.000    0.000 
#    0.000    0.000    0.000    0.000    0.000    0.000 
#
# Total GULP energy -72397.228699 kJ/mol
# GULP energy per Si atom -5569.017592 kJ/mol
# Density = 2.603005 g / cm^3
# Si number density = 26.089429 Si / 1000 Ang^3
#
#
#
# Elastic Constant Matrix: (Units=GPa)
#
#
# Indices 1 2 3 4 5 6 
#
# 1 125.1629 0.0315 38.2093 0.0000 12.8218 0.0000
# 2 0.0315 114.2136 4.5574 0.0000 3.3511 0.0000
# 3 38.2093 4.5574 78.4890 0.0000 9.8202 0.0000
# 4 0.0000 0.0000 0.0000 65.8469 0.0000 102.4491
# 5 12.8218 3.3511 9.8202 0.0000 55.2185 0.0000
# 6 0.0000 0.0000 0.0000 102.4491 0.0000 161.6035
#
#
#
# Elastic Compliance Matrix: (Units=1/GPa)
#
#
# Indices 1 2 3 4 5 6 
#
# 1 0.009496 0.000217 -0.004457 0.000000 -0.001426 0.000000
# 2 0.000217 0.008792 -0.000555 0.000000 -0.000485 0.000000
# 3 -0.004457 -0.000555 0.015146 0.000000 -0.001625 0.000000
# 4 0.000000 0.000000 0.000000 1.112489 0.000000 -0.705266
# 5 -0.001426 -0.000485 -0.001625 0.000000 0.018759 0.000000
# 6 0.000000 0.000000 0.000000 -0.705266 0.000000 0.453294
#
#
# Mechanical properties :
#
#
# Convention : Reuss Voigt Hill
#
# Bulk Modulus (GPa) = 41.94095 44.82908 43.38502
# Shear Modulus (GPa) = 3.05714 74.87160 38.96437
#
# Velocity S-wave (km/s) = 1.08367 5.36287 3.86877
# Velocity P-wave (km/s) = 4.20435 7.45435 6.05160
#
# Compressibility (1/GPa) = 0.02384305
#
# Stress axis : x y z
#
# Youngs Moduli (GPa) = 105.30508 113.74148 66.02415
#
# Poissons Ratio (x) = -0.02469 0.29428
# Poissons Ratio (y) = -0.02286 0.03667
# Poissons Ratio (z) = 0.46936 0.06318
#
# Static dielectric constant tensor:
#      x y z
#    x 2.153190 0.000000 -0.099740 
#    y 0.000000 1.996340 0.000000 
#    z -0.099740 0.000000 2.110440 
# 
# From -- ./inp_files/4609.got.cif
#   From: 2010.05.17/outbox.cif.g08.bks.cpg/sg6_3_cif.got.tgz:4609.got - 2010.06.03 19:42:10.
