data_PCOD9131782
_publ_section_title
;
Structure prediction by ZEFSAII (Michael W. Deem and Ramdas Pophale) SiO2 
 PCOD9131782
Probable space group: C M
;
_chemical_formula_sum "Si O2"
_cell_formula_units_Z 32
_cell_length_a 22.729644
_cell_length_b 8.939389
_cell_length_c 22.612690
_cell_angle_alpha 90.000000
_cell_angle_beta 19.008804
_cell_angle_gamma 90.000000
_cell_volume 1496.540159
_symmetry_space_group_name_H-M "C M"
_symmetry_group_IT_number 8
_symmetry_cell_setting 'monoclinic'
loop_
_space_group_symop_operation_xyz
x,y,z
x,-y,z
1/2+x,1/2+y,z
1/2+x,1/2-y,z
loop_
_atom_site_type_symbol
_atom_site_label
_atom_site_fract_x
_atom_site_fract_y
_atom_site_fract_z
Si Si1 0.116110 0.822324 0.532000
Si Si2 0.044920 0.677520 0.011278
Si Si3 0.824782 0.822983 0.644914
Si Si4 0.258845 0.821761 0.521268
Si Si5 0.221685 0.680979 0.959861
Si Si6 0.661480 0.819728 0.151865
Si Si7 0.681328 0.823275 0.343022
Si Si8 0.017930 0.321726 0.844501
O O1 0.253871 0.797203 0.455391
O O2 0.150492 0.732229 0.439890
O O3 0.920901 0.786902 0.745688
O O4 0.119884 0.000000 0.513738
O O5 0.006627 0.500000 0.048964
O O6 0.876403 0.757345 0.141467
O O7 0.228748 0.696914 0.799836
O O8 0.081118 0.732732 0.043495
O O9 0.670853 0.771791 0.745656
O O10 0.014414 0.739934 0.464014
O O11 0.855340 0.000000 0.607061
O O12 0.453921 0.781274 0.362466
O O13 0.101695 0.731863 0.702731
O O14 0.226943 0.000000 0.559938
O O15 0.206043 0.500000 0.976412
O O16 0.193161 0.731919 0.053747
O O17 0.676591 0.000000 0.139559
O O18 0.820769 0.749416 0.038776
O O19 0.683115 0.000000 0.337914
O O20 0.003106 0.500000 0.862053
#
# Coordination Sequence:
#
# PCOD9131782 Si02
#       8
#     4   4   4   4   4   4   4   4
#     4  10  18  36  64  89 117 157 203 238 278 348
#     4  10  20  39  65  87 112 152 204 246 284 347
#     4  10  23  44  65  83 109 158 212 248 284 344
#     4  10  21  38  64  91 119 158 200 240 286 349
#     4   9  16  32  63  91 110 146 199 245 279 333
#     4  10  20  37  61  90 118 151 198 244 291 348
#     4  12  25  38  58  92 127 153 185 241 311 358
#     4  11  24  40  60  87 120 155 197 250 301 345
#
# _framework density 21.382653000000001
#
# number of rings (size 3 to 8) (size 9 to 14) (size 15 to 20)
#    0.000    1.750    2.500    2.250    0.000    5.500 
#    0.000    5.625    0.000    0.000    0.000    0.000 
#    0.000    0.000    0.000    0.000    0.000    0.000 
#
# Total GULP energy -89428.407293 kJ/mol
# GULP energy per Si atom -5589.275456 kJ/mol
# Density = 2.133399 g / cm^3
# Si number density = 21.382653 Si / 1000 Ang^3
#
#
#
# Elastic Constant Matrix: (Units=GPa)
#
#
# Indices 1 2 3 4 5 6 
#
# 1 73.2267 14.4734 11.3417 -0.0017 -32.8862 -0.0001
# 2 14.4734 36.6350 29.3177 -0.0046 -22.8124 0.0006
# 3 11.3417 29.3177 84.7726 -0.0023 -41.5799 0.0008
# 4 -0.0017 -0.0046 -0.0023 21.5021 0.0006 -9.8280
# 5 -32.8862 -22.8124 -41.5799 0.0006 44.5494 0.0003
# 6 -0.0001 0.0006 0.0008 -9.8280 0.0003 22.9210
#
#
#
# Elastic Compliance Matrix: (Units=1/GPa)
#
#
# Indices 1 2 3 4 5 6 
#
# 1 0.024535 -0.001055 0.010514 0.000002 0.027384 0.000000
# 2 -0.001055 0.042505 -0.007866 0.000009 0.013645 0.000003
# 3 0.010514 -0.007866 0.027556 0.000001 0.029453 -0.000001
# 4 0.000002 0.000009 0.000001 0.057843 0.000006 0.024802
# 5 0.027384 0.013645 0.029453 0.000006 0.077139 0.000000
# 6 0.000000 0.000003 -0.000001 0.024802 0.000000 0.054263
#
#
# Mechanical properties :
#
#
# Convention : Reuss Voigt Hill
#
# Bulk Modulus (GPa) = 10.22682 33.87776 22.05229
# Shear Modulus (GPa) = 15.96181 27.09458 21.52820
#
# Velocity S-wave (km/s) = 2.73515 3.56354 3.17646
# Velocity P-wave (km/s) = 3.84290 5.72798 4.87738
#
# Compressibility (1/GPa) = 0.09778211
#
# Stress axis : x y z
#
# Youngs Moduli (GPa) = 40.75879 23.52691 36.28952
#
# Poissons Ratio (x) = 0.02481 -0.38155
# Poissons Ratio (y) = 0.04299 0.28545
# Poissons Ratio (z) = -0.42854 0.18506
#
# Static dielectric constant tensor:
#      x y z
#    x 1.831700 0.000000 -0.004710 
#    y 0.000000 1.710820 0.000000 
#    z -0.004710 0.000000 1.774890 
# 
# From -- ./inp_files/32347.got.cif
#   From: 2010.05.17/outbox.cif.g08.bks.cpg/sg8_17_cif.got.tgz:32347.got - 2010.06.03 19:46:02.
