data_PCOD9131171
_publ_section_title
;
Structure prediction by ZEFSAII (Michael W. Deem and Ramdas Pophale) SiO2 
 PCOD9131171
Probable space group: P M
;
_chemical_formula_sum "Si O2"
_cell_formula_units_Z 16
_cell_length_a 10.427742
_cell_length_b 8.541684
_cell_length_c 12.546227
_cell_angle_alpha 90.000000
_cell_angle_beta 52.661497
_cell_angle_gamma 90.000000
_cell_volume 888.485085
_symmetry_space_group_name_H-M "P M"
_symmetry_group_IT_number 6
_symmetry_cell_setting 'monoclinic'
loop_
_space_group_symop_operation_xyz
x,y,z
x,-y,z
loop_
_atom_site_type_symbol
_atom_site_label
_atom_site_fract_x
_atom_site_fract_y
_atom_site_fract_z
Si Si1 0.623200 0.809454 0.613950
Si Si2 0.433688 0.315819 0.049644
Si Si3 0.788531 0.186777 0.910065
Si Si4 0.950470 0.316089 0.038782
Si Si5 0.913129 0.190341 0.622650
Si Si6 0.846960 0.812349 0.313856
Si Si7 0.307328 0.186929 0.890302
Si Si8 0.145969 0.187821 0.323440
O O1 0.752366 0.760355 0.639108
O O2 0.696761 0.761528 0.463362
O O3 0.444966 0.760540 0.737385
O O4 0.624216 0.000000 0.614109
O O5 0.426664 0.500000 0.031832
O O6 0.308162 0.271205 0.205769
O O7 0.613794 0.265184 0.988279
O O8 0.375391 0.225435 0.973156
O O9 0.894979 0.238067 0.753971
O O10 0.766523 0.000000 0.913340
O O11 0.873619 0.228853 0.977112
O O12 0.936667 0.500000 0.028559
O O13 0.863005 0.268723 0.192687
O O14 0.136912 0.268043 0.958354
O O15 0.066903 0.239949 0.475232
O O16 0.915438 0.000000 0.618217
O O17 0.007608 0.783258 0.303817
O O18 0.838024 0.000000 0.302772
O O19 0.285207 0.000000 0.892839
O O20 0.172208 0.000000 0.313169
#
# Coordination Sequence:
#
# PCOD9131171 Si02
#       8
#     2   2   2   2   2   2   2   2
#     4   8  15  30  57  89 111 134 184 245 279 317
#     4  12  23  35  54  87 122 149 184 233 284 331
#     4  11  22  40  63  83 109 151 196 232 279 341
#     4  12  25  39  54  82 122 154 186 232 286 337
#     4   8  15  31  57  87 110 137 186 241 279 321
#     4   9  17  33  58  84 111 147 191 232 277 331
#     4  11  20  36  61  86 111 148 195 235 276 331
#     4   9  17  32  58  86 112 144 188 236 278 327
#
# _framework density 18.008179999999999
#
# number of rings (size 3 to 8) (size 9 to 14) (size 15 to 20)
#    0.000    2.000    2.500    4.500    0.000    0.000 
#    0.000    3.750    0.000    3.000    0.000    0.000 
#    0.000    0.000    0.000    0.000    0.000    0.000 
#
# Total GULP energy -89298.445105 kJ/mol
# GULP energy per Si atom -5581.152819 kJ/mol
# Density = 1.796719 g / cm^3
# Si number density = 18.008180 Si / 1000 Ang^3
#
#
#
# Elastic Constant Matrix: (Units=GPa)
#
#
# Indices 1 2 3 4 5 6 
#
# 1 42.3109 -12.5388 29.2121 0.0000 0.4688 0.0000
# 2 -12.5388 22.2346 9.8944 0.0000 0.3326 0.0000
# 3 29.2121 9.8944 146.2266 0.0000 -2.8024 0.0000
# 4 0.0000 0.0000 0.0000 -31.6051 0.0000 8.0343
# 5 0.4688 0.3326 -2.8024 0.0000 21.8963 0.0000
# 6 0.0000 0.0000 0.0000 8.0343 0.0000 10.9829
#
#
#
# Elastic Compliance Matrix: (Units=1/GPa)
#
#
# Indices 1 2 3 4 5 6 
#
# 1 0.037569 0.025345 -0.009266 0.000000 -0.002375 0.000000
# 2 0.025345 0.063497 -0.009412 0.000000 -0.002712 0.000000
# 3 -0.009266 -0.009412 0.009356 0.000000 0.001539 0.000000
# 4 0.000000 0.000000 0.000000 -0.026679 0.000000 0.019517
# 5 -0.002375 -0.002712 0.001539 0.000000 0.045959 0.000000
# 6 0.000000 0.000000 0.000000 0.019517 0.000000 0.076774
#
#
# Mechanical properties :
#
#
# Convention : Reuss Voigt Hill
#
# Bulk Modulus (GPa) = 8.08032 29.32306 18.70169
# Shear Modulus (GPa) = 21.33172 12.53512 16.93342
#
# Velocity S-wave (km/s) = 3.44547 2.64119 3.06979
# Velocity P-wave (km/s) = 4.50834 5.06159 4.79296
#
# Compressibility (1/GPa) = 0.12375752
#
# Stress axis : x y z
#
# Youngs Moduli (GPa) = 26.61751 15.74884 106.88214
#
# Poissons Ratio (x) = -0.39916 0.99035
# Poissons Ratio (y) = -0.67463 1.00595
# Poissons Ratio (z) = 0.24663 0.14822
#
# Static dielectric constant tensor:
#      x y z
#    x 1.572280 0.000000 -0.004970 
#    y 0.000000 1.609800 0.000000 
#    z -0.004970 0.000000 1.642330 
# 
# From -- ./inp_files/4591.got.cif
#   From: 2010.05.17/outbox.cif.g08.bks.cpg/sg6_3_cif.got.tgz:4591.got - 2010.06.03 19:42:10.
