data_PCOD9131874
_publ_section_title
;
Structure prediction by ZEFSAII (Michael W. Deem and Ramdas Pophale) SiO2 
 PCOD9131874
Probable space group: C M
;
_chemical_formula_sum "Si O2"
_cell_formula_units_Z 32
_cell_length_a 9.840387
_cell_length_b 14.499648
_cell_length_c 17.182728
_cell_angle_alpha 90.000000
_cell_angle_beta 150.835914
_cell_angle_gamma 90.000000
_cell_volume 1194.728478
_symmetry_space_group_name_H-M "C M"
_symmetry_group_IT_number 8
_symmetry_cell_setting 'monoclinic'
loop_
_space_group_symop_operation_xyz
x,y,z
x,-y,z
1/2+x,1/2+y,z
1/2+x,1/2-y,z
loop_
_atom_site_type_symbol
_atom_site_label
_atom_site_fract_x
_atom_site_fract_y
_atom_site_fract_z
Si Si1 0.461290 0.644386 0.466710
Si Si2 0.823724 0.099484 0.226546
Si Si3 0.805085 0.396381 0.267354
Si Si4 0.161478 0.893837 0.029700
Si Si5 0.934337 0.649604 0.487649
Si Si6 0.093953 0.684767 0.732170
Si Si7 0.175481 0.896753 0.736070
Si Si8 0.740158 0.195745 0.031738
O O1 0.309238 0.611334 0.312188
O O2 0.354522 0.744622 0.436052
O O3 0.784621 0.656764 0.601305
O O4 0.495943 0.596057 0.566838
O O5 0.153626 0.097997 0.371721
O O6 0.702067 0.000000 0.145058
O O7 0.711503 0.175747 0.110856
O O8 0.701081 0.500000 0.222262
O O9 0.025198 0.383369 0.447469
O O10 0.865851 0.385393 0.207031
O O11 0.545906 0.333312 0.159683
O O12 0.845408 0.868669 0.899497
O O13 0.212625 0.804586 0.001753
O O14 0.173088 0.000000 0.007932
O O15 0.131280 0.651528 0.660531
O O16 0.104860 0.797009 0.741648
O O17 0.497785 0.869247 0.876221
O O18 0.162933 0.000000 0.766381
#
# Coordination Sequence:
#
# PCOD9131874 Si02
#       8
#     4   4   4   4   4   4   4   4
#     4  10  19  33  52  73 102 138 169 206 250 293
#     4  10  19  32  53  80 103 131 170 210 250 298
#     4  10  19  33  55  80 101 131 172 210 248 299
#     4  10  21  35  54  77 101 132 172 210 251 302
#     4   9  18  32  50  74 103 132 165 205 249 293
#     4   9  20  33  50  75 105 133 165 209 255 296
#     4  10  19  33  52  75 100 131 169 207 248 301
#     4  10  19  33  54  76 103 132 164 211 257 296
#
# _framework density 26.784329
#
# number of rings (size 3 to 8) (size 9 to 14) (size 15 to 20)
#    0.000    2.250    0.000    4.125    0.000    4.000 
#    0.000    1.250    0.000   44.250    0.000    0.000 
#    0.000    0.000    0.000    0.000    0.000    0.000 
#
# Total GULP energy -89347.465646 kJ/mol
# GULP energy per Si atom -5584.216603 kJ/mol
# Density = 2.672337 g / cm^3
# Si number density = 26.784329 Si / 1000 Ang^3
#
#
#
# Elastic Constant Matrix: (Units=GPa)
#
#
# Indices 1 2 3 4 5 6 
#
# 1 99.7710 18.1850 22.2686 -0.0044 -12.2835 -0.0006
# 2 18.1850 167.6250 17.8786 -0.0131 -8.7971 -0.0014
# 3 22.2686 17.8786 126.7129 -0.0259 -30.5222 -0.0036
# 4 -0.0044 -0.0131 -0.0259 25.4439 -0.0121 -6.5998
# 5 -12.2835 -8.7971 -30.5222 -0.0121 39.8856 -0.0014
# 6 -0.0006 -0.0014 -0.0036 -6.5998 -0.0014 6.4978
#
#
#
# Elastic Compliance Matrix: (Units=1/GPa)
#
#
# Indices 1 2 3 4 5 6 
#
# 1 0.010732 -0.000919 -0.001237 0.000002 0.002156 0.000002
# 2 -0.000919 0.006158 -0.000550 0.000004 0.000655 0.000005
# 3 -0.001237 -0.000550 0.009889 0.000020 0.007065 0.000027
# 4 0.000002 0.000004 0.000020 0.053360 0.000035 0.054198
# 5 0.002156 0.000655 0.007065 0.000035 0.031286 0.000046
# 6 0.000002 0.000005 0.000027 0.054198 0.000046 0.208948
#
#
# Mechanical properties :
#
#
# Convention : Reuss Voigt Hill
#
# Bulk Modulus (GPa) = 46.80110 56.75258 51.77684
# Shear Modulus (GPa) = 15.01916 36.75056 25.88486
#
# Velocity S-wave (km/s) = 2.37057 3.70819 3.11210
# Velocity P-wave (km/s) = 5.00041 6.29039 5.68212
#
# Compressibility (1/GPa) = 0.02136702
#
# Stress axis : x y z
#
# Youngs Moduli (GPa) = 93.17912 162.37984 101.12627
#
# Poissons Ratio (x) = 0.14926 0.12510
# Poissons Ratio (y) = 0.08565 0.05559
# Poissons Ratio (z) = 0.11527 0.08926
#
# Static dielectric constant tensor:
#      x y z
#    x 2.209250 0.000000 -0.067590 
#    y 0.000000 2.012530 0.000000 
#    z -0.067590 0.000000 2.151800 
# 
# From -- ./inp_files/26820.got.cif
#   From: 2010.05.17/outbox.cif.g08.bks.cpg/sg8_14_cif.got.tgz:26820.got - 2010.06.03 19:46:02.
