data_PCOD9131640
_publ_section_title
;
Structure prediction by ZEFSAII (Michael W. Deem and Ramdas Pophale) SiO2 
 PCOD9131640
Probable space group: C M
;
_chemical_formula_sum "Si O2"
_cell_formula_units_Z 32
_cell_length_a 20.732788
_cell_length_b 8.390881
_cell_length_c 20.461413
_cell_angle_alpha 90.000000
_cell_angle_beta 150.102364
_cell_angle_gamma 90.000000
_cell_volume 1774.288380
_symmetry_space_group_name_H-M "C M"
_symmetry_group_IT_number 8
_symmetry_cell_setting 'monoclinic'
loop_
_space_group_symop_operation_xyz
x,y,z
x,-y,z
1/2+x,1/2+y,z
1/2+x,1/2-y,z
loop_
_atom_site_type_symbol
_atom_site_label
_atom_site_fract_x
_atom_site_fract_y
_atom_site_fract_z
Si Si1 0.504060 0.312732 0.400800
Si Si2 0.273592 0.694280 0.873473
Si Si3 0.321293 0.310409 0.061260
Si Si4 0.098070 0.687631 0.351393
Si Si5 0.042307 0.306833 0.576603
Si Si6 0.756382 0.307455 0.371535
Si Si7 0.059621 0.194553 0.084015
Si Si8 0.728532 0.310861 0.112508
O O1 0.477058 0.500000 0.377306
O O2 0.594618 0.271965 0.418742
O O3 0.559000 0.258278 0.518303
O O4 0.368096 0.223172 0.268139
O O5 0.272553 0.500000 0.871368
O O6 0.155272 0.747333 0.724574
O O7 0.265853 0.741356 0.942710
O O8 0.413370 0.746007 0.969064
O O9 0.344059 0.500000 0.079019
O O10 0.460135 0.230521 0.196859
O O11 0.232609 0.270276 0.045422
O O12 0.104862 0.500000 0.367659
O O13 0.208256 0.743990 0.398659
O O14 0.043845 0.500000 0.574984
O O15 0.900776 0.258253 0.478505
O O16 0.752888 0.500000 0.370420
O O17 0.655004 0.255091 0.226426
O O18 0.119954 0.245555 0.067969
O O19 0.060879 0.000000 0.085277
O O20 0.715954 0.500000 0.092342
#
# Coordination Sequence:
#
# PCOD9131640 Si02
#       8
#     4   4   4   4   4   4   4   4
#     4  11  21  34  53  78 109 142 175 220 270 315
#     4   9  18  33  55  78 104 141 180 211 256 319
#     4  10  18  32  53  78 108 141 174 216 266 315
#     4  11  21  33  53  81 108 137 178 225 265 312
#     4  10  20  36  57  79 106 144 180 214 260 320
#     4  10  18  33  55  79 107 139 177 220 264 311
#     4   9  16  30  53  79 105 136 176 216 256 307
#     4  10  18  31  53  80 107 138 176 220 263 311
#
# _framework density 18.035399000000002
#
# number of rings (size 3 to 8) (size 9 to 14) (size 15 to 20)
#    0.000    2.000    2.500    4.500    0.000    0.500 
#    0.000    2.500    0.000    3.000    0.000    0.000 
#    0.000    0.000    0.000    0.000    0.000    0.000 
#
# Total GULP energy -89301.161412 kJ/mol
# GULP energy per Si atom -5581.322588 kJ/mol
# Density = 1.799435 g / cm^3
# Si number density = 18.035399 Si / 1000 Ang^3
#
#
#
# Elastic Constant Matrix: (Units=GPa)
#
#
# Indices 1 2 3 4 5 6 
#
# 1 148.9314 -1.2786 70.1751 0.0000 -12.7954 0.0000
# 2 -1.2786 12.1619 3.1148 0.0000 1.7091 0.0000
# 3 70.1751 3.1148 112.4633 0.0000 -8.8077 0.0000
# 4 0.0000 0.0000 0.0000 10.3932 0.0000 -5.1208
# 5 -12.7954 1.7091 -8.8077 0.0000 26.2651 0.0000
# 6 0.0000 0.0000 0.0000 -5.1208 0.0000 29.2787
#
#
#
# Elastic Compliance Matrix: (Units=1/GPa)
#
#
# Indices 1 2 3 4 5 6 
#
# 1 0.009759 0.002181 -0.005945 0.000000 0.002619 0.000000
# 2 0.002181 0.084334 -0.004152 0.000000 -0.005818 0.000000
# 3 -0.005945 -0.004152 0.012848 0.000000 0.001682 0.000000
# 4 0.000000 0.000000 0.000000 0.105290 0.000000 0.018415
# 5 0.002619 -0.005818 0.001682 0.000000 0.040292 0.000000
# 6 0.000000 0.000000 0.000000 0.018415 0.000000 0.037375
#
#
# Mechanical properties :
#
#
# Convention : Reuss Voigt Hill
#
# Bulk Modulus (GPa) = 10.97586 46.39770 28.68678
# Shear Modulus (GPa) = 14.87645 26.62376 20.75010
#
# Velocity S-wave (km/s) = 2.87513 3.84630 3.39561
# Velocity P-wave (km/s) = 4.13773 6.74589 5.59589
#
# Compressibility (1/GPa) = 0.09110903
#
# Stress axis : x y z
#
# Youngs Moduli (GPa) = 102.46454 11.85757 77.83229
#
# Poissons Ratio (x) = -0.02586 0.46271
# Poissons Ratio (y) = -0.22343 0.32316
# Poissons Ratio (z) = 0.60915 0.04923
#
# Static dielectric constant tensor:
#      x y z
#    x 1.627180 0.000000 -0.001990 
#    y 0.000000 1.618540 0.000000 
#    z -0.001990 0.000000 1.594240 
# 
# From -- ./inp_files/30047.got.cif
#   From: 2010.05.17/outbox.cif.g08.bks.cpg/sg8_16_cif.got.tgz:30047.got - 2010.06.03 19:46:02.
