data_PCOD9131275
_publ_section_title
;
Structure prediction by ZEFSAII (Michael W. Deem and Ramdas Pophale) SiO2 
 PCOD9131275
Probable space group: P C
;
_chemical_formula_sum "Si O2"
_cell_formula_units_Z 16
_cell_length_a 16.062236
_cell_length_b 9.144931
_cell_length_c 5.340457
_cell_angle_alpha 90.000000
_cell_angle_beta 99.428960
_cell_angle_gamma 90.000000
_cell_volume 773.850946
_symmetry_space_group_name_H-M "P C"
_symmetry_group_IT_number 7
_symmetry_cell_setting 'monoclinic'
loop_
_space_group_symop_operation_xyz
x,y,z
x,-y,1/2+z
loop_
_atom_site_type_symbol
_atom_site_label
_atom_site_fract_x
_atom_site_fract_y
_atom_site_fract_z
Si Si1 0.662720 0.196906 0.886450
Si Si2 0.597688 0.808540 0.853490
Si Si3 0.837737 0.088669 0.144087
Si Si4 0.030391 0.098851 0.188662
Si Si5 0.117668 0.412440 0.236895
Si Si6 0.411093 0.900413 0.884940
Si Si7 0.321484 0.588330 0.837249
Si Si8 0.700584 0.511750 0.861120
O O1 0.658146 0.132128 0.606016
O O2 0.642997 0.367473 0.838072
O O3 0.600296 0.137199 0.067435
O O4 0.756838 0.185873 0.040432
O O5 0.505188 0.831655 0.913341
O O6 0.639010 0.648993 0.832661
O O7 0.931802 0.147266 0.148405
O O8 0.831506 0.037969 0.428627
O O9 0.084862 0.246088 0.219403
O O10 0.044246 0.996971 0.442254
O O11 0.090696 0.499557 0.474031
O O12 0.219682 0.409548 0.287161
O O13 0.352604 0.756057 0.853061
O O14 0.399880 0.003937 0.633347
O O15 0.349343 0.500346 0.600623
O O16 0.753351 0.491545 0.638340
#
# Coordination Sequence:
#
# PCOD9131275 Si02
#       8
#     2   2   2   2   2   2   2   2
#     4  10  19  34  54  75 103 147 199 247 290 345
#     4  10  21  35  53  76 109 147 189 245 300 349
#     4  10  21  35  53  79 113 152 196 244 297 356
#     4  10  21  38  61  91 125 165 206 244 300 371
#     4  10  21  40  65  96 127 158 201 250 304 362
#     4  12  26  41  60  92 126 157 205 259 307 363
#     4  10  23  43  67  92 124 165 202 244 306 373
#     4   8  16  30  47  69  93 127 178 231 278 335
#
# _framework density 20.675816000000001
#
# number of rings (size 3 to 8) (size 9 to 14) (size 15 to 20)
#    0.000    2.000    0.000    3.000    0.000    7.000 
#    0.000    3.750    0.000    0.000    0.000    0.000 
#    0.000    0.000    0.000    0.000    0.000    0.000 
#
# Total GULP energy -89077.857017 kJ/mol
# GULP energy per Si atom -5567.366064 kJ/mol
# Density = 2.062876 g / cm^3
# Si number density = 20.675816 Si / 1000 Ang^3
#
#
#
# Elastic Constant Matrix: (Units=GPa)
#
#
# Indices 1 2 3 4 5 6 
#
# 1 40.9451 29.9353 36.7543 0.0000 -8.9525 0.0000
# 2 29.9353 113.5889 22.9177 0.0000 -0.9455 0.0000
# 3 36.7543 22.9177 170.4779 0.0000 -34.7505 0.0000
# 4 0.0000 0.0000 0.0000 26.5014 0.0000 1.5750
# 5 -8.9525 -0.9455 -34.7505 0.0000 24.9396 0.0000
# 6 0.0000 0.0000 0.0000 1.5750 0.0000 4.9817
#
#
#
# Elastic Compliance Matrix: (Units=1/GPa)
#
#
# Indices 1 2 3 4 5 6 
#
# 1 0.036943 -0.008517 -0.005841 0.000000 0.004799 0.000000
# 2 -0.008517 0.011077 -0.000266 0.000000 -0.003008 0.000000
# 3 -0.005841 -0.000266 0.009402 0.000000 0.010994 0.000000
# 4 0.000000 0.000000 0.000000 0.038456 0.000000 -0.012158
# 5 0.004799 -0.003008 0.010994 0.000000 0.057024 0.000000
# 6 0.000000 0.000000 0.000000 -0.012158 0.000000 0.204580
#
#
# Mechanical properties :
#
#
# Convention : Reuss Voigt Hill
#
# Bulk Modulus (GPa) = 35.49611 56.02517 45.76064
# Shear Modulus (GPa) = 12.62235 26.97817 19.80026
#
# Velocity S-wave (km/s) = 2.47349 3.61615 3.09795
# Velocity P-wave (km/s) = 5.03614 6.67766 5.91413
#
# Compressibility (1/GPa) = 0.02817210
#
# Stress axis : x y z
#
# Youngs Moduli (GPa) = 27.06879 90.27729 106.36065
#
# Poissons Ratio (x) = 0.76893 0.62130
# Poissons Ratio (y) = 0.23056 0.02829
# Poissons Ratio (z) = 0.15812 0.02401
#
# Static dielectric constant tensor:
#      x y z
#    x 1.713530 0.000000 -0.045640 
#    y 0.000000 1.775990 0.000000 
#    z -0.045640 0.000000 1.878610 
# 
# From -- ./inp_files/1293.got.cif
#   From: 2010.05.17/outbox.cif.g08.bks.cpg/sg7_cif.got.tgz:1293.got - 2010.06.03 19:44:50.
