data_PCOD9131816
_publ_section_title
;
Structure prediction by ZEFSAII (Michael W. Deem and Ramdas Pophale) SiO2 
 PCOD9131816
Probable space group: C M
;
_chemical_formula_sum "Si O2"
_cell_formula_units_Z 32
_cell_length_a 5.591629
_cell_length_b 33.040609
_cell_length_c 7.149343
_cell_angle_alpha 90.000000
_cell_angle_beta 100.316024
_cell_angle_gamma 90.000000
_cell_volume 1299.495534
_symmetry_space_group_name_H-M "C M"
_symmetry_group_IT_number 8
_symmetry_cell_setting 'monoclinic'
loop_
_space_group_symop_operation_xyz
x,y,z
x,-y,z
1/2+x,1/2+y,z
1/2+x,1/2-y,z
loop_
_atom_site_type_symbol
_atom_site_label
_atom_site_fract_x
_atom_site_fract_y
_atom_site_fract_z
Si Si1 0.456160 0.265687 0.533400
Si Si2 0.437152 0.566148 0.824045
Si Si3 0.955301 0.441581 0.900021
Si Si4 0.462833 0.156082 0.925436
Si Si5 0.058878 0.545077 0.344598
Si Si6 0.912956 0.842549 0.719231
Si Si7 0.048375 0.949851 0.272774
Si Si8 0.406538 0.233743 0.106284
O O1 0.739327 0.256139 0.618364
O O2 0.394160 0.313286 0.539491
O O3 0.431312 0.249647 0.320125
O O4 0.688201 0.546961 0.791694
O O5 0.403498 0.609125 0.721937
O O6 0.172214 0.546596 0.792149
O O7 0.494366 0.568391 0.058658
O O8 0.970675 0.392785 0.936713
O O9 0.002627 0.458551 0.112777
O O10 0.689762 0.168376 0.826319
O O11 0.190820 0.164778 0.818166
O O12 0.470205 0.186039 0.103186
O O13 0.071830 0.500000 0.421849
O O14 0.811260 0.565279 0.378659
O O15 0.328903 0.562202 0.377677
O O16 0.049441 0.000000 0.258344
O O17 0.622841 0.256273 0.022369
#
# Coordination Sequence:
#
# PCOD9131816 Si02
#       8
#     4   4   4   4   4   4   4   4
#     4  10  21  35  48  63  85 112 139 175 219 261
#     4   8  14  23  34  52  77 102 131 166 201 236
#     4   8  14  23  34  52  77 102 131 166 201 236
#     4  10  19  30  46  66  86 110 142 179 215 252
#     4   8  12  18  29  45  68 100 132 157 187 231
#     4  10  19  30  46  66  86 110 142 179 215 252
#     4   8  12  18  29  45  68 100 132 157 187 231
#     4  10  21  35  48  63  85 112 139 175 219 261
#
# _framework density 24.624942999999998
#
# number of rings (size 3 to 8) (size 9 to 14) (size 15 to 20)
#    0.000    3.000    0.000    1.500    0.000    3.000 
#    0.000    0.000    0.000    0.000    0.000    0.000 
#    0.000    0.000    0.000    9.000    0.000   13.000 
#
# Total GULP energy -89133.830719 kJ/mol
# GULP energy per Si atom -5570.864420 kJ/mol
# Density = 2.456890 g / cm^3
# Si number density = 24.624943 Si / 1000 Ang^3
#
#
#
# Elastic Constant Matrix: (Units=GPa)
#
#
# Indices 1 2 3 4 5 6 
#
# 1 292.2965 25.0511 34.4490 0.0000 -21.7871 0.0000
# 2 25.0511 134.1146 54.3262 0.0000 -10.8353 0.0000
# 3 34.4490 54.3262 78.5458 0.0000 -9.9683 0.0000
# 4 0.0000 0.0000 0.0000 25.4768 0.0000 -9.6037
# 5 -21.7871 -10.8353 -9.9683 0.0000 18.6702 0.0000
# 6 0.0000 0.0000 0.0000 -9.6037 0.0000 13.5171
#
#
#
# Elastic Compliance Matrix: (Units=1/GPa)
#
#
# Indices 1 2 3 4 5 6 
#
# 1 0.003851 0.000109 -0.001272 0.000000 0.003878 0.000000
# 2 0.000109 0.010458 -0.006967 0.000000 0.002477 0.000000
# 3 -0.001272 -0.006967 0.018672 0.000000 0.004441 0.000000
# 4 0.000000 0.000000 0.000000 0.053609 0.000000 0.038088
# 5 0.003878 0.002477 0.004441 0.000000 0.061895 0.000000
# 6 0.000000 0.000000 0.000000 0.038088 0.000000 0.101041
#
#
# Mechanical properties :
#
#
# Convention : Reuss Voigt Hill
#
# Bulk Modulus (GPa) = 59.80576 81.40104 70.60340
# Shear Modulus (GPa) = 18.42571 37.60821 28.01696
#
# Velocity S-wave (km/s) = 2.73839 3.91223 3.37671
# Velocity P-wave (km/s) = 5.85984 7.31680 6.62847
#
# Compressibility (1/GPa) = 0.01672080
#
# Stress axis : x y z
#
# Youngs Moduli (GPa) = 259.68533 95.61927 53.55661
#
# Poissons Ratio (x) = -0.01047 0.06815
# Poissons Ratio (y) = -0.02842 0.37313
# Poissons Ratio (z) = 0.33044 0.66618
#
# Static dielectric constant tensor:
#      x y z
#    x 2.072370 0.000000 -0.000790 
#    y 0.000000 1.923130 0.000000 
#    z -0.000790 0.000000 1.961910 
# 
# From -- ./inp_files/7210.got.cif
#   From: 2010.05.17/outbox.cif.g08.bks.cpg/sg8_4_cif.got.tgz:7210.got - 2010.06.03 19:46:02.
