data_PCOD9131586
_publ_section_title
;
Structure prediction by ZEFSAII (Michael W. Deem and Ramdas Pophale) SiO2 
 PCOD9131586
Probable space group: C M
;
_chemical_formula_sum "Si O2"
_cell_formula_units_Z 32
_cell_length_a 20.663770
_cell_length_b 7.366312
_cell_length_c 12.851751
_cell_angle_alpha 90.000000
_cell_angle_beta 53.414166
_cell_angle_gamma 90.000000
_cell_volume 1570.791393
_symmetry_space_group_name_H-M "C M"
_symmetry_group_IT_number 8
_symmetry_cell_setting 'monoclinic'
loop_
_space_group_symop_operation_xyz
x,y,z
x,-y,z
1/2+x,1/2+y,z
1/2+x,1/2-y,z
loop_
_atom_site_type_symbol
_atom_site_label
_atom_site_fract_x
_atom_site_fract_y
_atom_site_fract_z
Si Si1 0.065750 0.779535 0.215660
Si Si2 0.180100 0.221695 0.286572
Si Si3 0.720358 0.710649 0.473470
Si Si4 0.656457 0.277308 0.754391
Si Si5 0.710441 0.279260 0.924259
Si Si6 0.906217 0.220032 0.258932
Si Si7 0.476870 0.289273 0.972901
Si Si8 0.823730 0.718629 0.995892
O O1 0.104500 0.722208 0.288011
O O2 0.976074 0.722093 0.272047
O O3 0.065589 0.000000 0.215819
O O4 0.129179 0.725860 0.064524
O O5 0.184521 0.287689 0.400362
O O6 0.260479 0.276743 0.146180
O O7 0.180918 0.000000 0.287076
O O8 0.695630 0.500000 0.497939
O O9 0.691029 0.787130 0.611366
O O10 0.816855 0.718161 0.371293
O O11 0.658251 0.500000 0.751503
O O12 0.705774 0.220594 0.809691
O O13 0.564253 0.216490 0.859840
O O14 0.710849 0.500000 0.924271
O O15 0.785655 0.220551 0.923004
O O16 0.903237 0.000000 0.260938
O O17 0.934969 0.285343 0.117276
O O18 0.491717 0.500000 0.983491
O O19 0.412524 0.277727 0.942071
O O20 0.823710 0.500000 0.995751
#
# Coordination Sequence:
#
# PCOD9131586 Si02
#       8
#     4   4   4   4   4   4   4   4
#     4   8  13  24  44  67  88 113 152 194 218 252
#     4   8  14  25  43  68  91 114 149 188 224 260
#     4  10  19  31  48  69  96 123 149 188 232 274
#     4   9  17  30  47  68  93 123 157 188 222 269
#     4   8  13  25  46  69  89 116 157 192 217 258
#     4  10  18  29  48  71  93 119 154 193 227 267
#     4  10  18  29  47  71  95 118 152 193 230 268
#     4   9  16  27  47  71  93 116 150 194 228 264
#
# _framework density 20.371897000000001
#
# number of rings (size 3 to 8) (size 9 to 14) (size 15 to 20)
#    0.000    3.000    2.500    1.500    0.000    0.000 
#    0.000    1.875    0.000    6.750    0.000    0.000 
#    0.000    0.000    0.000    0.000    0.000    0.000 
#
# Total GULP energy -89251.559441 kJ/mol
# GULP energy per Si atom -5578.222465 kJ/mol
# Density = 2.032553 g / cm^3
# Si number density = 20.371897 Si / 1000 Ang^3
#
#
#
# Elastic Constant Matrix: (Units=GPa)
#
#
# Indices 1 2 3 4 5 6 
#
# 1 153.1054 -9.1682 82.8442 0.0000 30.1934 0.0000
# 2 -9.1682 70.6946 2.6958 0.0000 4.8261 0.0000
# 3 82.8442 2.6958 140.7995 0.0000 28.3445 0.0000
# 4 0.0000 0.0000 0.0000 -0.1150 0.0000 -8.1007
# 5 30.1934 4.8261 28.3445 0.0000 32.4784 0.0000
# 6 0.0000 0.0000 0.0000 -8.1007 0.0000 11.6755
#
#
#
# Elastic Compliance Matrix: (Units=1/GPa)
#
#
# Indices 1 2 3 4 5 6 
#
# 1 0.010509 0.001940 -0.005090 0.000000 -0.005616 0.000000
# 2 0.001940 0.014653 -0.000753 0.000000 -0.003324 0.000000
# 3 -0.005090 -0.000753 0.011084 0.000000 -0.004829 0.000000
# 4 0.000000 0.000000 0.000000 -0.174354 0.000000 -0.120971
# 5 -0.005616 -0.003324 -0.004829 0.000000 0.040719 0.000000
# 6 0.000000 0.000000 0.000000 -0.120971 0.000000 0.001717
#
#
# Mechanical properties :
#
#
# Convention : Reuss Voigt Hill
#
# Bulk Modulus (GPa) = 35.16142 57.48258 46.32200
# Shear Modulus (GPa) = -63.78744 28.02294 -17.88225
#
# Velocity S-wave (km/s) = -5.60174 3.71289 -2.96597
# Velocity P-wave (km/s) = 4.95399 6.83071 3.32540
#
# Compressibility (1/GPa) = 0.02844027
#
# Stress axis : x y z
#
# Youngs Moduli (GPa) = 95.15273 68.24708 90.22141
#
# Poissons Ratio (x) = -0.13243 0.45924
# Poissons Ratio (y) = -0.18464 0.06795
# Poissons Ratio (z) = 0.48434 0.05140
#
# Static dielectric constant tensor:
#      x y z
#    x 1.725370 0.000000 0.028830 
#    y 0.000000 1.794170 0.000000 
#    z 0.028830 0.000000 1.686600 
# 
# From -- ./inp_files/23054.got.cif
#   From: 2010.05.17/outbox.cif.g08.bks.cpg/sg8_12_cif.got.tgz:23054.got - 2010.06.03 19:46:02.
