data_PCOD9131995
_publ_section_title
;
Structure prediction by ZEFSAII (Michael W. Deem and Ramdas Pophale) SiO2 
 PCOD9131995
Probable space group: C M
;
_chemical_formula_sum "Si O2"
_cell_formula_units_Z 32
_cell_length_a 21.023675
_cell_length_b 8.591227
_cell_length_c 12.536334
_cell_angle_alpha 90.000000
_cell_angle_beta 52.509473
_cell_angle_gamma 90.000000
_cell_volume 1796.619567
_symmetry_space_group_name_H-M "C M"
_symmetry_group_IT_number 8
_symmetry_cell_setting 'monoclinic'
loop_
_space_group_symop_operation_xyz
x,y,z
x,-y,z
1/2+x,1/2+y,z
1/2+x,1/2-y,z
loop_
_atom_site_type_symbol
_atom_site_label
_atom_site_fract_x
_atom_site_fract_y
_atom_site_fract_z
Si Si1 0.299460 0.811664 0.506890
Si Si2 0.046492 0.314947 0.790073
Si Si3 0.636641 0.813505 0.079793
Si Si4 0.184125 0.812769 0.806057
Si Si5 0.218135 0.186536 0.208711
Si Si6 0.652858 0.687585 0.501554
Si Si7 0.896845 0.185424 0.055894
Si Si8 0.953323 0.688746 0.227369
O O1 0.261415 0.761206 0.657858
O O2 0.234383 0.769992 0.482454
O O3 0.386900 0.758920 0.381268
O O4 0.301620 0.000000 0.507669
O O5 0.048988 0.500000 0.799204
O O6 0.107210 0.240339 0.815105
O O7 0.080736 0.264824 0.640213
O O8 0.958280 0.253314 0.906068
O O9 0.677203 0.741170 0.142035
O O10 0.543364 0.765179 0.164973
O O11 0.639704 0.000000 0.083688
O O12 0.679035 0.758771 0.927917
O O13 0.183319 0.000000 0.813480
O O14 0.165784 0.232789 0.365960
O O15 0.306689 0.256950 0.129729
O O16 0.225287 0.000000 0.203719
O O17 0.644320 0.500000 0.517341
O O18 0.927646 0.246140 0.139014
O O19 0.899870 0.000000 0.050778
O O20 0.951121 0.500000 0.222772
#
# Coordination Sequence:
#
# PCOD9131995 Si02
#       8
#     4   4   4   4   4   4   4   4
#     4   8  15  31  56  83 109 143 188 236 283 335
#     4  11  21  34  56  86 118 151 191 241 293 342
#     4  11  23  37  57  85 119 156 196 242 288 344
#     4  10  19  34  56  83 115 153 194 237 289 342
#     4  11  23  41  62  82 116 159 197 239 295 353
#     4   9  18  35  58  83 112 150 193 238 290 346
#     4  12  23  36  58  88 118 148 195 247 290 343
#     4  10  19  36  59  84 115 152 192 236 288 341
#
# _framework density 17.811228
#
# number of rings (size 3 to 8) (size 9 to 14) (size 15 to 20)
#    0.000    1.750    2.500    4.125    0.000    1.500 
#    0.000    1.875    0.000    4.500    0.000    0.000 
#    0.000    0.000    0.000    0.000    0.000    0.000 
#
# Total GULP energy -89336.411520 kJ/mol
# GULP energy per Si atom -5583.525720 kJ/mol
# Density = 1.777069 g / cm^3
# Si number density = 17.811228 Si / 1000 Ang^3
#
#
#
# Elastic Constant Matrix: (Units=GPa)
#
#
# Indices 1 2 3 4 5 6 
#
# 1 84.3518 19.6195 60.2622 0.0000 -0.4878 0.0000
# 2 19.6195 45.3632 29.0697 0.0000 -5.3258 0.0000
# 3 60.2622 29.0697 167.6778 0.0000 -1.7695 0.0000
# 4 0.0000 0.0000 0.0000 27.0430 0.0000 1.4049
# 5 -0.4878 -5.3258 -1.7695 0.0000 25.1862 0.0000
# 6 0.0000 0.0000 0.0000 1.4049 0.0000 25.7752
#
#
#
# Elastic Compliance Matrix: (Units=1/GPa)
#
#
# Indices 1 2 3 4 5 6 
#
# 1 0.016518 -0.003865 -0.005276 0.000000 -0.000868 0.000000
# 2 -0.003865 0.026335 -0.003121 0.000000 0.005275 0.000000
# 3 -0.005276 -0.003121 0.008399 0.000000 -0.000172 0.000000
# 4 0.000000 0.000000 0.000000 0.037083 0.000000 -0.002021
# 5 -0.000868 0.005275 -0.000172 0.000000 0.040791 0.000000
# 6 0.000000 0.000000 0.000000 -0.002021 0.000000 0.038907
#
#
# Mechanical properties :
#
#
# Convention : Reuss Voigt Hill
#
# Bulk Modulus (GPa) = 37.41252 57.25508 47.33380
# Shear Modulus (GPa) = 24.81804 28.16361 26.49083
#
# Velocity S-wave (km/s) = 3.73687 3.98078 3.86075
# Velocity P-wave (km/s) = 6.29837 7.30370 6.81959
#
# Compressibility (1/GPa) = 0.02672902
#
# Stress axis : x y z
#
# Youngs Moduli (GPa) = 60.53989 37.97203 119.06131
#
# Poissons Ratio (x) = 0.14677 0.62811
# Poissons Ratio (y) = 0.23400 0.37157
# Poissons Ratio (z) = 0.31938 0.11850
#
# Static dielectric constant tensor:
#      x y z
#    x 1.568800 0.000000 -0.010530 
#    y 0.000000 1.600680 0.000000 
#    z -0.010530 0.000000 1.628510 
# 
# From -- ./inp_files/23870.got.cif
#   From: 2010.05.17/outbox.cif.g08.bks.cpg/sg8_12_cif.got.tgz:23870.got - 2010.06.03 19:46:02.
