data_PCOD9131912
_publ_section_title
;
Structure prediction by ZEFSAII (Michael W. Deem and Ramdas Pophale) SiO2 
 PCOD9131912
Probable space group: C M
;
_chemical_formula_sum "Si O2"
_cell_formula_units_Z 32
_cell_length_a 5.528474
_cell_length_b 26.334217
_cell_length_c 11.436206
_cell_angle_alpha 90.000000
_cell_angle_beta 120.848201
_cell_angle_gamma 90.000000
_cell_volume 1429.428820
_symmetry_space_group_name_H-M "C M"
_symmetry_group_IT_number 8
_symmetry_cell_setting 'monoclinic'
loop_
_space_group_symop_operation_xyz
x,y,z
x,-y,z
1/2+x,1/2+y,z
1/2+x,1/2-y,z
loop_
_atom_site_type_symbol
_atom_site_label
_atom_site_fract_x
_atom_site_fract_y
_atom_site_fract_z
Si Si1 0.896720 0.555404 0.724230
Si Si2 0.129965 0.627644 0.610295
Si Si3 0.458692 0.560868 0.251695
Si Si4 0.693002 0.378021 0.870960
Si Si5 0.358018 0.776578 0.808155
Si Si6 0.480265 0.442782 0.000129
Si Si7 0.507870 0.238615 0.496947
Si Si8 0.121195 0.438678 0.396817
O O1 0.806334 0.500000 0.659801
O O2 0.744386 0.572888 0.803121
O O3 0.894038 0.596911 0.622526
O O4 0.223973 0.552950 0.845521
O O5 0.381732 0.642218 0.760432
O O6 0.025306 0.679687 0.532032
O O7 0.246552 0.590371 0.539170
O O8 0.451986 0.500000 0.262097
O O9 0.789078 0.575012 0.324621
O O10 0.275079 0.578857 0.316013
O O11 0.352818 0.571917 0.094178
O O12 0.885503 0.333116 0.867858
O O13 0.685720 0.399952 0.999613
O O14 0.661485 0.753856 0.851077
O O15 0.174301 0.771113 0.640806
O O16 0.609457 0.500000 0.043292
O O17 0.184952 0.253722 0.424253
O O18 0.141343 0.500000 0.412465
#
# Coordination Sequence:
#
# PCOD9131912 Si02
#       8
#     4   4   4   4   4   4   4   4
#     4  10  21  33  50  80 118 153 182 219 279 344
#     4  11  22  34  53  81 119 146 184 225 284 343
#     4   9  20  39  58  76 107 147 197 237 264 311
#     4  11  21  32  56  82 116 148 181 227 283 343
#     4  10  19  34  52  76 111 141 184 224 268 330
#     4   9  20  36  54  81 111 149 191 232 273 323
#     4  10  19  33  53  77 109 141 184 225 268 327
#     4  10  22  37  56  81 109 151 189 229 274 323
#
# _framework density 22.386564
#
# number of rings (size 3 to 8) (size 9 to 14) (size 15 to 20)
#    0.000    2.000    2.500    2.250    5.250    1.500 
#    0.000    0.000    0.000    0.000    0.000    5.250 
#    0.000    0.000    0.000    0.000    0.000    0.000 
#
# Total GULP energy -89294.521913 kJ/mol
# GULP energy per Si atom -5580.907620 kJ/mol
# Density = 2.233561 g / cm^3
# Si number density = 22.386564 Si / 1000 Ang^3
#
#
#
# Elastic Constant Matrix: (Units=GPa)
#
#
# Indices 1 2 3 4 5 6 
#
# 1 140.9421 21.2278 23.5477 0.0000 -32.0557 0.0000
# 2 21.2278 68.0179 5.6733 0.0000 -9.6516 0.0000
# 3 23.5477 5.6733 50.1006 0.0000 -17.6722 0.0000
# 4 0.0000 0.0000 0.0000 6.8302 0.0000 -2.7951
# 5 -32.0557 -9.6516 -17.6722 0.0000 33.5443 0.0000
# 6 0.0000 0.0000 0.0000 -2.7951 0.0000 17.4034
#
#
#
# Elastic Compliance Matrix: (Units=1/GPa)
#
#
# Indices 1 2 3 4 5 6 
#
# 1 0.009342 -0.001705 -0.001501 0.000000 0.007646 0.000000
# 2 -0.001705 0.015641 0.000053 0.000000 0.002899 0.000000
# 3 -0.001501 0.000053 0.024760 0.000000 0.011625 0.000000
# 4 0.000000 0.000000 0.000000 0.156707 0.000000 0.025168
# 5 0.007646 0.002899 0.011625 0.000000 0.044076 0.000000
# 6 0.000000 0.000000 0.000000 0.025168 0.000000 0.061502
#
#
# Mechanical properties :
#
#
# Convention : Reuss Voigt Hill
#
# Bulk Modulus (GPa) = 23.02230 39.99538 31.50884
# Shear Modulus (GPa) = 15.02343 25.46303 20.24323
#
# Velocity S-wave (km/s) = 2.59335 3.37623 3.01035
# Velocity P-wave (km/s) = 4.39017 5.75354 5.11746
#
# Compressibility (1/GPa) = 0.04343615
#
# Stress axis : x y z
#
# Youngs Moduli (GPa) = 107.04772 63.93398 40.38804
#
# Poissons Ratio (x) = 0.10903 0.06061
# Poissons Ratio (y) = 0.18255 -0.00213
# Poissons Ratio (z) = 0.16064 -0.00337
#
# Static dielectric constant tensor:
#      x y z
#    x 1.904280 0.000000 0.040020 
#    y 0.000000 1.833590 0.000000 
#    z 0.040020 0.000000 1.874560 
# 
# From -- ./inp_files/18163.got.cif
#   From: 2010.05.17/outbox.cif.g08.bks.cpg/sg8_10_cif.got.tgz:18163.got - 2010.06.03 19:46:02.
