data_PCOD9131012
_publ_section_title
;
Structure prediction by ZEFSAII (Michael W. Deem and Ramdas Pophale) SiO2 
 PCOD9131012
Probable space group: P M
;
_chemical_formula_sum "Si O2"
_cell_formula_units_Z 16
_cell_length_a 12.754788
_cell_length_b 8.748047
_cell_length_c 12.471921
_cell_angle_alpha 90.000000
_cell_angle_beta 144.670875
_cell_angle_gamma 90.000000
_cell_volume 804.729976
_symmetry_space_group_name_H-M "P M"
_symmetry_group_IT_number 6
_symmetry_cell_setting 'monoclinic'
loop_
_space_group_symop_operation_xyz
x,y,z
x,-y,z
loop_
_atom_site_type_symbol
_atom_site_label
_atom_site_fract_x
_atom_site_fract_y
_atom_site_fract_z
Si Si1 0.452310 0.318304 0.696860
Si Si2 0.087818 0.818780 0.366162
Si Si3 0.812400 0.682974 0.594224
Si Si4 0.040386 0.682757 0.093009
Si Si5 0.672100 0.181714 0.692067
Si Si6 0.572679 0.818655 0.211810
Si Si7 0.214326 0.682303 0.016521
Si Si8 0.711823 0.318542 0.113024
O O1 0.430468 0.500000 0.667604
O O2 0.264656 0.241595 0.574404
O O3 0.515802 0.247508 0.637256
O O4 0.604877 0.288676 0.913377
O O5 0.093331 0.738284 0.254260
O O6 0.903038 0.767043 0.267992
O O7 0.092782 0.000000 0.357688
O O8 0.798554 0.500000 0.574862
O O9 0.689510 0.741077 0.590586
O O10 0.735294 0.759867 0.423605
O O11 0.021523 0.720188 0.798678
O O12 0.004045 0.500000 0.063116
O O13 0.183925 0.712896 0.117815
O O14 0.858432 0.770432 0.906817
O O15 0.657508 0.000000 0.669845
O O16 0.596224 0.739092 0.116757
O O17 0.581174 0.000000 0.207875
O O18 0.383600 0.769542 0.108521
O O19 0.243331 0.500000 0.028398
O O20 0.742517 0.500000 0.146399
#
# Coordination Sequence:
#
# PCOD9131012 Si02
#       8
#     2   2   2   2   2   2   2   2
#     4  11  24  42  66  93 126 171 218 262 319 390
#     4  12  25  40  64  97 132 166 211 270 328 378
#     4  10  22  42  66  92 128 171 217 261 314 386
#     4  10  20  38  63  92 130 173 214 258 319 389
#     4  11  21  36  62  96 134 167 208 268 329 377
#     4  12  26  42  66  96 130 168 213 268 327 380
#     4   9  21  41  65  92 124 168 216 261 312 377
#     4  11  25  47  70  90 124 172 223 266 316 387
#
# _framework density 19.882446000000002
#
# number of rings (size 3 to 8) (size 9 to 14) (size 15 to 20)
#    0.000    1.250    1.250    5.625    1.750    5.500 
#    0.000    1.250    0.000    0.000    0.000    0.000 
#    0.000    0.000    0.000    0.000    0.000    0.000 
#
# Total GULP energy -89501.340988 kJ/mol
# GULP energy per Si atom -5593.833812 kJ/mol
# Density = 1.983719 g / cm^3
# Si number density = 19.882446 Si / 1000 Ang^3
#
#
#
# Elastic Constant Matrix: (Units=GPa)
#
#
# Indices 1 2 3 4 5 6 
#
# 1 64.7317 5.8731 1.6814 0.0000 7.0887 0.0000
# 2 5.8731 45.3102 7.3085 0.0000 4.4991 0.0000
# 3 1.6814 7.3085 19.9645 0.0000 9.1162 0.0000
# 4 0.0000 0.0000 0.0000 27.2124 0.0000 8.2809
# 5 7.0887 4.4991 9.1162 0.0000 29.7763 0.0000
# 6 0.0000 0.0000 0.0000 8.2809 0.0000 40.0432
#
#
#
# Elastic Compliance Matrix: (Units=1/GPa)
#
#
# Indices 1 2 3 4 5 6 
#
# 1 0.016013 -0.001869 0.001101 0.000000 -0.003867 0.000000
# 2 -0.001869 0.023702 -0.008239 0.000000 -0.000614 0.000000
# 3 0.001101 -0.008239 0.061106 0.000000 -0.017725 0.000000
# 4 0.000000 0.000000 0.000000 0.039216 0.000000 -0.008110
# 5 -0.003867 -0.000614 -0.017725 0.000000 0.040024 0.000000
# 6 0.000000 0.000000 0.000000 -0.008110 0.000000 0.026650
#
#
# Mechanical properties :
#
#
# Convention : Reuss Voigt Hill
#
# Bulk Modulus (GPa) = 12.07622 17.74804 14.91213
# Shear Modulus (GPa) = 19.81550 27.08261 23.44906
#
# Velocity S-wave (km/s) = 3.16037 3.69472 3.43794
# Velocity P-wave (km/s) = 4.40503 5.21029 4.82449
#
# Compressibility (1/GPa) = 0.08280739
#
# Stress axis : x y z
#
# Youngs Moduli (GPa) = 62.44996 42.18997 16.36492
#
# Poissons Ratio (x) = 0.07886 -0.01802
# Poissons Ratio (y) = 0.11674 0.13483
# Poissons Ratio (z) = -0.06878 0.34761
#
# Static dielectric constant tensor:
#      x y z
#    x 1.685040 0.000000 0.011950 
#    y 0.000000 1.652620 0.000000 
#    z 0.011950 0.000000 1.727450 
# 
# From -- ./inp_files/5079.got.cif
#   From: 2010.05.17/outbox.cif.g08.bks.cpg/sg6_3_cif.got.tgz:5079.got - 2010.06.03 19:42:10.
