data_PCOD9131262
_publ_section_title
;
Structure prediction by ZEFSAII (Michael W. Deem and Ramdas Pophale) SiO2 
 PCOD9131262
Probable space group: P C
;
_chemical_formula_sum "Si O2"
_cell_formula_units_Z 16
_cell_length_a 15.393552
_cell_length_b 8.899994
_cell_length_c 5.381068
_cell_angle_alpha 90.000000
_cell_angle_beta 69.798397
_cell_angle_gamma 90.000000
_cell_volume 691.868590
_symmetry_space_group_name_H-M "P C"
_symmetry_group_IT_number 7
_symmetry_cell_setting 'monoclinic'
loop_
_space_group_symop_operation_xyz
x,y,z
x,-y,1/2+z
loop_
_atom_site_type_symbol
_atom_site_label
_atom_site_fract_x
_atom_site_fract_y
_atom_site_fract_z
Si Si1 0.964040 0.059447 0.084670
Si Si2 0.176125 0.568420 0.667314
Si Si3 0.830283 0.405574 0.759367
Si Si4 0.017575 0.653735 0.320268
Si Si5 0.349830 0.921614 0.846784
Si Si6 0.641099 0.404757 0.074200
Si Si7 0.149448 0.132154 0.405287
Si Si8 0.432670 0.598658 0.721804
O O1 0.979013 0.238748 0.078452
O O2 0.917156 0.991728 0.373733
O O3 0.064371 0.978174 0.939235
O O4 0.218962 0.502699 0.373987
O O5 0.069271 0.505450 0.801297
O O6 0.178367 0.748415 0.663107
O O7 0.827116 0.534560 0.980912
O O8 0.735995 0.316555 0.916982
O O9 0.930912 0.341809 0.720484
O O10 0.103704 0.748618 0.137552
O O11 0.370026 0.745466 0.807930
O O12 0.385262 0.006954 0.566723
O O13 0.238286 0.939165 0.943874
O O14 0.644982 0.465141 0.354284
O O15 0.539174 0.340274 0.133869
O O16 0.422019 0.513749 0.467845
#
# Coordination Sequence:
#
# PCOD9131262 Si02
#       8
#     2   2   2   2   2   2   2   2
#     4  10  20  34  50  66  94 138 181 219 266 328
#     4  10  20  32  49  73 100 134 182 237 282 319
#     4  10  19  32  52  83 116 146 183 233 291 348
#     4  10  20  34  53  78 108 144 189 239 282 328
#     4  12  26  43  63  90 125 166 206 250 312 379
#     4   8  16  32  57  86 116 146 181 232 296 358
#     4  10  22  38  54  74 109 154 196 234 284 349
#     4  10  21  41  68  96 122 154 202 258 309 365
#
# _framework density 23.125779000000001
#
# number of rings (size 3 to 8) (size 9 to 14) (size 15 to 20)
#    0.000    2.000    0.000    4.500    0.000    6.000 
#    0.000    0.000    0.000    3.000    0.000    0.000 
#    0.000    0.000    0.000    0.000    0.000    0.000 
#
# Total GULP energy -89195.814129 kJ/mol
# GULP energy per Si atom -5574.738383 kJ/mol
# Density = 2.307314 g / cm^3
# Si number density = 23.125779 Si / 1000 Ang^3
#
#
#
# Elastic Constant Matrix: (Units=GPa)
#
#
# Indices 1 2 3 4 5 6 
#
# 1 50.0677 21.0926 30.4795 0.0000 8.4713 0.0000
# 2 21.0926 69.4756 17.1068 0.0000 2.4924 0.0000
# 3 30.4795 17.1068 133.1515 0.0000 22.1863 0.0000
# 4 0.0000 0.0000 0.0000 30.4672 0.0000 11.4849
# 5 8.4713 2.4924 22.1863 0.0000 27.1138 0.0000
# 6 0.0000 0.0000 0.0000 11.4849 0.0000 14.1624
#
#
#
# Elastic Compliance Matrix: (Units=1/GPa)
#
#
# Indices 1 2 3 4 5 6 
#
# 1 0.026187 -0.006707 -0.004484 0.000000 -0.003897 0.000000
# 2 -0.006707 0.016583 -0.000799 0.000000 0.001225 0.000000
# 3 -0.004484 -0.000799 0.009719 0.000000 -0.006478 0.000000
# 4 0.000000 0.000000 0.000000 0.047273 0.000000 -0.038336
# 5 -0.003897 0.001225 -0.006478 0.000000 0.043287 0.000000
# 6 0.000000 0.000000 0.000000 -0.038336 0.000000 0.101697
#
#
# Mechanical properties :
#
#
# Convention : Reuss Voigt Hill
#
# Bulk Modulus (GPa) = 35.07638 43.33917 39.20777
# Shear Modulus (GPa) = 17.97086 26.61641 22.29364
#
# Velocity S-wave (km/s) = 2.79066 3.39623 3.10823
# Velocity P-wave (km/s) = 5.05809 5.84470 5.46557
#
# Compressibility (1/GPa) = 0.02850922
#
# Stress axis : x y z
#
# Youngs Moduli (GPa) = 38.18684 60.30447 102.89441
#
# Poissons Ratio (x) = 0.40443 0.46133
# Poissons Ratio (y) = 0.25610 0.08226
# Poissons Ratio (z) = 0.17121 0.04821
#
# Static dielectric constant tensor:
#      x y z
#    x 1.984620 0.000000 0.068690 
#    y 0.000000 1.932230 0.000000 
#    z 0.068690 0.000000 2.064200 
# 
# From -- ./inp_files/1270.got.cif
#   From: 2010.05.17/outbox.cif.g08.bks.cpg/sg7_cif.got.tgz:1270.got - 2010.06.03 19:44:50.
