data_PCOD9131132
_publ_section_title
;
Structure prediction by ZEFSAII (Michael W. Deem and Ramdas Pophale) SiO2 
 PCOD9131132
Probable space group: P M
;
_chemical_formula_sum "Si O2"
_cell_formula_units_Z 16
_cell_length_a 12.866385
_cell_length_b 8.753426
_cell_length_c 8.564892
_cell_angle_alpha 90.000000
_cell_angle_beta 54.289420
_cell_angle_gamma 90.000000
_cell_volume 783.248482
_symmetry_space_group_name_H-M "P M"
_symmetry_group_IT_number 6
_symmetry_cell_setting 'monoclinic'
loop_
_space_group_symop_operation_xyz
x,y,z
x,-y,z
loop_
_atom_site_type_symbol
_atom_site_label
_atom_site_fract_x
_atom_site_fract_y
_atom_site_fract_z
Si Si1 0.825940 0.336127 0.141220
Si Si2 0.972500 0.325101 0.318802
Si Si3 0.903605 0.827434 0.679142
Si Si4 0.225512 0.315311 0.905095
Si Si5 0.628969 0.318377 0.935325
Si Si6 0.585545 0.174999 0.298377
Si Si7 0.511936 0.684604 0.702597
Si Si8 0.093681 0.673418 0.723667
O O1 0.761808 0.500000 0.158064
O O2 0.739266 0.195350 0.173467
O O3 0.859157 0.334763 0.293068
O O4 0.964171 0.336851 0.940881
O O5 0.986734 0.500000 0.371218
O O6 0.930491 0.198955 0.475514
O O7 0.105109 0.279420 0.119752
O O8 0.780069 0.721510 0.820940
O O9 0.038609 0.776302 0.635889
O O10 0.872001 0.000000 0.748633
O O11 0.222773 0.500000 0.893771
O O12 0.362256 0.272378 0.851838
O O13 0.199141 0.262145 0.750184
O O14 0.611475 0.500000 0.953138
O O15 0.584162 0.265199 0.799802
O O16 0.557555 0.249079 0.151654
O O17 0.546383 0.253381 0.498302
O O18 0.544985 0.000000 0.334612
O O19 0.524680 0.500000 0.683934
O O20 0.126538 0.500000 0.644248
#
# Coordination Sequence:
#
# PCOD9131132 Si02
#       8
#     2   2   2   2   2   2   2   2
#     4   9  17  32  56  82 109 144 188 235 288 348
#     4   9  18  34  58  85 113 148 190 239 297 352
#     4  12  23  34  52  86 124 153 188 236 297 363
#     4   8  17  38  64  87 107 142 200 251 288 337
#     4  11  23  40  63  89 121 160 204 253 298 350
#     4  12  24  37  58  89 125 163 198 243 305 365
#     4  10  22  42  66  89 116 156 210 258 296 347
#     4   9  17  33  59  83 109 144 182 235 291 342
#
# _framework density 20.427744000000001
#
# number of rings (size 3 to 8) (size 9 to 14) (size 15 to 20)
#    0.000    2.000    1.250    4.875    0.000    4.500 
#    2.250    3.125    0.000    0.000    0.000    0.000 
#    0.000    0.000    0.000    0.000    0.000    0.000 
#
# Total GULP energy -89078.935550 kJ/mol
# GULP energy per Si atom -5567.433472 kJ/mol
# Density = 2.038125 g / cm^3
# Si number density = 20.427744 Si / 1000 Ang^3
#
#
#
# Elastic Constant Matrix: (Units=GPa)
#
#
# Indices 1 2 3 4 5 6 
#
# 1 84.3416 9.4703 24.3180 0.0000 14.6414 0.0000
# 2 9.4703 59.3612 20.8429 0.0000 13.6580 0.0000
# 3 24.3180 20.8429 76.3857 0.0000 22.5531 0.0000
# 4 0.0000 0.0000 0.0000 6.4623 0.0000 -0.8472
# 5 14.6414 13.6580 22.5531 0.0000 28.8333 0.0000
# 6 0.0000 0.0000 0.0000 -0.8472 0.0000 -7.8968
#
#
#
# Elastic Compliance Matrix: (Units=1/GPa)
#
#
# Indices 1 2 3 4 5 6 
#
# 1 0.013498 -0.000082 -0.002942 0.000000 -0.004514 0.000000
# 2 -0.000082 0.019557 -0.003364 0.000000 -0.006591 0.000000
# 3 -0.002942 -0.003364 0.018249 0.000000 -0.011187 0.000000
# 4 0.000000 0.000000 0.000000 0.152597 0.000000 -0.016371
# 5 -0.004514 -0.006591 -0.011187 0.000000 0.048846 0.000000
# 6 0.000000 0.000000 0.000000 -0.016371 0.000000 -0.124877
#
#
# Mechanical properties :
#
#
# Convention : Reuss Voigt Hill
#
# Bulk Modulus (GPa) = 25.95573 36.59455 31.27514
# Shear Modulus (GPa) = 32.57567 16.51024 24.54295
#
# Velocity S-wave (km/s) = 3.99767 2.84602 3.46996
# Velocity P-wave (km/s) = 5.83457 5.36216 5.60335
#
# Compressibility (1/GPa) = 0.03852714
#
# Stress axis : x y z
#
# Youngs Moduli (GPa) = 74.08715 51.13316 54.79776
#
# Poissons Ratio (x) = 0.00418 0.16121
# Poissons Ratio (y) = 0.00606 0.18436
# Poissons Ratio (z) = 0.21796 0.17203
#
# Static dielectric constant tensor:
#      x y z
#    x 1.770340 0.000000 0.047150 
#    y 0.000000 1.757410 0.000000 
#    z 0.047150 0.000000 1.798340 
# 
# From -- ./inp_files/3764.got.cif
#   From: 2010.05.17/outbox.cif.g08.bks.cpg/sg6_2_cif.got.tgz:3764.got - 2010.06.03 19:42:10.
