data_PCOD9131395
_publ_section_title
;
Structure prediction by ZEFSAII (Michael W. Deem and Ramdas Pophale) SiO2 
 PCOD9131395
Probable space group: P C
;
_chemical_formula_sum "Si O2"
_cell_formula_units_Z 16
_cell_length_a 5.492354
_cell_length_b 22.489880
_cell_length_c 4.988386
_cell_angle_alpha 90.000000
_cell_angle_beta 84.807544
_cell_angle_gamma 90.000000
_cell_volume 613.648730
_symmetry_space_group_name_H-M "P C"
_symmetry_group_IT_number 7
_symmetry_cell_setting 'monoclinic'
loop_
_space_group_symop_operation_xyz
x,y,z
x,-y,1/2+z
loop_
_atom_site_type_symbol
_atom_site_label
_atom_site_fract_x
_atom_site_fract_y
_atom_site_fract_z
Si Si1 0.817800 0.399025 0.324550
Si Si2 0.596605 0.279071 0.419968
Si Si3 0.425226 0.533298 0.096923
Si Si4 0.401207 0.891939 0.552974
Si Si5 0.110821 0.369209 0.805493
Si Si6 0.892153 0.750652 0.401471
Si Si7 0.907168 0.038676 0.946035
Si Si8 0.267782 0.180080 0.586731
O O1 0.613184 0.346576 0.318403
O O2 0.705356 0.456153 0.480692
O O3 0.012309 0.372316 0.512295
O O4 0.932590 0.404668 0.022935
O O5 0.699318 0.276279 0.710924
O O6 0.347164 0.243107 0.452100
O O7 0.772905 0.242172 0.202273
O O8 0.332074 0.483043 0.309872
O O9 0.356647 0.593589 0.258299
O O10 0.662439 0.924362 0.542942
O O11 0.427332 0.840613 0.325279
O O12 0.171546 0.931610 0.474464
O O13 0.311051 0.866133 0.845687
O O14 0.096667 0.301707 0.907666
O O15 0.007793 0.808070 0.251061
O O16 0.895868 0.019158 0.638362
#
# Coordination Sequence:
#
# PCOD9131395 Si02
#       8
#     2   2   2   2   2   2   2   2
#     4  10  22  41  62  87 120 167 219 263 327 411
#     4  10  22  40  65  91 131 178 216 266 337 419
#     4  12  25  38  59  88 119 160 211 280 342 392
#     4  12  28  43  77 110 143 191 232 306 350 410
#     4  10  22  41  62  87 120 167 219 263 327 411
#     4  10  22  40  65  91 131 178 216 266 337 419
#     4  12  26  52  76 104 144 192 250 290 346 412
#     4  12  25  41  66 106 146 173 221 286 350 412
#
# _framework density 26.073544999999999
#
# number of rings (size 3 to 8) (size 9 to 14) (size 15 to 20)
#    0.000    1.000    0.000    6.000    5.250    3.000 
#    0.000   10.000    0.000    0.000    0.000    0.000 
#    0.000    0.000    0.000    0.000    0.000    0.000 
#
# Total GULP energy -89476.534644 kJ/mol
# GULP energy per Si atom -5592.283415 kJ/mol
# Density = 2.601420 g / cm^3
# Si number density = 26.073545 Si / 1000 Ang^3
#
#
#
# Elastic Constant Matrix: (Units=GPa)
#
#
# Indices 1 2 3 4 5 6 
#
# 1 77.3276 24.7403 30.4670 0.0000 -20.8462 0.0000
# 2 24.7403 45.7121 32.6728 0.0000 -18.2507 0.0000
# 3 30.4670 32.6728 157.2125 0.0000 -8.9113 0.0000
# 4 0.0000 0.0000 0.0000 58.2779 0.0000 -9.3636
# 5 -20.8462 -18.2507 -8.9113 0.0000 43.0585 0.0000
# 6 0.0000 0.0000 0.0000 -9.3636 0.0000 33.5225
#
#
#
# Elastic Compliance Matrix: (Units=1/GPa)
#
#
# Indices 1 2 3 4 5 6 
#
# 1 0.016922 -0.005731 -0.001783 0.000000 0.005395 0.000000
# 2 -0.005731 0.032613 -0.005101 0.000000 0.009993 0.000000
# 3 -0.001783 -0.005101 0.007685 0.000000 -0.001435 0.000000
# 4 0.000000 0.000000 0.000000 0.017965 0.000000 0.005018
# 5 0.005395 0.009993 -0.001435 0.000000 0.029775 0.000000
# 6 0.000000 0.000000 0.000000 0.005018 0.000000 0.031232
#
#
# Mechanical properties :
#
#
# Convention : Reuss Voigt Hill
#
# Bulk Modulus (GPa) = 31.25752 50.66805 40.96279
# Shear Modulus (GPa) = 29.05531 39.79658 34.42594
#
# Velocity S-wave (km/s) = 3.34182 3.91105 3.63759
# Velocity P-wave (km/s) = 5.18697 6.31427 5.77818
#
# Compressibility (1/GPa) = 0.03199230
#
# Stress axis : x y z
#
# Youngs Moduli (GPa) = 59.09421 30.66230 130.12240
#
# Poissons Ratio (x) = 0.17571 0.23197
# Poissons Ratio (y) = 0.33864 0.66374
# Poissons Ratio (z) = 0.10535 0.15640
#
# Static dielectric constant tensor:
#      x y z
#    x 2.098440 0.000000 -0.012380 
#    y 0.000000 2.174600 0.000000 
#    z -0.012380 0.000000 1.944630 
# 
# From -- ./inp_files/416.got.cif
#   From: 2010.05.17/outbox.cif.g08.bks.cpg/sg7_cif.got.tgz:416.got - 2010.06.03 19:44:50.
