data_PCOD9131902
_publ_section_title
;
Structure prediction by ZEFSAII (Michael W. Deem and Ramdas Pophale) SiO2 
 PCOD9131902
Probable space group: C M
;
_chemical_formula_sum "Si O2"
_cell_formula_units_Z 32
_cell_length_a 14.571042
_cell_length_b 8.491511
_cell_length_c 20.702696
_cell_angle_alpha 90.000000
_cell_angle_beta 135.260393
_cell_angle_gamma 90.000000
_cell_volume 1803.037467
_symmetry_space_group_name_H-M "C M"
_symmetry_group_IT_number 8
_symmetry_cell_setting 'monoclinic'
loop_
_space_group_symop_operation_xyz
x,y,z
x,-y,z
1/2+x,1/2+y,z
1/2+x,1/2-y,z
loop_
_atom_site_type_symbol
_atom_site_label
_atom_site_fract_x
_atom_site_fract_y
_atom_site_fract_z
Si Si1 0.231750 0.188443 0.262240
Si Si2 0.443029 0.310573 0.765097
Si Si3 0.229240 0.808497 0.408009
Si Si4 0.441317 0.186781 0.118641
Si Si5 0.232616 0.691304 0.764529
Si Si6 0.931090 0.811482 0.255751
Si Si7 0.233906 0.689046 0.912653
Si Si8 0.934973 0.308941 0.617766
O O1 0.261936 0.240845 0.351042
O O2 0.329553 0.260022 0.259177
O O3 0.082099 0.236367 0.174957
O O4 0.241604 0.000000 0.264723
O O5 0.448665 0.500000 0.769051
O O6 0.337069 0.254915 0.764367
O O7 0.586259 0.243888 0.851943
O O8 0.406277 0.254604 0.674836
O O9 0.331696 0.754338 0.512744
O O10 0.079699 0.761558 0.346882
O O11 0.232237 0.000000 0.409924
O O12 0.400767 0.239996 0.170388
O O13 0.455555 0.000000 0.124330
O O14 0.335110 0.240818 0.013734
O O15 0.234114 0.500000 0.764385
O O16 0.264104 0.739113 0.853792
O O17 0.083613 0.739114 0.675647
O O18 0.930469 0.000000 0.249248
O O19 0.239161 0.500000 0.918112
O O20 0.932216 0.500000 0.618933
#
# Coordination Sequence:
#
# PCOD9131902 Si02
#       8
#     4   4   4   4   4   4   4   4
#     4  10  20  36  56  80 108 142 180 223 270 321
#     4  10  19  33  51  77 106 134 173 222 265 312
#     4   8  17  33  54  76 104 139 178 219 264 318
#     4  11  22  37  56  80 108 140 176 222 272 324
#     4   8  17  32  52  73 100 135 170 207 256 312
#     4  10  20  36  55  79 109 143 181 224 268 319
#     4  10  20  37  56  75 101 138 176 214 263 324
#     4   9  17  34  54  74 102 141 178 213 262 318
#
# _framework density 17.747828999999999
#
# number of rings (size 3 to 8) (size 9 to 14) (size 15 to 20)
#    0.000    2.500    0.000    4.125    0.000    2.000 
#    0.000   15.000    0.000    0.000    0.000    0.000 
#    0.000    0.000    0.000    0.000    0.000    0.000 
#
# Total GULP energy -89263.307870 kJ/mol
# GULP energy per Si atom -5578.956742 kJ/mol
# Density = 1.770743 g / cm^3
# Si number density = 17.747829 Si / 1000 Ang^3
#
#
#
# Elastic Constant Matrix: (Units=GPa)
#
#
# Indices 1 2 3 4 5 6 
#
# 1 140.2617 -6.3742 56.5363 0.0000 -6.1440 0.0000
# 2 -6.3742 24.4802 -0.2916 0.0000 -4.1147 0.0000
# 3 56.5363 -0.2916 149.9372 0.0000 -12.1843 0.0000
# 4 0.0000 0.0000 0.0000 21.1917 0.0000 -1.1399
# 5 -6.1440 -4.1147 -12.1843 0.0000 5.7199 0.0000
# 6 0.0000 0.0000 0.0000 -1.1399 0.0000 26.3076
#
#
#
# Elastic Compliance Matrix: (Units=1/GPa)
#
#
# Indices 1 2 3 4 5 6 
#
# 1 0.008647 0.003159 -0.002799 0.000000 0.005597 0.000000
# 2 0.003159 0.049096 0.002479 0.000000 0.043992 0.000000
# 3 -0.002799 0.002479 0.009228 0.000000 0.018433 0.000000
# 4 0.000000 0.000000 0.000000 0.047298 0.000000 0.002049
# 5 0.005597 0.043992 0.018433 0.000000 0.251752 0.000000
# 6 0.000000 0.000000 0.000000 0.002049 0.000000 0.038101
#
#
# Mechanical properties :
#
#
# Convention : Reuss Voigt Hill
#
# Bulk Modulus (GPa) = 13.76514 46.04670 29.90592
# Shear Modulus (GPa) = 11.82987 28.29774 20.06380
#
# Velocity S-wave (km/s) = 2.58457 3.99737 3.36593
# Velocity P-wave (km/s) = 4.08405 6.87798 5.65624
#
# Compressibility (1/GPa) = 0.07264726
#
# Stress axis : x y z
#
# Youngs Moduli (GPa) = 115.65210 20.36846 108.36868
#
# Poissons Ratio (x) = -0.06434 0.30337
# Poissons Ratio (y) = -0.36532 -0.26868
# Poissons Ratio (z) = 0.32376 -0.05050
#
# Static dielectric constant tensor:
#      x y z
#    x 1.586490 0.000000 -0.000910 
#    y 0.000000 1.602920 0.000000 
#    z -0.000910 0.000000 1.587530 
# 
# From -- ./inp_files/26420.got.cif
#   From: 2010.05.17/outbox.cif.g08.bks.cpg/sg8_14_cif.got.tgz:26420.got - 2010.06.03 19:46:02.
