data_PCOD9131532
_publ_section_title
;
Structure prediction by ZEFSAII (Michael W. Deem and Ramdas Pophale) SiO2 
 PCOD9131532
Probable space group: C M
;
_chemical_formula_sum "Si O2"
_cell_formula_units_Z 32
_cell_length_a 20.691892
_cell_length_b 7.386331
_cell_length_c 20.447232
_cell_angle_alpha 90.000000
_cell_angle_beta 149.397650
_cell_angle_gamma 90.000000
_cell_volume 1590.914095
_symmetry_space_group_name_H-M "C M"
_symmetry_group_IT_number 8
_symmetry_cell_setting 'monoclinic'
loop_
_space_group_symop_operation_xyz
x,y,z
x,-y,z
1/2+x,1/2+y,z
1/2+x,1/2-y,z
loop_
_atom_site_type_symbol
_atom_site_label
_atom_site_fract_x
_atom_site_fract_y
_atom_site_fract_z
Si Si1 0.212220 0.721900 0.132920
Si Si2 0.965799 0.217998 0.097564
Si Si3 0.245555 0.781810 0.383391
Si Si4 0.200218 0.777993 0.630565
Si Si5 0.666380 0.719945 0.454902
Si Si6 0.419131 0.711114 0.417631
Si Si7 0.384368 0.719969 0.166604
Si Si8 0.930849 0.287687 0.919360
O O1 0.209995 0.500000 0.133343
O O2 0.312149 0.785034 0.275125
O O3 0.269472 0.776448 0.112761
O O4 0.070250 0.786784 0.023507
O O5 0.889881 0.279062 0.095977
O O6 0.112319 0.279099 0.234471
O O7 0.968114 0.000000 0.101071
O O8 0.913025 0.272191 0.981618
O O9 0.241092 0.721492 0.454948
O O10 0.362611 0.724971 0.440920
O O11 0.243670 0.000000 0.381872
O O12 0.215829 0.723103 0.568492
O O13 0.313702 0.713815 0.775703
O O14 0.060660 0.716043 0.532130
O O15 0.200362 0.000000 0.632666
O O16 0.667284 0.500000 0.455448
O O17 0.519073 0.773090 0.316362
O O18 0.429313 0.500000 0.408848
O O19 0.383555 0.500000 0.165430
O O20 0.936956 0.500000 0.908725
#
# Coordination Sequence:
#
# PCOD9131532 Si02
#       8
#     4   4   4   4   4   4   4   4
#     4   9  15  25  44  69  90 111 149 194 222 249
#     4   9  17  29  46  68  94 124 150 179 227 276
#     4   9  17  28  46  71  95 117 147 190 230 265
#     4   9  17  29  46  68  93 121 152 186 226 268
#     4   8  13  25  44  66  90 116 148 186 227 265
#     4  10  17  28  48  70  91 118 152 188 225 266
#     4   8  13  24  44  68  89 112 150 192 223 259
#     4  10  19  30  46  70  96 119 148 189 228 264
#
# _framework density 20.114221000000001
#
# number of rings (size 3 to 8) (size 9 to 14) (size 15 to 20)
#    0.000    3.000    2.500    1.500    0.000    0.000 
#    0.000    1.875    0.000    6.000    0.000    0.000 
#    0.000    0.000    0.000    0.000    0.000    0.000 
#
# Total GULP energy -89246.262075 kJ/mol
# GULP energy per Si atom -5577.891380 kJ/mol
# Density = 2.006844 g / cm^3
# Si number density = 20.114221 Si / 1000 Ang^3
#
#
#
# Elastic Constant Matrix: (Units=GPa)
#
#
# Indices 1 2 3 4 5 6 
#
# 1 168.3945 -5.9437 109.4590 0.0000 -9.5355 0.0000
# 2 -5.9437 66.9685 8.7735 0.0000 4.6500 0.0000
# 3 109.4590 8.7735 165.7781 0.0000 -12.8736 0.0000
# 4 0.0000 0.0000 0.0000 -1.6243 0.0000 -4.6667
# 5 -9.5355 4.6500 -12.8736 0.0000 26.8022 0.0000
# 6 0.0000 0.0000 0.0000 -4.6667 0.0000 14.8986
#
#
#
# Elastic Compliance Matrix: (Units=1/GPa)
#
#
# Indices 1 2 3 4 5 6 
#
# 1 0.010633 0.001873 -0.007117 0.000000 0.000040 0.000000
# 2 0.001873 0.015620 -0.002308 0.000000 -0.003152 0.000000
# 3 -0.007117 -0.002308 0.011102 0.000000 0.003201 0.000000
# 4 0.000000 0.000000 0.000000 -0.324042 0.000000 -0.101500
# 5 0.000040 -0.003152 0.003201 0.000000 0.039409 0.000000
# 6 0.000000 0.000000 0.000000 -0.101500 0.000000 0.035327
#
#
# Mechanical properties :
#
#
# Convention : Reuss Voigt Hill
#
# Bulk Modulus (GPa) = 44.94142 69.52432 57.23287
# Shear Modulus (GPa) = -26.39475 27.27213 0.43869
#
# Velocity S-wave (km/s) = -3.62642 3.68620 0.46752
# Velocity P-wave (km/s) = 2.20387 7.26342 5.36723
#
# Compressibility (1/GPa) = 0.02225119
#
# Stress axis : x y z
#
# Youngs Moduli (GPa) = 94.04989 64.02074 90.07580
#
# Poissons Ratio (x) = -0.11993 0.64103
# Poissons Ratio (y) = -0.17618 0.20792
# Poissons Ratio (z) = 0.66931 0.14778
#
# Static dielectric constant tensor:
#      x y z
#    x 1.711860 0.000000 -0.005350 
#    y 0.000000 1.789520 0.000000 
#    z -0.005350 0.000000 1.677050 
# 
# From -- ./inp_files/14834.got.cif
#   From: 2010.05.17/outbox.cif.g08.bks.cpg/sg8_8_cif.got.tgz:14834.got - 2010.06.03 19:46:02.
