data_PCOD9131027
_publ_section_title
;
Structure prediction by ZEFSAII (Michael W. Deem and Ramdas Pophale) SiO2 
 PCOD9131027
Probable space group: P M
;
_chemical_formula_sum "Si O2"
_cell_formula_units_Z 16
_cell_length_a 5.256273
_cell_length_b 12.464858
_cell_length_c 11.433659
_cell_angle_alpha 90.000000
_cell_angle_beta 93.765859
_cell_angle_gamma 90.000000
_cell_volume 747.500924
_symmetry_space_group_name_H-M "P M"
_symmetry_group_IT_number 6
_symmetry_cell_setting 'monoclinic'
loop_
_space_group_symop_operation_xyz
x,y,z
x,-y,z
loop_
_atom_site_type_symbol
_atom_site_label
_atom_site_fract_x
_atom_site_fract_y
_atom_site_fract_z
Si Si1 0.545410 0.880301 0.360930
Si Si2 0.718993 0.736933 0.834078
Si Si3 0.788772 0.375341 0.595020
Si Si4 0.913851 0.717943 0.263472
Si Si5 0.266651 0.710430 0.474147
Si Si6 0.226721 0.878979 0.855485
Si Si7 0.579931 0.378091 0.068923
Si Si8 0.257114 0.173927 0.118203
O O1 0.756249 0.788328 0.351310
O O2 0.350899 0.833511 0.451667
O O3 0.411483 0.877864 0.229354
O O4 0.634874 0.000000 0.389599
O O5 0.741472 0.655677 0.727619
O O6 0.461138 0.807549 0.815961
O O7 0.960960 0.816069 0.835023
O O8 0.707564 0.671398 0.955729
O O9 0.848890 0.500000 0.581491
O O10 0.522093 0.349632 0.521814
O O11 0.035804 0.310728 0.555869
O O12 0.762256 0.629328 0.187845
O O13 0.155807 0.675846 0.343210
O O14 0.982551 0.805490 0.165825
O O15 0.220918 0.000000 0.807614
O O16 0.267586 0.885170 0.997001
O O17 0.498164 0.500000 0.046071
O O18 0.358946 0.293752 0.093659
#
# Coordination Sequence:
#
# PCOD9131027 Si02
#       8
#     2   2   2   2   2   2   2   2
#     4  10  21  40  68  97 136 178 217 269 336 393
#     4  11  24  45  67  98 134 165 231 270 314 405
#     4  12  26  48  73  93 127 182 226 274 327 385
#     4  10  20  41  63  98 139 170 217 275 321 398
#     4  11  24  46  67 100 133 163 233 277 318 396
#     4  11  22  41  68  98 137 174 210 269 333 383
#     4  10  21  38  62  96 136 174 210 272 340 381
#     4   9  20  37  58  98 136 176 220 260 309 413
#
# _framework density 21.404658000000001
#
# number of rings (size 3 to 8) (size 9 to 14) (size 15 to 20)
#    0.000    1.500    2.500    2.250    0.000    4.000 
#    0.000    6.875    0.000    0.000    0.000    0.000 
#    0.000    0.000    0.000    0.000    0.000    0.000 
#
# Total GULP energy -89277.988021 kJ/mol
# GULP energy per Si atom -5579.874251 kJ/mol
# Density = 2.135594 g / cm^3
# Si number density = 21.404658 Si / 1000 Ang^3
#
#
#
# Elastic Constant Matrix: (Units=GPa)
#
#
# Indices 1 2 3 4 5 6 
#
# 1 103.3918 33.6669 28.2222 0.0000 -15.1171 0.0000
# 2 33.6669 110.1837 31.3854 0.0000 1.8720 0.0000
# 3 28.2222 31.3854 76.3675 0.0000 -15.0636 0.0000
# 4 0.0000 0.0000 0.0000 -16.1554 0.0000 -24.2921
# 5 -15.1171 1.8720 -15.0636 0.0000 28.2907 0.0000
# 6 0.0000 0.0000 0.0000 -24.2921 0.0000 -7.7014
#
#
#
# Elastic Compliance Matrix: (Units=1/GPa)
#
#
# Indices 1 2 3 4 5 6 
#
# 1 0.012091 -0.003205 -0.002050 0.000000 0.005581 0.000000
# 2 -0.003205 0.011407 -0.004459 0.000000 -0.004842 0.000000
# 3 -0.002050 -0.004459 0.017349 0.000000 0.008437 0.000000
# 4 0.000000 0.000000 0.000000 0.016538 0.000000 -0.052164
# 5 0.005581 -0.004842 0.008437 0.000000 0.043143 0.000000
# 6 0.000000 0.000000 0.000000 -0.052164 0.000000 0.034692
#
#
# Mechanical properties :
#
#
# Convention : Reuss Voigt Hill
#
# Bulk Modulus (GPa) = 46.68693 52.94357 49.81525
# Shear Modulus (GPa) = 30.90465 13.99801 22.45133
#
# Velocity S-wave (km/s) = 3.80390 2.56006 3.24218
# Velocity P-wave (km/s) = 6.41496 5.79024 6.11059
#
# Compressibility (1/GPa) = 0.02141927
#
# Stress axis : x y z
#
# Youngs Moduli (GPa) = 82.70338 87.66185 57.64054
#
# Poissons Ratio (x) = 0.28099 0.11817
# Poissons Ratio (y) = 0.26510 0.25700
# Poissons Ratio (z) = 0.16956 0.39086
#
# Static dielectric constant tensor:
#      x y z
#    x 1.825390 0.000000 -0.001680 
#    y 0.000000 1.749320 0.000000 
#    z -0.001680 0.000000 1.791060 
# 
# From -- ./inp_files/1673.got.cif
#   From: 2010.05.17/outbox.cif.g08.bks.cpg/sg6_1_cif.got.tgz:1673.got - 2010.06.03 19:42:10.
