data_PCOD9131849
_publ_section_title
;
Structure prediction by ZEFSAII (Michael W. Deem and Ramdas Pophale) SiO2 
 PCOD9131849
Probable space group: C M
;
_chemical_formula_sum "Si O2"
_cell_formula_units_Z 32
_cell_length_a 20.393892
_cell_length_b 8.909790
_cell_length_c 25.325334
_cell_angle_alpha 90.000000
_cell_angle_beta 23.436793
_cell_angle_gamma 90.000000
_cell_volume 1830.285865
_symmetry_space_group_name_H-M "C M"
_symmetry_group_IT_number 8
_symmetry_cell_setting 'monoclinic'
loop_
_space_group_symop_operation_xyz
x,y,z
x,-y,z
1/2+x,1/2+y,z
1/2+x,1/2-y,z
loop_
_atom_site_type_symbol
_atom_site_label
_atom_site_fract_x
_atom_site_fract_y
_atom_site_fract_z
Si Si1 0.538730 0.822115 0.346360
Si Si2 0.752254 0.179288 0.628756
Si Si3 0.481501 0.321263 0.555995
Si Si4 0.967088 0.820629 0.291677
Si Si5 0.456335 0.678677 0.790145
Si Si6 0.079754 0.320534 0.589683
Si Si7 0.264580 0.321248 0.275783
Si Si8 0.605775 0.319932 0.073328
O O1 0.385539 0.739500 0.487854
O O2 0.553546 0.761642 0.276450
O O3 0.696303 0.794244 0.267469
O O4 0.506476 0.000000 0.370041
O O5 0.829501 0.213490 0.629048
O O6 0.579908 0.256175 0.743066
O O7 0.738279 0.000000 0.633529
O O8 0.488518 0.500000 0.558333
O O9 0.479667 0.238737 0.613182
O O10 0.643668 0.265923 0.404674
O O11 0.772518 0.783010 0.437380
O O12 0.043265 0.783916 0.178627
O O13 0.980248 0.000000 0.289296
O O14 0.465249 0.500000 0.782753
O O15 0.519177 0.744584 0.688032
O O16 0.272013 0.734981 0.936744
O O17 0.066091 0.500000 0.604231
O O18 0.246308 0.500000 0.300668
O O19 0.453498 0.282367 0.147135
O O20 0.633665 0.500000 0.049898
#
# Coordination Sequence:
#
# PCOD9131849 Si02
#       8
#     4   4   4   4   4   4   4   4
#     4  10  19  31  55  87 116 144 183 240 283 324
#     4  10  20  36  56  81 115 154 189 228 285 342
#     4  10  20  33  56  88 117 144 186 240 284 328
#     4  10  20  35  58  84 112 148 191 231 278 340
#     4  12  25  39  57  85 116 150 193 239 283 336
#     4  11  21  37  60  85 115 151 190 233 282 340
#     4   9  18  35  56  81 113 151 191 226 279 341
#     4  10  21  40  60  79 110 154 193 229 280 345
#
# _framework density 17.483608
#
# number of rings (size 3 to 8) (size 9 to 14) (size 15 to 20)
#    0.000    1.750    2.500    2.625    0.000    3.500 
#    0.000    1.250    0.000    3.000    0.000    0.000 
#    0.000    0.000    0.000    0.000    0.000    0.000 
#
# Total GULP energy -89350.856276 kJ/mol
# GULP energy per Si atom -5584.428517 kJ/mol
# Density = 1.744381 g / cm^3
# Si number density = 17.483608 Si / 1000 Ang^3
#
#
#
# Elastic Constant Matrix: (Units=GPa)
#
#
# Indices 1 2 3 4 5 6 
#
# 1 124.3032 66.0902 60.1742 -0.0012 -17.0487 0.0000
# 2 66.0902 71.7323 58.1548 -0.0011 -8.6231 -0.0001
# 3 60.1742 58.1548 106.2202 -0.0017 -15.5636 0.0000
# 4 -0.0012 -0.0011 -0.0017 23.9335 0.0000 1.4039
# 5 -17.0487 -8.6231 -15.5636 0.0000 26.4168 -0.0001
# 6 0.0000 -0.0001 0.0000 1.4039 -0.0001 33.0497
#
#
#
# Elastic Compliance Matrix: (Units=1/GPa)
#
#
# Indices 1 2 3 4 5 6 
#
# 1 0.016687 -0.013850 -0.001045 0.000000 0.005633 0.000000
# 2 -0.013850 0.036563 -0.012841 0.000000 -0.004569 0.000000
# 3 -0.001045 -0.012841 0.017866 0.000001 0.005660 0.000000
# 4 0.000000 0.000000 0.000001 0.041887 0.000001 -0.001779
# 5 0.005633 -0.004569 0.005660 0.000001 0.043333 0.000000
# 6 0.000000 0.000000 0.000000 -0.001779 0.000000 0.030333
#
#
# Mechanical properties :
#
#
# Convention : Reuss Voigt Hill
#
# Bulk Modulus (GPa) = 63.92549 74.56604 69.24576
# Shear Modulus (GPa) = 20.21367 24.53576 22.37472
#
# Velocity S-wave (km/s) = 3.40391 3.75021 3.58125
# Velocity P-wave (km/s) = 7.21743 7.84180 7.53608
#
# Compressibility (1/GPa) = 0.01564321
#
# Stress axis : x y z
#
# Youngs Moduli (GPa) = 59.92546 27.35006 55.97152
#
# Poissons Ratio (x) = 0.37881 0.05850
# Poissons Ratio (y) = 0.82999 0.71874
# Poissons Ratio (z) = 0.06263 0.35121
#
# Static dielectric constant tensor:
#      x y z
#    x 1.606430 0.000000 -0.017590 
#    y 0.000000 1.582530 0.000000 
#    z -0.017590 0.000000 1.562730 
# 
# From -- ./inp_files/24318.got.cif
#   From: 2010.05.17/outbox.cif.g08.bks.cpg/sg8_13_cif.got.tgz:24318.got - 2010.06.03 19:46:02.
