data_PCOD9131263
_publ_section_title
;
Structure prediction by ZEFSAII (Michael W. Deem and Ramdas Pophale) SiO2 
 PCOD9131263
Probable space group: P C
;
_chemical_formula_sum "Si O2"
_cell_formula_units_Z 14
_cell_length_a 8.747394
_cell_length_b 16.389335
_cell_length_c 5.259414
_cell_angle_alpha 90.000000
_cell_angle_beta 87.532058
_cell_angle_gamma 90.000000
_cell_volume 753.311108
_symmetry_space_group_name_H-M "P C"
_symmetry_group_IT_number 7
_symmetry_cell_setting 'monoclinic'
loop_
_space_group_symop_operation_xyz
x,y,z
x,-y,1/2+z
loop_
_atom_site_type_symbol
_atom_site_label
_atom_site_fract_x
_atom_site_fract_y
_atom_site_fract_z
Si Si1 0.067990 0.032441 0.360710
Si Si2 0.718590 0.966948 0.472675
Si Si3 0.059370 0.223330 0.252768
Si Si4 0.558520 0.715915 0.112342
Si Si5 0.387996 0.444921 0.662925
Si Si6 0.719086 0.777047 0.599226
Si Si7 0.218864 0.284468 0.739995
O O1 0.067317 0.125249 0.270924
O O2 0.140648 0.021250 0.632181
O O3 0.894087 0.998472 0.416986
O O4 0.714573 0.874903 0.569743
O O5 0.647871 0.022442 0.699188
O O6 0.105323 0.255180 0.527596
O O7 0.888937 0.245490 0.177292
O O8 0.167142 0.258961 0.024084
O O9 0.671803 0.742776 0.327957
O O10 0.388739 0.751333 0.178037
O O11 0.529868 0.618551 0.135366
O O12 0.610632 0.744165 0.830987
O O13 0.387773 0.502576 0.907482
O O14 0.246898 0.381500 0.704375
#
# Coordination Sequence:
#
# PCOD9131263 Si02
#       7
#     2   2   2   2   2   2   2
#     4  10  19  32  52  86 112 162 217 244 279 346
#     4  10  19  32  52  86 112 162 217 244 279 346
#     4  12  21  36  64  91 127 158 207 265 294 356
#     4  10  24  39  61  96 120 159 201 248 316 368
#     4  10  20  42  72  88 112 164 212 232 286 408
#     4  12  21  36  64  91 127 158 207 265 294 356
#     4  10  24  39  61  96 120 159 201 248 316 368
#
# _framework density 18.584619
#
# number of rings (size 3 to 8) (size 9 to 14) (size 15 to 20)
#    0.857    0.571    2.857    5.143    4.000    0.000 
#    0.000    0.000    0.000   34.286    0.000    0.000 
#    0.000    0.000    0.000    0.000    0.000    0.000 
#
# Total GULP energy -78002.313287 kJ/mol
# GULP energy per Si atom -5571.593806 kJ/mol
# Density = 1.854232 g / cm^3
# Si number density = 18.584619 Si / 1000 Ang^3
#
#
#
# Elastic Constant Matrix: (Units=GPa)
#
#
# Indices 1 2 3 4 5 6 
#
# 1 22.3757 6.1750 -13.3037 0.0000 3.1880 0.0000
# 2 6.1750 56.4367 -10.4192 0.0000 1.5063 0.0000
# 3 -13.3037 -10.4192 90.0287 0.0000 2.4177 0.0000
# 4 0.0000 0.0000 0.0000 55.5289 0.0000 2.8422
# 5 3.1880 1.5063 2.4177 0.0000 33.4047 0.0000
# 6 0.0000 0.0000 0.0000 2.8422 0.0000 26.4641
#
#
#
# Elastic Compliance Matrix: (Units=1/GPa)
#
#
# Indices 1 2 3 4 5 6 
#
# 1 0.050828 -0.004098 0.007176 0.000000 -0.005185 0.000000
# 2 -0.004098 0.018468 0.001547 0.000000 -0.000554 0.000000
# 3 0.007176 0.001547 0.012391 0.000000 -0.001651 0.000000
# 4 0.000000 0.000000 0.000000 0.018108 0.000000 -0.001945
# 5 -0.005185 -0.000554 -0.001651 0.000000 0.030575 0.000000
# 6 0.000000 0.000000 0.000000 -0.001945 0.000000 0.037996
#
#
# Mechanical properties :
#
#
# Convention : Reuss Voigt Hill
#
# Bulk Modulus (GPa) = 10.99683 14.86058 12.92871
# Shear Modulus (GPa) = 26.39510 35.50546 30.95028
#
# Velocity S-wave (km/s) = 3.77273 4.37564 4.08532
# Velocity P-wave (km/s) = 4.99079 5.79153 5.40601
#
# Compressibility (1/GPa) = 0.09093528
#
# Stress axis : x y z
#
# Youngs Moduli (GPa) = 19.67434 54.14871 80.70180
#
# Poissons Ratio (x) = 0.22191 -0.57911
# Poissons Ratio (y) = 0.08063 -0.12481
# Poissons Ratio (z) = -0.14118 -0.08375
#
# Static dielectric constant tensor:
#      x y z
#    x 1.926820 0.000000 0.213990 
#    y 0.000000 1.646960 0.000000 
#    z 0.213990 0.000000 1.827580 
# 
# From -- ./inp_files/717.got.cif
#   From: 2010.05.17/outbox.cif.g08.bks.cpg/sg7_cif.got.tgz:717.got - 2010.06.03 19:44:50.
