data_PCOD9131512
_publ_section_title
;
Structure prediction by ZEFSAII (Michael W. Deem and Ramdas Pophale) SiO2 
 PCOD9131512
Probable space group: C M
;
_chemical_formula_sum "Si O2"
_cell_formula_units_Z 24
_cell_length_a 14.097587
_cell_length_b 10.822567
_cell_length_c 9.445054
_cell_angle_alpha 90.000000
_cell_angle_beta 47.689028
_cell_angle_gamma 90.000000
_cell_volume 1065.660781
_symmetry_space_group_name_H-M "C M"
_symmetry_group_IT_number 8
_symmetry_cell_setting 'monoclinic'
loop_
_space_group_symop_operation_xyz
x,y,z
x,-y,z
1/2+x,1/2+y,z
1/2+x,1/2-y,z
loop_
_atom_site_type_symbol
_atom_site_label
_atom_site_fract_x
_atom_site_fract_y
_atom_site_fract_z
Si Si1 0.760890 0.234357 0.340810
Si Si2 0.992167 0.000000 0.368513
Si Si3 0.409192 0.000000 0.913637
Si Si4 0.543411 0.725892 0.098502
Si Si5 0.309142 0.860234 0.752978
Si Si6 0.553784 0.141818 0.349544
Si Si7 0.708110 0.000000 0.594329
Si Si8 0.712605 0.500000 0.371543
O O1 0.672879 0.214668 0.292909
O O2 0.724565 0.123542 0.482472
O O3 0.731594 0.370297 0.431749
O O4 0.910179 0.223744 0.150631
O O5 0.030327 0.884444 0.228433
O O6 0.078165 0.000000 0.422118
O O7 0.839714 0.000000 0.552942
O O8 0.367446 0.114429 0.852134
O O9 0.560733 0.000000 0.794438
O O10 0.321478 0.000000 0.139356
O O11 0.548859 0.848038 0.187381
O O12 0.676121 0.710225 0.885680
O O13 0.422340 0.805303 0.546013
O O14 0.281771 0.000000 0.728352
O O15 0.562107 0.000000 0.389208
#
# Coordination Sequence:
#
# PCOD9131512 Si02
#       8
#     4   2   2   4   4   4   2   2
#     4  11  22  38  59  89 118 154 197 247 294 357
#     4  10  18  34  62  82 103 155 201 232 279 350
#     4  10  16  36  61  86 115 153 205 238 287 356
#     4  11  21  37  61  85 119 149 200 242 292 346
#     4   9  17  35  60  87 108 155 199 237 280 365
#     4  11  21  38  63  85 115 160 195 238 301 350
#     4  10  20  38  63  85 112 153 202 245 271 364
#     4  12  22  38  60  87 118 161 190 249 315 336
#
# _framework density 22.521238
#
# number of rings (size 3 to 8) (size 9 to 14) (size 15 to 20)
#    0.500    1.000    6.667    0.000    1.167    0.000 
#    6.000    0.000    3.667    1.000    0.000    0.000 
#    0.000    0.000    0.000    0.000    0.000    0.000 
#
# Total GULP energy -67032.558762 kJ/mol
# GULP energy per Si atom -5586.046564 kJ/mol
# Density = 2.246998 g / cm^3
# Si number density = 22.521238 Si / 1000 Ang^3
#
#
#
# Elastic Constant Matrix: (Units=GPa)
#
#
# Indices 1 2 3 4 5 6 
#
# 1 94.4720 22.5866 71.9477 0.0000 -51.6911 0.0000
# 2 22.5866 106.7131 20.9986 0.0000 -7.1666 0.0000
# 3 71.9477 20.9986 124.8367 0.0000 -51.1814 0.0000
# 4 0.0000 0.0000 0.0000 11.6624 0.0000 -2.6935
# 5 -51.6911 -7.1666 -51.1814 0.0000 47.8437 0.0000
# 6 0.0000 0.0000 0.0000 -2.6935 0.0000 24.0664
#
#
#
# Elastic Compliance Matrix: (Units=1/GPa)
#
#
# Indices 1 2 3 4 5 6 
#
# 1 0.029989 -0.003396 -0.006479 0.000000 0.024961 0.000000
# 2 -0.003396 0.010084 -0.001111 0.000000 -0.003348 0.000000
# 3 -0.006479 -0.001111 0.016019 0.000000 0.009971 0.000000
# 4 0.000000 0.000000 0.000000 0.088021 0.000000 0.009851
# 5 0.024961 -0.003348 0.009971 0.000000 0.058034 0.000000
# 6 0.000000 0.000000 0.000000 0.009851 0.000000 0.042654
#
#
# Mechanical properties :
#
#
# Convention : Reuss Voigt Hill
#
# Bulk Modulus (GPa) = 29.30906 61.89863 45.60385
# Shear Modulus (GPa) = 17.97617 30.74709 24.36163
#
# Velocity S-wave (km/s) = 2.82829 3.69894 3.29252
# Velocity P-wave (km/s) = 4.86907 6.76661 5.89470
#
# Compressibility (1/GPa) = 0.03411914
#
# Stress axis : x y z
#
# Youngs Moduli (GPa) = 33.34604 99.17090 62.42589
#
# Poissons Ratio (x) = 0.33680 0.40443
# Poissons Ratio (y) = 0.11325 0.06938
# Poissons Ratio (z) = 0.21603 0.11021
#
# Static dielectric constant tensor:
#      x y z
#    x 1.815510 0.000000 -0.010680 
#    y 0.000000 1.892970 0.000000 
#    z -0.010680 0.000000 1.785320 
# 
# From -- ./inp_files/21800.got.cif
#   From: 2010.05.17/outbox.cif.g08.bks.cpg/sg8_11_cif.got.tgz:21800.got - 2010.06.03 19:46:02.
