data_PCOD9131229
_publ_section_title
;
Structure prediction by ZEFSAII (Michael W. Deem and Ramdas Pophale) SiO2 
 PCOD9131229
Probable space group: P C
;
_chemical_formula_sum "Si O2"
_cell_formula_units_Z 16
_cell_length_a 7.886998
_cell_length_b 20.785747
_cell_length_c 5.256290
_cell_angle_alpha 90.000000
_cell_angle_beta 60.734501
_cell_angle_gamma 90.000000
_cell_volume 751.716911
_symmetry_space_group_name_H-M "P C"
_symmetry_group_IT_number 7
_symmetry_cell_setting 'monoclinic'
loop_
_space_group_symop_operation_xyz
x,y,z
x,-y,1/2+z
loop_
_atom_site_type_symbol
_atom_site_label
_atom_site_fract_x
_atom_site_fract_y
_atom_site_fract_z
Si Si1 0.541750 0.178311 0.140040
Si Si2 0.405632 0.460680 0.465108
Si Si3 0.163795 0.738637 0.797303
Si Si4 0.919270 0.977977 0.811435
Si Si5 0.484962 0.033024 0.154906
Si Si6 0.141387 0.344124 0.809746
Si Si7 0.869975 0.539852 0.627262
Si Si8 0.801297 0.829498 0.938893
O O1 0.364019 0.226569 0.228146
O O2 0.454749 0.106790 0.246689
O O3 0.677138 0.193116 0.284539
O O4 0.669857 0.174612 0.788934
O O5 0.351446 0.509439 0.732931
O O6 0.309078 0.392816 0.595385
O O7 0.637775 0.453752 0.297192
O O8 0.196706 0.695009 0.522591
O O9 0.994902 0.788373 0.842538
O O10 0.096061 0.699749 0.098161
O O11 0.862464 0.903612 0.846437
O O12 0.027366 0.003819 0.487538
O O13 0.720534 0.020782 0.971137
O O14 0.418535 0.985124 0.423464
O O15 0.965881 0.391251 0.015587
O O16 0.925535 0.506042 0.850529
#
# Coordination Sequence:
#
# PCOD9131229 Si02
#       8
#     2   2   2   2   2   2   2   2
#     4  12  23  43  68  87 132 170 215 285 331 383
#     4  10  21  39  69 104 128 162 215 270 324 374
#     4  12  30  43  60 101 128 186 240 246 310 424
#     4  10  16  32  62  92 112 154 207 265 352 400
#     4  10  16  32  62  92 112 154 207 265 352 400
#     4  12  24  45  64  89 146 176 214 266 316 382
#     4  10  21  39  69 104 128 162 215 270 324 374
#     4  12  23  43  68  87 132 170 215 285 331 383
#
# _framework density 21.284607999999999
#
# number of rings (size 3 to 8) (size 9 to 14) (size 15 to 20)
#    0.000    1.000    5.000    3.750    0.000    3.000 
#    0.000    1.250    0.000    0.000    0.000    0.000 
#    0.000    0.000    0.000    0.000    0.000    0.000 
#
# Total GULP energy -89499.657849 kJ/mol
# GULP energy per Si atom -5593.728616 kJ/mol
# Density = 2.123616 g / cm^3
# Si number density = 21.284608 Si / 1000 Ang^3
#
#
#
# Elastic Constant Matrix: (Units=GPa)
#
#
# Indices 1 2 3 4 5 6 
#
# 1 136.1171 48.2463 52.7339 0.0000 18.6712 0.0000
# 2 48.2463 106.0781 34.5434 0.0000 3.2732 0.0000
# 3 52.7339 34.5434 110.3044 0.0000 27.5354 0.0000
# 4 0.0000 0.0000 0.0000 -49.1511 0.0000 30.8955
# 5 18.6712 3.2732 27.5354 0.0000 39.0391 0.0000
# 6 0.0000 0.0000 0.0000 30.8955 0.0000 23.9488
#
#
#
# Elastic Compliance Matrix: (Units=1/GPa)
#
#
# Indices 1 2 3 4 5 6 
#
# 1 0.010135 -0.003506 -0.003169 0.000000 -0.002318 0.000000
# 2 -0.003506 0.011810 -0.002662 0.000000 0.002565 0.000000
# 3 -0.003169 -0.002662 0.013327 0.000000 -0.007661 0.000000
# 4 0.000000 0.000000 0.000000 -0.011235 0.000000 0.014494
# 5 -0.002318 0.002565 -0.007661 0.000000 0.031913 0.000000
# 6 0.000000 0.000000 0.000000 0.014494 0.000000 0.023058
#
#
# Mechanical properties :
#
#
# Convention : Reuss Voigt Hill
#
# Bulk Modulus (GPa) = 60.25086 69.28298 64.76692
# Shear Modulus (GPa) = 48.44334 17.23243 32.83788
#
# Velocity S-wave (km/s) = 4.77590 2.84847 3.93211
# Velocity P-wave (km/s) = 7.66688 6.59089 7.14915
#
# Compressibility (1/GPa) = 0.01659727
#
# Stress axis : x y z
#
# Youngs Moduli (GPa) = 98.66870 84.67744 75.03671
#
# Poissons Ratio (x) = 0.29690 0.23775
# Poissons Ratio (y) = 0.34595 0.19977
# Poissons Ratio (z) = 0.31263 0.22543
#
# Static dielectric constant tensor:
#      x y z
#    x 1.795280 0.000000 0.017460 
#    y 0.000000 1.730510 0.000000 
#    z 0.017460 0.000000 1.808850 
# 
# From -- ./inp_files/913.got.cif
#   From: 2010.05.17/outbox.cif.g08.bks.cpg/sg7_cif.got.tgz:913.got - 2010.06.03 19:44:50.
