data_PCOD9131836
_publ_section_title
;
Structure prediction by ZEFSAII (Michael W. Deem and Ramdas Pophale) SiO2 
 PCOD9131836
Probable space group: C M
;
_chemical_formula_sum "Si O2"
_cell_formula_units_Z 32
_cell_length_a 20.784580
_cell_length_b 7.833761
_cell_length_c 12.624625
_cell_angle_alpha 90.000000
_cell_angle_beta 53.922071
_cell_angle_gamma 90.000000
_cell_volume 1661.337718
_symmetry_space_group_name_H-M "C M"
_symmetry_group_IT_number 8
_symmetry_cell_setting 'monoclinic'
loop_
_space_group_symop_operation_xyz
x,y,z
x,-y,z
1/2+x,1/2+y,z
1/2+x,1/2-y,z
loop_
_atom_site_type_symbol
_atom_site_label
_atom_site_fract_x
_atom_site_fract_y
_atom_site_fract_z
Si Si1 0.049100 0.290902 0.346640
Si Si2 0.627532 0.206641 0.052292
Si Si3 0.110296 0.294667 0.509231
Si Si4 0.870672 0.698447 0.569548
Si Si5 0.583806 0.296656 0.863253
Si Si6 0.806680 0.800010 0.856843
Si Si7 0.726992 0.199625 0.574154
Si Si8 0.965550 0.794100 0.802625
O O1 0.049117 0.500000 0.345777
O O2 0.084562 0.233881 0.200615
O O3 0.101113 0.235576 0.397670
O O4 0.957919 0.236253 0.453845
O O5 0.629544 0.000000 0.052598
O O6 0.583744 0.256502 0.986638
O O7 0.718485 0.272541 0.957041
O O8 0.117240 0.500000 0.501295
O O9 0.182940 0.230337 0.511799
O O10 0.028664 0.252253 0.649928
O O11 0.879182 0.500000 0.590164
O O12 0.834342 0.787016 0.708259
O O13 0.807462 0.714797 0.536110
O O14 0.591090 0.500000 0.842122
O O15 0.660968 0.217291 0.731087
O O16 0.506594 0.237336 0.872164
O O17 0.878606 0.725965 0.857357
O O18 0.800498 0.000000 0.890018
O O19 0.744029 0.000000 0.542354
O O20 0.960551 0.000000 0.809894
#
# Coordination Sequence:
#
# PCOD9131836 Si02
#       8
#     4   4   4   4   4   4   4   4
#     4   9  19  35  53  75 102 138 176 210 254 306
#     4  10  20  35  54  74 103 140 176 210 252 310
#     4   9  17  32  52  74 100 133 173 211 250 304
#     4  11  20  32  53  77 104 134 171 218 257 300
#     4  10  19  32  50  75 107 137 170 210 257 306
#     4  10  19  32  52  77 102 131 173 216 254 301
#     4  10  19  31  51  78 105 132 169 215 260 304
#     4   9  18  31  49  76 105 131 164 214 264 301
#
# _framework density 19.261586999999999
#
# number of rings (size 3 to 8) (size 9 to 14) (size 15 to 20)
#    0.000    2.250    2.500    1.125    0.000    1.000 
#    0.000    3.125    0.000    3.000    0.000    0.000 
#    0.000    0.000    0.000    0.000    0.000    0.000 
#
# Total GULP energy -89261.296663 kJ/mol
# GULP energy per Si atom -5578.831041 kJ/mol
# Density = 1.921775 g / cm^3
# Si number density = 19.261587 Si / 1000 Ang^3
#
#
#
# Elastic Constant Matrix: (Units=GPa)
#
#
# Indices 1 2 3 4 5 6 
#
# 1 153.3579 -2.4464 66.9846 0.0000 18.4799 0.0000
# 2 -2.4464 24.4273 -6.2883 0.0000 -2.2876 0.0000
# 3 66.9846 -6.2883 103.1184 0.0000 15.7781 0.0000
# 4 0.0000 0.0000 0.0000 12.2244 0.0000 -1.5840
# 5 18.4799 -2.2876 15.7781 0.0000 29.0874 0.0000
# 6 0.0000 0.0000 0.0000 -1.5840 0.0000 14.9418
#
#
#
# Elastic Compliance Matrix: (Units=1/GPa)
#
#
# Indices 1 2 3 4 5 6 
#
# 1 0.009334 -0.000797 -0.005665 0.000000 -0.002920 0.000000
# 2 -0.000797 0.041773 0.002710 0.000000 0.002322 0.000000
# 3 -0.005665 0.002710 0.014133 0.000000 -0.003854 0.000000
# 4 0.000000 0.000000 0.000000 0.082943 0.000000 0.008793
# 5 -0.002920 0.002322 -0.003854 0.000000 0.038507 0.000000
# 6 0.000000 0.000000 0.000000 0.008793 0.000000 0.067859
#
#
# Mechanical properties :
#
#
# Convention : Reuss Voigt Hill
#
# Bulk Modulus (GPa) = 17.32052 44.15593 30.73823
# Shear Modulus (GPa) = 17.77471 26.09431 21.93451
#
# Velocity S-wave (km/s) = 3.04107 3.68466 3.37823
# Velocity P-wave (km/s) = 4.61980 6.40909 5.58655
#
# Compressibility (1/GPa) = 0.05773499
#
# Stress axis : x y z
#
# Youngs Moduli (GPa) = 107.13095 23.93894 70.75825
#
# Poissons Ratio (x) = 0.01908 0.40087
# Poissons Ratio (y) = 0.08539 -0.19175
# Poissons Ratio (z) = 0.60693 -0.06487
#
# Static dielectric constant tensor:
#      x y z
#    x 1.710430 0.000000 0.006710 
#    y 0.000000 1.716320 0.000000 
#    z 0.006710 0.000000 1.629910 
# 
# From -- ./inp_files/22938.got.cif
#   From: 2010.05.17/outbox.cif.g08.bks.cpg/sg8_12_cif.got.tgz:22938.got - 2010.06.03 19:46:02.
