data_PCOD9131062
_publ_section_title
;
Structure prediction by ZEFSAII (Michael W. Deem and Ramdas Pophale) SiO2 
 PCOD9131062
Probable space group: P M
;
_chemical_formula_sum "Si O2"
_cell_formula_units_Z 16
_cell_length_a 14.950901
_cell_length_b 8.254127
_cell_length_c 19.894898
_cell_angle_alpha 90.000000
_cell_angle_beta 160.916590
_cell_angle_gamma 90.000000
_cell_volume 802.701301
_symmetry_space_group_name_H-M "P M"
_symmetry_group_IT_number 6
_symmetry_cell_setting 'monoclinic'
loop_
_space_group_symop_operation_xyz
x,y,z
x,-y,z
loop_
_atom_site_type_symbol
_atom_site_label
_atom_site_fract_x
_atom_site_fract_y
_atom_site_fract_z
Si Si1 0.750000 0.305979 0.727700
Si Si2 0.336899 0.810246 0.319768
Si Si3 0.832211 0.801619 0.428654
Si Si4 0.808081 0.198015 0.564158
Si Si5 0.294790 0.808088 0.655650
Si Si6 0.901970 0.308166 0.108568
Si Si7 0.212863 0.804396 0.970681
Si Si8 0.312249 0.694691 0.517050
O O1 0.719877 0.500000 0.697972
O O2 0.560205 0.217631 0.537613
O O3 0.612181 0.260256 0.700656
O O4 0.054985 0.256264 0.924988
O O5 0.507043 0.749200 0.376157
O O6 0.066392 0.727391 0.156413
O O7 0.279994 0.000000 0.271193
O O8 0.873481 0.750723 0.535213
O O9 0.065599 0.742038 0.543876
O O10 0.836926 0.000000 0.431716
O O11 0.526507 0.752177 0.190368
O O12 0.035416 0.249738 0.780023
O O13 0.803177 0.000000 0.562036
O O14 0.256954 0.753000 0.552243
O O15 0.269413 0.000000 0.638755
O O16 0.601115 0.763489 0.894799
O O17 0.878761 0.500000 0.098456
O O18 0.089340 0.247761 0.303767
O O19 0.207459 0.000000 0.968422
O O20 0.302645 0.500000 0.510846
#
# Coordination Sequence:
#
# PCOD9131062 Si02
#       8
#     2   2   2   2   2   2   2   2
#     4   9  17  31  52  79 109 139 171 211 266 326
#     4   9  16  29  53  83 109 135 172 216 263 319
#     4   9  19  34  50  73 103 135 175 219 264 312
#     4   8  15  29  50  76 105 132 161 206 261 313
#     4  11  23  36  55  82 108 140 186 234 271 313
#     4  10  21  38  58  79 110 148 179 218 274 328
#     4   9  17  31  53  77 102 135 170 211 263 314
#     4   9  20  38  57  77 108 148 180 215 270 327
#
# _framework density 19.932694999999999
#
# number of rings (size 3 to 8) (size 9 to 14) (size 15 to 20)
#    0.000    2.750    0.000    3.000    0.000    5.000 
#    0.000    5.000    0.000   12.000    0.000    0.000 
#    0.000    0.000    0.000    0.000    0.000    0.000 
#
# Total GULP energy -89227.911681 kJ/mol
# GULP energy per Si atom -5576.744480 kJ/mol
# Density = 1.988733 g / cm^3
# Si number density = 19.932695 Si / 1000 Ang^3
#
#
#
# Elastic Constant Matrix: (Units=GPa)
#
#
# Indices 1 2 3 4 5 6 
#
# 1 194.0157 14.6682 95.3831 0.0000 28.5223 0.0000
# 2 14.6682 8.1374 2.8834 0.0000 -0.4508 0.0000
# 3 95.3831 2.8834 124.9613 0.0000 20.9594 0.0000
# 4 0.0000 0.0000 0.0000 25.4940 0.0000 14.1473
# 5 28.5223 -0.4508 20.9594 0.0000 34.6660 0.0000
# 6 0.0000 0.0000 0.0000 14.1473 0.0000 37.0220
#
#
#
# Elastic Compliance Matrix: (Units=1/GPa)
#
#
# Indices 1 2 3 4 5 6 
#
# 1 0.010453 -0.016692 -0.006805 0.000000 -0.004703 0.000000
# 2 -0.016692 0.150988 0.007371 0.000000 0.011240 0.000000
# 3 -0.006805 0.007371 0.013434 0.000000 -0.002427 0.000000
# 4 0.000000 0.000000 0.000000 0.049781 0.000000 -0.019023
# 5 -0.004703 0.011240 -0.002427 0.000000 0.034330 0.000000
# 6 0.000000 0.000000 0.000000 -0.019023 0.000000 0.034280
#
#
# Mechanical properties :
#
#
# Convention : Reuss Voigt Hill
#
# Bulk Modulus (GPa) = 7.01140 61.44263 34.22702
# Shear Modulus (GPa) = 13.40276 33.71505 23.55890
#
# Velocity S-wave (km/s) = 2.59588 4.11718 3.44164
# Velocity P-wave (km/s) = 3.53695 7.31393 5.74471
#
# Compressibility (1/GPa) = 0.14262477
#
# Stress axis : x y z
#
# Youngs Moduli (GPa) = 95.66652 6.62305 74.44009
#
# Poissons Ratio (x) = 0.11055 0.50655
# Poissons Ratio (y) = 1.59682 -0.54873
# Poissons Ratio (z) = 0.65099 -0.04882
#
# Static dielectric constant tensor:
#      x y z
#    x 1.725750 0.000000 -0.004990 
#    y 0.000000 1.688480 0.000000 
#    z -0.004990 0.000000 1.720230 
# 
# From -- ./inp_files/4273.got.cif
#   From: 2010.05.17/outbox.cif.g08.bks.cpg/sg6_3_cif.got.tgz:4273.got - 2010.06.03 19:42:10.
