data_PCOD9131292
_publ_section_title
;
Structure prediction by ZEFSAII (Michael W. Deem and Ramdas Pophale) SiO2 
 PCOD9131292
Probable space group: P C
;
_chemical_formula_sum "Si O2"
_cell_formula_units_Z 16
_cell_length_a 8.559670
_cell_length_b 14.546874
_cell_length_c 5.226210
_cell_angle_alpha 90.000000
_cell_angle_beta 87.032453
_cell_angle_gamma 90.000000
_cell_volume 649.876426
_symmetry_space_group_name_H-M "P C"
_symmetry_group_IT_number 7
_symmetry_cell_setting 'monoclinic'
loop_
_space_group_symop_operation_xyz
x,y,z
x,-y,1/2+z
loop_
_atom_site_type_symbol
_atom_site_label
_atom_site_fract_x
_atom_site_fract_y
_atom_site_fract_z
Si Si1 0.341330 0.537138 0.713810
Si Si2 0.338591 0.719489 0.403389
Si Si3 0.631848 0.782762 0.604875
Si Si4 0.839266 0.052990 0.019335
Si Si5 0.078715 0.390093 0.735287
Si Si6 0.132118 0.137103 0.187050
Si Si7 0.922009 0.313674 0.267786
Si Si8 0.428916 0.938532 0.882793
O O1 0.422868 0.483748 0.473339
O O2 0.324477 0.640994 0.625900
O O3 0.172400 0.485813 0.757877
O O4 0.520891 0.740307 0.396294
O O5 0.231783 0.677065 0.190999
O O6 0.252174 0.811449 0.490947
O O7 0.752998 0.852867 0.465527
O O8 0.740018 0.709629 0.741507
O O9 0.526853 0.846126 0.804530
O O10 0.023006 0.071357 0.029174
O O11 0.797428 0.019063 0.306344
O O12 0.964484 0.375611 0.507593
O O13 0.989592 0.357369 0.998908
O O14 0.246148 0.090187 0.380447
O O15 0.014075 0.216124 0.300025
O O16 0.459415 0.011084 0.648346
#
# Coordination Sequence:
#
# PCOD9131292 Si02
#       8
#     2   2   2   2   2   2   2   2
#     4  10  19  36  64  91 119 154 198 242 291 352
#     4   9  20  39  64  94 122 160 202 249 303 357
#     4  10  23  41  63  91 128 160 198 252 309 366
#     4  11  23  40  60  83 116 162 203 248 306 360
#     4  10  20  39  65  90 119 159 206 245 290 360
#     4   9  20  36  59  86 116 155 208 256 294 350
#     4  10  22  39  62  92 122 159 204 252 306 358
#     4  11  23  38  57  85 120 161 205 252 301 355
#
# _framework density 24.620063999999999
#
# number of rings (size 3 to 8) (size 9 to 14) (size 15 to 20)
#    0.000    2.000    0.000    3.750    0.000   10.000 
#    0.000   12.500    0.000   30.000    0.000    0.000 
#    0.000    0.000    0.000    0.000    0.000    0.000 
#
# Total GULP energy -89401.404340 kJ/mol
# GULP energy per Si atom -5587.587771 kJ/mol
# Density = 2.456403 g / cm^3
# Si number density = 24.620064 Si / 1000 Ang^3
#
#
#
# Elastic Constant Matrix: (Units=GPa)
#
#
# Indices 1 2 3 4 5 6 
#
# 1 117.9657 14.6706 -5.2715 0.0000 20.2478 0.0000
# 2 14.6706 42.8666 2.8078 0.0000 -5.0775 0.0000
# 3 -5.2715 2.8078 93.9594 0.0000 -4.5914 0.0000
# 4 0.0000 0.0000 0.0000 27.7243 0.0000 7.9513
# 5 20.2478 -5.0775 -4.5914 0.0000 17.2584 0.0000
# 6 0.0000 0.0000 0.0000 7.9513 0.0000 26.9089
#
#
#
# Elastic Compliance Matrix: (Units=1/GPa)
#
#
# Indices 1 2 3 4 5 6 
#
# 1 0.011916 -0.005944 0.000079 0.000000 -0.015708 0.000000
# 2 -0.005944 0.027149 -0.000419 0.000000 0.014849 0.000000
# 3 0.000079 -0.000419 0.010790 0.000000 0.002655 0.000000
# 4 0.000000 0.000000 0.000000 0.039409 0.000000 -0.011645
# 5 -0.015708 0.014849 0.002655 0.000000 0.081446 0.000000
# 6 0.000000 0.000000 0.000000 -0.011645 0.000000 0.040603
#
#
# Mechanical properties :
#
#
# Convention : Reuss Voigt Hill
#
# Bulk Modulus (GPa) = 26.82011 31.02281 28.92146
# Shear Modulus (GPa) = 21.15864 30.55064 25.85464
#
# Velocity S-wave (km/s) = 2.93474 3.52644 3.24411
# Velocity P-wave (km/s) = 4.73296 5.40454 5.07986
#
# Compressibility (1/GPa) = 0.03728545
#
# Stress axis : x y z
#
# Youngs Moduli (GPa) = 83.92206 36.83426 92.68209
#
# Poissons Ratio (x) = 0.21893 -0.00728
# Poissons Ratio (y) = 0.49881 0.03885
# Poissons Ratio (z) = -0.00659 0.01544
#
# Static dielectric constant tensor:
#      x y z
#    x 1.988140 0.000000 -0.007890 
#    y 0.000000 1.999400 0.000000 
#    z -0.007890 0.000000 2.026150 
# 
# From -- ./inp_files/718.got.cif
#   From: 2010.05.17/outbox.cif.g08.bks.cpg/sg7_cif.got.tgz:718.got - 2010.06.03 19:44:50.
