data_PCOD9131400
_publ_section_title
;
Structure prediction by ZEFSAII (Michael W. Deem and Ramdas Pophale) SiO2 
 PCOD9131400
Probable space group: P C
;
_chemical_formula_sum "Si O2"
_cell_formula_units_Z 16
_cell_length_a 6.558581
_cell_length_b 19.831701
_cell_length_c 5.138182
_cell_angle_alpha 90.000000
_cell_angle_beta 102.672575
_cell_angle_gamma 90.000000
_cell_volume 652.031810
_symmetry_space_group_name_H-M "P C"
_symmetry_group_IT_number 7
_symmetry_cell_setting 'monoclinic'
loop_
_space_group_symop_operation_xyz
x,y,z
x,-y,1/2+z
loop_
_atom_site_type_symbol
_atom_site_label
_atom_site_fract_x
_atom_site_fract_y
_atom_site_fract_z
Si Si1 0.034820 0.653919 0.214870
Si Si2 0.245439 0.706738 0.916583
Si Si3 0.026138 0.039488 0.227142
Si Si4 0.862063 0.240123 0.974412
Si Si5 0.624208 0.890456 0.526788
Si Si6 0.495873 0.338235 0.022362
Si Si7 0.799724 0.546161 0.478630
Si Si8 0.366269 0.857469 0.972157
O O1 0.284726 0.674656 0.291321
O O2 0.903043 0.721715 0.213001
O O3 0.966116 0.596528 0.384851
O O4 0.060919 0.645719 0.919594
O O5 0.417393 0.666077 0.795313
O O6 0.349939 0.778647 0.043279
O O7 0.083813 0.746485 0.670363
O O8 0.147628 0.106178 0.350473
O O9 0.084554 0.982782 0.453745
O O10 0.776368 0.049930 0.156955
O O11 0.787713 0.164664 0.957436
O O12 0.672195 0.282744 0.040623
O O13 0.505065 0.864130 0.749562
O O14 0.467596 0.897851 0.242589
O O15 0.591739 0.407559 0.941969
O O16 0.806629 0.513752 0.767282
#
# Coordination Sequence:
#
# PCOD9131400 Si02
#       8
#     2   2   2   2   2   2   2   2
#     4  10  25  41  71 100 145 184 236 303 368 436
#     4  11  23  41  73 106 145 184 237 312 387 436
#     4  12  28  50  74 104 150 202 253 305 364 439
#     4  10  22  41  67 105 143 181 234 298 377 442
#     4  12  26  46  74 108 142 196 245 303 374 452
#     4  10  23  44  68 105 135 186 235 304 364 437
#     4  11  28  48  70 100 144 195 244 293 357 439
#     4  12  27  45  75 110 148 188 248 312 379 443
#
# _framework density 24.538679999999999
#
# number of rings (size 3 to 8) (size 9 to 14) (size 15 to 20)
#    0.000    1.000    2.500    2.250   10.500    6.000 
#    0.000    0.000    0.000    0.000    0.000    0.000 
#    0.000    0.000    0.000    0.000    0.000    0.000 
#
# Total GULP energy -89136.541994 kJ/mol
# GULP energy per Si atom -5571.033875 kJ/mol
# Density = 2.448283 g / cm^3
# Si number density = 24.538680 Si / 1000 Ang^3
#
#
#
# Elastic Constant Matrix: (Units=GPa)
#
#
# Indices 1 2 3 4 5 6 
#
# 1 107.6355 29.4713 35.2973 0.0000 -12.9108 0.0000
# 2 29.4713 76.4113 30.4091 0.0000 -6.7974 0.0000
# 3 35.2973 30.4091 82.6882 0.0000 -3.7134 0.0000
# 4 0.0000 0.0000 0.0000 34.5733 0.0000 -2.2559
# 5 -12.9108 -6.7974 -3.7134 0.0000 45.6455 0.0000
# 6 0.0000 0.0000 0.0000 -2.2559 0.0000 22.5265
#
#
#
# Elastic Compliance Matrix: (Units=1/GPa)
#
#
# Indices 1 2 3 4 5 6 
#
# 1 0.011601 -0.002719 -0.003837 0.000000 0.002564 0.000000
# 2 -0.002719 0.016122 -0.004712 0.000000 0.001248 0.000000
# 3 -0.003837 -0.004712 0.015441 0.000000 -0.000531 0.000000
# 4 0.000000 0.000000 0.000000 0.029114 0.000000 0.002916
# 5 0.002564 0.001248 -0.000531 0.000000 0.022776 0.000000
# 6 0.000000 0.000000 0.000000 0.002916 0.000000 0.044684
#
#
# Mechanical properties :
#
#
# Convention : Reuss Voigt Hill
#
# Bulk Modulus (GPa) = 48.48031 50.78782 49.63407
# Shear Modulus (GPa) = 29.55942 31.98621 30.77282
#
# Velocity S-wave (km/s) = 3.47451 3.61432 3.54510
# Velocity P-wave (km/s) = 5.99131 6.17736 6.08505
#
# Compressibility (1/GPa) = 0.02062693
#
# Stress axis : x y z
#
# Youngs Moduli (GPa) = 86.19919 62.02615 64.76432
#
# Poissons Ratio (x) = 0.16867 0.24850
# Poissons Ratio (y) = 0.23441 0.30518
# Poissons Ratio (z) = 0.33074 0.29228
#
# Static dielectric constant tensor:
#      x y z
#    x 1.942040 0.000000 0.021010 
#    y 0.000000 2.047400 0.000000 
#    z 0.021010 0.000000 2.468880 
# 
# From -- ./inp_files/286.got.cif
#   From: 2010.05.17/outbox.cif.g08.bks.cpg/sg7_cif.got.tgz:286.got - 2010.06.03 19:44:50.
