data_PCOD9131346
_publ_section_title
;
Structure prediction by ZEFSAII (Michael W. Deem and Ramdas Pophale) SiO2 
 PCOD9131346
Probable space group: P C
;
_chemical_formula_sum "Si O2"
_cell_formula_units_Z 16
_cell_length_a 7.070107
_cell_length_b 17.000314
_cell_length_c 5.418834
_cell_angle_alpha 90.000000
_cell_angle_beta 77.802955
_cell_angle_gamma 90.000000
_cell_volume 636.609354
_symmetry_space_group_name_H-M "P C"
_symmetry_group_IT_number 7
_symmetry_cell_setting 'monoclinic'
loop_
_space_group_symop_operation_xyz
x,y,z
x,-y,1/2+z
loop_
_atom_site_type_symbol
_atom_site_label
_atom_site_fract_x
_atom_site_fract_y
_atom_site_fract_z
Si Si1 0.967720 0.795634 0.634630
Si Si2 0.940461 0.021594 0.110493
Si Si3 0.024796 0.528642 0.222700
Si Si4 0.498948 0.210993 0.268956
Si Si5 0.975674 0.289895 0.633515
Si Si6 0.507519 0.293615 0.764636
Si Si7 0.367217 0.039515 0.468282
Si Si8 0.461940 0.473577 0.709432
O O1 0.733283 0.790202 0.701730
O O2 0.037645 0.753040 0.367771
O O3 0.005793 0.888404 0.608921
O O4 0.037374 0.754642 0.867274
O O5 0.831576 0.996300 0.387289
O O6 0.132912 0.968034 0.045461
O O7 0.935717 0.520178 0.520585
O O8 0.242882 0.498755 0.214386
O O9 0.030412 0.618760 0.135094
O O10 0.438743 0.265589 0.515077
O O11 0.429080 0.124238 0.355584
O O12 0.439386 0.242257 0.016353
O O13 0.741114 0.288200 0.697524
O O14 0.457876 0.384745 0.807152
O O15 0.427475 0.020175 0.731920
O O16 0.550232 0.476841 0.410133
#
# Coordination Sequence:
#
# PCOD9131346 Si02
#       8
#     2   2   2   2   2   2   2   2
#     4  10  21  38  59  83 117 153 192 240 292 344
#     4  10  21  38  56  81 115 147 187 245 281 347
#     4  10  21  38  58  84 120 154 193 236 285 339
#     4  10  21  38  59  83 117 153 192 240 292 344
#     4  10  21  38  59  88 117 151 197 239 285 345
#     4  10  21  38  59  88 117 151 197 239 285 345
#     4  10  21  38  56  81 115 147 187 245 281 347
#     4  10  21  38  58  84 120 154 193 236 285 339
#
# _framework density 25.133151999999999
#
# number of rings (size 3 to 8) (size 9 to 14) (size 15 to 20)
#    0.000    2.000    0.000    3.000    0.000    2.000 
#   13.500    0.000    0.000    0.000    0.000    0.000 
#    0.000    0.000    0.000    0.000    0.000    0.000 
#
# Total GULP energy -89580.969790 kJ/mol
# GULP energy per Si atom -5598.810612 kJ/mol
# Density = 2.507595 g / cm^3
# Si number density = 25.133152 Si / 1000 Ang^3
#
#
#
# Elastic Constant Matrix: (Units=GPa)
#
#
# Indices 1 2 3 4 5 6 
#
# 1 85.3045 -19.8585 36.8680 0.0000 7.8327 0.0000
# 2 -19.8585 111.9208 37.8272 0.0000 20.7301 0.0000
# 3 36.8680 37.8272 187.4357 0.0000 32.1787 0.0000
# 4 0.0000 0.0000 0.0000 56.3549 0.0000 0.8489
# 5 7.8327 20.7301 32.1787 0.0000 49.5488 0.0000
# 6 0.0000 0.0000 0.0000 0.8489 0.0000 33.2960
#
#
#
# Elastic Compliance Matrix: (Units=1/GPa)
#
#
# Indices 1 2 3 4 5 6 
#
# 1 0.014234 0.003967 -0.003297 0.000000 -0.001769 0.000000
# 2 0.003967 0.011138 -0.002387 0.000000 -0.003737 0.000000
# 3 -0.003297 -0.002387 0.006983 0.000000 -0.003015 0.000000
# 4 0.000000 0.000000 0.000000 0.017752 0.000000 -0.000453
# 5 -0.001769 -0.003737 -0.003015 0.000000 0.023984 0.000000
# 6 0.000000 0.000000 0.000000 -0.000453 0.000000 0.030045
#
#
# Mechanical properties :
#
#
# Convention : Reuss Voigt Hill
#
# Bulk Modulus (GPa) = 34.57535 54.92604 44.75070
# Shear Modulus (GPa) = 42.65970 49.82823 46.24396
#
# Velocity S-wave (km/s) = 4.12436 4.45744 4.29413
# Velocity P-wave (km/s) = 6.03881 6.95652 6.51384
#
# Compressibility (1/GPa) = 0.02892234
#
# Stress axis : x y z
#
# Youngs Moduli (GPa) = 70.25674 89.78593 143.20684
#
# Poissons Ratio (x) = -0.35621 0.47210
# Poissons Ratio (y) = -0.27873 0.34177
# Poissons Ratio (z) = 0.23161 0.21428
#
# Static dielectric constant tensor:
#      x y z
#    x 2.020300 0.000000 -0.010600 
#    y 0.000000 1.884940 0.000000 
#    z -0.010600 0.000000 2.059870 
# 
# From -- ./inp_files/636.got.cif
#   From: 2010.05.17/outbox.cif.g08.bks.cpg/sg7_cif.got.tgz:636.got - 2010.06.03 19:44:50.
