data_PCOD9131115
_publ_section_title
;
Structure prediction by ZEFSAII (Michael W. Deem and Ramdas Pophale) SiO2 
 PCOD9131115
Probable space group: P M
;
_chemical_formula_sum "Si O2"
_cell_formula_units_Z 12
_cell_length_a 6.242205
_cell_length_b 17.881409
_cell_length_c 6.950996
_cell_angle_alpha 90.000000
_cell_angle_beta 136.134822
_cell_angle_gamma 90.000000
_cell_volume 537.647137
_symmetry_space_group_name_H-M "P M"
_symmetry_group_IT_number 6
_symmetry_cell_setting 'monoclinic'
loop_
_space_group_symop_operation_xyz
x,y,z
x,-y,z
loop_
_atom_site_type_symbol
_atom_site_label
_atom_site_fract_x
_atom_site_fract_y
_atom_site_fract_z
Si Si1 0.664280 0.000000 0.446600
Si Si2 0.382283 0.339757 0.134780
Si Si3 0.825162 0.874765 0.259302
Si Si4 0.337212 0.226765 0.757088
Si Si5 0.367819 0.500000 0.979036
Si Si6 0.969938 0.000000 0.044912
Si Si7 0.657155 0.500000 0.727095
Si Si8 0.692168 0.667959 0.700487
O O1 0.797185 0.926861 0.428517
O O2 0.303344 0.000000 0.165251
O O3 0.722850 0.000000 0.712549
O O4 0.314127 0.288740 0.907490
O O5 0.486816 0.421886 0.138796
O O6 0.631481 0.307299 0.442039
O O7 0.038688 0.343642 0.001679
O O8 0.043778 0.806133 0.456866
O O9 0.946868 0.927928 0.167273
O O10 0.506985 0.841995 0.971824
O O11 0.541518 0.269070 0.731774
O O12 0.519366 0.500000 0.861081
O O13 0.001505 0.500000 0.829240
O O14 0.545876 0.584006 0.603015
#
# Coordination Sequence:
#
# PCOD9131115 Si02
#       8
#     1   2   2   2   1   1   1   2
#     4  11  24  45  70  94 128 171 212 265 330 402
#     4  11  24  42  64  95 131 179 227 280 342 404
#     4  11  26  42  66 101 128 166 220 269 326 412
#     4  12  24  42  64  96 136 168 214 278 334 406
#     4  10  21  44  68  99 137 187 246 300 348 417
#     4  11  24  45  70  94 128 171 212 265 330 402
#     4  10  21  44  68  99 137 187 246 300 348 417
#     4  11  24  42  64  95 131 179 227 280 342 404
#
# _framework density 22.319474
#
# number of rings (size 3 to 8) (size 9 to 14) (size 15 to 20)
#    0.000    1.000    1.667    4.500    0.000   10.667 
#    0.000    3.333    0.000    0.000    0.000    0.000 
#    0.000    0.000    0.000    0.000    0.000    0.000 
#
# Total GULP energy -66849.751504 kJ/mol
# GULP energy per Si atom -5570.812625 kJ/mol
# Density = 2.226867 g / cm^3
# Si number density = 22.319474 Si / 1000 Ang^3
#
#
#
# Elastic Constant Matrix: (Units=GPa)
#
#
# Indices 1 2 3 4 5 6 
#
# 1 55.0919 14.6102 24.3116 0.0000 -13.8525 0.0000
# 2 14.6102 77.2778 8.8318 0.0000 -15.3519 0.0000
# 3 24.3116 8.8318 106.2236 0.0000 -8.6441 0.0000
# 4 0.0000 0.0000 0.0000 22.4840 0.0000 16.5347
# 5 -13.8525 -15.3519 -8.6441 0.0000 34.7072 0.0000
# 6 0.0000 0.0000 0.0000 16.5347 0.0000 11.0391
#
#
#
# Elastic Compliance Matrix: (Units=1/GPa)
#
#
# Indices 1 2 3 4 5 6 
#
# 1 0.022429 -0.002388 -0.004381 0.000000 0.006805 0.000000
# 2 -0.002388 0.014490 -0.000219 0.000000 0.005402 0.000000
# 3 -0.004381 -0.000219 0.010498 0.000000 0.000769 0.000000
# 4 0.000000 0.000000 0.000000 -0.438160 0.000000 0.656288
# 5 0.006805 0.005402 0.000769 0.000000 0.034109 0.000000
# 6 0.000000 0.000000 0.000000 0.656288 0.000000 -0.892421
#
#
# Mechanical properties :
#
#
# Convention : Reuss Voigt Hill
#
# Bulk Modulus (GPa) = 29.90327 37.12226 33.51276
# Shear Modulus (GPa) = -4.08519 26.36870 11.14175
#
# Velocity S-wave (km/s) = -1.35436 3.44091 2.23669
# Velocity P-wave (km/s) = 3.31379 5.69691 4.66026
#
# Compressibility (1/GPa) = 0.03344116
#
# Stress axis : x y z
#
# Youngs Moduli (GPa) = 44.58495 69.01370 95.25995
#
# Poissons Ratio (x) = 0.16480 0.41734
# Poissons Ratio (y) = 0.10647 0.02083
# Poissons Ratio (z) = 0.19533 0.01509
#
# Static dielectric constant tensor:
#      x y z
#    x 1.954220 0.000000 0.042460 
#    y 0.000000 1.808240 0.000000 
#    z 0.042460 0.000000 1.849600 
# 
# From -- ./inp_files/521.got.cif
#   From: 2010.05.17/outbox.cif.g08.bks.cpg/sg6_1_cif.got.tgz:521.got - 2010.06.03 19:42:10.
