data_PCOD9131183
_publ_section_title
;
Structure prediction by ZEFSAII (Michael W. Deem and Ramdas Pophale) SiO2 
 PCOD9131183
Probable space group: P M
;
_chemical_formula_sum "Si O2"
_cell_formula_units_Z 13
_cell_length_a 19.047541
_cell_length_b 7.139233
_cell_length_c 10.514148
_cell_angle_alpha 90.000000
_cell_angle_beta 18.572142
_cell_angle_gamma 90.000000
_cell_volume 455.377834
_symmetry_space_group_name_H-M "P M"
_symmetry_group_IT_number 6
_symmetry_cell_setting 'monoclinic'
loop_
_space_group_symop_operation_xyz
x,y,z
x,-y,z
loop_
_atom_site_type_symbol
_atom_site_label
_atom_site_fract_x
_atom_site_fract_y
_atom_site_fract_z
Si Si1 0.020340 0.776216 0.711930
Si Si2 0.535943 0.778777 0.756174
Si Si3 0.131004 0.226711 0.793748
Si Si4 0.385978 0.500000 0.822004
Si Si5 0.751626 0.776217 0.932058
Si Si6 0.236017 0.778778 0.887825
Si Si7 0.640957 0.773288 0.850247
O O1 0.277915 0.747061 0.236754
O O2 0.997815 0.711991 0.897297
O O3 0.982747 0.000000 0.780357
O O4 0.885982 0.702230 0.821995
O O5 0.666511 0.717942 0.659001
O O6 0.570396 0.000000 0.676869
O O7 0.544570 0.662173 0.613939
O O8 0.105451 0.282057 0.984994
O O9 0.385981 0.270801 0.321997
O O10 0.114298 0.000000 0.825905
O O11 0.227389 0.662172 0.030060
O O12 0.494048 0.747066 0.407240
O O13 0.774147 0.711990 0.746696
O O14 0.789226 0.000000 0.863617
O O15 0.201560 0.000000 0.967139
O O16 0.657664 0.000000 0.818090
#
# Coordination Sequence:
#
# PCOD9131183 Si02
#       7
#     2   2   2   1   2   2   2
#     4   8  13  25  50  78  97 116 146 190 246 292
#     4   9  18  32  49  70  96 123 155 195 231 271
#     4   7  11  23  44  69  94 117 145 188 239 280
#     4  12  22  32  48  68  90 132 176 192 210 264
#     4   8  13  25  50  78  97 116 146 190 246 292
#     4   9  18  32  49  70  96 123 155 195 231 271
#     4   7  11  23  44  69  94 117 145 188 239 280
#
# _framework density 28.547720999999999
#
# number of rings (size 3 to 8) (size 9 to 14) (size 15 to 20)
#    0.000    3.692    0.000    4.154    0.000    0.000 
#    0.000    7.692    0.000    3.692    0.000   10.769 
#    0.000    0.000    0.000    0.000    0.000    0.000 
#
# Total GULP energy -72509.971116 kJ/mol
# GULP energy per Si atom -5577.690086 kJ/mol
# Density = 2.848275 g / cm^3
# Si number density = 28.547721 Si / 1000 Ang^3
#
#
#
# Elastic Constant Matrix: (Units=GPa)
#
#
# Indices 1 2 3 4 5 6 
#
# 1 356.4979 54.3962 97.2329 0.0000 -53.9043 0.0000
# 2 54.3962 149.5428 -3.3253 0.0000 -22.7849 0.0000
# 3 97.2329 -3.3253 107.4245 0.0000 -20.0135 0.0000
# 4 0.0000 0.0000 0.0000 -25.7300 0.0000 -24.2543
# 5 -53.9043 -22.7849 -20.0135 0.0000 86.3571 0.0000
# 6 0.0000 0.0000 0.0000 -24.2543 0.0000 489.9056
#
#
#
# Elastic Compliance Matrix: (Units=1/GPa)
#
#
# Indices 1 2 3 4 5 6 
#
# 1 0.004213 -0.001395 -0.003590 0.000000 0.001430 0.000000
# 2 -0.001395 0.007464 0.001775 0.000000 0.001510 0.000000
# 3 -0.003590 0.001775 0.012838 0.000000 0.001202 0.000000
# 4 0.000000 0.000000 0.000000 -0.037132 0.000000 -0.001838
# 5 0.001430 0.001510 0.001202 0.000000 0.013149 0.000000
# 6 0.000000 0.000000 0.000000 -0.001838 0.000000 0.001950
#
#
# Mechanical properties :
#
#
# Convention : Reuss Voigt Hill
#
# Bulk Modulus (GPa) = 55.26655 101.11920 78.19288
# Shear Modulus (GPa) = 334.80309 141.11727 237.96018
#
# Velocity S-wave (km/s) = 10.84126 7.03842 9.13981
# Velocity P-wave (km/s) = 13.27072 10.07723 11.78267
#
# Compressibility (1/GPa) = 0.01809413
#
# Stress axis : x y z
#
# Youngs Moduli (GPa) = 237.34241 133.97887 77.89665
#
# Poissons Ratio (x) = 0.18684 0.27968
# Poissons Ratio (y) = 0.33099 -0.13824
# Poissons Ratio (z) = 0.85215 -0.23776
#
# Static dielectric constant tensor:
#      x y z
#    x 2.220130 0.000000 0.103670 
#    y 0.000000 2.048490 0.000000 
#    z 0.103670 0.000000 2.398130 
# 
# From -- ./inp_files/5296.got.cif
#   From: 2010.05.17/outbox.cif.g08.bks.cpg/sg6_3_cif.got.tgz:5296.got - 2010.06.03 19:42:10.
