data_PCOD9131706
_publ_section_title
;
Structure prediction by ZEFSAII (Michael W. Deem and Ramdas Pophale) SiO2 
 PCOD9131706
Probable space group: C M
;
_chemical_formula_sum "Si O2"
_cell_formula_units_Z 32
_cell_length_a 21.008060
_cell_length_b 7.821291
_cell_length_c 26.068238
_cell_angle_alpha 90.000000
_cell_angle_beta 157.302094
_cell_angle_gamma 90.000000
_cell_volume 1652.797716
_symmetry_space_group_name_H-M "C M"
_symmetry_group_IT_number 8
_symmetry_cell_setting 'monoclinic'
loop_
_space_group_symop_operation_xyz
x,y,z
x,-y,z
1/2+x,1/2+y,z
1/2+x,1/2-y,z
loop_
_atom_site_type_symbol
_atom_site_label
_atom_site_fract_x
_atom_site_fract_y
_atom_site_fract_z
Si Si1 0.759580 0.800215 0.047130
Si Si2 0.780425 0.702191 0.281665
Si Si3 0.148598 0.800552 0.579394
Si Si4 0.962006 0.799915 0.756092
Si Si5 0.761007 0.290491 0.774156
Si Si6 0.643487 0.792454 0.068566
Si Si7 0.954996 0.791689 0.095462
Si Si8 0.145453 0.202643 0.795471
O O1 0.739596 0.728412 0.089356
O O2 0.890236 0.730101 0.102846
O O3 0.799762 0.000000 0.082918
O O4 0.581506 0.786492 0.886804
O O5 0.795999 0.500000 0.301141
O O6 0.720920 0.734600 0.179457
O O7 0.635078 0.765586 0.211358
O O8 0.958194 0.780436 0.424360
O O9 0.273376 0.718552 0.631574
O O10 0.188652 0.732527 0.666120
O O11 0.191693 0.000000 0.611579
O O12 0.011358 0.730765 0.736585
O O13 0.006705 0.000000 0.790548
O O14 0.757878 0.500000 0.772372
O O15 0.660920 0.227965 0.749544
O O16 0.952146 0.239245 0.921976
O O17 0.644963 0.000000 0.068953
O O18 0.951167 0.000000 0.092382
O O19 0.820505 0.731309 0.953892
O O20 0.116918 0.000000 0.769062
#
# Coordination Sequence:
#
# PCOD9131706 Si02
#       8
#     4   4   4   4   4   4   4   4
#     4   9  17  32  54  79 106 139 179 218 256 309
#     4  11  23  37  52  78 112 143 174 219 271 318
#     4  11  22  38  57  76 103 145 184 218 260 318
#     4  10  19  31  51  80 111 140 169 216 272 313
#     4   9  17  32  55  81 104 133 180 223 254 302
#     4  10  18  33  57  81 105 139 181 221 256 308
#     4   9  18  32  51  76 108 140 172 214 263 310
#     4   9  17  31  53  79 107 135 171 217 262 310
#
# _framework density 19.361111999999999
#
# number of rings (size 3 to 8) (size 9 to 14) (size 15 to 20)
#    0.000    2.250    2.500    1.125    0.000    1.500 
#    0.000    2.500    0.000    3.000    0.000    0.000 
#    0.000    0.000    0.000    0.000    0.000    0.000 
#
# Total GULP energy -89252.782901 kJ/mol
# GULP energy per Si atom -5578.298931 kJ/mol
# Density = 1.931704 g / cm^3
# Si number density = 19.361112 Si / 1000 Ang^3
#
#
#
# Elastic Constant Matrix: (Units=GPa)
#
#
# Indices 1 2 3 4 5 6 
#
# 1 155.6813 3.1611 60.8039 -0.0001 19.6587 0.0000
# 2 3.1611 21.5239 -10.5922 -0.0006 -1.9749 0.0001
# 3 60.8039 -10.5922 89.8092 -0.0019 8.8951 -0.0002
# 4 -0.0001 -0.0006 -0.0019 13.1244 -0.0004 0.0004
# 5 19.6587 -1.9749 8.8951 -0.0004 27.1292 -0.0001
# 6 0.0000 0.0001 -0.0002 0.0004 -0.0001 11.5261
#
#
#
# Elastic Compliance Matrix: (Units=1/GPa)
#
#
# Indices 1 2 3 4 5 6 
#
# 1 0.009837 -0.005255 -0.006755 -0.000001 -0.005296 0.000000
# 2 -0.005255 0.052210 0.009263 0.000004 0.004572 0.000000
# 3 -0.006755 0.009263 0.016795 0.000003 0.000063 0.000000
# 4 -0.000001 0.000004 0.000003 0.076194 0.000002 -0.000003
# 5 -0.005296 0.004572 0.000063 0.000002 0.041010 0.000000
# 6 0.000000 0.000000 0.000000 -0.000003 0.000000 0.086760
#
#
# Mechanical properties :
#
#
# Convention : Reuss Voigt Hill
#
# Bulk Modulus (GPa) = 13.63403 41.52889 27.58146
# Shear Modulus (GPa) = 15.98721 24.59870 20.29296
#
# Velocity S-wave (km/s) = 2.87668 3.56830 3.24100
# Velocity P-wave (km/s) = 4.25335 6.20268 5.31809
#
# Compressibility (1/GPa) = 0.07334588
#
# Stress axis : x y z
#
# Youngs Moduli (GPa) = 101.65414 19.15357 59.54297
#
# Poissons Ratio (x) = 0.10065 0.40224
# Poissons Ratio (y) = 0.53420 -0.55153
# Poissons Ratio (z) = 0.68672 -0.17741
#
# Static dielectric constant tensor:
#      x y z
#    x 1.723600 0.000000 0.022110 
#    y 0.000000 1.702510 0.000000 
#    z 0.022110 0.000000 1.622020 
# 
# From -- ./inp_files/15781.got.cif
#   From: 2010.05.17/outbox.cif.g08.bks.cpg/sg8_8_cif.got.tgz:15781.got - 2010.06.03 19:46:02.
