data_PCOD9131943
_publ_section_title
;
Structure prediction by ZEFSAII (Michael W. Deem and Ramdas Pophale) SiO2 
 PCOD9131943
Probable space group: C M
;
_chemical_formula_sum "Si O2"
_cell_formula_units_Z 32
_cell_length_a 16.942229
_cell_length_b 8.884707
_cell_length_c 20.416648
_cell_angle_alpha 90.000000
_cell_angle_beta 148.994858
_cell_angle_gamma 90.000000
_cell_volume 1583.077932
_symmetry_space_group_name_H-M "C M"
_symmetry_group_IT_number 8
_symmetry_cell_setting 'monoclinic'
loop_
_space_group_symop_operation_xyz
x,y,z
x,-y,z
1/2+x,1/2+y,z
1/2+x,1/2-y,z
loop_
_atom_site_type_symbol
_atom_site_label
_atom_site_fract_x
_atom_site_fract_y
_atom_site_fract_z
Si Si1 0.212870 0.326949 0.199280
Si Si2 0.068294 0.169060 0.281444
Si Si3 0.881691 0.181480 0.515892
Si Si4 0.630153 0.669920 0.881164
Si Si5 0.532637 0.682512 0.492420
Si Si6 0.299845 0.167507 0.141324
Si Si7 0.837081 0.679945 0.629235
Si Si8 0.908730 0.166922 0.028992
O O1 0.194708 0.500000 0.205941
O O2 0.372078 0.269616 0.344411
O O3 0.234945 0.301879 0.138188
O O4 0.057786 0.240107 0.104024
O O5 0.229144 0.241832 0.377601
O O6 0.978005 0.289228 0.260752
O O7 0.962390 0.154172 0.142606
O O8 0.085880 0.000000 0.322489
O O9 0.015502 0.220844 0.558038
O O10 0.875298 0.245466 0.585527
O O11 0.870559 0.000000 0.509754
O O12 0.585619 0.500000 0.831586
O O13 0.482264 0.774408 0.776416
O O14 0.713165 0.664883 0.010502
O O15 0.756663 0.733391 0.920766
O O16 0.535481 0.500000 0.491496
O O17 0.680898 0.731552 0.555490
O O18 0.282361 0.000000 0.158210
O O19 0.829409 0.500000 0.615481
O O20 0.878258 0.000000 0.981415
#
# Coordination Sequence:
#
# PCOD9131943 Si02
#       8
#     4   4   4   4   4   4   4   4
#     4  11  20  35  59  90 124 157 196 246 307 369
#     4  10  19  33  55  85 118 151 192 244 303 363
#     4  11  21  38  62  89 122 164 208 252 306 369
#     4  10  22  42  62  83 114 158 206 252 302 363
#     4   9  21  39  61  89 125 162 201 247 303 370
#     4  10  21  36  57  85 118 156 200 250 306 366
#     4  11  23  42  64  89 121 163 211 261 309 363
#     4  10  20  35  58  86 118 153 192 244 300 357
#
# _framework density 20.213787
#
# number of rings (size 3 to 8) (size 9 to 14) (size 15 to 20)
#    0.000    1.750    1.250    3.375    0.000    3.500 
#    2.250    4.375    0.000    0.000    0.000    0.000 
#    0.000    0.000    0.000    0.000    0.000    0.000 
#
# Total GULP energy -89149.330912 kJ/mol
# GULP energy per Si atom -5571.833182 kJ/mol
# Density = 2.016778 g / cm^3
# Si number density = 20.213787 Si / 1000 Ang^3
#
#
#
# Elastic Constant Matrix: (Units=GPa)
#
#
# Indices 1 2 3 4 5 6 
#
# 1 101.4998 23.5028 35.2866 0.0000 17.9174 0.0000
# 2 23.5028 64.0721 17.6307 -0.0001 -0.8498 0.0000
# 3 35.2866 17.6307 58.3008 -0.0001 20.5886 0.0000
# 4 0.0000 -0.0001 -0.0001 25.6828 -0.0001 2.0101
# 5 17.9174 -0.8498 20.5886 -0.0001 22.1892 0.0000
# 6 0.0000 0.0000 0.0000 2.0101 0.0000 28.8560
#
#
#
# Elastic Compliance Matrix: (Units=1/GPa)
#
#
# Indices 1 2 3 4 5 6 
#
# 1 0.013540 -0.003770 -0.004675 0.000000 -0.006740 0.000000
# 2 -0.003770 0.019105 -0.007183 0.000000 0.010441 0.000000
# 3 -0.004675 -0.007183 0.031113 0.000000 -0.025369 0.000000
# 4 0.000000 0.000000 0.000000 0.039150 0.000000 -0.002727
# 5 -0.006740 0.010441 -0.025369 0.000000 0.074448 0.000000
# 6 0.000000 0.000000 0.000000 -0.002727 0.000000 0.034845
#
#
# Mechanical properties :
#
#
# Convention : Reuss Voigt Hill
#
# Bulk Modulus (GPa) = 30.76638 41.85699 36.31169
# Shear Modulus (GPa) = 19.66249 25.17577 22.41913
#
# Velocity S-wave (km/s) = 3.12224 3.53296 3.33393
# Velocity P-wave (km/s) = 5.31520 6.11510 5.72913
#
# Compressibility (1/GPa) = 0.03250301
#
# Stress axis : x y z
#
# Youngs Moduli (GPa) = 73.85401 52.34162 32.14091
#
# Poissons Ratio (x) = 0.19732 0.15026
# Poissons Ratio (y) = 0.27841 0.23087
# Poissons Ratio (z) = 0.34526 0.37597
#
# Static dielectric constant tensor:
#      x y z
#    x 1.784920 0.000000 -0.026760 
#    y 0.000000 1.723840 0.000000 
#    z -0.026760 0.000000 1.734730 
# 
# From -- ./inp_files/22790.got.cif
#   From: 2010.05.17/outbox.cif.g08.bks.cpg/sg8_12_cif.got.tgz:22790.got - 2010.06.03 19:46:02.
