data_PCOD9131237
_publ_section_title
;
Structure prediction by ZEFSAII (Michael W. Deem and Ramdas Pophale) SiO2 
 PCOD9131237
Probable space group: P C
;
_chemical_formula_sum "Si O2"
_cell_formula_units_Z 16
_cell_length_a 6.541972
_cell_length_b 16.216595
_cell_length_c 5.439689
_cell_angle_alpha 90.000000
_cell_angle_beta 78.313540
_cell_angle_gamma 90.000000
_cell_volume 565.125866
_symmetry_space_group_name_H-M "P C"
_symmetry_group_IT_number 7
_symmetry_cell_setting 'monoclinic'
loop_
_space_group_symop_operation_xyz
x,y,z
x,-y,1/2+z
loop_
_atom_site_type_symbol
_atom_site_label
_atom_site_fract_x
_atom_site_fract_y
_atom_site_fract_z
Si Si1 0.743120 0.795759 0.333980
Si Si2 0.295480 0.725332 0.425810
Si Si3 0.295977 0.962636 0.770536
Si Si4 0.351250 0.540099 0.526431
Si Si5 0.794970 0.032913 0.081774
Si Si6 0.254191 0.225771 0.433778
Si Si7 0.849166 0.464417 0.214677
Si Si8 0.735315 0.284903 0.334891
O O1 0.486575 0.791166 0.386908
O O2 0.816730 0.882355 0.425276
O O3 0.788638 0.732976 0.540787
O O4 0.805814 0.773718 0.042122
O O5 0.381523 0.632616 0.416298
O O6 0.167014 0.735913 0.706369
O O7 0.167777 0.747418 0.215684
O O8 0.544803 0.978093 0.680351
O O9 0.268712 0.871462 0.888098
O O10 0.219252 0.976310 0.507898
O O11 0.421967 0.478889 0.289312
O O12 0.100229 0.530596 0.621031
O O13 0.865194 0.967841 0.851943
O O14 0.484951 0.267457 0.395125
O O15 0.782552 0.529867 0.442997
O O16 0.792530 0.378992 0.361609
#
# Coordination Sequence:
#
# PCOD9131237 Si02
#       8
#     2   2   2   2   2   2   2   2
#     4  10  19  32  45  73 108 129 155 193 237 292
#     4  10  19  32  49  69  99 130 152 195 248 284
#     4  10  18  26  43  66 100 136 163 189 222 274
#     4  10  21  38  56  72  91 120 164 209 242 281
#     4  10  18  26  43  66 100 136 163 189 222 274
#     4  10  19  32  45  73 108 129 155 193 237 292
#     4  10  21  38  56  72  91 120 164 209 242 281
#     4  10  19  32  49  69  99 130 152 195 248 284
#
# _framework density 28.312277000000002
#
# number of rings (size 3 to 8) (size 9 to 14) (size 15 to 20)
#    0.000    2.000    2.500    3.000    7.000    0.000 
#    0.000   15.000    0.000    0.000    0.000    0.000 
#    0.000   34.000    0.000    0.000    0.000    0.000 
#
# Total GULP energy -89600.269374 kJ/mol
# GULP energy per Si atom -5600.016836 kJ/mol
# Density = 2.824784 g / cm^3
# Si number density = 28.312277 Si / 1000 Ang^3
#
#
#
# Elastic Constant Matrix: (Units=GPa)
#
#
# Indices 1 2 3 4 5 6 
#
# 1 71.9511 -14.6456 50.7276 0.0000 19.4365 0.0000
# 2 -14.6456 130.4191 80.2871 0.0000 -6.0294 0.0000
# 3 50.7276 80.2871 255.1864 0.0000 25.3785 0.0000
# 4 0.0000 0.0000 0.0000 55.8758 0.0000 4.7972
# 5 19.4365 -6.0294 25.3785 0.0000 66.6770 0.0000
# 6 0.0000 0.0000 0.0000 4.7972 0.0000 25.1770
#
#
#
# Elastic Compliance Matrix: (Units=1/GPa)
#
#
# Indices 1 2 3 4 5 6 
#
# 1 0.019511 0.005248 -0.005208 0.000000 -0.003231 0.000000
# 2 0.005248 0.011206 -0.004695 0.000000 0.001271 0.000000
# 3 -0.005208 -0.004695 0.006571 0.000000 -0.001407 0.000000
# 4 0.000000 0.000000 0.000000 0.018194 0.000000 -0.003467
# 5 -0.003231 0.001271 -0.001407 0.000000 0.016590 0.000000
# 6 0.000000 0.000000 0.000000 -0.003467 0.000000 0.040379
#
#
# Mechanical properties :
#
#
# Convention : Reuss Voigt Hill
#
# Bulk Modulus (GPa) = 35.74308 76.69942 56.22125
# Shear Modulus (GPa) = 38.14176 52.29178 45.21677
#
# Velocity S-wave (km/s) = 3.67438 4.30230 4.00067
# Velocity P-wave (km/s) = 5.53655 7.19924 6.42193
#
# Compressibility (1/GPa) = 0.02797744
#
# Stress axis : x y z
#
# Youngs Moduli (GPa) = 51.25209 89.23681 152.17700
#
# Poissons Ratio (x) = -0.46832 0.79261
# Poissons Ratio (y) = -0.26898 0.71452
# Poissons Ratio (z) = 0.26695 0.41899
#
# Static dielectric constant tensor:
#      x y z
#    x 2.439610 0.000000 -0.038960 
#    y 0.000000 2.105860 0.000000 
#    z -0.038960 0.000000 2.225350 
# 
# From -- ./inp_files/637.got.cif
#   From: 2010.05.17/outbox.cif.g08.bks.cpg/sg7_cif.got.tgz:637.got - 2010.06.03 19:44:50.
