data_PCOD9131002
_publ_section_title
;
Structure prediction by ZEFSAII (Michael W. Deem and Ramdas Pophale) SiO2 
 PCOD9131002
Probable space group: P M
;
_chemical_formula_sum "Si O2"
_cell_formula_units_Z 16
_cell_length_a 12.825794
_cell_length_b 9.041440
_cell_length_c 12.445900
_cell_angle_alpha 90.000000
_cell_angle_beta 34.729082
_cell_angle_gamma 90.000000
_cell_volume 822.227343
_symmetry_space_group_name_H-M "P M"
_symmetry_group_IT_number 6
_symmetry_cell_setting 'monoclinic'
loop_
_space_group_symop_operation_xyz
x,y,z
x,-y,z
loop_
_atom_site_type_symbol
_atom_site_label
_atom_site_fract_x
_atom_site_fract_y
_atom_site_fract_z
Si Si1 0.932120 0.325728 0.044240
Si Si2 0.821984 0.823870 0.567475
Si Si3 0.347154 0.327124 0.678621
Si Si4 0.584136 0.676098 0.942907
Si Si5 0.346932 0.830231 0.453477
Si Si6 0.709673 0.174637 0.422610
Si Si7 0.212878 0.177756 0.338338
Si Si8 0.750341 0.829850 0.003926
O O1 0.896756 0.500000 0.060308
O O2 0.804920 0.259577 0.244311
O O3 0.890329 0.243129 0.968008
O O4 0.143756 0.305056 0.895712
O O5 0.666410 0.735352 0.762264
O O6 0.808369 0.797027 0.452046
O O7 0.020431 0.784745 0.447326
O O8 0.794442 0.000000 0.608726
O O9 0.394647 0.500000 0.645069
O O10 0.338779 0.276311 0.561493
O O11 0.501525 0.230337 0.604447
O O12 0.578881 0.500000 0.951051
O O13 0.716864 0.739799 0.923778
O O14 0.383726 0.742084 0.137724
O O15 0.220613 0.787667 0.459206
O O16 0.306180 0.000000 0.520613
O O17 0.553324 0.828783 0.231382
O O18 0.713619 0.000000 0.396482
O O19 0.241763 0.000000 0.305938
O O20 0.798004 0.000000 0.939393
#
# Coordination Sequence:
#
# PCOD9131002 Si02
#       8
#     2   2   2   2   2   2   2   2
#     4  11  24  40  60  90 124 160 202 252 311 367
#     4  10  23  43  66  90 119 161 213 258 298 356
#     4  11  24  39  59  89 126 163 200 249 308 368
#     4  11  23  38  60  93 129 162 198 246 308 368
#     4   9  18  34  59  90 121 156 200 248 302 361
#     4  11  24  43  65  89 120 162 211 258 303 356
#     4   9  20  40  63  89 121 160 206 254 303 355
#     4  10  20  37  62  90 124 162 202 249 303 361
#
# _framework density 19.459337000000001
#
# number of rings (size 3 to 8) (size 9 to 14) (size 15 to 20)
#    0.000    1.750    1.250    3.375    1.750    6.500 
#    0.000    3.750    0.000    0.000    0.000    0.000 
#    0.000    0.000    0.000    0.000    0.000    0.000 
#
# Total GULP energy -89445.958798 kJ/mol
# GULP energy per Si atom -5590.372425 kJ/mol
# Density = 1.941505 g / cm^3
# Si number density = 19.459337 Si / 1000 Ang^3
#
#
#
# Elastic Constant Matrix: (Units=GPa)
#
#
# Indices 1 2 3 4 5 6 
#
# 1 89.1147 25.7973 6.8750 0.0000 -15.0788 0.0000
# 2 25.7973 56.8453 18.4473 0.0000 -3.9447 0.0000
# 3 6.8750 18.4473 31.1646 0.0000 -3.0609 0.0000
# 4 0.0000 0.0000 0.0000 24.8778 0.0000 -2.1978
# 5 -15.0788 -3.9447 -3.0609 0.0000 20.4823 0.0000
# 6 0.0000 0.0000 0.0000 -2.1978 0.0000 47.5150
#
#
#
# Elastic Compliance Matrix: (Units=1/GPa)
#
#
# Indices 1 2 3 4 5 6 
#
# 1 0.014623 -0.006465 0.001559 0.000000 0.009753 0.000000
# 2 -0.006465 0.024740 -0.013415 0.000000 -0.002000 0.000000
# 3 0.001559 -0.013415 0.040132 0.000000 0.004562 0.000000
# 4 0.000000 0.000000 0.000000 0.040361 0.000000 0.001867
# 5 0.009753 -0.002000 0.004562 0.000000 0.056299 0.000000
# 6 0.000000 0.000000 0.000000 0.001867 0.000000 0.021132
#
#
# Mechanical properties :
#
#
# Convention : Reuss Voigt Hill
#
# Bulk Modulus (GPa) = 23.33512 31.04042 27.18777
# Shear Modulus (GPa) = 20.14380 26.97534 23.55957
#
# Velocity S-wave (km/s) = 3.22090 3.72727 3.48330
# Velocity P-wave (km/s) = 5.08430 5.87447 5.49361
#
# Compressibility (1/GPa) = 0.04285385
#
# Stress axis : x y z
#
# Youngs Moduli (GPa) = 68.38481 40.42007 24.91758
#
# Poissons Ratio (x) = 0.26133 -0.03885
# Poissons Ratio (y) = 0.44213 0.33426
# Poissons Ratio (z) = -0.10662 0.54222
#
# Static dielectric constant tensor:
#      x y z
#    x 1.673430 0.000000 -0.018420 
#    y 0.000000 1.641850 0.000000 
#    z -0.018420 0.000000 1.677040 
# 
# From -- ./inp_files/5021.got.cif
#   From: 2010.05.17/outbox.cif.g08.bks.cpg/sg6_3_cif.got.tgz:5021.got - 2010.06.03 19:42:10.
