data_PCOD9131871
_publ_section_title
;
Structure prediction by ZEFSAII (Michael W. Deem and Ramdas Pophale) SiO2 
 PCOD9131871
Probable space group: C M
;
_chemical_formula_sum "Si O2"
_cell_formula_units_Z 32
_cell_length_a 21.300373
_cell_length_b 8.429738
_cell_length_c 12.664070
_cell_angle_alpha 90.000000
_cell_angle_beta 128.033237
_cell_angle_gamma 90.000000
_cell_volume 1791.058550
_symmetry_space_group_name_H-M "C M"
_symmetry_group_IT_number 8
_symmetry_cell_setting 'monoclinic'
loop_
_space_group_symop_operation_xyz
x,y,z
x,-y,z
1/2+x,1/2+y,z
1/2+x,1/2-y,z
loop_
_atom_site_type_symbol
_atom_site_label
_atom_site_fract_x
_atom_site_fract_y
_atom_site_fract_z
Si Si1 0.102180 0.305967 0.600310
Si Si2 0.282721 0.309353 0.748618
Si Si3 0.578857 0.808590 0.017932
Si Si4 0.520586 0.808251 0.731650
Si Si5 0.433079 0.809159 0.020608
Si Si6 0.689753 0.688179 0.310177
Si Si7 0.341944 0.310125 0.579420
Si Si8 0.050270 0.308141 0.318938
O O1 0.102084 0.500000 0.601617
O O2 0.193906 0.253624 0.683969
O O3 0.056495 0.256482 0.446331
O O4 0.061240 0.252005 0.665730
O O5 0.279530 0.500000 0.739803
O O6 0.348542 0.260884 0.901982
O O7 0.311772 0.251786 0.663464
O O8 0.567586 0.756236 0.885824
O O9 0.498481 0.764400 0.999158
O O10 0.584543 0.000000 0.027344
O O11 0.652614 0.739914 0.159733
O O12 0.429297 0.755232 0.646198
O O13 0.521832 0.000000 0.733077
O O14 0.427063 0.000000 0.014116
O O15 0.472629 0.757751 0.172218
O O16 0.693043 0.500000 0.319482
O O17 0.775838 0.758228 0.426427
O O18 0.627409 0.751398 0.333626
O O19 0.345488 0.500000 0.586366
O O20 0.052377 0.500000 0.318844
#
# Coordination Sequence:
#
# PCOD9131871 Si02
#       8
#     4   4   4   4   4   4   4   4
#     4   9  18  35  57  78 105 144 182 214 262 325
#     4  10  19  32  53  78 104 137 176 217 261 314
#     4   9  18  33  52  77 109 141 175 219 274 322
#     4  10  20  36  58  81 108 144 183 220 263 323
#     4   9  17  29  50  77 105 135 170 217 263 307
#     4  11  21  32  53  82 107 137 183 230 267 311
#     4  11  21  35  55  79 110 143 178 222 273 320
#     4   9  17  34  54  76 108 145 177 213 271 324
#
# _framework density 17.866529
#
# number of rings (size 3 to 8) (size 9 to 14) (size 15 to 20)
#    0.000    2.250    2.500    2.250    0.000    3.000 
#    0.000    2.500    0.000    3.000    0.000    0.000 
#    0.000    0.000    0.000    0.000    0.000    0.000 
#
# Total GULP energy -89262.166556 kJ/mol
# GULP energy per Si atom -5578.885410 kJ/mol
# Density = 1.782586 g / cm^3
# Si number density = 17.866529 Si / 1000 Ang^3
#
#
#
# Elastic Constant Matrix: (Units=GPa)
#
#
# Indices 1 2 3 4 5 6 
#
# 1 120.4637 15.4856 90.7497 0.0000 -9.2766 0.0000
# 2 15.4856 6.0131 15.7396 0.0000 -5.2873 0.0000
# 3 90.7497 15.7396 172.8744 0.0000 -10.0330 0.0000
# 4 0.0000 0.0000 0.0000 22.3866 0.0000 9.5512
# 5 -9.2766 -5.2873 -10.0330 0.0000 26.3563 0.0000
# 6 0.0000 0.0000 0.0000 9.5512 0.0000 17.3713
#
#
#
# Elastic Compliance Matrix: (Units=1/GPa)
#
#
# Indices 1 2 3 4 5 6 
#
# 1 0.016381 -0.027926 -0.006184 0.000000 -0.002190 0.000000
# 2 -0.027926 0.308168 -0.010615 0.000000 0.047951 0.000000
# 3 -0.006184 -0.010615 0.009967 0.000000 -0.000512 0.000000
# 4 0.000000 0.000000 0.000000 0.058360 0.000000 -0.032088
# 5 -0.002190 0.047951 -0.000512 0.000000 0.046595 0.000000
# 6 0.000000 0.000000 0.000000 -0.032088 0.000000 0.075209
#
#
# Mechanical properties :
#
#
# Convention : Reuss Voigt Hill
#
# Bulk Modulus (GPa) = 4.08051 60.36679 32.22365
# Shear Modulus (GPa) = 7.29056 25.04792 16.16924
#
# Velocity S-wave (km/s) = 2.02223 3.74832 3.01159
# Velocity P-wave (km/s) = 2.78234 7.25219 5.49252
#
# Compressibility (1/GPa) = 0.24506754
#
# Stress axis : x y z
#
# Youngs Moduli (GPa) = 61.04722 3.24498 100.32710
#
# Poissons Ratio (x) = 0.09062 0.62038
# Poissons Ratio (y) = 1.70478 1.06499
# Poissons Ratio (z) = 0.37749 0.03445
#
# Static dielectric constant tensor:
#      x y z
#    x 1.584190 0.000000 -0.016620 
#    y 0.000000 1.612290 0.000000 
#    z -0.016620 0.000000 1.623530 
# 
# From -- ./inp_files/23700.got.cif
#   From: 2010.05.17/outbox.cif.g08.bks.cpg/sg8_12_cif.got.tgz:23700.got - 2010.06.03 19:46:02.
