data_PCOD9131038
_publ_section_title
;
Structure prediction by ZEFSAII (Michael W. Deem and Ramdas Pophale) SiO2 
 PCOD9131038
Probable space group: P M
;
_chemical_formula_sum "Si O2"
_cell_formula_units_Z 16
_cell_length_a 8.328801
_cell_length_b 9.007929
_cell_length_c 13.009590
_cell_angle_alpha 90.000000
_cell_angle_beta 52.898012
_cell_angle_gamma 90.000000
_cell_volume 778.459544
_symmetry_space_group_name_H-M "P M"
_symmetry_group_IT_number 6
_symmetry_cell_setting 'monoclinic'
loop_
_space_group_symop_operation_xyz
x,y,z
x,-y,z
loop_
_atom_site_type_symbol
_atom_site_label
_atom_site_fract_x
_atom_site_fract_y
_atom_site_fract_z
Si Si1 0.539820 0.661018 0.765120
Si Si2 0.428542 0.162178 0.634425
Si Si3 0.985942 0.333573 0.509560
Si Si4 0.016861 0.322630 0.116384
Si Si5 0.833107 0.822151 0.981190
Si Si6 0.869773 0.832973 0.364352
Si Si7 0.074529 0.674025 0.700763
Si Si8 0.466467 0.673393 0.023314
O O1 0.432509 0.500000 0.796906
O O2 0.434086 0.800056 0.753517
O O3 0.747574 0.650633 0.623459
O O4 0.580219 0.681060 0.869158
O O5 0.647665 0.158597 0.499066
O O6 0.306469 0.298814 0.636813
O O7 0.335112 0.000000 0.653179
O O8 0.069319 0.500000 0.462108
O O9 0.010246 0.235113 0.399591
O O10 0.055214 0.269011 0.591522
O O11 0.016073 0.500000 0.102420
O O12 0.873034 0.270981 0.264258
O O13 0.240366 0.281310 0.074721
O O14 0.940856 0.246016 0.040874
O O15 0.603057 0.763937 0.050737
O O16 0.955907 0.761771 0.834697
O O17 0.835598 0.000000 0.984833
O O18 0.932041 0.000000 0.312394
O O19 0.018546 0.500000 0.723659
O O20 0.458243 0.500000 0.058257
#
# Coordination Sequence:
#
# PCOD9131038 Si02
#       8
#     2   2   2   2   2   2   2   2
#     4   9  16  32  57  83 114 151 191 241 300 364
#     4  10  21  35  55  87 121 157 199 249 313 373
#     4   9  18  34  59  85 113 151 196 243 294 359
#     4  11  24  43  68  92 122 169 221 264 305 368
#     4  12  25  40  64  97 133 166 202 258 321 379
#     4  10  22  41  61  84 120 161 203 255 311 366
#     4  11  21  37  60  90 124 158 201 251 304 369
#     4  10  21  40  64  92 123 163 211 259 310 370
#
# _framework density 20.553411000000001
#
# number of rings (size 3 to 8) (size 9 to 14) (size 15 to 20)
#    0.000    1.750    1.250    3.375    0.000    5.000 
#    2.250    0.000    0.000    0.000    0.000    0.000 
#    0.000    0.000    0.000    0.000    0.000    0.000 
#
# Total GULP energy -89165.694047 kJ/mol
# GULP energy per Si atom -5572.855878 kJ/mol
# Density = 2.050663 g / cm^3
# Si number density = 20.553411 Si / 1000 Ang^3
#
#
#
# Elastic Constant Matrix: (Units=GPa)
#
#
# Indices 1 2 3 4 5 6 
#
# 1 103.8260 54.5363 33.1067 0.0000 21.6252 0.0000
# 2 54.5363 89.2356 35.3096 0.0000 11.4521 0.0000
# 3 33.1067 35.3096 54.8088 0.0000 21.9585 0.0000
# 4 0.0000 0.0000 0.0000 20.4011 0.0000 -6.0508
# 5 21.6252 11.4521 21.9585 0.0000 25.9014 0.0000
# 6 0.0000 0.0000 0.0000 -6.0508 0.0000 -13.8155
#
#
#
# Elastic Compliance Matrix: (Units=1/GPa)
#
#
# Indices 1 2 3 4 5 6 
#
# 1 0.016208 -0.008470 -0.000624 0.000000 -0.009258 0.000000
# 2 -0.008470 0.019564 -0.010381 0.000000 0.007222 0.000000
# 3 -0.000624 -0.010381 0.035227 0.000000 -0.024753 0.000000
# 4 0.000000 0.000000 0.000000 0.043382 0.000000 -0.019000
# 5 -0.009258 0.007222 -0.024753 0.000000 0.064129 0.000000
# 6 0.000000 0.000000 0.000000 -0.019000 0.000000 -0.064061
#
#
# Mechanical properties :
#
#
# Convention : Reuss Voigt Hill
#
# Bulk Modulus (GPa) = 31.20335 54.86396 43.03365
# Shear Modulus (GPa) = 30.47264 14.82528 22.64896
#
# Velocity S-wave (km/s) = 3.85464 2.68863 3.32317
# Velocity P-wave (km/s) = 5.91824 6.03238 5.97558
#
# Compressibility (1/GPa) = 0.03204784
#
# Stress axis : x y z
#
# Youngs Moduli (GPa) = 61.69796 51.11545 28.38718
#
# Poissons Ratio (x) = 0.43297 0.01773
# Poissons Ratio (y) = 0.52260 0.29468
# Poissons Ratio (z) = 0.03853 0.53061
#
# Static dielectric constant tensor:
#      x y z
#    x 1.809170 0.000000 -0.034230 
#    y 0.000000 1.749750 0.000000 
#    z -0.034230 0.000000 1.746150 
# 
# From -- ./inp_files/4537.got.cif
#   From: 2010.05.17/outbox.cif.g08.bks.cpg/sg6_3_cif.got.tgz:4537.got - 2010.06.03 19:42:10.
