data_PCOD9131309
_publ_section_title
;
Structure prediction by ZEFSAII (Michael W. Deem and Ramdas Pophale) SiO2 
 PCOD9131309
Probable space group: P C
;
_chemical_formula_sum "Si O2"
_cell_formula_units_Z 14
_cell_length_a 7.190837
_cell_length_b 15.413844
_cell_length_c 5.247711
_cell_angle_alpha 90.000000
_cell_angle_beta 68.518624
_cell_angle_gamma 90.000000
_cell_volume 541.244874
_symmetry_space_group_name_H-M "P C"
_symmetry_group_IT_number 7
_symmetry_cell_setting 'monoclinic'
loop_
_space_group_symop_operation_xyz
x,y,z
x,-y,1/2+z
loop_
_atom_site_type_symbol
_atom_site_label
_atom_site_fract_x
_atom_site_fract_y
_atom_site_fract_z
Si Si1 0.695840 0.943286 0.696090
Si Si2 0.217829 0.042633 0.498675
Si Si3 0.267291 0.725419 0.235669
Si Si4 0.189022 0.214937 0.276363
Si Si5 0.238438 0.455357 0.970642
Si Si6 0.845240 0.257044 0.120178
Si Si7 0.756567 0.553473 0.656300
O O1 0.454299 0.941375 0.839907
O O2 0.766041 0.842076 0.656932
O O3 0.753167 0.997570 0.412790
O O4 0.116874 0.124177 0.419038
O O5 0.172650 0.033269 0.818701
O O6 0.310020 0.790254 0.447961
O O7 0.326197 0.632595 0.311892
O O8 0.024935 0.732432 0.324930
O O9 0.330536 0.747199 0.922457
O O10 0.990934 0.266885 0.294955
O O11 0.286545 0.530573 0.742300
O O12 0.999092 0.448045 0.056412
O O13 0.712308 0.343544 0.172404
O O14 0.693937 0.498933 0.935647
#
# Coordination Sequence:
#
# PCOD9131309 Si02
#       7
#     2   2   2   2   2   2   2
#     4  10  23  38  56  77 106 142 179 215 263 316
#     4  10  21  39  55  73  99 138 182 215 252 318
#     4   9  19  30  45  76 104 129 166 209 258 307
#     4  10  20  32  50  74 104 132 165 215 261 303
#     4   9  15  24  41  64  99 134 159 198 249 302
#     4   9  22  33  54  80 113 133 176 220 266 306
#     4   9  18  28  47  74 105 138 169 208 259 310
#
# _framework density 25.866294
#
# number of rings (size 3 to 8) (size 9 to 14) (size 15 to 20)
#    0.857    1.714    0.000    1.714    8.000    1.143 
#    0.000    0.000    0.000    0.000    0.000    8.000 
#    0.000    0.000    0.000    0.000    0.000    0.000 
#
# Total GULP energy -78100.379164 kJ/mol
# GULP energy per Si atom -5578.598512 kJ/mol
# Density = 2.580742 g / cm^3
# Si number density = 25.866294 Si / 1000 Ang^3
#
#
#
# Elastic Constant Matrix: (Units=GPa)
#
#
# Indices 1 2 3 4 5 6 
#
# 1 45.4244 17.8877 14.8929 0.0000 -24.4073 0.0000
# 2 17.8877 194.1456 79.6425 0.0000 12.2365 0.0000
# 3 14.8929 79.6425 159.6973 0.0000 50.7160 0.0000
# 4 0.0000 0.0000 0.0000 39.5979 0.0000 6.7954
# 5 -24.4073 12.2365 50.7160 0.0000 17.3459 0.0000
# 6 0.0000 0.0000 0.0000 6.7954 0.0000 31.8999
#
#
#
# Elastic Compliance Matrix: (Units=1/GPa)
#
#
# Indices 1 2 3 4 5 6 
#
# 1 -0.000172 -0.003003 0.012838 0.000000 -0.035658 0.000000
# 2 -0.003003 0.006492 -0.002257 0.000000 -0.002208 0.000000
# 3 0.012838 -0.002257 -0.000731 0.000000 0.021793 0.000000
# 4 0.000000 0.000000 0.000000 0.026212 0.000000 -0.005584
# 5 -0.035658 -0.002208 0.021793 0.000000 -0.054684 0.000000
# 6 0.000000 0.000000 0.000000 -0.005584 0.000000 0.032538
#
#
# Mechanical properties :
#
#
# Convention : Reuss Voigt Hill
#
# Bulk Modulus (GPa) = 48.20141 69.34594 58.77368
# Shear Modulus (GPa) = 3533.49427 36.89169 1785.19298
#
# Velocity S-wave (km/s) = 37.00036 3.78066 26.29943
# Velocity P-wave (km/s) = 42.94234 6.77683 30.74061
#
# Compressibility (1/GPa) = 0.02074628
#
# Stress axis : x y z
#
# Youngs Moduli (GPa) = -5830.67809 154.02855 -1368.29318
#
# Poissons Ratio (x) = 0.46256 17.56587
# Poissons Ratio (y) = -17.51005 -3.08762
# Poissons Ratio (z) = 74.85308 0.34757
#
# Static dielectric constant tensor:
#      x y z
#    x 2.097480 0.000000 -0.082340 
#    y 0.000000 2.074620 0.000000 
#    z -0.082340 0.000000 2.135780 
# 
# From -- ./inp_files/620.got.cif
#   From: 2010.05.17/outbox.cif.g08.bks.cpg/sg7_cif.got.tgz:620.got - 2010.06.03 19:44:50.
