data_PCOD9131899
_publ_section_title
;
Structure prediction by ZEFSAII (Michael W. Deem and Ramdas Pophale) SiO2 
 PCOD9131899
Probable space group: C M
;
_chemical_formula_sum "Si O2"
_cell_formula_units_Z 32
_cell_length_a 26.027958
_cell_length_b 7.977652
_cell_length_c 17.106297
_cell_angle_alpha 90.000000
_cell_angle_beta 25.950928
_cell_angle_gamma 90.000000
_cell_volume 1554.353140
_symmetry_space_group_name_H-M "C M"
_symmetry_group_IT_number 8
_symmetry_cell_setting 'monoclinic'
loop_
_space_group_symop_operation_xyz
x,y,z
x,-y,z
1/2+x,1/2+y,z
1/2+x,1/2-y,z
loop_
_atom_site_type_symbol
_atom_site_label
_atom_site_fract_x
_atom_site_fract_y
_atom_site_fract_z
Si Si1 0.267070 0.302545 0.767470
Si Si2 0.033652 0.302958 0.392962
Si Si3 0.672525 0.705884 0.514038
Si Si4 0.592597 0.794670 0.141993
Si Si5 0.395139 0.193524 0.300658
Si Si6 0.570912 0.696346 0.929381
Si Si7 0.971014 0.202104 0.899179
Si Si8 0.707775 0.302867 0.289183
O O1 0.244987 0.500000 0.791652
O O2 0.405181 0.273359 0.581226
O O3 0.202257 0.221321 0.781536
O O4 0.198321 0.241270 0.939794
O O5 0.014218 0.500000 0.409227
O O6 0.093255 0.239805 0.230824
O O7 0.118804 0.275350 0.349269
O O8 0.679673 0.500000 0.504016
O O9 0.774654 0.767395 0.432850
O O10 0.547248 0.753655 0.720368
O O11 0.693606 0.763476 0.396988
O O12 0.470534 0.735253 0.269092
O O13 0.593795 0.000000 0.138814
O O14 0.370536 0.000000 0.354490
O O15 0.485513 0.203145 0.104257
O O16 0.541104 0.500000 0.977996
O O17 0.543817 0.746246 0.877909
O O18 0.960273 0.000000 0.912395
O O19 0.841755 0.275442 0.080674
O O20 0.682150 0.500000 0.326267
#
# Coordination Sequence:
#
# PCOD9131899 Si02
#       8
#     4   4   4   4   4   4   4   4
#     4  10  21  39  60  85 116 153 193 233 280 342
#     4  11  23  40  62  86 113 151 195 241 285 334
#     4   9  19  35  59  84 111 152 195 231 278 345
#     4   8  18  35  59  84 112 151 192 228 275 343
#     4   9  16  33  59  83 113 152 192 231 278 341
#     4  10  19  32  56  88 122 150 182 235 293 337
#     4  10  21  37  59  86 114 151 195 237 281 339
#     4  11  23  41  60  82 115 154 194 238 286 339
#
# _framework density 20.587342
#
# number of rings (size 3 to 8) (size 9 to 14) (size 15 to 20)
#    0.000    2.250    1.250    2.250    1.750    1.500 
#    0.000   13.125    0.000    0.000    0.000    0.000 
#    0.000    0.000    0.000    0.000    0.000    0.000 
#
# Total GULP energy -89309.354398 kJ/mol
# GULP energy per Si atom -5581.834650 kJ/mol
# Density = 2.054048 g / cm^3
# Si number density = 20.587342 Si / 1000 Ang^3
#
#
#
# Elastic Constant Matrix: (Units=GPa)
#
#
# Indices 1 2 3 4 5 6 
#
# 1 70.3522 -1.5761 31.4522 0.0001 -17.5600 0.0000
# 2 -1.5761 21.5509 -2.9962 0.0011 1.3169 -0.0009
# 3 31.4522 -2.9962 86.5673 0.0002 -13.7840 -0.0002
# 4 0.0001 0.0011 0.0002 23.8922 0.0000 -4.8796
# 5 -17.5600 1.3169 -13.7840 0.0000 16.1801 0.0001
# 6 0.0000 -0.0009 -0.0002 -4.8796 0.0001 22.6514
#
#
#
# Elastic Compliance Matrix: (Units=1/GPa)
#
#
# Indices 1 2 3 4 5 6 
#
# 1 0.020984 -0.000261 -0.004632 0.000000 0.018849 0.000000
# 2 -0.000261 0.046739 0.001228 -0.000002 -0.003041 0.000001
# 3 -0.004632 0.001228 0.014416 0.000000 0.007155 0.000000
# 4 0.000000 -0.000002 0.000000 0.043781 0.000000 0.009431
# 5 0.018849 -0.003041 0.007155 0.000000 0.088603 -0.000001
# 6 0.000000 0.000001 0.000000 0.009431 -0.000001 0.046179
#
#
# Mechanical properties :
#
#
# Convention : Reuss Voigt Hill
#
# Bulk Modulus (GPa) = 13.36716 25.80337 19.58527
# Shear Modulus (GPa) = 17.06671 22.65077 19.85874
#
# Velocity S-wave (km/s) = 2.88234 3.32057 3.10919
# Velocity P-wave (km/s) = 4.19335 5.22134 4.73532
#
# Compressibility (1/GPa) = 0.07481018
#
# Stress axis : x y z
#
# Youngs Moduli (GPa) = 47.65610 21.39526 69.36603
#
# Poissons Ratio (x) = 0.00559 0.32128
# Poissons Ratio (y) = 0.01244 -0.08520
# Poissons Ratio (z) = 0.22073 -0.02628
#
# Static dielectric constant tensor:
#      x y z
#    x 1.723770 0.000000 0.018200 
#    y 0.000000 1.761800 0.000000 
#    z 0.018200 0.000000 1.722950 
# 
# From -- ./inp_files/24797.got.cif
#   From: 2010.05.17/outbox.cif.g08.bks.cpg/sg8_13_cif.got.tgz:24797.got - 2010.06.03 19:46:02.
