data_PCOD9131167
_publ_section_title
;
Structure prediction by ZEFSAII (Michael W. Deem and Ramdas Pophale) SiO2 
 PCOD9131167
Probable space group: P M
;
_chemical_formula_sum "Si O2"
_cell_formula_units_Z 16
_cell_length_a 12.807756
_cell_length_b 8.830419
_cell_length_c 12.990215
_cell_angle_alpha 90.000000
_cell_angle_beta 35.066667
_cell_angle_gamma 90.000000
_cell_volume 844.078399
_symmetry_space_group_name_H-M "P M"
_symmetry_group_IT_number 6
_symmetry_cell_setting 'monoclinic'
loop_
_space_group_symop_operation_xyz
x,y,z
x,-y,z
loop_
_atom_site_type_symbol
_atom_site_label
_atom_site_fract_x
_atom_site_fract_y
_atom_site_fract_z
Si Si1 0.067680 0.181489 0.556360
Si Si2 0.222882 0.318736 0.027436
Si Si3 0.844953 0.182637 0.267201
Si Si4 0.320009 0.682327 0.181137
Si Si5 0.724853 0.320085 0.920158
Si Si6 0.733530 0.822015 0.130946
Si Si7 0.317111 0.820483 0.540218
Si Si8 0.436228 0.183620 0.663537
O O1 0.169179 0.243176 0.374734
O O2 0.176390 0.240452 0.570241
O O3 0.864016 0.239698 0.731485
O O4 0.073687 0.000000 0.551404
O O5 0.225714 0.500000 0.017147
O O6 0.294448 0.275647 0.082771
O O7 0.017720 0.259433 0.178806
O O8 0.347310 0.249418 0.837221
O O9 0.836909 0.221845 0.151983
O O10 0.648929 0.223103 0.474404
O O11 0.861211 0.000000 0.259886
O O12 0.305295 0.500000 0.201096
O O13 0.518467 0.726931 0.062564
O O14 0.738137 0.500000 0.898294
O O15 0.773324 0.271079 0.997069
O O16 0.519949 0.805914 0.330533
O O17 0.769537 0.000000 0.081636
O O18 0.328030 0.762223 0.648233
O O19 0.279453 0.000000 0.579568
O O20 0.426696 0.000000 0.673527
#
# Coordination Sequence:
#
# PCOD9131167 Si02
#       8
#     2   2   2   2   2   2   2   2
#     4  11  22  37  62  91 116 150 198 245 293 348
#     4  11  24  40  60  85 117 159 202 241 289 349
#     4   9  20  38  61  88 118 153 193 243 296 343
#     4  10  24  45  60  78 118 164 200 242 292 343
#     4  11  23  38  58  86 120 157 195 237 294 354
#     4   9  17  35  60  86 119 154 191 238 293 347
#     4   8  16  33  58  86 117 149 184 235 291 341
#     4   9  19  38  61  86 117 154 193 237 294 349
#
# _framework density 18.955584999999999
#
# number of rings (size 3 to 8) (size 9 to 14) (size 15 to 20)
#    0.000    2.250    1.250    2.625    1.750    3.500 
#    0.000    6.250    0.000    0.000    0.000    0.000 
#    0.000    0.000    0.000    0.000    0.000    0.000 
#
# Total GULP energy -89328.019502 kJ/mol
# GULP energy per Si atom -5583.001219 kJ/mol
# Density = 1.891244 g / cm^3
# Si number density = 18.955585 Si / 1000 Ang^3
#
#
#
# Elastic Constant Matrix: (Units=GPa)
#
#
# Indices 1 2 3 4 5 6 
#
# 1 51.7728 22.8591 39.6478 0.0000 23.7270 0.0000
# 2 22.8591 21.9749 33.4983 0.0000 9.9372 0.0000
# 3 39.6478 33.4983 118.8397 0.0000 28.9047 0.0000
# 4 0.0000 0.0000 0.0000 30.3133 0.0000 3.1716
# 5 23.7270 9.9372 28.9047 0.0000 23.7358 0.0000
# 6 0.0000 0.0000 0.0000 3.1716 0.0000 29.3716
#
#
#
# Elastic Compliance Matrix: (Units=1/GPa)
#
#
# Indices 1 2 3 4 5 6 
#
# 1 0.054695 -0.045094 0.004504 0.000000 -0.041280 0.000000
# 2 -0.045094 0.118210 -0.024443 0.000000 0.025353 0.000000
# 3 0.004504 -0.024443 0.017630 0.000000 -0.015738 0.000000
# 4 0.000000 0.000000 0.000000 0.033366 0.000000 -0.003603
# 5 -0.041280 0.025353 -0.015738 0.000000 0.091946 0.000000
# 6 0.000000 0.000000 0.000000 -0.003603 0.000000 0.034436
#
#
# Mechanical properties :
#
#
# Convention : Reuss Voigt Hill
#
# Bulk Modulus (GPa) = 16.53744 42.73308 29.63526
# Shear Modulus (GPa) = 9.98992 23.12295 16.55643
#
# Velocity S-wave (km/s) = 2.29818 3.49642 2.95860
# Velocity P-wave (km/s) = 3.97308 6.23640 5.22868
#
# Compressibility (1/GPa) = 0.06046885
#
# Stress axis : x y z
#
# Youngs Moduli (GPa) = 18.28336 8.45949 56.72161
#
# Poissons Ratio (x) = 0.38147 -0.25546
# Poissons Ratio (y) = 0.82447 1.38645
# Poissons Ratio (z) = -0.08235 0.20678
#
# Static dielectric constant tensor:
#      x y z
#    x 1.664100 0.000000 -0.006240 
#    y 0.000000 1.637860 0.000000 
#    z -0.006240 0.000000 1.643810 
# 
# From -- ./inp_files/5048.got.cif
#   From: 2010.05.17/outbox.cif.g08.bks.cpg/sg6_3_cif.got.tgz:5048.got - 2010.06.03 19:42:10.
