data_PCOD9131685
_publ_section_title
;
Structure prediction by ZEFSAII (Michael W. Deem and Ramdas Pophale) SiO2 
 PCOD9131685
Probable space group: C M
;
_chemical_formula_sum "Si O2"
_cell_formula_units_Z 24
_cell_length_a 18.586592
_cell_length_b 8.334204
_cell_length_c 7.739180
_cell_angle_alpha 90.000000
_cell_angle_beta 118.706276
_cell_angle_gamma 90.000000
_cell_volume 1051.489065
_symmetry_space_group_name_H-M "C M"
_symmetry_group_IT_number 8
_symmetry_cell_setting 'monoclinic'
loop_
_space_group_symop_operation_xyz
x,y,z
x,-y,z
1/2+x,1/2+y,z
1/2+x,1/2-y,z
loop_
_atom_site_type_symbol
_atom_site_label
_atom_site_fract_x
_atom_site_fract_y
_atom_site_fract_z
Si Si1 0.244100 0.500000 0.789790
Si Si2 0.982514 0.500000 0.689569
Si Si3 0.559150 0.668210 0.412640
Si Si4 0.407981 0.318065 0.499752
Si Si5 0.745477 0.328070 0.692725
Si Si6 0.239641 0.183965 0.271003
Si Si7 0.072145 0.500000 0.412682
Si Si8 0.152801 0.500000 0.049523
O O1 0.287676 0.669397 0.813540
O O2 0.169904 0.500000 0.562348
O O3 0.200582 0.500000 0.922579
O O4 0.024141 0.500000 0.542939
O O5 0.932320 0.666012 0.647459
O O6 0.057211 0.500000 0.904673
O O7 0.562063 0.500000 0.316601
O O8 0.484639 0.664085 0.459773
O O9 0.646502 0.678539 0.615839
O O10 0.550900 0.832909 0.300885
O O11 0.391218 0.500000 0.549850
O O12 0.327486 0.251834 0.309998
O O13 0.776655 0.500000 0.791151
O O14 0.747525 0.324423 0.487827
O O15 0.178637 0.329780 0.161320
O O16 0.222957 0.000000 0.191591
#
# Coordination Sequence:
#
# PCOD9131685 Si02
#       8
#     2   2   4   4   4   4   2   2
#     4   9  17  31  53  77 109 146 189 237 281 339
#     4   9  18  33  53  79 109 146 193 241 278 349
#     4   8  14  25  45  74 100 128 182 235 264 313
#     4  10  18  32  57  85 111 149 201 245 286 343
#     4   9  18  33  55  84 111 150 202 243 281 348
#     4  11  22  36  57  89 127 157 188 247 308 355
#     4   7  12  23  41  69  97 119 161 221 269 295
#     4  11  23  37  57  91 127 151 191 249 312 349
#
# _framework density 22.824774000000001
#
# number of rings (size 3 to 8) (size 9 to 14) (size 15 to 20)
#    0.000    2.667    1.667    1.500    0.000    1.333 
#    0.000    1.667    0.000    2.000    0.000    0.000 
#    0.000    0.000    0.000    0.000    0.000    0.000 
#
# Total GULP energy -66833.054703 kJ/mol
# GULP energy per Si atom -5569.421225 kJ/mol
# Density = 2.277282 g / cm^3
# Si number density = 22.824774 Si / 1000 Ang^3
#
#
#
# Elastic Constant Matrix: (Units=GPa)
#
#
# Indices 1 2 3 4 5 6 
#
# 1 48.8188 16.9562 14.4814 0.0000 7.2540 0.0000
# 2 16.9562 332.3805 46.8630 0.0000 10.6952 0.0000
# 3 14.4814 46.8630 35.2640 0.0000 9.1632 0.0000
# 4 0.0000 0.0000 0.0000 15.4420 0.0000 -0.2762
# 5 7.2540 10.6952 9.1632 0.0000 27.4607 0.0000
# 6 0.0000 0.0000 0.0000 -0.2762 0.0000 15.7902
#
#
#
# Elastic Compliance Matrix: (Units=1/GPa)
#
#
# Indices 1 2 3 4 5 6 
#
# 1 0.023602 0.000182 -0.009083 0.000000 -0.003275 0.000000
# 2 0.000182 0.003705 -0.005049 0.000000 0.000194 0.000000
# 3 -0.009083 -0.005049 0.041238 0.000000 -0.009395 0.000000
# 4 0.000000 0.000000 0.000000 0.064779 0.000000 0.001133
# 5 -0.003275 0.000194 -0.009395 0.000000 0.040340 0.000000
# 6 0.000000 0.000000 0.000000 0.001133 0.000000 0.063350
#
#
# Mechanical properties :
#
#
# Convention : Reuss Voigt Hill
#
# Bulk Modulus (GPa) = 24.60324 63.67383 44.13854
# Shear Modulus (GPa) = 17.95582 34.28275 26.11929
#
# Velocity S-wave (km/s) = 2.80783 3.87977 3.38648
# Velocity P-wave (km/s) = 4.61676 6.93019 5.88820
#
# Compressibility (1/GPa) = 0.04064505
#
# Stress axis : x y z
#
# Youngs Moduli (GPa) = 42.36988 269.91337 24.24954
#
# Poissons Ratio (x) = -0.04912 0.22026
# Poissons Ratio (y) = -0.00771 0.12242
# Poissons Ratio (z) = 0.38485 1.36267
#
# Static dielectric constant tensor:
#      x y z
#    x 1.895430 0.000000 0.000620 
#    y 0.000000 2.000510 0.000000 
#    z 0.000620 0.000000 1.794260 
# 
# From -- ./inp_files/15716.got.cif
#   From: 2010.05.17/outbox.cif.g08.bks.cpg/sg8_8_cif.got.tgz:15716.got - 2010.06.03 19:46:02.
