data_PCOD9131057
_publ_section_title
;
Structure prediction by ZEFSAII (Michael W. Deem and Ramdas Pophale) SiO2 
 PCOD9131057
Probable space group: P M
;
_chemical_formula_sum "Si O2"
_cell_formula_units_Z 13
_cell_length_a 9.055827
_cell_length_b 11.489033
_cell_length_c 8.611285
_cell_angle_alpha 90.000000
_cell_angle_beta 43.120095
_cell_angle_gamma 90.000000
_cell_volume 612.402593
_symmetry_space_group_name_H-M "P M"
_symmetry_group_IT_number 6
_symmetry_cell_setting 'monoclinic'
loop_
_space_group_symop_operation_xyz
x,y,z
x,-y,z
loop_
_atom_site_type_symbol
_atom_site_label
_atom_site_fract_x
_atom_site_fract_y
_atom_site_fract_z
Si Si1 0.821540 0.626669 0.448000
Si Si2 0.148423 0.808149 0.633866
Si Si3 0.280354 0.366781 0.270797
Si Si4 0.515887 0.000000 0.397697
Si Si5 0.434028 0.252320 0.859876
Si Si6 0.794444 0.000000 0.854326
Si Si7 0.063764 0.630138 0.954463
Si Si8 0.501941 0.000000 0.765469
O O1 0.720682 0.500000 0.562207
O O2 0.672583 0.731443 0.611975
O O3 0.048372 0.630011 0.362567
O O4 0.874369 0.631483 0.226170
O O5 0.241402 0.708941 0.451068
O O6 0.352616 0.889816 0.516416
O O7 0.044658 0.735264 0.852454
O O8 0.956324 0.889836 0.720234
O O9 0.351239 0.500000 0.241378
O O10 0.432159 0.295275 0.037788
O O11 0.603578 0.000000 0.510983
O O12 0.666569 0.000000 0.122963
O O13 0.281521 0.340049 0.882258
O O14 0.366193 0.119336 0.887259
O O15 0.648373 0.000000 0.810413
O O16 0.075859 0.500000 0.876871
#
# Coordination Sequence:
#
# PCOD9131057 Si02
#       8
#     2   2   2   1   2   1   2   1
#     4   9  19  36  59  90 124 163 213 266 322 388
#     4  11  23  43  63  95 133 170 216 274 329 394
#     4  10  21  38  64  94 128 169 215 272 333 394
#     4  11  25  47  66  98 139 174 227 276 321 401
#     4  11  21  39  62  91 128 167 219 268 324 389
#     4  11  27  45  66  96 137 176 223 278 329 389
#     4  10  21  37  61  91 125 166 213 266 326 390
#     4  12  24  42  68  98 128 182 224 270 326 390
#
# _framework density 21.227862999999999
#
# number of rings (size 3 to 8) (size 9 to 14) (size 15 to 20)
#    0.000    1.538    1.538    4.615    2.154    0.615 
#    0.000    4.615    0.000    5.538    0.000    0.000 
#    0.000    0.000    0.000    0.000    0.000    0.000 
#
# Total GULP energy -72513.223795 kJ/mol
# GULP energy per Si atom -5577.940292 kJ/mol
# Density = 2.117955 g / cm^3
# Si number density = 21.227863 Si / 1000 Ang^3
#
#
#
# Elastic Constant Matrix: (Units=GPa)
#
#
# Indices 1 2 3 4 5 6 
#
# 1 48.2899 7.5204 14.0082 0.0000 17.4949 0.0000
# 2 7.5204 128.9074 36.7726 0.0000 7.6122 0.0000
# 3 14.0082 36.7726 66.7011 0.0000 10.0386 0.0000
# 4 0.0000 0.0000 0.0000 -28.7128 0.0000 21.4419
# 5 17.4949 7.6122 10.0386 0.0000 26.0358 0.0000
# 6 0.0000 0.0000 0.0000 21.4419 0.0000 19.4017
#
#
#
# Elastic Compliance Matrix: (Units=1/GPa)
#
#
# Indices 1 2 3 4 5 6 
#
# 1 0.028032 0.000389 -0.003450 0.000000 -0.017620 0.000000
# 2 0.000389 0.009226 -0.005013 0.000000 -0.001026 0.000000
# 3 -0.003450 -0.005013 0.019015 0.000000 -0.003547 0.000000
# 4 0.000000 0.000000 0.000000 -0.019081 0.000000 0.021087
# 5 -0.017620 -0.001026 -0.003547 0.000000 0.051916 0.000000
# 6 0.000000 0.000000 0.000000 0.021087 0.000000 0.028238
#
#
# Mechanical properties :
#
#
# Convention : Reuss Voigt Hill
#
# Bulk Modulus (GPa) = 24.92285 40.05565 32.48925
# Shear Modulus (GPa) = 34.04420 15.71808 24.88114
#
# Velocity S-wave (km/s) = 4.00903 2.72407 3.42731
# Velocity P-wave (km/s) = 5.76159 5.36697 5.56778
#
# Compressibility (1/GPa) = 0.04012382
#
# Stress axis : x y z
#
# Youngs Moduli (GPa) = 35.67370 108.39496 52.59114
#
# Poissons Ratio (x) = -0.04219 0.18143
# Poissons Ratio (y) = -0.01389 0.26366
# Poissons Ratio (z) = 0.12307 0.54343
#
# Static dielectric constant tensor:
#      x y z
#    x 1.790980 0.000000 0.045220 
#    y 0.000000 1.986150 0.000000 
#    z 0.045220 0.000000 1.776710 
# 
# From -- ./inp_files/993.got.cif
#   From: 2010.05.17/outbox.cif.g08.bks.cpg/sg6_1_cif.got.tgz:993.got - 2010.06.03 19:42:10.
