data_PCOD9131988
_publ_section_title
;
Structure prediction by ZEFSAII (Michael W. Deem and Ramdas Pophale) SiO2 
 PCOD9131988
Probable space group: C M
;
_chemical_formula_sum "Si O2"
_cell_formula_units_Z 32
_cell_length_a 34.194268
_cell_length_b 7.751532
_cell_length_c 12.928416
_cell_angle_alpha 90.000000
_cell_angle_beta 153.513562
_cell_angle_gamma 90.000000
_cell_volume 1528.295620
_symmetry_space_group_name_H-M "C M"
_symmetry_group_IT_number 8
_symmetry_cell_setting 'monoclinic'
loop_
_space_group_symop_operation_xyz
x,y,z
x,-y,z
1/2+x,1/2+y,z
1/2+x,1/2-y,z
loop_
_atom_site_type_symbol
_atom_site_label
_atom_site_fract_x
_atom_site_fract_y
_atom_site_fract_z
Si Si1 0.465340 0.203517 0.359190
Si Si2 0.273165 0.294615 0.984848
Si Si3 0.823512 0.207706 0.552096
Si Si4 0.532370 0.293927 0.737960
Si Si5 0.019181 0.292050 0.076543
Si Si6 0.586868 0.787906 0.459734
Si Si7 0.143867 0.296907 0.191686
Si Si8 0.339527 0.710464 0.358010
O O1 0.524800 0.237130 0.601507
O O2 0.516939 0.270317 0.381030
O O3 0.456226 0.000000 0.325138
O O4 0.366820 0.268973 0.149660
O O5 0.262157 0.500000 0.967314
O O6 0.185428 0.229614 0.721842
O O7 0.283773 0.227517 0.127672
O O8 0.918098 0.247366 0.821175
O O9 0.741933 0.275239 0.425196
O O10 0.816134 0.272619 0.416502
O O11 0.816026 0.000000 0.529358
O O12 0.537625 0.500000 0.752302
O O13 0.439891 0.241292 0.570944
O O14 0.607474 0.222031 0.989230
O O15 0.024056 0.500000 0.088057
O O16 0.057391 0.231637 0.276270
O O17 0.076039 0.223176 0.114388
O O18 0.586769 0.000000 0.460223
O O19 0.149314 0.500000 0.227474
O O20 0.335878 0.500000 0.349738
#
# Coordination Sequence:
#
# PCOD9131988 Si02
#       8
#     4   4   4   4   4   4   4   4
#     4  10  20  35  56  83 111 143 183 228 274 322
#     4   9  18  35  57  81 109 148 183 221 274 329
#     4  10  20  35  55  82 111 146 184 222 274 332
#     4  10  19  34  56  81 113 147 179 222 277 332
#     4  10  21  39  56  80 113 145 186 232 270 316
#     4   9  20  37  59  79 108 152 188 219 272 335
#     4  10  21  34  55  83 111 142 184 230 272 320
#     4   8  15  29  52  77 106 139 175 212 261 326
#
# _framework density 20.938358000000001
#
# number of rings (size 3 to 8) (size 9 to 14) (size 15 to 20)
#    0.000    2.500    1.250    1.500    1.750    1.500 
#    0.000    4.375    0.000    0.000    0.000    0.000 
#    0.000    0.000    0.000    0.000    0.000    0.000 
#
# Total GULP energy -89291.620324 kJ/mol
# GULP energy per Si atom -5580.726270 kJ/mol
# Density = 2.089070 g / cm^3
# Si number density = 20.938358 Si / 1000 Ang^3
#
#
#
# Elastic Constant Matrix: (Units=GPa)
#
#
# Indices 1 2 3 4 5 6 
#
# 1 135.1972 -5.6408 75.5790 0.0000 24.9050 0.0000
# 2 -5.6408 26.0706 -2.8327 0.0000 0.9946 0.0000
# 3 75.5790 -2.8327 184.3603 0.0000 -5.7933 0.0000
# 4 0.0000 0.0000 0.0000 19.6974 0.0000 3.1858
# 5 24.9050 0.9946 -5.7933 0.0000 40.5009 0.0000
# 6 0.0000 0.0000 0.0000 3.1858 0.0000 10.4034
#
#
#
# Elastic Compliance Matrix: (Units=1/GPa)
#
#
# Indices 1 2 3 4 5 6 
#
# 1 0.011798 0.002310 -0.005054 0.000000 -0.008035 0.000000
# 2 0.002310 0.038904 -0.000426 0.000000 -0.002437 0.000000
# 3 -0.005054 -0.000426 0.007622 0.000000 0.004208 0.000000
# 4 0.000000 0.000000 0.000000 0.053414 0.000000 -0.016357
# 5 -0.008035 -0.002437 0.004208 0.000000 0.030293 0.000000
# 6 0.000000 0.000000 0.000000 -0.016357 0.000000 0.101131
#
#
# Mechanical properties :
#
#
# Convention : Reuss Voigt Hill
#
# Bulk Modulus (GPa) = 19.23629 53.31544 36.27586
# Shear Modulus (GPa) = 18.73857 32.68850 25.71353
#
# Velocity S-wave (km/s) = 2.99480 3.95546 3.50817
# Velocity P-wave (km/s) = 4.60060 6.81023 5.81140
#
# Compressibility (1/GPa) = 0.05198508
#
# Stress axis : x y z
#
# Youngs Moduli (GPa) = 84.75836 25.70431 131.20538
#
# Poissons Ratio (x) = -0.05938 0.66307
# Poissons Ratio (y) = -0.19581 0.05588
# Poissons Ratio (z) = 0.42834 0.01095
#
# Static dielectric constant tensor:
#      x y z
#    x 1.755480 0.000000 0.016450 
#    y 0.000000 1.771480 0.000000 
#    z 0.016450 0.000000 1.736190 
# 
# From -- ./inp_files/24804.got.cif
#   From: 2010.05.17/outbox.cif.g08.bks.cpg/sg8_13_cif.got.tgz:24804.got - 2010.06.03 19:46:02.
