data_PCOD9131230
_publ_section_title
;
Structure prediction by ZEFSAII (Michael W. Deem and Ramdas Pophale) SiO2 
 PCOD9131230
Probable space group: P C
;
_chemical_formula_sum "Si O2"
_cell_formula_units_Z 10
_cell_length_a 7.245362
_cell_length_b 10.182938
_cell_length_c 5.397470
_cell_angle_alpha 90.000000
_cell_angle_beta 105.197721
_cell_angle_gamma 90.000000
_cell_volume 384.293338
_symmetry_space_group_name_H-M "P C"
_symmetry_group_IT_number 7
_symmetry_cell_setting 'monoclinic'
loop_
_space_group_symop_operation_xyz
x,y,z
x,-y,1/2+z
loop_
_atom_site_type_symbol
_atom_site_label
_atom_site_fract_x
_atom_site_fract_y
_atom_site_fract_z
Si Si1 0.593990 0.049785 0.069700
Si Si2 0.228802 0.139938 0.464595
Si Si3 0.805967 0.441456 0.935691
Si Si4 0.428061 0.326538 0.855415
Si Si5 0.064583 0.774943 0.402713
O O1 0.692444 0.006114 0.357874
O O2 0.538138 0.202102 0.024375
O O3 0.389933 0.971809 0.008115
O O4 0.357808 0.269930 0.565828
O O5 0.109442 0.153630 0.174292
O O6 0.098884 0.141835 0.666723
O O7 0.875218 0.461773 0.241894
O O8 0.867074 0.300185 0.852054
O O9 0.577123 0.441403 0.878300
O O10 0.230218 0.338180 0.934044
#
# Coordination Sequence:
#
# PCOD9131230 Si02
#       5
#     2   2   2   2   2
#     4  10  16  32  64  92 120 157 191 246 304 374
#     4   9  18  37  66  89 121 162 195 246 318 367
#     4  12  28  43  61  92 126 165 217 262 298 356
#     4   9  23  38  69  85 129 159 208 248 319 358
#     4  10  21  40  62  86 124 161 207 260 303 361
#
# _framework density 26.021787
#
# number of rings (size 3 to 8) (size 9 to 14) (size 15 to 20)
#    1.200    0.800    2.000    1.200    2.800    1.600 
#    0.000    0.000   17.600    0.000    0.000    0.000 
#    0.000    0.000    0.000    0.000    0.000    0.000 
#
# Total GULP energy -55812.920799 kJ/mol
# GULP energy per Si atom -5581.292080 kJ/mol
# Density = 2.596256 g / cm^3
# Si number density = 26.021787 Si / 1000 Ang^3
#
#
#
# Elastic Constant Matrix: (Units=GPa)
#
#
# Indices 1 2 3 4 5 6 
#
# 1 74.1897 13.1325 28.7015 0.0000 -17.1005 0.0000
# 2 13.1325 27.4869 13.2347 0.0000 -14.0760 0.0000
# 3 28.7015 13.2347 169.0083 0.0000 -52.6850 0.0000
# 4 0.0000 0.0000 0.0000 31.5003 0.0000 -4.5977
# 5 -17.1005 -14.0760 -52.6850 0.0000 33.9886 0.0000
# 6 0.0000 0.0000 0.0000 -4.5977 0.0000 44.2500
#
#
#
# Elastic Compliance Matrix: (Units=1/GPa)
#
#
# Indices 1 2 3 4 5 6 
#
# 1 0.015712 -0.004730 -0.000860 0.000000 0.004614 0.000000
# 2 -0.004730 0.049469 0.004981 0.000000 0.025828 0.000000
# 3 -0.000860 0.004981 0.011960 0.000000 0.020170 0.000000
# 4 0.000000 0.000000 0.000000 0.032235 0.000000 0.003349
# 5 0.004614 0.025828 0.020170 0.000000 0.073704 0.000000
# 6 0.000000 0.000000 0.000000 0.003349 0.000000 0.022947
#
#
# Mechanical properties :
#
#
# Convention : Reuss Voigt Hill
#
# Bulk Modulus (GPa) = 13.17121 42.31358 27.74240
# Shear Modulus (GPa) = 21.50048 36.32219 28.91134
#
# Velocity S-wave (km/s) = 2.87757 3.74014 3.33685
# Velocity P-wave (km/s) = 4.01412 5.91166 5.05277
#
# Compressibility (1/GPa) = 0.07592317
#
# Stress axis : x y z
#
# Youngs Moduli (GPa) = 63.64445 20.21467 83.60985
#
# Poissons Ratio (x) = 0.09562 0.07188
# Poissons Ratio (y) = 0.30106 -0.41644
# Poissons Ratio (z) = 0.05471 -0.10068
#
# Static dielectric constant tensor:
#      x y z
#    x 2.008360 0.000000 -0.031790 
#    y 0.000000 2.029910 0.000000 
#    z -0.031790 0.000000 2.106380 
# 
# From -- ./inp_files/564.got.cif
#   From: 2010.05.17/outbox.cif.g08.bks.cpg/sg7_cif.got.tgz:564.got - 2010.06.03 19:44:50.
