data_PCOD9131991
_publ_section_title
;
Structure prediction by ZEFSAII (Michael W. Deem and Ramdas Pophale) SiO2 
 PCOD9131991
Probable space group: C M
;
_chemical_formula_sum "Si O2"
_cell_formula_units_Z 32
_cell_length_a 23.535816
_cell_length_b 10.878810
_cell_length_c 6.575461
_cell_angle_alpha 90.000000
_cell_angle_beta 119.404665
_cell_angle_gamma 90.000000
_cell_volume 1466.701322
_symmetry_space_group_name_H-M "C M"
_symmetry_group_IT_number 8
_symmetry_cell_setting 'monoclinic'
loop_
_space_group_symop_operation_xyz
x,y,z
x,-y,z
1/2+x,1/2+y,z
1/2+x,1/2-y,z
loop_
_atom_site_type_symbol
_atom_site_label
_atom_site_fract_x
_atom_site_fract_y
_atom_site_fract_z
Si Si1 0.163750 0.629634 0.529460
Si Si2 0.341115 0.858436 0.599233
Si Si3 0.500669 0.640625 0.301916
Si Si4 0.372331 0.359375 0.354760
Si Si5 0.782399 0.723458 0.889896
Si Si6 0.090600 0.276542 0.766781
Si Si7 0.709250 0.370366 0.127216
Si Si8 0.531885 0.858436 0.057444
O O1 0.196437 0.500000 0.545038
O O2 0.221499 0.724288 0.657390
O O3 0.123595 0.629405 0.669754
O O4 0.106609 0.646442 0.267783
O O5 0.374360 0.747664 0.530492
O O6 0.335797 0.829437 0.829225
O O7 0.266391 0.853559 0.388893
O O8 0.364050 0.000000 0.603252
O O9 0.508123 0.500000 0.236529
O O10 0.436500 0.645227 0.328338
O O11 0.559192 0.675568 0.560189
O O12 0.498639 0.747664 0.126184
O O13 0.364877 0.500000 0.420148
O O14 0.313808 0.324432 0.096487
O O15 0.749405 0.629405 0.986923
O O16 0.151501 0.224289 0.999287
O O17 0.037202 0.329437 0.827452
O O18 0.676563 0.500000 0.111637
O O19 0.508949 0.000000 0.053424
#
# Coordination Sequence:
#
# PCOD9131991 Si02
#       8
#     4   4   4   4   4   4   4   4
#     4   9  18  32  52  82 116 146 179 222 273 331
#     4  10  21  37  59  86 114 145 183 229 280 335
#     4  10  23  41  58  80 111 147 190 236 277 324
#     4  10  23  41  58  80 111 147 190 236 277 324
#     4  10  19  34  56  82 112 149 185 223 275 330
#     4  10  19  34  56  82 112 149 185 223 275 330
#     4   9  18  32  52  82 116 146 179 222 273 331
#     4  10  21  37  59  86 114 145 183 229 280 335
#
# _framework density 21.817668000000001
#
# number of rings (size 3 to 8) (size 9 to 14) (size 15 to 20)
#    0.000    2.250    0.000    2.250    0.000    4.500 
#    0.000   10.000    0.000    0.000    0.000    0.000 
#    0.000    0.000    0.000    0.000    0.000    0.000 
#
# Total GULP energy -89152.514227 kJ/mol
# GULP energy per Si atom -5572.032139 kJ/mol
# Density = 2.176801 g / cm^3
# Si number density = 21.817668 Si / 1000 Ang^3
#
#
#
# Elastic Constant Matrix: (Units=GPa)
#
#
# Indices 1 2 3 4 5 6 
#
# 1 62.7035 56.6612 14.6154 0.0000 -8.2639 0.0000
# 2 56.6612 161.9610 32.8615 0.0000 -31.8250 0.0000
# 3 14.6154 32.8615 39.3518 0.0000 -13.3863 0.0000
# 4 0.0000 0.0000 0.0000 3.1049 0.0000 -3.3226
# 5 -8.2639 -31.8250 -13.3863 0.0000 43.2029 0.0000
# 6 0.0000 0.0000 0.0000 -3.3226 0.0000 47.0030
#
#
#
# Elastic Compliance Matrix: (Units=1/GPa)
#
#
# Indices 1 2 3 4 5 6 
#
# 1 0.023679 -0.008187 -0.002759 0.000000 -0.002357 0.000000
# 2 -0.008187 0.010929 -0.004337 0.000000 0.005141 0.000000
# 3 -0.002759 -0.004337 0.032184 0.000000 0.006250 0.000000
# 4 0.000000 0.000000 0.000000 0.348432 0.000000 0.024630
# 5 -0.002357 0.005141 0.006250 0.000000 0.028419 0.000000
# 6 0.000000 0.000000 0.000000 0.024630 0.000000 0.023016
#
#
# Mechanical properties :
#
#
# Convention : Reuss Voigt Hill
#
# Bulk Modulus (GPa) = 27.60500 52.47695 40.04097
# Shear Modulus (GPa) = 9.81739 29.32071 19.56905
#
# Velocity S-wave (km/s) = 2.12356 3.66990 2.99814
# Velocity P-wave (km/s) = 4.32351 6.48554 5.51158
#
# Compressibility (1/GPa) = 0.03622533
#
# Stress axis : x y z
#
# Youngs Moduli (GPa) = 42.23179 91.50304 31.07132
#
# Poissons Ratio (x) = 0.74915 0.08573
# Poissons Ratio (y) = 0.34576 0.13475
# Poissons Ratio (z) = 0.11653 0.39682
#
# Static dielectric constant tensor:
#      x y z
#    x 1.778440 0.000000 -0.008540 
#    y 0.000000 1.802510 0.000000 
#    z -0.008540 0.000000 1.810630 
# 
# From -- ./inp_files/6005.got.cif
#   From: 2010.05.17/outbox.cif.g08.bks.cpg/sg8_4_cif.got.tgz:6005.got - 2010.06.03 19:46:02.
