data_PCOD9131844
_publ_section_title
;
Structure prediction by ZEFSAII (Michael W. Deem and Ramdas Pophale) SiO2 
 PCOD9131844
Probable space group: C M
;
_chemical_formula_sum "Si O2"
_cell_formula_units_Z 28
_cell_length_a 5.576289
_cell_length_b 18.289301
_cell_length_c 12.436440
_cell_angle_alpha 90.000000
_cell_angle_beta 102.932964
_cell_angle_gamma 90.000000
_cell_volume 1236.173387
_symmetry_space_group_name_H-M "C M"
_symmetry_group_IT_number 8
_symmetry_cell_setting 'monoclinic'
loop_
_space_group_symop_operation_xyz
x,y,z
x,-y,z
1/2+x,1/2+y,z
1/2+x,1/2-y,z
loop_
_atom_site_type_symbol
_atom_site_label
_atom_site_fract_x
_atom_site_fract_y
_atom_site_fract_z
Si Si1 0.195460 0.326771 0.380080
Si Si2 0.910149 0.916627 0.815532
Si Si3 0.355459 0.910282 0.705985
Si Si4 0.040880 0.893073 0.076218
Si Si5 0.484826 0.241261 0.963950
Si Si6 0.074152 0.377236 0.142808
Si Si7 0.238217 0.159362 0.465711
O O1 0.225090 0.246914 0.438217
O O2 0.459655 0.365768 0.413899
O O3 0.127278 0.323796 0.247775
O O4 0.966707 0.365924 0.415157
O O5 0.632337 0.888752 0.770015
O O6 0.977094 0.915859 0.948227
O O7 0.141790 0.888668 0.769545
O O8 0.891482 0.000000 0.778226
O O9 0.298936 0.867101 0.591046
O O10 0.348655 0.000000 0.692508
O O11 0.032766 0.804026 0.060159
O O12 0.828687 0.915937 0.137432
O O13 0.314160 0.915825 0.137663
O O14 0.704247 0.250000 0.902686
O O15 0.515933 0.165244 0.026462
#
# Coordination Sequence:
#
# PCOD9131844 Si02
#       7
#     4   4   4   4   4   4   4
#     4  10  21  33  58  85 112 158 182 225 285 352
#     4  10  21  38  62  83 104 149 195 231 289 339
#     4  10  21  40  64  83 107 145 196 248 289 334
#     4  10  19  31  53  79 112 137 180 230 257 326
#     4   8  16  25  44  66 103 128 171 202 239 303
#     4  10  19  31  53  81 110 145 187 205 261 339
#     4  10  21  34  58  85 111 144 197 241 280 337
#
# _framework density 22.650545999999999
#
# number of rings (size 3 to 8) (size 9 to 14) (size 15 to 20)
#    0.000    2.286    0.000    2.571   12.000    0.000 
#    0.000    0.000   56.571    5.143    0.000    0.000 
#    0.000    0.000    0.000    0.000    0.000    0.000 
#
# Total GULP energy -77989.004290 kJ/mol
# GULP energy per Si atom -5570.643164 kJ/mol
# Density = 2.259899 g / cm^3
# Si number density = 22.650546 Si / 1000 Ang^3
#
#
#
# Elastic Constant Matrix: (Units=GPa)
#
#
# Indices 1 2 3 4 5 6 
#
# 1 298.5391 16.3951 67.9325 0.0000 9.7682 0.0000
# 2 16.3951 64.4228 27.7115 0.0000 -0.3371 0.0000
# 3 67.9325 27.7115 122.7666 0.0000 2.7731 0.0000
# 4 0.0000 0.0000 0.0000 -3.1878 0.0000 -0.3245
# 5 9.7682 -0.3371 2.7731 0.0000 35.8625 0.0000
# 6 0.0000 0.0000 0.0000 -0.3245 0.0000 -13.2952
#
#
#
# Elastic Compliance Matrix: (Units=1/GPa)
#
#
# Indices 1 2 3 4 5 6 
#
# 1 0.003861 -0.000085 -0.002097 0.000000 -0.000890 0.000000
# 2 -0.000085 0.017201 -0.003847 0.000000 0.000482 0.000000
# 3 -0.002097 -0.003847 0.010180 0.000000 -0.000252 0.000000
# 4 0.000000 0.000000 0.000000 -0.314477 0.000000 0.007675
# 5 -0.000890 0.000482 -0.000252 0.000000 0.028151 0.000000
# 6 0.000000 0.000000 0.000000 0.007675 0.000000 -0.075403
#
#
# Mechanical properties :
#
#
# Convention : Reuss Voigt Hill
#
# Bulk Modulus (GPa) = 52.12557 78.86742 65.49650
# Shear Modulus (GPa) = -16.02382 28.78852 6.38235
#
# Velocity S-wave (km/s) = -2.66265 3.56896 1.68044
# Velocity P-wave (km/s) = 3.68917 7.20264 5.72224
#
# Compressibility (1/GPa) = 0.01918444
#
# Stress axis : x y z
#
# Youngs Moduli (GPa) = 259.02695 58.13533 98.23357
#
# Poissons Ratio (x) = 0.00495 0.20599
# Poissons Ratio (y) = 0.02206 0.37786
# Poissons Ratio (z) = 0.54316 0.22362
#
# Static dielectric constant tensor:
#      x y z
#    x 1.960750 0.000000 0.008790 
#    y 0.000000 1.865190 0.000000 
#    z 0.008790 0.000000 1.762760 
# 
# From -- ./inp_files/18104.got.cif
#   From: 2010.05.17/outbox.cif.g08.bks.cpg/sg8_10_cif.got.tgz:18104.got - 2010.06.03 19:46:02.
