data_PCOD9131569
_publ_section_title
;
Structure prediction by ZEFSAII (Michael W. Deem and Ramdas Pophale) SiO2 
 PCOD9131569
Probable space group: C M
;
_chemical_formula_sum "Si O2"
_cell_formula_units_Z 22
_cell_length_a 17.365084
_cell_length_b 7.755604
_cell_length_c 24.335428
_cell_angle_alpha 90.000000
_cell_angle_beta 23.714959
_cell_angle_gamma 90.000000
_cell_volume 1318.133343
_symmetry_space_group_name_H-M "C M"
_symmetry_group_IT_number 8
_symmetry_cell_setting 'monoclinic'
loop_
_space_group_symop_operation_xyz
x,y,z
x,-y,z
1/2+x,1/2+y,z
1/2+x,1/2-y,z
loop_
_atom_site_type_symbol
_atom_site_label
_atom_site_fract_x
_atom_site_fract_y
_atom_site_fract_z
Si Si1 0.433598 0.000000 0.654698
Si Si2 0.063220 0.000000 0.172977
Si Si3 0.519453 0.500000 0.979110
Si Si4 0.351443 0.500000 0.427860
Si Si5 0.915295 0.691374 0.971656
Si Si6 0.322676 0.500000 0.220507
Si Si7 0.950918 0.306992 0.444022
Si Si8 0.810496 0.201448 0.655415
O O1 0.242869 0.000000 0.816772
O O2 0.421438 0.832418 0.623130
O O3 0.624825 0.000000 0.565068
O O4 0.952941 0.000000 0.302490
O O5 0.209940 0.162832 0.077500
O O6 0.922324 0.000000 0.214062
O O7 0.424473 0.334790 0.011886
O O8 0.475461 0.500000 0.071903
O O9 0.412353 0.667213 0.422907
O O10 0.955289 0.500000 0.969752
O O11 0.086244 0.726320 0.817108
O O12 0.176615 0.339244 0.308325
O O13 0.880446 0.500000 0.474737
O O14 0.854885 0.249579 0.563819
O O15 0.857302 0.000000 0.634028
#
# Coordination Sequence:
#
# PCOD9131569 Si02
#       8
#     2   2   2   2   4   2   4   4
#     4  10  22  34  60  88 111 143 186 233 268 327
#     4  10  20  38  56  80 116 138 187 237 267 324
#     4  10  18  38  59  78 114 145 182 218 281 331
#     4  12  22  38  57  82 113 149 185 234 277 319
#     4   8  19  32  60  82 106 147 177 222 273 329
#     4  10  22  38  56  80 110 151 182 232 275 325
#     4  10  22  35  57  82 109 151 186 225 278 330
#     4  10  17  36  58  85 112 144 185 220 280 331
#
# _framework density 16.690269000000001
#
# number of rings (size 3 to 8) (size 9 to 14) (size 15 to 20)
#    1.091    1.091    1.818    2.182    0.000    2.182 
#    0.000    0.909    0.000    0.000    0.000    0.000 
#    0.000    0.000    0.000    0.000    0.000    0.000 
#
# Total GULP energy -61241.227056 kJ/mol
# GULP energy per Si atom -5567.384278 kJ/mol
# Density = 1.665228 g / cm^3
# Si number density = 16.690269 Si / 1000 Ang^3
#
#
#
# Elastic Constant Matrix: (Units=GPa)
#
#
# Indices 1 2 3 4 5 6 
#
# 1 145.7375 69.6799 74.6849 -0.0008 1.7194 0.0005
# 2 69.6799 118.6332 41.0115 0.0012 5.2384 -0.0007
# 3 74.6849 41.0115 77.3560 0.0012 7.1272 -0.0012
# 4 -0.0008 0.0012 0.0012 17.9006 0.0000 -1.9208
# 5 1.7194 5.2384 7.1272 0.0000 37.8057 0.0000
# 6 0.0005 -0.0007 -0.0012 -1.9208 0.0000 18.0709
#
#
#
# Elastic Compliance Matrix: (Units=1/GPa)
#
#
# Indices 1 2 3 4 5 6 
#
# 1 0.015763 -0.004930 -0.012824 0.000002 0.002384 -0.000001
# 2 -0.004930 0.011869 -0.001427 -0.000001 -0.001151 0.000000
# 3 -0.012824 -0.001427 0.026452 -0.000002 -0.004206 0.000002
# 4 0.000002 -0.000001 -0.000002 0.056508 0.000000 0.006006
# 5 0.002384 -0.001151 -0.004206 0.000000 0.027295 0.000000
# 6 -0.000001 0.000000 0.000002 0.006006 0.000000 0.055976
#
#
# Mechanical properties :
#
#
# Convention : Reuss Voigt Hill
#
# Bulk Modulus (GPa) = 63.60372 79.16437 71.38405
# Shear Modulus (GPa) = 21.05560 25.17881 23.11720
#
# Velocity S-wave (km/s) = 3.55568 3.88827 3.72569
# Velocity P-wave (km/s) = 7.41945 8.22755 7.83393
#
# Compressibility (1/GPa) = 0.01572235
#
# Stress axis : x y z
#
# Youngs Moduli (GPa) = 63.44096 84.25216 37.80367
#
# Poissons Ratio (x) = 0.41538 0.48480
# Poissons Ratio (y) = 0.31278 0.05393
# Poissons Ratio (z) = 0.81358 0.12019
#
# Static dielectric constant tensor:
#      x y z
#    x 1.513980 0.000000 -0.007050 
#    y 0.000000 1.573270 0.000000 
#    z -0.007050 0.000000 1.583840 
# 
# From -- ./inp_files/30618.got.cif
#   From: 2010.05.17/outbox.cif.g08.bks.cpg/sg8_16_cif.got.tgz:30618.got - 2010.06.03 19:46:02.
