data_PCOD9131786
_publ_section_title
;
Structure prediction by ZEFSAII (Michael W. Deem and Ramdas Pophale) SiO2 
 PCOD9131786
Probable space group: C M
;
_chemical_formula_sum "Si O2"
_cell_formula_units_Z 32
_cell_length_a 11.436738
_cell_length_b 15.329062
_cell_length_c 14.851578
_cell_angle_alpha 90.000000
_cell_angle_beta 30.884963
_cell_angle_gamma 90.000000
_cell_volume 1336.519157
_symmetry_space_group_name_H-M "C M"
_symmetry_group_IT_number 8
_symmetry_cell_setting 'monoclinic'
loop_
_space_group_symop_operation_xyz
x,y,z
x,-y,z
1/2+x,1/2+y,z
1/2+x,1/2-y,z
loop_
_atom_site_type_symbol
_atom_site_label
_atom_site_fract_x
_atom_site_fract_y
_atom_site_fract_z
Si Si1 0.926400 0.899431 0.467430
Si Si2 0.151107 0.893462 0.497714
Si Si3 0.486058 0.893424 0.648294
Si Si4 0.160331 0.345219 0.166839
Si Si5 0.204206 0.895597 0.994434
Si Si6 0.711145 0.899519 0.331105
Si Si7 0.311701 0.396332 0.874480
Si Si8 0.361436 0.157324 0.072610
O O1 0.718523 0.864715 0.545386
O O2 0.981426 0.864198 0.530015
O O3 0.161781 0.894774 0.256364
O O4 0.863517 0.000000 0.522956
O O5 0.393307 0.849168 0.320123
O O6 0.038249 0.873068 0.668698
O O7 0.181306 0.000000 0.471668
O O8 0.284477 0.860709 0.845034
O O9 0.515916 0.863818 0.525688
O O10 0.462945 0.000000 0.665328
O O11 0.170469 0.399602 0.252378
O O12 0.260591 0.253287 0.130018
O O13 0.302373 0.377316 0.986817
O O14 0.181757 0.000000 0.002367
O O15 0.379511 0.877300 0.958476
O O16 0.958612 0.857821 0.183267
O O17 0.733530 0.000000 0.345773
O O18 0.279985 0.500000 0.883254
O O19 0.094942 0.351021 0.971500
#
# Coordination Sequence:
#
# PCOD9131786 Si02
#       8
#     4   4   4   4   4   4   4   4
#     4  10  18  36  66  95 123 167 227 282 325 386
#     4  10  22  44  74  99 125 174 237 282 325 394
#     4   9  18  34  61  94 121 154 210 276 329 373
#     4  12  27  43  62  97 139 173 215 276 340 397
#     4  10  20  37  63  93 124 166 218 271 322 392
#     4  10  21  38  61  87 122 168 213 262 324 399
#     4  11  24  47  75  99 128 179 236 280 326 397
#     4  12  24  39  66  98 135 171 216 275 344 394
#
# _framework density 23.942791
#
# number of rings (size 3 to 8) (size 9 to 14) (size 15 to 20)
#    0.000    1.500    2.500    3.000    1.750    3.000 
#    4.500    2.500    0.000    0.000    0.000    0.000 
#    0.000    0.000    0.000    0.000    0.000    0.000 
#
# Total GULP energy -89431.383150 kJ/mol
# GULP energy per Si atom -5589.461447 kJ/mol
# Density = 2.388830 g / cm^3
# Si number density = 23.942791 Si / 1000 Ang^3
#
#
#
# Elastic Constant Matrix: (Units=GPa)
#
#
# Indices 1 2 3 4 5 6 
#
# 1 66.7764 4.7100 14.5574 -0.0078 34.9803 -0.0075
# 2 4.7100 50.8853 16.0245 -0.0356 -1.6960 0.0168
# 3 14.5574 16.0245 103.1468 -0.0226 50.7908 0.0150
# 4 -0.0078 -0.0356 -0.0226 -11.5555 0.0128 -18.7892
# 5 34.9803 -1.6960 50.7908 0.0128 46.4126 0.0035
# 6 -0.0075 0.0168 0.0150 -18.7892 0.0035 14.7148
#
#
#
# Elastic Compliance Matrix: (Units=1/GPa)
#
#
# Indices 1 2 3 4 5 6 
#
# 1 0.042476 -0.014357 0.026581 -0.000048 -0.061627 -0.000035
# 2 -0.014357 0.027527 -0.017508 0.000013 0.030986 -0.000012
# 3 0.026581 -0.017508 0.040863 -0.000042 -0.065391 -0.000046
# 4 -0.000048 0.000013 -0.000042 -0.028131 0.000093 -0.035921
# 5 -0.061627 0.030986 -0.065391 0.000093 0.140685 0.000085
# 6 -0.000035 -0.000012 -0.000046 -0.035921 0.000085 0.022092
#
#
# Mechanical properties :
#
#
# Convention : Reuss Voigt Hill
#
# Bulk Modulus (GPa) = 9.97014 32.37692 21.17353
# Shear Modulus (GPa) = 17.27049 22.28215 19.77632
#
# Velocity S-wave (km/s) = 2.68866 3.05395 2.87711
# Velocity P-wave (km/s) = 3.71641 5.09779 4.46090
#
# Compressibility (1/GPa) = 0.10029950
#
# Stress axis : x y z
#
# Youngs Moduli (GPa) = 23.54280 36.32764 24.47202
#
# Poissons Ratio (x) = 0.52154 -0.65050
# Poissons Ratio (y) = 0.33799 0.42846
# Poissons Ratio (z) = -0.62580 0.63603
#
# Static dielectric constant tensor:
#      x y z
#    x 1.952180 -0.000030 0.024080 
#    y -0.000030 1.931560 -0.000010 
#    z 0.024080 -0.000010 1.933730 
# 
# From -- ./inp_files/26257.got.cif
#   From: 2010.05.17/outbox.cif.g08.bks.cpg/sg8_14_cif.got.tgz:26257.got - 2010.06.03 19:46:02.
