data_PCOD9131204
_publ_section_title
;
Structure prediction by ZEFSAII (Michael W. Deem and Ramdas Pophale) SiO2 
 PCOD9131204
Probable space group: P C
;
_chemical_formula_sum "Si O2"
_cell_formula_units_Z 16
_cell_length_a 19.079796
_cell_length_b 6.641887
_cell_length_c 5.201275
_cell_angle_alpha 90.000000
_cell_angle_beta 90.153958
_cell_angle_gamma 90.000000
_cell_volume 659.133611
_symmetry_space_group_name_H-M "P C"
_symmetry_group_IT_number 7
_symmetry_cell_setting 'monoclinic'
loop_
_space_group_symop_operation_xyz
x,y,z
x,-y,1/2+z
loop_
_atom_site_type_symbol
_atom_site_label
_atom_site_fract_x
_atom_site_fract_y
_atom_site_fract_z
Si Si1 0.920630 0.758292 0.848230
Si Si2 0.127719 0.740859 0.595039
Si Si3 0.326906 0.860366 0.933758
Si Si4 0.772741 0.863562 0.025378
Si Si5 0.624470 0.137824 0.415122
Si Si6 0.183753 0.291152 0.594402
Si Si7 0.975799 0.784724 0.349678
Si Si8 0.477429 0.863045 0.028465
O O1 0.843637 0.745761 0.965483
O O2 0.924428 0.683437 0.557124
O O3 0.944713 0.992126 0.804100
O O4 0.975756 0.691389 0.065832
O O5 0.148624 0.507336 0.640644
O O6 0.135160 0.819533 0.884426
O O7 0.051784 0.775797 0.476876
O O8 0.183481 0.802782 0.377838
O O9 0.403125 0.758743 0.974273
O O10 0.323717 0.031678 0.157116
O O11 0.261383 0.714029 0.979996
O O12 0.698561 0.755672 0.970836
O O13 0.774110 0.044014 0.811490
O O14 0.624581 0.044079 0.128549
O O15 0.550886 0.247180 0.471050
O O16 0.477918 0.954384 0.316347
#
# Coordination Sequence:
#
# PCOD9131204 Si02
#       8
#     2   2   2   2   2   2   2   2
#     4  10  17  28  41  63  94 117 156 187 235 274
#     4  10  21  37  53  64  91 123 160 200 238 285
#     4  10  19  33  50  72  97 120 152 198 239 285
#     4  10  14  23  36  54  86 125 154 182 215 268
#     4   8  14  20  34  55  79 119 161 168 205 267
#     4  10  21  38  52  69  88 123 158 198 240 288
#     4  10  18  30  43  62  85 122 150 197 232 276
#     4   8  14  25  39  59  88 117 149 178 216 273
#
# _framework density 24.274287999999999
#
# number of rings (size 3 to 8) (size 9 to 14) (size 15 to 20)
#    0.000    2.500    2.500    1.500    0.000    0.000 
#   13.500    0.000    0.000    0.000    0.000    0.000 
#    0.000    0.000    0.000   27.000   18.000    4.000 
#
# Total GULP energy -89212.782800 kJ/mol
# GULP energy per Si atom -5575.798925 kJ/mol
# Density = 2.421904 g / cm^3
# Si number density = 24.274288 Si / 1000 Ang^3
#
#
#
# Elastic Constant Matrix: (Units=GPa)
#
#
# Indices 1 2 3 4 5 6 
#
# 1 181.6410 -4.4618 -12.1800 0.0000 10.0184 0.0000
# 2 -4.4618 62.5563 -23.0584 0.0000 2.6063 0.0000
# 3 -12.1800 -23.0584 160.7254 0.0000 -7.1012 0.0000
# 4 0.0000 0.0000 0.0000 -10.1946 0.0000 2.5846
# 5 10.0184 2.6063 -7.1012 0.0000 42.0134 0.0000
# 6 0.0000 0.0000 0.0000 2.5846 0.0000 9.2492
#
#
#
# Elastic Compliance Matrix: (Units=1/GPa)
#
#
# Indices 1 2 3 4 5 6 
#
# 1 0.005623 0.000624 0.000458 0.000000 -0.001302 0.000000
# 2 0.000624 0.016965 0.002446 0.000000 -0.000788 0.000000
# 3 0.000458 0.002446 0.006646 0.000000 0.000862 0.000000
# 4 0.000000 0.000000 0.000000 -0.091602 0.000000 0.025597
# 5 -0.001302 -0.000788 0.000862 0.000000 0.024307 0.000000
# 6 0.000000 0.000000 0.000000 0.025597 0.000000 0.100965
#
#
# Mechanical properties :
#
#
# Convention : Reuss Voigt Hill
#
# Bulk Modulus (GPa) = 27.55517 36.16916 31.86216
# Shear Modulus (GPa) = 73.59130 37.85512 55.72321
#
# Velocity S-wave (km/s) = 5.51202 3.95330 4.79640
# Velocity P-wave (km/s) = 7.20320 5.98086 6.62030
#
# Compressibility (1/GPa) = 0.03629083
#
# Stress axis : x y z
#
# Youngs Moduli (GPa) = 177.83333 58.94605 150.47624
#
# Poissons Ratio (x) = -0.03679 -0.06894
# Poissons Ratio (y) = -0.11100 -0.36811
# Poissons Ratio (z) = -0.08147 -0.14420
#
# Static dielectric constant tensor:
#      x y z
#    x 2.005880 0.000000 -0.012690 
#    y 0.000000 2.870660 0.000000 
#    z -0.012690 0.000000 2.025650 
# 
# From -- ./inp_files/1381.got.cif
#   From: 2010.05.17/outbox.cif.g08.bks.cpg/sg7_cif.got.tgz:1381.got - 2010.06.03 19:44:50.
