data_PCOD9131388
_publ_section_title
;
Structure prediction by ZEFSAII (Michael W. Deem and Ramdas Pophale) SiO2 
 PCOD9131388
Probable space group: P C
;
_chemical_formula_sum "Si O2"
_cell_formula_units_Z 16
_cell_length_a 9.928443
_cell_length_b 15.176480
_cell_length_c 4.933395
_cell_angle_alpha 90.000000
_cell_angle_beta 120.192113
_cell_angle_gamma 90.000000
_cell_volume 642.517158
_symmetry_space_group_name_H-M "P C"
_symmetry_group_IT_number 7
_symmetry_cell_setting 'monoclinic'
loop_
_space_group_symop_operation_xyz
x,y,z
x,-y,1/2+z
loop_
_atom_site_type_symbol
_atom_site_label
_atom_site_fract_x
_atom_site_fract_y
_atom_site_fract_z
Si Si1 0.085370 0.343722 0.263520
Si Si2 0.399863 0.877068 0.590745
Si Si3 0.899863 0.377067 0.590748
Si Si4 0.585369 0.156276 0.763518
Si Si5 0.901863 0.806611 0.318224
Si Si6 0.568986 0.447630 0.118296
Si Si7 0.068985 0.947630 0.118291
Si Si8 0.401865 0.693390 0.818226
O O1 0.262088 0.347440 0.349232
O O2 0.039314 0.369056 0.517578
O O3 0.026071 0.243827 0.137325
O O4 0.978051 0.402759 0.954469
O O5 0.539313 0.869059 0.517575
O O6 0.252356 0.929425 0.338469
O O7 0.478051 0.902760 0.954465
O O8 0.337440 0.777592 0.583035
O O9 0.752358 0.429425 0.338475
O O10 0.837439 0.277591 0.583035
O O11 0.526071 0.256172 0.637327
O O12 0.762087 0.152558 0.849230
O O13 0.976188 0.871148 0.174859
O O14 0.534927 0.466858 0.771800
O O15 0.476190 0.371148 0.174863
O O16 0.034927 0.966858 0.771795
#
# Coordination Sequence:
#
# PCOD9131388 Si02
#       8
#     2   2   2   2   2   2   2   2
#     4  10  22  35  73  91 125 162 237 265 303 377
#     4  10  22  42  64  96 125 178 222 260 318 402
#     4  10  22  42  64  96 125 178 222 260 318 402
#     4  10  22  35  73  91 125 162 237 265 303 377
#     4  10  23  41  68 100 124 176 227 266 318 391
#     4  12  27  44  67  99 142 172 210 277 349 384
#     4  12  27  44  67  99 142 172 210 277 349 384
#     4  10  23  41  68 100 124 176 227 266 318 391
#
# _framework density 24.902061
#
# number of rings (size 3 to 8) (size 9 to 14) (size 15 to 20)
#    1.500    0.000    2.500    1.500   10.500    0.000 
#    0.000    7.500    0.000    0.000    0.000    0.000 
#    0.000    0.000    0.000    0.000    0.000    0.000 
#
# Total GULP energy -89519.584611 kJ/mol
# GULP energy per Si atom -5594.974038 kJ/mol
# Density = 2.484538 g / cm^3
# Si number density = 24.902061 Si / 1000 Ang^3
#
#
#
# Elastic Constant Matrix: (Units=GPa)
#
#
# Indices 1 2 3 4 5 6 
#
# 1 166.7095 18.6359 12.8953 0.0000 -2.3901 0.0000
# 2 18.6359 51.9833 -0.2203 0.0000 7.7600 0.0000
# 3 12.8953 -0.2203 56.0414 0.0000 -12.7417 0.0000
# 4 0.0000 0.0000 0.0000 24.7251 0.0000 6.5908
# 5 -2.3901 7.7600 -12.7417 0.0000 44.6727 0.0000
# 6 0.0000 0.0000 0.0000 6.5908 0.0000 37.1096
#
#
#
# Elastic Compliance Matrix: (Units=1/GPa)
#
#
# Indices 1 2 3 4 5 6 
#
# 1 0.006373 -0.002343 -0.001396 0.000000 0.000350 0.000000
# 2 -0.002343 0.020640 -0.000239 0.000000 -0.003779 0.000000
# 3 -0.001396 -0.000239 0.019416 0.000000 0.005505 0.000000
# 4 0.000000 0.000000 0.000000 0.042455 0.000000 -0.007540
# 5 0.000350 -0.003779 0.005505 0.000000 0.024630 0.000000
# 6 0.000000 0.000000 0.000000 -0.007540 0.000000 0.028286
#
#
# Mechanical properties :
#
#
# Convention : Reuss Voigt Hill
#
# Bulk Modulus (GPa) = 25.99226 37.48400 31.73813
# Shear Modulus (GPa) = 30.75389 37.52968 34.14179
#
# Velocity S-wave (km/s) = 3.51806 3.88634 3.70678
# Velocity P-wave (km/s) = 5.19257 5.93493 5.57612
#
# Compressibility (1/GPa) = 0.03847299
#
# Stress axis : x y z
#
# Youngs Moduli (GPa) = 156.90251 48.44967 51.50439
#
# Poissons Ratio (x) = 0.11352 0.07191
# Poissons Ratio (y) = 0.36762 0.01230
# Poissons Ratio (z) = 0.21907 0.01158
#
# Static dielectric constant tensor:
#      x y z
#    x 1.860900 0.000000 0.017760 
#    y 0.000000 2.051170 0.000000 
#    z 0.017760 0.000000 1.942280 
# 
# From -- ./inp_files/811.got.cif
#   From: 2010.05.17/outbox.cif.g08.bks.cpg/sg7_cif.got.tgz:811.got - 2010.06.03 19:44:50.
