data_PCOD9131845
_publ_section_title
;
Structure prediction by ZEFSAII (Michael W. Deem and Ramdas Pophale) SiO2 
 PCOD9131845
Probable space group: C M
;
_chemical_formula_sum "Si O2"
_cell_formula_units_Z 26
_cell_length_a 19.942291
_cell_length_b 8.230666
_cell_length_c 9.264915
_cell_angle_alpha 90.000000
_cell_angle_beta 139.782221
_cell_angle_gamma 90.000000
_cell_volume 981.925785
_symmetry_space_group_name_H-M "C M"
_symmetry_group_IT_number 8
_symmetry_cell_setting 'monoclinic'
loop_
_space_group_symop_operation_xyz
x,y,z
x,-y,z
1/2+x,1/2+y,z
1/2+x,1/2-y,z
loop_
_atom_site_type_symbol
_atom_site_label
_atom_site_fract_x
_atom_site_fract_y
_atom_site_fract_z
Si Si1 0.381190 0.812419 0.762050
Si Si2 0.353538 0.500000 0.898478
Si Si3 0.775080 0.176425 0.007775
Si Si4 0.715204 0.684221 0.182505
Si Si5 0.985685 0.806064 0.661672
Si Si6 0.590622 0.686039 0.548710
Si Si7 0.612583 0.818085 0.272252
O O1 0.331009 0.647840 0.744956
O O2 0.405637 0.790050 0.630980
O O3 0.347616 0.000000 0.738468
O O4 0.496630 0.792902 0.022259
O O5 0.368756 0.641548 0.053372
O O6 0.785403 0.203986 0.193985
O O7 0.700561 0.307166 0.814506
O O8 0.719013 0.000000 0.893058
O O9 0.743927 0.500000 0.200111
O O10 0.599287 0.714563 0.924652
O O11 0.692347 0.706762 0.314422
O O12 0.008059 0.756873 0.533200
O O13 0.965119 0.000000 0.633038
O O14 0.572080 0.500000 0.477150
O O15 0.605660 0.789236 0.430426
O O16 0.640995 0.000000 0.279282
#
# Coordination Sequence:
#
# PCOD9131845 Si02
#       7
#     4   2   4   4   4   4   4
#     4  10  20  34  55  82 106 144 186 222 269 323
#     4  10  22  36  58  74 118 148 186 224 258 322
#     4   9  19  33  50  74 103 145 175 219 264 314
#     4   9  16  29  51  77 103 135 179 226 270 320
#     4   8  15  29  50  75 107 136 173 228 274 315
#     4  10  19  31  53  83 110 139 174 225 283 325
#     4  10  20  31  52  81 113 138 171 228 283 326
#
# _framework density 26.478579
#
# number of rings (size 3 to 8) (size 9 to 14) (size 15 to 20)
#    0.462    2.154    0.769    2.769    2.154    5.538 
#    0.000    0.000    0.000    3.692    0.000    2.154 
#    0.000    0.000    0.000    0.000    0.000    0.000 
#
# Total GULP energy -72378.295227 kJ/mol
# GULP energy per Si atom -5567.561171 kJ/mol
# Density = 2.641831 g / cm^3
# Si number density = 26.478579 Si / 1000 Ang^3
#
#
#
# Elastic Constant Matrix: (Units=GPa)
#
#
# Indices 1 2 3 4 5 6 
#
# 1 109.5535 54.7546 28.1798 0.0000 -19.1465 0.0000
# 2 54.7546 96.8459 3.1003 0.0000 -11.1509 0.0000
# 3 28.1798 3.1003 107.2505 0.0000 -38.7685 0.0000
# 4 0.0000 0.0000 0.0000 41.9617 0.0000 -15.8892
# 5 -19.1465 -11.1509 -38.7685 0.0000 58.0561 0.0000
# 6 0.0000 0.0000 0.0000 -15.8892 0.0000 36.1351
#
#
#
# Elastic Compliance Matrix: (Units=1/GPa)
#
#
# Indices 1 2 3 4 5 6 
#
# 1 0.013925 -0.007650 -0.003043 0.000000 0.001091 0.000000
# 2 -0.007650 0.014788 0.002237 0.000000 0.001811 0.000000
# 3 -0.003043 0.002237 0.012986 0.000000 0.008098 0.000000
# 4 0.000000 0.000000 0.000000 0.028592 0.000000 0.012572
# 5 0.001091 0.001811 0.008098 0.000000 0.023340 0.000000
# 6 0.000000 0.000000 0.000000 0.012572 0.000000 0.033202
#
#
# Mechanical properties :
#
#
# Convention : Reuss Voigt Hill
#
# Bulk Modulus (GPa) = 40.34372 53.96881 47.15627
# Shear Modulus (GPa) = 32.89341 42.40493 37.64917
#
# Velocity S-wave (km/s) = 3.52840 4.00619 3.77486
# Velocity P-wave (km/s) = 5.64526 6.46728 6.07020
#
# Compressibility (1/GPa) = 0.02478700
#
# Stress axis : x y z
#
# Youngs Moduli (GPa) = 71.81484 67.62414 77.00544
#
# Poissons Ratio (x) = 0.51731 0.23435
# Poissons Ratio (y) = 0.54936 -0.17228
# Poissons Ratio (z) = 0.21855 -0.15129
#
# Static dielectric constant tensor:
#      x y z
#    x 2.218500 0.000000 0.116910 
#    y 0.000000 1.912860 0.000000 
#    z 0.116910 0.000000 2.221490 
# 
# From -- ./inp_files/14513.got.cif
#   From: 2010.05.17/outbox.cif.g08.bks.cpg/sg8_8_cif.got.tgz:14513.got - 2010.06.03 19:46:02.
