data_PCOD9131661
_publ_section_title
;
Structure prediction by ZEFSAII (Michael W. Deem and Ramdas Pophale) SiO2 
 PCOD9131661
Probable space group: C M
;
_chemical_formula_sum "Si O2"
_cell_formula_units_Z 32
_cell_length_a 18.841614
_cell_length_b 20.772481
_cell_length_c 8.571841
_cell_angle_alpha 90.000000
_cell_angle_beta 151.246443
_cell_angle_gamma 90.000000
_cell_volume 1613.855535
_symmetry_space_group_name_H-M "C M"
_symmetry_group_IT_number 8
_symmetry_cell_setting 'monoclinic'
loop_
_space_group_symop_operation_xyz
x,y,z
x,-y,z
1/2+x,1/2+y,z
1/2+x,1/2-y,z
loop_
_atom_site_type_symbol
_atom_site_label
_atom_site_fract_x
_atom_site_fract_y
_atom_site_fract_z
Si Si1 0.981560 0.643367 0.825480
Si Si2 0.294855 0.868871 0.178978
Si Si3 0.084695 0.426798 0.321695
Si Si4 0.454777 0.749306 0.382490
Si Si5 0.727449 0.802636 0.740423
Si Si6 0.743461 0.429409 0.774778
Si Si7 0.682047 0.316057 0.432282
Si Si8 0.550762 0.716644 0.880823
O O1 0.915475 0.611147 0.541009
O O2 0.835961 0.669314 0.637336
O O3 0.073922 0.706889 0.955819
O O4 0.066411 0.597367 0.107751
O O5 0.370558 0.816794 0.211916
O O6 0.230013 0.920140 0.934903
O O7 0.172054 0.828334 0.033156
O O8 0.140739 0.500000 0.438646
O O9 0.177451 0.373173 0.593108
O O10 0.918158 0.426982 0.069958
O O11 0.620725 0.771474 0.667246
O O12 0.432042 0.720826 0.512019
O O13 0.389643 0.703612 0.124842
O O14 0.703503 0.753142 0.552760
O O15 0.688970 0.500000 0.622261
O O16 0.669100 0.372335 0.533987
O O17 0.548094 0.312165 0.049903
#
# Coordination Sequence:
#
# PCOD9131661 Si02
#       8
#     4   4   4   4   4   4   4   4
#     4   9  19  32  51  83 117 146 183 234 283 335
#     4  10  18  32  52  84 116 140 188 228 284 339
#     4  10  20  35  54  81 116 153 189 233 288 340
#     4  11  20  33  54  84 114 143 185 240 287 329
#     4  12  20  35  59  84 113 148 190 240 285 330
#     4  10  19  34  55  83 118 150 187 238 288 334
#     4  10  19  33  54  83 113 142 190 232 284 331
#     4  10  19  32  53  82 113 146 184 233 281 334
#
# _framework density 19.828292999999999
#
# number of rings (size 3 to 8) (size 9 to 14) (size 15 to 20)
#    0.000    1.750    5.000    0.750    0.000    0.500 
#    0.000    1.875    0.000    3.750    0.000    0.875 
#    0.000    0.000    0.000    0.000    0.000    0.000 
#
# Total GULP energy -89111.376697 kJ/mol
# GULP energy per Si atom -5569.461044 kJ/mol
# Density = 1.978316 g / cm^3
# Si number density = 19.828293 Si / 1000 Ang^3
#
#
#
# Elastic Constant Matrix: (Units=GPa)
#
#
# Indices 1 2 3 4 5 6 
#
# 1 51.4970 32.7440 15.1232 0.0000 -23.3746 0.0000
# 2 32.7440 116.5393 58.1087 0.0000 -23.4845 0.0000
# 3 15.1232 58.1087 72.4644 0.0000 -36.3700 0.0000
# 4 0.0000 0.0000 0.0000 27.6070 0.0000 -3.5301
# 5 -23.3746 -23.4845 -36.3700 0.0000 39.1544 0.0000
# 6 0.0000 0.0000 0.0000 -3.5301 0.0000 18.0092
#
#
#
# Elastic Compliance Matrix: (Units=1/GPa)
#
#
# Indices 1 2 3 4 5 6 
#
# 1 0.036562 -0.013314 0.018720 0.000000 0.031231 0.000000
# 2 -0.013314 0.019468 -0.020535 0.000000 -0.015346 0.000000
# 3 0.018720 -0.020535 0.048309 0.000000 0.043733 0.000000
# 4 0.000000 0.000000 0.000000 0.037154 0.000000 0.007283
# 5 0.031231 -0.015346 0.043733 0.000000 0.075603 0.000000
# 6 0.000000 0.000000 0.000000 0.007283 0.000000 0.056955
#
#
# Mechanical properties :
#
#
# Convention : Reuss Voigt Hill
#
# Bulk Modulus (GPa) = 13.49833 50.27251 31.88542
# Shear Modulus (GPa) = 15.19748 25.92246 20.55997
#
# Velocity S-wave (km/s) = 2.77149 3.61965 3.22359
# Velocity P-wave (km/s) = 4.13086 6.54814 5.47458
#
# Compressibility (1/GPa) = 0.07408325
#
# Stress axis : x y z
#
# Youngs Moduli (GPa) = 27.35077 51.36572 20.69988
#
# Poissons Ratio (x) = 0.68387 -0.38751
# Poissons Ratio (y) = 0.36414 0.42507
# Poissons Ratio (z) = -0.51202 1.05479
#
# Static dielectric constant tensor:
#      x y z
#    x 1.760080 0.000000 -0.002990 
#    y 0.000000 1.672180 0.000000 
#    z -0.002990 0.000000 1.758290 
# 
# From -- ./inp_files/11041.got.cif
#   From: 2010.05.17/outbox.cif.g08.bks.cpg/sg8_6_cif.got.tgz:11041.got - 2010.06.03 19:46:02.
