data_PCOD9131180
_publ_section_title
;
Structure prediction by ZEFSAII (Michael W. Deem and Ramdas Pophale) SiO2 
 PCOD9131180
Probable space group: P M
;
_chemical_formula_sum "Si O2"
_cell_formula_units_Z 16
_cell_length_a 4.965062
_cell_length_b 19.412292
_cell_length_c 7.130847
_cell_angle_alpha 90.000000
_cell_angle_beta 73.778015
_cell_angle_gamma 90.000000
_cell_volume 659.930550
_symmetry_space_group_name_H-M "P M"
_symmetry_group_IT_number 6
_symmetry_cell_setting 'monoclinic'
loop_
_space_group_symop_operation_xyz
x,y,z
x,-y,z
loop_
_atom_site_type_symbol
_atom_site_label
_atom_site_fract_x
_atom_site_fract_y
_atom_site_fract_z
Si Si1 0.454100 0.418997 0.590840
Si Si2 0.403056 0.074760 0.520350
Si Si3 0.945406 0.422484 0.198209
Si Si4 0.201785 0.280958 0.236873
Si Si5 0.670960 0.776019 0.875248
Si Si6 0.602487 0.780268 0.441076
Si Si7 0.873774 0.367911 0.806776
Si Si8 0.794900 0.075841 0.795271
O O1 0.442373 0.500000 0.637157
O O2 0.598713 0.380160 0.736567
O O3 0.666783 0.411505 0.376597
O O4 0.871229 0.412514 0.995189
O O5 0.532825 0.141242 0.398857
O O6 0.530376 0.073869 0.706191
O O7 0.070040 0.082185 0.609769
O O8 0.466121 0.000000 0.422288
O O9 0.051310 0.500000 0.214394
O O10 0.159134 0.361219 0.202946
O O11 0.897253 0.246506 0.307692
O O12 0.359506 0.266204 0.401262
O O13 0.400241 0.245041 0.046016
O O14 0.611229 0.777937 0.664170
O O15 0.884694 0.712428 0.859718
O O16 0.777050 0.852322 0.908631
O O17 0.138451 0.607294 0.634919
O O18 0.813514 0.000000 0.885238
#
# Coordination Sequence:
#
# PCOD9131180 Si02
#       8
#     2   2   2   2   2   2   2   2
#     4  11  26  47  71 100 134 176 226 277 338 409
#     4   9  18  36  65  99 134 179 225 267 328 395
#     4  11  27  49  71  98 137 178 221 283 344 401
#     4  12  27  45  70 105 134 175 236 275 334 417
#     4  11  26  45  71 101 138 181 223 282 340 392
#     4  11  25  46  70 100 141 180 221 283 336 390
#     4  12  26  45  72 103 134 176 228 278 338 405
#     4   9  19  37  64  96 132 177 224 269 330 399
#
# _framework density 24.244973999999999
#
# number of rings (size 3 to 8) (size 9 to 14) (size 15 to 20)
#    0.000    1.250    0.000    4.875    0.000   17.000 
#    0.000    9.375    0.000    1.500    0.000    0.875 
#    0.000    0.000    0.000    0.000    0.000    0.000 
#
# Total GULP energy -89666.259600 kJ/mol
# GULP energy per Si atom -5604.141225 kJ/mol
# Density = 2.418979 g / cm^3
# Si number density = 24.244974 Si / 1000 Ang^3
#
#
#
# Elastic Constant Matrix: (Units=GPa)
#
#
# Indices 1 2 3 4 5 6 
#
# 1 49.3028 18.1460 -1.3991 0.0000 -14.3596 0.0000
# 2 18.1460 247.9935 50.7714 0.0000 -27.8036 0.0000
# 3 -1.3991 50.7714 100.5077 0.0000 -3.7022 0.0000
# 4 0.0000 0.0000 0.0000 26.5767 0.0000 -7.7608
# 5 -14.3596 -27.8036 -3.7022 0.0000 27.8009 0.0000
# 6 0.0000 0.0000 0.0000 -7.7608 0.0000 36.3885
#
#
#
# Elastic Compliance Matrix: (Units=1/GPa)
#
#
# Indices 1 2 3 4 5 6 
#
# 1 0.024020 -0.000648 0.001100 0.000000 0.011905 0.000000
# 2 -0.000648 0.005067 -0.002406 0.000000 0.004412 0.000000
# 3 0.001100 -0.002406 0.011167 0.000000 -0.000351 0.000000
# 4 0.000000 0.000000 0.000000 0.040126 0.000000 0.008558
# 5 0.011905 0.004412 -0.000351 0.000000 0.046485 0.000000
# 6 0.000000 0.000000 0.000000 0.008558 0.000000 0.029306
#
#
# Mechanical properties :
#
#
# Convention : Reuss Voigt Hill
#
# Bulk Modulus (GPa) = 27.51299 59.20452 43.35875
# Shear Modulus (GPa) = 29.03677 40.17226 34.60452
#
# Velocity S-wave (km/s) = 3.46445 4.07496 3.78204
# Velocity P-wave (km/s) = 5.23219 6.82735 6.08229
#
# Compressibility (1/GPa) = 0.03634647
#
# Stress axis : x y z
#
# Youngs Moduli (GPa) = 41.63203 197.35219 89.54693
#
# Poissons Ratio (x) = 0.12791 -0.09853
# Poissons Ratio (y) = 0.02698 0.21546
# Poissons Ratio (z) = -0.04581 0.47485
#
# Static dielectric constant tensor:
#      x y z
#    x 1.884990 0.000000 0.038220 
#    y 0.000000 1.983480 0.000000 
#    z 0.038220 0.000000 1.892500 
# 
# From -- ./inp_files/649.got.cif
#   From: 2010.05.17/outbox.cif.g08.bks.cpg/sg6_1_cif.got.tgz:649.got - 2010.06.03 19:42:10.
