data_PCOD9131319
_publ_section_title
;
Structure prediction by ZEFSAII (Michael W. Deem and Ramdas Pophale) SiO2 
 PCOD9131319
Probable space group: P C
;
_chemical_formula_sum "Si O2"
_cell_formula_units_Z 16
_cell_length_a 9.123194
_cell_length_b 18.612922
_cell_length_c 5.706986
_cell_angle_alpha 90.000000
_cell_angle_beta 40.192819
_cell_angle_gamma 90.000000
_cell_volume 625.419811
_symmetry_space_group_name_H-M "P C"
_symmetry_group_IT_number 7
_symmetry_cell_setting 'monoclinic'
loop_
_space_group_symop_operation_xyz
x,y,z
x,-y,1/2+z
loop_
_atom_site_type_symbol
_atom_site_label
_atom_site_fract_x
_atom_site_fract_y
_atom_site_fract_z
Si Si1 0.360180 0.137599 0.047300
Si Si2 0.068521 0.674130 0.353001
Si Si3 0.785095 0.536704 0.559028
Si Si4 0.705860 0.761725 0.648165
Si Si5 0.365007 0.895201 0.045658
Si Si6 0.491508 0.296040 0.006200
Si Si7 0.430755 0.373034 0.678398
Si Si8 0.726105 0.019985 0.599881
O O1 0.250274 0.116331 0.432365
O O2 0.395523 0.222757 0.007657
O O3 0.243239 0.113785 0.945927
O O4 0.610014 0.098638 0.743502
O O5 0.165977 0.643898 0.477999
O O6 0.919937 0.611418 0.423853
O O7 0.939201 0.750083 0.499708
O O8 0.290891 0.684432 0.928261
O O9 0.834718 0.505686 0.241691
O O10 0.521651 0.561538 0.916667
O O11 0.566832 0.834780 0.810558
O O12 0.713401 0.731821 0.372845
O O13 0.554725 0.701257 0.957461
O O14 0.499526 0.969643 0.876705
O O15 0.520351 0.370881 0.833526
O O16 0.841327 0.000689 0.208590
#
# Coordination Sequence:
#
# PCOD9131319 Si02
#       8
#     2   2   2   2   2   2   2   2
#     4   9  16  28  49  79 114 149 199 250 298 349
#     4  10  24  40  63  94 124 160 204 253 309 371
#     4  11  28  47  68  92 125 164 203 251 308 372
#     4   9  19  36  56  87 123 161 199 258 301 362
#     4   9  15  28  48  78 113 154 200 247 296 349
#     4  10  20  36  62  88 124 158 202 259 308 361
#     4  10  22  40  64  88 122 157 205 250 305 364
#     4   8  14  23  42  74 109 145 200 248 285 352
#
# _framework density 25.582816000000001
#
# number of rings (size 3 to 8) (size 9 to 14) (size 15 to 20)
#    0.000    2.500    1.250    0.000    7.000    2.000 
#    0.000    0.000    0.000    0.000    0.000   35.000 
#    0.000    0.000    0.000    0.000    0.000    0.000 
#
# Total GULP energy -89092.062147 kJ/mol
# GULP energy per Si atom -5568.253884 kJ/mol
# Density = 2.552459 g / cm^3
# Si number density = 25.582816 Si / 1000 Ang^3
#
#
#
# Elastic Constant Matrix: (Units=GPa)
#
#
# Indices 1 2 3 4 5 6 
#
# 1 89.2242 11.7696 35.7223 0.0000 37.6632 0.0000
# 2 11.7696 73.7649 19.2280 0.0000 7.8449 0.0000
# 3 35.7223 19.2280 47.6991 0.0000 28.9161 0.0000
# 4 0.0000 0.0000 0.0000 32.4460 0.0000 14.2065
# 5 37.6632 7.8449 28.9161 0.0000 47.8338 0.0000
# 6 0.0000 0.0000 0.0000 14.2065 0.0000 37.4446
#
#
#
# Elastic Compliance Matrix: (Units=1/GPa)
#
#
# Indices 1 2 3 4 5 6 
#
# 1 0.018515 0.000174 -0.008021 0.000000 -0.009758 0.000000
# 2 0.000174 0.015261 -0.007390 0.000000 0.001827 0.000000
# 3 -0.008021 -0.007390 0.040073 0.000000 -0.016697 0.000000
# 4 0.000000 0.000000 0.000000 0.036960 0.000000 -0.014023
# 5 -0.009758 0.001827 -0.016697 0.000000 0.038383 0.000000
# 6 0.000000 0.000000 0.000000 -0.014023 0.000000 0.032026
#
#
# Mechanical properties :
#
#
# Convention : Reuss Voigt Hill
#
# Bulk Modulus (GPa) = 23.05446 38.23644 30.64545
# Shear Modulus (GPa) = 22.10926 33.14278 27.62602
#
# Velocity S-wave (km/s) = 2.94296 3.60322 3.28970
# Velocity P-wave (km/s) = 4.53644 5.68239 5.14144
#
# Compressibility (1/GPa) = 0.04337555
#
# Stress axis : x y z
#
# Youngs Moduli (GPa) = 54.00994 65.52750 24.95475
#
# Poissons Ratio (x) = -0.01142 0.20015
# Poissons Ratio (y) = -0.00942 0.18442
# Poissons Ratio (z) = 0.43320 0.48425
#
# Static dielectric constant tensor:
#      x y z
#    x 2.699190 0.000000 0.182200 
#    y 0.000000 1.977790 0.000000 
#    z 0.182200 0.000000 2.176050 
# 
# From -- ./inp_files/300.got.cif
#   From: 2010.05.17/outbox.cif.g08.bks.cpg/sg7_cif.got.tgz:300.got - 2010.06.03 19:44:50.
