data_PCOD9131998
_publ_section_title
;
Structure prediction by ZEFSAII (Michael W. Deem and Ramdas Pophale) SiO2 
 PCOD9131998
Probable space group: C M
;
_chemical_formula_sum "Si O2"
_cell_formula_units_Z 32
_cell_length_a 25.372683
_cell_length_b 8.642524
_cell_length_c 23.986558
_cell_angle_alpha 90.000000
_cell_angle_beta 160.792603
_cell_angle_gamma 90.000000
_cell_volume 1730.436723
_symmetry_space_group_name_H-M "C M"
_symmetry_group_IT_number 8
_symmetry_cell_setting 'monoclinic'
loop_
_space_group_symop_operation_xyz
x,y,z
x,-y,z
1/2+x,1/2+y,z
1/2+x,1/2-y,z
loop_
_atom_site_type_symbol
_atom_site_label
_atom_site_fract_x
_atom_site_fract_y
_atom_site_fract_z
Si Si1 0.546310 0.818891 0.806810
Si Si2 0.217920 0.318298 0.483011
Si Si3 0.040163 0.813384 0.015154
Si Si4 0.887145 0.817662 0.545183
Si Si5 0.710904 0.317777 0.074674
Si Si6 0.865326 0.313459 0.400575
Si Si7 0.045315 0.181606 0.406295
Si Si8 0.185979 0.687238 0.655660
O O1 0.368729 0.783702 0.653658
O O2 0.526284 0.751492 0.724332
O O3 0.581453 0.000000 0.841247
O O4 0.661724 0.728553 0.963404
O O5 0.247428 0.500000 0.523189
O O6 0.229932 0.297635 0.428160
O O7 0.070309 0.260333 0.371011
O O8 0.861250 0.758738 0.851752
O O9 0.038556 0.000000 0.020579
O O10 0.074811 0.783708 0.984428
O O11 0.197655 0.756782 0.205834
O O12 0.872535 0.734763 0.472117
O O13 0.912275 0.000000 0.562621
O O14 0.747456 0.500000 0.114820
O O15 0.866730 0.222263 0.246875
O O16 0.864549 0.500000 0.395199
O O17 0.029218 0.259856 0.533749
O O18 0.161112 0.256941 0.567619
O O19 0.069789 0.000000 0.427004
O O20 0.185668 0.500000 0.655834
#
# Coordination Sequence:
#
# PCOD9131998 Si02
#       8
#     4   4   4   4   4   4   4   4
#     4  10  19  34  56  85 113 145 192 244 295 352
#     4   9  19  36  56  79 108 151 195 234 294 361
#     4   9  19  35  58  87 115 153 198 238 295 363
#     4   9  20  37  59  82 110 158 203 242 296 357
#     4  11  20  35  56  82 120 161 199 243 299 368
#     4  10  19  36  60  87 117 155 201 249 298 353
#     4  12  23  34  53  85 121 155 198 254 305 355
#     4  10  20  37  60  85 118 158 198 242 302 371
#
# _framework density 18.492439999999998
#
# number of rings (size 3 to 8) (size 9 to 14) (size 15 to 20)
#    0.750    1.250    1.250    3.750    0.000    1.500 
#    0.000    2.500    0.000    4.500    0.000    0.000 
#    0.000    0.000    0.000    0.000    0.000    0.000 
#
# Total GULP energy -89080.874726 kJ/mol
# GULP energy per Si atom -5567.554670 kJ/mol
# Density = 1.845035 g / cm^3
# Si number density = 18.492440 Si / 1000 Ang^3
#
#
#
# Elastic Constant Matrix: (Units=GPa)
#
#
# Indices 1 2 3 4 5 6 
#
# 1 96.7216 16.4438 47.4690 0.0000 -5.7684 -0.0001
# 2 16.4438 26.1176 8.1395 0.0001 4.5441 -0.0003
# 3 47.4690 8.1395 104.1691 0.0014 -0.7613 0.0001
# 4 0.0000 0.0001 0.0014 16.2033 0.0006 -8.2038
# 5 -5.7684 4.5441 -0.7613 0.0006 29.5074 -0.0001
# 6 -0.0001 -0.0003 0.0001 -8.2038 -0.0001 23.4835
#
#
#
# Elastic Compliance Matrix: (Units=1/GPa)
#
#
# Indices 1 2 3 4 5 6 
#
# 1 0.015005 -0.008229 -0.006165 0.000001 0.004041 0.000000
# 2 -0.008229 0.044895 0.000180 0.000000 -0.008518 0.000001
# 3 -0.006165 0.000180 0.012388 -0.000001 -0.000913 -0.000001
# 4 0.000001 0.000000 -0.000001 0.074977 -0.000001 0.026193
# 5 0.004041 -0.008518 -0.000913 -0.000001 0.035968 0.000000
# 6 0.000000 0.000001 -0.000001 0.026193 0.000000 0.051733
#
#
# Mechanical properties :
#
#
# Convention : Reuss Voigt Hill
#
# Bulk Modulus (GPa) = 22.79994 41.23477 32.01736
# Shear Modulus (GPa) = 17.98463 24.16924 21.07693
#
# Velocity S-wave (km/s) = 3.12194 3.61914 3.37969
# Velocity P-wave (km/s) = 5.03502 6.30958 5.70799
#
# Compressibility (1/GPa) = 0.04385976
#
# Stress axis : x y z
#
# Youngs Moduli (GPa) = 66.64623 22.27409 80.72071
#
# Poissons Ratio (x) = 0.18329 0.49764
# Poissons Ratio (y) = 0.54842 -0.01449
# Poissons Ratio (z) = 0.41087 -0.00400
#
# Static dielectric constant tensor:
#      x y z
#    x 1.629960 0.000000 0.015530 
#    y 0.000000 1.607150 0.000000 
#    z 0.015530 0.000000 1.675050 
# 
# From -- ./inp_files/32438.got.cif
#   From: 2010.05.17/outbox.cif.g08.bks.cpg/sg8_17_cif.got.tgz:32438.got - 2010.06.03 19:46:02.
