data_PCOD9131744
_publ_section_title
;
Structure prediction by ZEFSAII (Michael W. Deem and Ramdas Pophale) SiO2 
 PCOD9131744
Probable space group: C M
;
_chemical_formula_sum "Si O2"
_cell_formula_units_Z 32
_cell_length_a 25.784283
_cell_length_b 8.309205
_cell_length_c 24.627568
_cell_angle_alpha 90.000000
_cell_angle_beta 162.108190
_cell_angle_gamma 90.000000
_cell_volume 1621.012563
_symmetry_space_group_name_H-M "C M"
_symmetry_group_IT_number 8
_symmetry_cell_setting 'monoclinic'
loop_
_space_group_symop_operation_xyz
x,y,z
x,-y,z
1/2+x,1/2+y,z
1/2+x,1/2-y,z
loop_
_atom_site_type_symbol
_atom_site_label
_atom_site_fract_x
_atom_site_fract_y
_atom_site_fract_z
Si Si1 0.707470 0.196192 0.952000
Si Si2 0.341786 0.192098 0.580687
Si Si3 0.361776 0.308524 0.991415
Si Si4 0.240349 0.688767 0.365098
Si Si5 0.719713 0.194767 0.222990
Si Si6 0.035280 0.309214 0.469603
Si Si7 0.328881 0.192341 0.841509
Si Si8 0.528104 0.304571 0.339273
O O1 0.520964 0.255153 0.779958
O O2 0.753376 0.238738 0.935732
O O3 0.705878 0.000000 0.952362
O O4 0.853706 0.250718 0.138066
O O5 0.326329 0.225902 0.501369
O O6 0.181569 0.254358 0.454252
O O7 0.340670 0.000000 0.586510
O O8 0.394660 0.500000 0.027714
O O9 0.285215 0.268177 0.856553
O O10 0.539987 0.217431 0.171835
O O11 0.278552 0.500000 0.405946
O O12 0.278149 0.747200 0.341740
O O13 0.854815 0.257067 0.314729
O O14 0.722449 0.000000 0.224654
O O15 0.522384 0.243466 0.019552
O O16 0.048270 0.500000 0.484900
O O17 0.188592 0.237217 0.657832
O O18 0.046926 0.251018 0.419395
O O19 0.332415 0.000000 0.851536
O O20 0.527954 0.500000 0.338338
#
# Coordination Sequence:
#
# PCOD9131744 Si02
#       8
#     4   4   4   4   4   4   4   4
#     4   9  19  35  58  89 117 150 198 242 293 354
#     4  10  20  36  60  87 117 156 199 246 299 355
#     4  10  18  34  59  90 125 157 195 245 298 356
#     4  10  20  35  57  88 124 159 197 244 300 359
#     4   9  21  41  62  87 120 161 205 248 300 362
#     4  12  26  41  62  91 122 161 206 257 307 361
#     4  10  22  41  63  90 123 161 203 249 303 366
#     4  10  21  41  61  82 118 163 207 249 294 357
#
# _framework density 19.740749000000001
#
# number of rings (size 3 to 8) (size 9 to 14) (size 15 to 20)
#    0.000    2.000    1.250    3.000    1.750    4.500 
#    0.000    3.750    0.000    0.000    0.000    0.000 
#    0.000    0.000    0.000    0.000    0.000    0.000 
#
# Total GULP energy -89337.269443 kJ/mol
# GULP energy per Si atom -5583.579340 kJ/mol
# Density = 1.969582 g / cm^3
# Si number density = 19.740749 Si / 1000 Ang^3
#
#
#
# Elastic Constant Matrix: (Units=GPa)
#
#
# Indices 1 2 3 4 5 6 
#
# 1 66.5820 4.3582 35.5397 0.0018 -23.5037 0.0007
# 2 4.3582 13.4890 2.2856 0.0016 3.1391 0.0003
# 3 35.5397 2.2856 104.0257 0.0014 -22.4271 0.0003
# 4 0.0018 0.0016 0.0014 21.1708 0.0006 -5.8721
# 5 -23.5037 3.1391 -22.4271 0.0006 20.0417 0.0000
# 6 0.0007 0.0003 0.0003 -5.8721 0.0000 29.2811
#
#
#
# Elastic Compliance Matrix: (Units=1/GPa)
#
#
# Indices 1 2 3 4 5 6 
#
# 1 0.029738 -0.017412 -0.002202 -0.000002 0.035139 -0.000001
# 2 -0.017412 0.089741 -0.004554 -0.000004 -0.039573 -0.000001
# 3 -0.002202 -0.004554 0.013262 -0.000001 0.012972 0.000000
# 4 -0.000002 -0.000004 -0.000001 0.050017 -0.000005 0.010031
# 5 0.035139 -0.039573 0.012972 -0.000005 0.111818 -0.000002
# 6 -0.000001 -0.000001 0.000000 0.010031 -0.000002 0.036163
#
#
# Mechanical properties :
#
#
# Convention : Reuss Voigt Hill
#
# Bulk Modulus (GPa) = 11.84776 29.82930 20.83853
# Shear Modulus (GPa) = 12.27864 23.55960 17.91912
#
# Velocity S-wave (km/s) = 2.49669 3.45838 3.01611
# Velocity P-wave (km/s) = 3.78497 5.57589 4.76532
#
# Compressibility (1/GPa) = 0.08440411
#
# Stress axis : x y z
#
# Youngs Moduli (GPa) = 33.62691 11.14314 75.40438
#
# Poissons Ratio (x) = 0.19403 0.16602
# Poissons Ratio (y) = 0.58553 0.34342
# Poissons Ratio (z) = 0.07404 0.05075
#
# Static dielectric constant tensor:
#      x y z
#    x 1.672870 0.000000 0.009380 
#    y 0.000000 1.678690 0.000000 
#    z 0.009380 0.000000 1.707270 
# 
# From -- ./inp_files/32435.got.cif
#   From: 2010.05.17/outbox.cif.g08.bks.cpg/sg8_17_cif.got.tgz:32435.got - 2010.06.03 19:46:02.
