data_PCOD9131609
_publ_section_title
;
Structure prediction by ZEFSAII (Michael W. Deem and Ramdas Pophale) SiO2 
 PCOD9131609
Probable space group: C M
;
_chemical_formula_sum "Si O2"
_cell_formula_units_Z 24
_cell_length_a 18.697858
_cell_length_b 8.781289
_cell_length_c 24.654937
_cell_angle_alpha 90.000000
_cell_angle_beta 19.209902
_cell_angle_gamma 90.000000
_cell_volume 1331.954305
_symmetry_space_group_name_H-M "C M"
_symmetry_group_IT_number 8
_symmetry_cell_setting 'monoclinic'
loop_
_space_group_symop_operation_xyz
x,y,z
x,-y,z
1/2+x,1/2+y,z
1/2+x,1/2-y,z
loop_
_atom_site_type_symbol
_atom_site_label
_atom_site_fract_x
_atom_site_fract_y
_atom_site_fract_z
Si Si1 0.288130 0.682756 0.893160
Si Si2 0.445743 0.818806 0.403072
Si Si3 0.608175 0.180707 0.573227
Si Si4 0.122393 0.317378 0.725979
Si Si5 0.974392 0.818356 0.555805
Si Si6 0.290266 0.181823 0.227749
O O1 0.307576 0.500000 0.880388
O O2 0.432841 0.747910 0.740376
O O3 0.390367 0.750394 0.875244
O O4 0.038179 0.723877 0.062073
O O5 0.342549 0.748891 0.422623
O O6 0.285707 0.753678 0.564463
O O7 0.681183 0.764204 0.254517
O O8 0.433687 0.000000 0.409884
O O9 0.538965 0.228140 0.562777
O O10 0.612501 0.000000 0.576914
O O11 0.122128 0.500000 0.720145
O O12 0.235652 0.281898 0.702263
O O13 0.145279 0.786594 0.384997
O O14 0.981547 0.000000 0.561782
O O15 0.278276 0.000000 0.226956
#
# Coordination Sequence:
#
# PCOD9131609 Si02
#       6
#     4   4   4   4   4   4
#     4  10  19  33  54  77 102 132 166 205 249 297
#     4  10  18  30  51  74  98 131 169 205 244 296
#     4  11  21  33  51  75 103 134 169 207 246 293
#     4   9  17  31  51  73 100 132 166 204 245 294
#     4   9  18  34  53  73  99 132 168 207 251 295
#     4   9  19  35  54  76 102 131 164 206 253 297
#
# _framework density 18.018636000000001
#
# number of rings (size 3 to 8) (size 9 to 14) (size 15 to 20)
#    0.000    2.333    0.000    7.000    0.000    4.667 
#    0.000    1.667    0.000    4.000    0.000    0.000 
#    0.000    0.000    0.000    0.000    0.000    0.000 
#
# Total GULP energy -66902.523780 kJ/mol
# GULP energy per Si atom -5575.210315 kJ/mol
# Density = 1.797762 g / cm^3
# Si number density = 18.018636 Si / 1000 Ang^3
#
#
#
# Elastic Constant Matrix: (Units=GPa)
#
#
# Indices 1 2 3 4 5 6 
#
# 1 145.7266 69.2187 50.1627 -0.0023 -47.6263 0.0001
# 2 69.2187 92.8525 40.2163 -0.0061 -28.6520 -0.0006
# 3 50.1627 40.2163 72.8843 -0.0246 -41.6501 0.0000
# 4 -0.0023 -0.0061 -0.0246 21.3988 0.0026 -8.6509
# 5 -47.6263 -28.6520 -41.6501 0.0026 35.7158 0.0004
# 6 0.0001 -0.0006 0.0000 -8.6509 0.0004 35.4234
#
#
#
# Elastic Compliance Matrix: (Units=1/GPa)
#
#
# Indices 1 2 3 4 5 6 
#
# 1 0.015274 -0.007308 0.005423 0.000003 0.020829 0.000000
# 2 -0.007308 0.018210 -0.006712 -0.000003 -0.002963 0.000000
# 3 0.005423 -0.006712 0.044206 0.000047 0.053398 0.000011
# 4 0.000003 -0.000003 0.000047 0.051851 0.000053 0.012663
# 5 0.020829 -0.002963 0.053398 0.000053 0.115666 0.000012
# 6 0.000000 0.000000 0.000011 0.012663 0.000012 0.031322
#
#
# Mechanical properties :
#
#
# Convention : Reuss Voigt Hill
#
# Bulk Modulus (GPa) = 16.52989 70.07320 43.30155
# Shear Modulus (GPa) = 15.92924 28.63200 22.28062
#
# Velocity S-wave (km/s) = 2.97651 3.99058 3.52025
# Velocity P-wave (km/s) = 4.58329 7.75930 6.37233
#
# Compressibility (1/GPa) = 0.06049645
#
# Stress axis : x y z
#
# Youngs Moduli (GPa) = 65.47168 54.91478 22.62131
#
# Poissons Ratio (x) = 0.40129 -0.12267
# Poissons Ratio (y) = 0.47844 0.15183
# Poissons Ratio (z) = -0.35503 0.36857
#
# Static dielectric constant tensor:
#      x y z
#    x 1.646020 0.000000 -0.035810 
#    y 0.000000 1.599540 0.000000 
#    z -0.035810 0.000000 1.635360 
# 
# From -- ./inp_files/22571.got.cif
#   From: 2010.05.17/outbox.cif.g08.bks.cpg/sg8_12_cif.got.tgz:22571.got - 2010.06.03 19:46:02.
