data_PCOD9131163
_publ_section_title
;
Structure prediction by ZEFSAII (Michael W. Deem and Ramdas Pophale) SiO2 
 PCOD9131163
Probable space group: P M
;
_chemical_formula_sum "Si O2"
_cell_formula_units_Z 10
_cell_length_a 5.055110
_cell_length_b 17.126655
_cell_length_c 4.849078
_cell_angle_alpha 90.000000
_cell_angle_beta 67.199336
_cell_angle_gamma 90.000000
_cell_volume 387.013995
_symmetry_space_group_name_H-M "P M"
_symmetry_group_IT_number 6
_symmetry_cell_setting 'monoclinic'
loop_
_space_group_symop_operation_xyz
x,y,z
x,-y,z
loop_
_atom_site_type_symbol
_atom_site_label
_atom_site_fract_x
_atom_site_fract_y
_atom_site_fract_z
Si Si1 0.240760 0.089588 0.525060
Si Si2 0.542953 0.714127 0.506684
Si Si3 0.996716 0.317841 0.924732
Si Si4 0.605947 0.852001 0.873411
Si Si5 0.473859 0.408485 0.101176
O O1 0.452067 0.098679 0.696552
O O2 0.927479 0.115973 0.754087
O O3 0.222709 0.000000 0.438139
O O4 0.400863 0.137934 0.219190
O O5 0.802179 0.736367 0.198865
O O6 0.607136 0.763081 0.755821
O O7 0.513857 0.624062 0.398579
O O8 0.201546 0.728496 0.636317
O O9 0.786090 0.380130 0.861540
O O10 0.220973 0.364104 0.038083
O O11 0.433590 0.500000 0.107313
#
# Coordination Sequence:
#
# PCOD9131163 Si02
#       5
#     2   2   2   2   2
#     4  12  26  48  72 108 144 186 232 286 352 424
#     4  10  26  43  68  97 135 173 233 274 345 400
#     4  10  24  41  64  91 133 168 228 278 339 397
#     4  12  27  44  79 102 147 186 234 289 351 414
#     4  10  24  42  65  94 132 177 225 281 338 399
#
# _framework density 25.83886
#
# number of rings (size 3 to 8) (size 9 to 14) (size 15 to 20)
#    1.200    0.000    0.000    4.800    8.400    1.600 
#    0.000    0.000    0.000    0.000    0.000    0.000 
#    0.000    0.000    0.000    0.000    0.000    0.000 
#
# Total GULP energy -55759.567627 kJ/mol
# GULP energy per Si atom -5575.956763 kJ/mol
# Density = 2.578005 g / cm^3
# Si number density = 25.838860 Si / 1000 Ang^3
#
#
#
# Elastic Constant Matrix: (Units=GPa)
#
#
# Indices 1 2 3 4 5 6 
#
# 1 131.5238 40.4444 42.2498 0.0000 -18.2683 0.0000
# 2 40.4444 155.1240 49.2532 0.0000 -10.2334 0.0000
# 3 42.2498 49.2532 196.6052 0.0000 -31.5811 0.0000
# 4 0.0000 0.0000 0.0000 31.2839 0.0000 2.3344
# 5 -18.2683 -10.2334 -31.5811 0.0000 53.0168 0.0000
# 6 0.0000 0.0000 0.0000 2.3344 0.0000 40.6618
#
#
#
# Elastic Compliance Matrix: (Units=1/GPa)
#
#
# Indices 1 2 3 4 5 6 
#
# 1 0.008797 -0.001807 -0.001113 0.000000 0.002019 0.000000
# 2 -0.001807 0.007380 -0.001473 0.000000 -0.000075 0.000000
# 3 -0.001113 -0.001473 0.006178 0.000000 0.003012 0.000000
# 4 0.000000 0.000000 0.000000 0.032103 0.000000 -0.001843
# 5 0.002019 -0.000075 0.003012 0.000000 0.021338 0.000000
# 6 0.000000 0.000000 0.000000 -0.001843 0.000000 0.024699
#
#
# Mechanical properties :
#
#
# Convention : Reuss Voigt Hill
#
# Bulk Modulus (GPa) = 73.69399 83.01644 78.35522
# Shear Modulus (GPa) = 43.93518 48.41288 46.17403
#
# Velocity S-wave (km/s) = 4.12801 4.33326 4.23188
# Velocity P-wave (km/s) = 7.16262 7.56535 7.36673
#
# Compressibility (1/GPa) = 0.01356963
#
# Stress axis : x y z
#
# Youngs Moduli (GPa) = 113.67599 135.49843 161.85324
#
# Poissons Ratio (x) = 0.24482 0.18021
# Poissons Ratio (y) = 0.20539 0.23836
# Poissons Ratio (z) = 0.12657 0.19955
#
# Static dielectric constant tensor:
#      x y z
#    x 2.123560 0.000000 0.058510 
#    y 0.000000 2.059160 0.000000 
#    z 0.058510 0.000000 2.265190 
# 
# From -- ./inp_files/525.got.cif
#   From: 2010.05.17/outbox.cif.g08.bks.cpg/sg6_1_cif.got.tgz:525.got - 2010.06.03 19:42:10.
