data_PCOD9131482
_publ_section_title
;
Structure prediction by ZEFSAII (Michael W. Deem and Ramdas Pophale) SiO2 
 PCOD9131482
Probable space group: P C
;
_chemical_formula_sum "Si O2"
_cell_formula_units_Z 10
_cell_length_a 5.225781
_cell_length_b 17.836924
_cell_length_c 4.691905
_cell_angle_alpha 90.000000
_cell_angle_beta 58.024849
_cell_angle_gamma 90.000000
_cell_volume 370.986836
_symmetry_space_group_name_H-M "P C"
_symmetry_group_IT_number 7
_symmetry_cell_setting 'monoclinic'
loop_
_space_group_symop_operation_xyz
x,y,z
x,-y,1/2+z
loop_
_atom_site_type_symbol
_atom_site_label
_atom_site_fract_x
_atom_site_fract_y
_atom_site_fract_z
Si Si1 0.345310 0.446634 0.871230
Si Si2 0.316342 0.251549 0.591408
Si Si3 0.234845 0.150429 0.158985
Si Si4 0.670829 0.947178 0.057966
Si Si5 0.789080 0.647325 0.504312
O O1 0.365930 0.475877 0.536228
O O2 0.593720 0.603467 0.383564
O O3 0.024368 0.404046 0.045136
O O4 0.267404 0.223557 0.941210
O O5 0.998745 0.292083 0.716482
O O6 0.385613 0.178286 0.360981
O O7 0.570059 0.310047 0.352247
O O8 0.374122 0.085365 0.882920
O O9 0.915526 0.118355 0.448468
O O10 0.706321 0.975970 0.716502
#
# Coordination Sequence:
#
# PCOD9131482 Si02
#       5
#     2   2   2   2   2
#     4  12  28  50  78 112 152 198 252 314 380 454
#     4  12  27  47  74 107 149 196 250 310 374 448
#     4  12  25  45  70 105 145 194 246 306 370 442
#     4  12  24  43  70 103 144 192 244 304 368 440
#     4  12  28  51  78 113 152 202 254 316 382 454
#
# _framework density 26.955131999999999
#
# number of rings (size 3 to 8) (size 9 to 14) (size 15 to 20)
#    0.000    0.000    0.000    9.600    0.000   11.200 
#    0.000    0.000    0.000    0.000    0.000    0.000 
#    0.000    0.000    0.000    0.000    0.000    0.000 
#
# Total GULP energy -56011.414934 kJ/mol
# GULP energy per Si atom -5601.141493 kJ/mol
# Density = 2.689378 g / cm^3
# Si number density = 26.955132 Si / 1000 Ang^3
#
#
#
# Elastic Constant Matrix: (Units=GPa)
#
#
# Indices 1 2 3 4 5 6 
#
# 1 124.5288 37.5566 35.8557 0.0000 -3.3498 0.0000
# 2 37.5566 99.3552 27.0628 0.0000 -9.2058 0.0000
# 3 35.8557 27.0628 134.5903 0.0000 -2.0158 0.0000
# 4 0.0000 0.0000 0.0000 63.8728 0.0000 -5.3740
# 5 -3.3498 -9.2058 -2.0158 0.0000 56.7717 0.0000
# 6 0.0000 0.0000 0.0000 -5.3740 0.0000 51.5471
#
#
#
# Elastic Compliance Matrix: (Units=1/GPa)
#
#
# Indices 1 2 3 4 5 6 
#
# 1 0.009508 -0.003073 -0.001915 0.000000 -0.000005 0.000000
# 2 -0.003073 0.011798 -0.001529 0.000000 0.001678 0.000000
# 3 -0.001915 -0.001529 0.008247 0.000000 -0.000068 0.000000
# 4 0.000000 0.000000 0.000000 0.015795 0.000000 0.001647
# 5 -0.000005 0.001678 -0.000068 0.000000 0.017884 0.000000
# 6 0.000000 0.000000 0.000000 0.001647 0.000000 0.019571
#
#
# Mechanical properties :
#
#
# Convention : Reuss Voigt Hill
#
# Bulk Modulus (GPa) = 60.53429 62.15828 61.34629
# Shear Modulus (GPa) = 49.33734 51.63828 50.48781
#
# Velocity S-wave (km/s) = 4.28290 4.38163 4.33255
# Velocity P-wave (km/s) = 6.85302 6.97913 6.91636
#
# Compressibility (1/GPa) = 0.01651956
#
# Stress axis : x y z
#
# Youngs Moduli (GPa) = 105.17047 84.75801 121.26309
#
# Poissons Ratio (x) = 0.26046 0.23225
# Poissons Ratio (y) = 0.32319 0.18536
# Poissons Ratio (z) = 0.20143 0.12956
#
# Static dielectric constant tensor:
#      x y z
#    x 2.088010 0.000000 0.002000 
#    y 0.000000 2.157020 0.000000 
#    z 0.002000 0.000000 2.002810 
# 
# From -- ./inp_files/188.got.cif
#   From: 2010.05.17/outbox.cif.g08.bks.cpg/sg7_cif.got.tgz:188.got - 2010.06.03 19:44:50.
