data_PCOD9131283
_publ_section_title
;
Structure prediction by ZEFSAII (Michael W. Deem and Ramdas Pophale) SiO2 
 PCOD9131283
Probable space group: P C
;
_chemical_formula_sum "Si O2"
_cell_formula_units_Z 16
_cell_length_a 8.405010
_cell_length_b 13.887164
_cell_length_c 5.471192
_cell_angle_alpha 90.000000
_cell_angle_beta 106.676146
_cell_angle_gamma 90.000000
_cell_volume 611.748610
_symmetry_space_group_name_H-M "P C"
_symmetry_group_IT_number 7
_symmetry_cell_setting 'monoclinic'
loop_
_space_group_symop_operation_xyz
x,y,z
x,-y,1/2+z
loop_
_atom_site_type_symbol
_atom_site_label
_atom_site_fract_x
_atom_site_fract_y
_atom_site_fract_z
Si Si1 0.674790 0.721724 0.886920
Si Si2 0.888865 0.061478 0.007129
Si Si3 0.547740 0.122112 0.022851
Si Si4 0.375472 0.240932 0.571266
Si Si5 0.276480 0.033255 0.396977
Si Si6 0.963664 0.463858 0.105466
Si Si7 0.584664 0.464527 0.050739
Si Si8 0.008977 0.736590 0.792739
O O1 0.635535 0.829982 0.788739
O O2 0.614250 0.644042 0.656875
O O3 0.874733 0.722277 0.954513
O O4 0.542237 0.707977 0.046124
O O5 0.987399 0.159158 0.148212
O O6 0.900276 0.988270 0.244592
O O7 0.699606 0.101918 0.912091
O O8 0.419086 0.199216 0.854991
O O9 0.441556 0.028528 0.015422
O O10 0.333073 0.142236 0.403893
O O11 0.194223 0.286477 0.469213
O O12 0.189428 0.009315 0.618243
O O13 0.042065 0.492540 0.398689
O O14 0.961843 0.348778 0.085820
O O15 0.773157 0.501852 0.066913
O O16 0.503602 0.516688 0.250690
#
# Coordination Sequence:
#
# PCOD9131283 Si02
#       8
#     2   2   2   2   2   2   2   2
#     4  10  22  43  66  95 135 181 225 288 352 407
#     4  11  25  43  68 103 147 191 239 292 349 419
#     4  10  22  38  66  95 134 188 235 275 350 416
#     4  11  23  42  65  97 139 179 232 287 346 413
#     4  10  19  35  60  84 122 175 217 260 324 391
#     4   9  19  42  69  98 136 183 227 291 365 425
#     4   9  19  36  65  96 129 169 224 279 346 423
#     4  10  25  45  69 110 136 184 245 296 350 430
#
# _framework density 26.154536
#
# number of rings (size 3 to 8) (size 9 to 14) (size 15 to 20)
#    0.000    2.000    1.250    1.500    7.000    3.000 
#    9.000    1.250    0.000    0.000    0.000    0.000 
#    0.000    0.000    0.000    0.000    0.000    0.000 
#
# Total GULP energy -89232.423636 kJ/mol
# GULP energy per Si atom -5577.026477 kJ/mol
# Density = 2.609501 g / cm^3
# Si number density = 26.154536 Si / 1000 Ang^3
#
#
#
# Elastic Constant Matrix: (Units=GPa)
#
#
# Indices 1 2 3 4 5 6 
#
# 1 71.9062 21.6942 27.7726 0.0000 -10.7105 0.0000
# 2 21.6942 100.2827 31.6901 0.0000 -18.8901 0.0000
# 3 27.7726 31.6901 134.0917 0.0000 -24.3014 0.0000
# 4 0.0000 0.0000 0.0000 38.2147 0.0000 -2.9326
# 5 -10.7105 -18.8901 -24.3014 0.0000 32.9343 0.0000
# 6 0.0000 0.0000 0.0000 -2.9326 0.0000 9.3662
#
#
#
# Elastic Compliance Matrix: (Units=1/GPa)
#
#
# Indices 1 2 3 4 5 6 
#
# 1 0.015818 -0.002282 -0.002357 0.000000 0.002096 0.000000
# 2 -0.002282 0.011859 -0.001422 0.000000 0.005010 0.000000
# 3 -0.002357 -0.001422 0.009229 0.000000 0.005228 0.000000
# 4 0.000000 0.000000 0.000000 0.026812 0.000000 0.008395
# 5 0.002096 0.005010 0.005228 0.000000 0.037777 0.000000
# 6 0.000000 0.000000 0.000000 0.008395 0.000000 0.109395
#
#
# Mechanical properties :
#
#
# Convention : Reuss Voigt Hill
#
# Bulk Modulus (GPa) = 40.34888 52.06604 46.20746
# Shear Modulus (GPa) = 21.61944 31.11129 26.36537
#
# Velocity S-wave (km/s) = 2.87819 3.45268 3.17844
# Velocity P-wave (km/s) = 5.14839 5.98707 5.58350
#
# Compressibility (1/GPa) = 0.02478384
#
# Stress axis : x y z
#
# Youngs Moduli (GPa) = 63.21862 84.32660 108.35122
#
# Poissons Ratio (x) = 0.19246 0.25538
# Poissons Ratio (y) = 0.14428 0.15406
# Poissons Ratio (z) = 0.14900 0.11990
#
# Static dielectric constant tensor:
#      x y z
#    x 2.163360 0.000000 -0.022870 
#    y 0.000000 2.064360 0.000000 
#    z -0.022870 0.000000 2.140580 
# 
# From -- ./inp_files/674.got.cif
#   From: 2010.05.17/outbox.cif.g08.bks.cpg/sg7_cif.got.tgz:674.got - 2010.06.03 19:44:50.
