data_PCOD9131612
_publ_section_title
;
Structure prediction by ZEFSAII (Michael W. Deem and Ramdas Pophale) SiO2 
 PCOD9131612
Probable space group: C M
;
_chemical_formula_sum "Si O2"
_cell_formula_units_Z 32
_cell_length_a 21.231184
_cell_length_b 8.413473
_cell_length_c 12.595771
_cell_angle_alpha 90.000000
_cell_angle_beta 127.651581
_cell_angle_gamma 90.000000
_cell_volume 1781.381268
_symmetry_space_group_name_H-M "C M"
_symmetry_group_IT_number 8
_symmetry_cell_setting 'monoclinic'
loop_
_space_group_symop_operation_xyz
x,y,z
x,-y,z
1/2+x,1/2+y,z
1/2+x,1/2-y,z
loop_
_atom_site_type_symbol
_atom_site_label
_atom_site_fract_x
_atom_site_fract_y
_atom_site_fract_z
Si Si1 0.785020 0.810387 0.544540
Si Si2 0.540249 0.187402 0.261529
Si Si3 0.680299 0.689295 0.256149
Si Si4 0.123776 0.194388 0.969209
Si Si5 0.644791 0.689246 0.550020
Si Si6 0.708747 0.692500 0.840901
Si Si7 0.387989 0.309416 0.996070
Si Si8 0.443563 0.306598 0.817897
O O1 0.752399 0.766781 0.395173
O O2 0.724223 0.730939 0.565113
O O3 0.874351 0.759611 0.664809
O O4 0.779119 0.000000 0.553013
O O5 0.600103 0.271381 0.239654
O O6 0.572904 0.232131 0.411290
O O7 0.451445 0.242746 0.145061
O O8 0.547705 0.000000 0.253830
O O9 0.690812 0.500000 0.268089
O O10 0.667962 0.743799 0.122838
O O11 0.167346 0.245789 0.907026
O O12 0.032077 0.248007 0.881271
O O13 0.123067 0.000000 0.968753
O O14 0.633431 0.500000 0.536693
O O15 0.659797 0.742922 0.685797
O O16 0.710517 0.500000 0.842070
O O17 0.798722 0.752635 0.924180
O O18 0.390411 0.500000 0.000826
O O19 0.416977 0.256502 0.908546
O O20 0.445792 0.500000 0.821139
#
# Coordination Sequence:
#
# PCOD9131612 Si02
#       8
#     4   4   4   4   4   4   4   4
#     4  10  18  30  51  79 107 136 176 226 272 314
#     4  11  21  33  53  81 110 139 179 228 272 315
#     4  10  18  32  54  78 107 144 179 217 269 323
#     4   9  18  35  56  77 106 145 182 215 265 325
#     4  10  19  32  51  78 109 141 179 220 269 322
#     4  10  21  36  56  81 110 145 182 221 266 321
#     4  11  20  35  57  81 109 141 182 223 270 321
#     4   9  17  31  54  79 102 137 179 218 261 315
#
# _framework density 17.96359
#
# number of rings (size 3 to 8) (size 9 to 14) (size 15 to 20)
#    0.000    2.000    2.500    4.125    0.000    0.500 
#    0.000    2.500    0.000    1.500    0.000    0.000 
#    0.000    0.000    0.000    0.000    0.000    0.000 
#
# Total GULP energy -89294.144928 kJ/mol
# GULP energy per Si atom -5580.884058 kJ/mol
# Density = 1.792270 g / cm^3
# Si number density = 17.963590 Si / 1000 Ang^3
#
#
#
# Elastic Constant Matrix: (Units=GPa)
#
#
# Indices 1 2 3 4 5 6 
#
# 1 101.2916 -1.1004 68.6705 0.0000 -3.5590 0.0000
# 2 -1.1004 8.3908 -0.0060 0.0000 -0.0493 0.0000
# 3 68.6705 -0.0060 161.7461 0.0000 -1.7345 0.0000
# 4 0.0000 0.0000 0.0000 17.8536 0.0000 10.6035
# 5 -3.5590 -0.0493 -1.7345 0.0000 26.3197 0.0000
# 6 0.0000 0.0000 0.0000 10.6035 0.0000 13.7567
#
#
#
# Elastic Compliance Matrix: (Units=1/GPa)
#
#
# Indices 1 2 3 4 5 6 
#
# 1 0.013949 0.001834 -0.005906 0.000000 0.001500 0.000000
# 2 0.001834 0.119420 -0.000770 0.000000 0.000421 0.000000
# 3 -0.005906 -0.000770 0.008688 0.000000 -0.000228 0.000000
# 4 0.000000 0.000000 0.000000 0.103299 0.000000 -0.079621
# 5 0.001500 0.000421 -0.000228 0.000000 0.038183 0.000000
# 6 0.000000 0.000000 0.000000 -0.079621 0.000000 0.134062
#
#
# Mechanical properties :
#
#
# Convention : Reuss Voigt Hill
#
# Bulk Modulus (GPa) = 7.55439 45.17297 26.36368
# Shear Modulus (GPa) = 10.60651 25.17699 17.89175
#
# Velocity S-wave (km/s) = 2.43254 3.74780 3.15937
# Velocity P-wave (km/s) = 3.47911 6.62794 5.29310
#
# Compressibility (1/GPa) = 0.13237336
#
# Stress axis : x y z
#
# Youngs Moduli (GPa) = 71.68904 8.37379 115.10770
#
# Poissons Ratio (x) = -0.01536 0.67983
# Poissons Ratio (y) = -0.13147 0.08859
# Poissons Ratio (z) = 0.42340 0.00644
#
# Static dielectric constant tensor:
#      x y z
#    x 1.581700 0.000000 -0.005650 
#    y 0.000000 1.616260 0.000000 
#    z -0.005650 0.000000 1.633540 
# 
# From -- ./inp_files/23861.got.cif
#   From: 2010.05.17/outbox.cif.g08.bks.cpg/sg8_12_cif.got.tgz:23861.got - 2010.06.03 19:46:02.
