data_PCOD9131646
_publ_section_title
;
Structure prediction by ZEFSAII (Michael W. Deem and Ramdas Pophale) SiO2 
 PCOD9131646
Probable space group: C M
;
_chemical_formula_sum "Si O2"
_cell_formula_units_Z 32
_cell_length_a 24.714495
_cell_length_b 7.984737
_cell_length_c 14.134864
_cell_angle_alpha 90.000000
_cell_angle_beta 149.221334
_cell_angle_gamma 90.000000
_cell_volume 1427.377760
_symmetry_space_group_name_H-M "C M"
_symmetry_group_IT_number 8
_symmetry_cell_setting 'monoclinic'
loop_
_space_group_symop_operation_xyz
x,y,z
x,-y,z
1/2+x,1/2+y,z
1/2+x,1/2-y,z
loop_
_atom_site_type_symbol
_atom_site_label
_atom_site_fract_x
_atom_site_fract_y
_atom_site_fract_z
Si Si1 0.609410 0.696148 0.621930
Si Si2 0.133178 0.806444 0.258397
Si Si3 0.826031 0.804027 0.911201
Si Si4 0.908279 0.305548 0.849397
Si Si5 0.455903 0.299655 0.721979
Si Si6 0.689806 0.705281 0.143997
Si Si7 0.913955 0.694042 0.448999
Si Si8 0.552135 0.705696 0.328037
O O1 0.629100 0.500000 0.642486
O O2 0.721783 0.774986 0.815888
O O3 0.512166 0.720763 0.545821
O O4 0.579904 0.764748 0.473880
O O5 0.191883 0.730947 0.256008
O O6 0.126559 0.733864 0.353704
O O7 0.166736 0.000000 0.317570
O O8 0.010223 0.799358 0.038359
O O9 0.821657 0.718104 0.801115
O O10 0.837448 0.000000 0.910540
O O11 0.932419 0.743679 0.122217
O O12 0.938163 0.500000 0.892047
O O13 0.886667 0.250181 0.709699
O O14 0.452159 0.500000 0.704423
O O15 0.425819 0.212462 0.579590
O O16 0.577351 0.250178 0.930051
O O17 0.691767 0.500000 0.150938
O O18 0.795825 0.760357 0.250182
O O19 0.917992 0.500000 0.428056
O O20 0.555169 0.500000 0.331652
#
# Coordination Sequence:
#
# PCOD9131646 Si02
#       8
#     4   4   4   4   4   4   4   4
#     4  11  23  39  56  80 110 147 192 237 278 328
#     4   8  14  31  56  81 108 142 180 225 277 333
#     4  10  20  38  60  84 113 148 184 228 279 330
#     4  10  18  31  54  87 118 146 180 223 273 335
#     4  10  20  38  60  84 113 148 184 228 279 330
#     4   8  17  34  58  82 109 143 180 222 279 335
#     4  11  23  39  56  80 110 147 192 237 278 328
#     4   8  17  34  58  82 109 143 180 222 279 335
#
# _framework density 22.418733
#
# number of rings (size 3 to 8) (size 9 to 14) (size 15 to 20)
#    0.000    2.500    0.000    4.125    0.000    2.000 
#    0.000   17.500    0.000    0.000    0.000    0.000 
#    0.000    0.000    0.000    0.000    0.000    0.000 
#
# Total GULP energy -89327.892787 kJ/mol
# GULP energy per Si atom -5582.993299 kJ/mol
# Density = 2.236771 g / cm^3
# Si number density = 22.418733 Si / 1000 Ang^3
#
#
#
# Elastic Constant Matrix: (Units=GPa)
#
#
# Indices 1 2 3 4 5 6 
#
# 1 57.7176 -8.1856 17.1453 0.0000 24.4288 0.0000
# 2 -8.1856 43.8650 -2.9506 0.0000 4.3439 0.0000
# 3 17.1453 -2.9506 60.3195 0.0000 19.9000 0.0000
# 4 0.0000 0.0000 0.0000 8.9425 0.0000 -2.4684
# 5 24.4288 4.3439 19.9000 0.0000 38.9094 0.0000
# 6 0.0000 0.0000 0.0000 -2.4684 0.0000 21.8204
#
#
#
# Elastic Compliance Matrix: (Units=1/GPa)
#
#
# Indices 1 2 3 4 5 6 
#
# 1 0.025375 0.006179 -0.001716 0.000000 -0.015744 0.000000
# 2 0.006179 0.024844 0.001990 0.000000 -0.007671 0.000000
# 3 -0.001716 0.001990 0.020308 0.000000 -0.009531 0.000000
# 4 0.000000 0.000000 0.000000 0.115430 0.000000 0.013058
# 5 -0.015744 -0.007671 -0.009531 0.000000 0.041316 0.000000
# 6 0.000000 0.000000 0.000000 0.013058 0.000000 0.047306
#
#
# Mechanical properties :
#
#
# Convention : Reuss Voigt Hill
#
# Bulk Modulus (GPa) = 11.98597 19.32446 15.65521
# Shear Modulus (GPa) = 17.27201 24.32731 20.79966
#
# Velocity S-wave (km/s) = 2.77867 3.29771 3.04925
# Velocity P-wave (km/s) = 3.95635 4.81023 4.40403
#
# Compressibility (1/GPa) = 0.08343089
#
# Stress axis : x y z
#
# Youngs Moduli (GPa) = 39.40837 40.25164 49.24179
#
# Poissons Ratio (x) = -0.24871 0.08452
# Poissons Ratio (y) = -0.24350 -0.09797
# Poissons Ratio (z) = 0.06764 -0.08008
#
# Static dielectric constant tensor:
#      x y z
#    x 1.830150 0.000000 0.010120 
#    y 0.000000 1.787970 0.000000 
#    z 0.010120 0.000000 1.870520 
# 
# From -- ./inp_files/28204.got.cif
#   From: 2010.05.17/outbox.cif.g08.bks.cpg/sg8_15_cif.got.tgz:28204.got - 2010.06.03 19:46:02.
