data_PCOD9131680
_publ_section_title
;
Structure prediction by ZEFSAII (Michael W. Deem and Ramdas Pophale) SiO2 
 PCOD9131680
Probable space group: C M
;
_chemical_formula_sum "Si O2"
_cell_formula_units_Z 32
_cell_length_a 25.461699
_cell_length_b 7.777136
_cell_length_c 12.986259
_cell_angle_alpha 90.000000
_cell_angle_beta 145.299559
_cell_angle_gamma 90.000000
_cell_volume 1463.934089
_symmetry_space_group_name_H-M "C M"
_symmetry_group_IT_number 8
_symmetry_cell_setting 'monoclinic'
loop_
_space_group_symop_operation_xyz
x,y,z
x,-y,z
1/2+x,1/2+y,z
1/2+x,1/2-y,z
loop_
_atom_site_type_symbol
_atom_site_label
_atom_site_fract_x
_atom_site_fract_y
_atom_site_fract_z
Si Si1 0.911840 0.300207 0.935200
Si Si2 0.634408 0.801651 0.096922
Si Si3 0.095108 0.789105 0.484152
Si Si4 0.406310 0.297816 0.273490
Si Si5 0.769564 0.292948 0.881918
Si Si6 0.335174 0.288150 0.374198
Si Si7 0.616810 0.695483 0.294211
Si Si8 0.925196 0.800206 0.731852
O O1 0.933318 0.500000 0.991054
O O2 0.833387 0.243764 0.887371
O O3 0.888254 0.285801 0.776704
O O4 0.005315 0.195812 0.104478
O O5 0.728224 0.732632 0.198645
O O6 0.649791 0.791059 0.245369
O O7 0.623159 0.000000 0.049782
O O8 0.536848 0.715004 0.913858
O O9 0.166303 0.740231 0.687856
O O10 0.131896 0.730084 0.432119
O O11 0.993230 0.726971 0.349494
O O12 0.093997 0.000000 0.473901
O O13 0.425753 0.500000 0.317234
O O14 0.388922 0.228142 0.359422
O O15 0.315433 0.277533 0.058302
O O16 0.771072 0.500000 0.890998
O O17 0.334628 0.500000 0.373170
O O18 0.383079 0.232709 0.557630
O O19 0.651688 0.500000 0.345347
O O20 0.900860 0.000000 0.700318
#
# Coordination Sequence:
#
# PCOD9131680 Si02
#       8
#     4   4   4   4   4   4   4   4
#     4  10  19  32  53  80 116 148 173 220 281 325
#     4  10  20  36  54  80 113 146 177 223 280 321
#     4   9  19  34  55  80 108 142 180 222 272 323
#     4  10  20  40  61  78 106 148 189 225 267 321
#     4  10  21  36  54  82 114 143 178 226 278 325
#     4   9  21  38  58  80 109 147 187 225 268 324
#     4  10  18  32  55  82 110 143 184 223 265 326
#     4  10  20  36  56  82 110 143 186 226 265 323
#
# _framework density 21.858906000000001
#
# number of rings (size 3 to 8) (size 9 to 14) (size 15 to 20)
#    0.000    2.250    1.250    3.000    1.750    1.500 
#    0.000    7.500    0.000    0.000    0.000    0.000 
#    0.000    0.000    0.000    0.000    0.000    0.000 
#
# Total GULP energy -89342.735056 kJ/mol
# GULP energy per Si atom -5583.920941 kJ/mol
# Density = 2.180915 g / cm^3
# Si number density = 21.858906 Si / 1000 Ang^3
#
#
#
# Elastic Constant Matrix: (Units=GPa)
#
#
# Indices 1 2 3 4 5 6 
#
# 1 64.3992 -4.5235 12.7242 0.0000 -13.5216 0.0000
# 2 -4.5235 33.5683 -8.9198 0.0000 2.3402 0.0000
# 3 12.7242 -8.9198 58.4534 0.0000 -14.7914 0.0000
# 4 0.0000 0.0000 0.0000 17.4162 0.0000 -3.1045
# 5 -13.5216 2.3402 -14.7914 0.0000 29.5087 0.0000
# 6 0.0000 0.0000 0.0000 -3.1045 0.0000 15.3333
#
#
#
# Elastic Compliance Matrix: (Units=1/GPa)
#
#
# Indices 1 2 3 4 5 6 
#
# 1 0.017449 0.001381 -0.001823 0.000000 0.006972 0.000000
# 2 0.001381 0.031159 0.004568 0.000000 0.000452 0.000000
# 3 -0.001823 0.004568 0.020499 0.000000 0.009077 0.000000
# 4 0.000000 0.000000 0.000000 0.059568 0.000000 0.012061
# 5 0.006972 0.000452 0.009077 0.000000 0.041597 0.000000
# 6 0.000000 0.000000 0.000000 0.012061 0.000000 0.067660
#
#
# Mechanical properties :
#
#
# Convention : Reuss Voigt Hill
#
# Bulk Modulus (GPa) = 12.92691 17.22030 15.07360
# Shear Modulus (GPa) = 19.57212 22.92764 21.24988
#
# Velocity S-wave (km/s) = 2.99554 3.24217 3.12130
# Velocity P-wave (km/s) = 4.22978 4.68088 4.46103
#
# Compressibility (1/GPa) = 0.07735803
#
# Stress axis : x y z
#
# Youngs Moduli (GPa) = 57.30889 32.09396 48.78372
#
# Poissons Ratio (x) = -0.04432 0.08895
# Poissons Ratio (y) = -0.07913 -0.22286
# Poissons Ratio (z) = 0.10450 -0.14662
#
# Static dielectric constant tensor:
#      x y z
#    x 1.789740 0.000000 0.000790 
#    y 0.000000 1.816990 0.000000 
#    z 0.000790 0.000000 1.793740 
# 
# From -- ./inp_files/28329.got.cif
#   From: 2010.05.17/outbox.cif.g08.bks.cpg/sg8_15_cif.got.tgz:28329.got - 2010.06.03 19:46:02.
