data_PCOD9131030
_publ_section_title
;
Structure prediction by ZEFSAII (Michael W. Deem and Ramdas Pophale) SiO2 
 PCOD9131030
Probable space group: P M
;
_chemical_formula_sum "Si O2"
_cell_formula_units_Z 16
_cell_length_a 7.128997
_cell_length_b 11.504222
_cell_length_c 15.293182
_cell_angle_alpha 90.000000
_cell_angle_beta 28.117580
_cell_angle_gamma 90.000000
_cell_volume 591.105330
_symmetry_space_group_name_H-M "P M"
_symmetry_group_IT_number 6
_symmetry_cell_setting 'monoclinic'
loop_
_space_group_symop_operation_xyz
x,y,z
x,-y,z
loop_
_atom_site_type_symbol
_atom_site_label
_atom_site_fract_x
_atom_site_fract_y
_atom_site_fract_z
Si Si1 0.098680 0.874172 0.222810
Si Si2 0.047197 0.374874 0.241392
Si Si3 0.364861 0.622913 0.721243
Si Si4 0.684571 0.374756 0.140184
Si Si5 0.597321 0.876122 0.656059
Si Si6 0.750098 0.377414 0.815839
Si Si7 0.628671 0.873697 0.829925
Si Si8 0.494994 0.125310 0.250417
O O1 0.855620 0.753422 0.323157
O O2 0.378995 0.873892 0.194226
O O3 0.890215 0.000000 0.309552
O O4 0.375891 0.870757 0.022995
O O5 0.829713 0.500000 0.334018
O O6 0.348339 0.374221 0.201358
O O7 0.324118 0.376401 0.040909
O O8 0.598424 0.500000 0.624550
O O9 0.057849 0.616710 0.768488
O O10 0.544595 0.750195 0.637025
O O11 0.103343 0.625206 0.916931
O O12 0.642082 0.500000 0.203594
O O13 0.657662 0.253798 0.202356
O O14 0.393038 0.876103 0.834781
O O15 0.070370 0.881024 0.473155
O O16 0.479340 0.000000 0.661333
O O17 0.782390 0.500000 0.752432
O O18 0.825907 0.253226 0.741642
O O19 0.840392 0.000000 0.745447
O O20 0.690493 0.000000 0.190138
#
# Coordination Sequence:
#
# PCOD9131030 Si02
#       8
#     2   2   2   2   2   2   2   2
#     4   8  13  23  41  61  81 112 154 192 224 267
#     4   7  10  18  34  58  83 101 127 177 227 258
#     4   9  18  32  50  74 102 131 167 209 249 294
#     4   8  14  26  45  67  89 117 158 202 238 280
#     4  10  21  33  45  71 110 138 158 198 256 305
#     4   8  14  26  45  67  89 117 158 202 238 280
#     4   9  17  29  46  70  98 127 162 203 245 293
#     4   9  17  29  46  70  98 127 162 203 245 293
#
# _framework density 27.067934999999999
#
# number of rings (size 3 to 8) (size 9 to 14) (size 15 to 20)
#    0.000    3.500    0.000    2.250    0.000    2.000 
#    0.000    1.250    0.000    1.500    0.000    7.000 
#    0.000    0.000    0.000    0.000    0.000    0.000 
#
# Total GULP energy -89229.448598 kJ/mol
# GULP energy per Si atom -5576.840537 kJ/mol
# Density = 2.700633 g / cm^3
# Si number density = 27.067935 Si / 1000 Ang^3
#
#
#
# Elastic Constant Matrix: (Units=GPa)
#
#
# Indices 1 2 3 4 5 6 
#
# 1 82.0849 23.2175 17.5771 0.0000 17.9094 0.0000
# 2 23.2175 434.2901 26.8682 0.0000 -14.6668 0.0000
# 3 17.5771 26.8682 61.6498 0.0000 10.2094 0.0000
# 4 0.0000 0.0000 0.0000 26.4024 0.0000 4.8247
# 5 17.9094 -14.6668 10.2094 0.0000 26.1844 0.0000
# 6 0.0000 0.0000 0.0000 4.8247 0.0000 25.1389
#
#
#
# Elastic Compliance Matrix: (Units=1/GPa)
#
#
# Indices 1 2 3 4 5 6 
#
# 1 0.015136 -0.001012 -0.002209 0.000000 -0.010059 0.000000
# 2 -0.001012 0.002521 -0.001238 0.000000 0.002587 0.000000
# 3 -0.002209 -0.001238 0.018446 0.000000 -0.006375 0.000000
# 4 0.000000 0.000000 0.000000 0.039252 0.000000 -0.007533
# 5 -0.010059 0.002587 -0.006375 0.000000 0.049005 0.000000
# 6 0.000000 0.000000 0.000000 -0.007533 0.000000 0.041225
#
#
# Mechanical properties :
#
#
# Convention : Reuss Voigt Hill
#
# Bulk Modulus (GPa) = 36.78593 79.26115 58.02354
# Shear Modulus (GPa) = 27.23827 49.56927 38.40377
#
# Velocity S-wave (km/s) = 3.17565 4.28400 3.77077
# Velocity P-wave (km/s) = 5.20251 7.33595 6.35933
#
# Compressibility (1/GPa) = 0.02718430
#
# Stress axis : x y z
#
# Youngs Moduli (GPa) = 66.06589 396.71282 54.21277
#
# Poissons Ratio (x) = 0.40158 0.11974
# Poissons Ratio (y) = 0.06688 0.06714
# Poissons Ratio (z) = 0.14592 0.49129
#
# Static dielectric constant tensor:
#      x y z
#    x 2.086630 0.000000 -0.011720 
#    y 0.000000 2.135650 0.000000 
#    z -0.011720 0.000000 2.048310 
# 
# From -- ./inp_files/5789.got.cif
#   From: 2010.05.17/outbox.cif.g08.bks.cpg/sg6_3_cif.got.tgz:5789.got - 2010.06.03 19:42:10.
