data_PCOD9131130
_publ_section_title
;
Structure prediction by ZEFSAII (Michael W. Deem and Ramdas Pophale) SiO2 
 PCOD9131130
Probable space group: P M
;
_chemical_formula_sum "Si O2"
_cell_formula_units_Z 14
_cell_length_a 7.009604
_cell_length_b 16.768550
_cell_length_c 8.522185
_cell_angle_alpha 90.000000
_cell_angle_beta 39.256911
_cell_angle_gamma 90.000000
_cell_volume 633.877813
_symmetry_space_group_name_H-M "P M"
_symmetry_group_IT_number 6
_symmetry_cell_setting 'monoclinic'
loop_
_space_group_symop_operation_xyz
x,y,z
x,-y,z
loop_
_atom_site_type_symbol
_atom_site_label
_atom_site_fract_x
_atom_site_fract_y
_atom_site_fract_z
Si Si1 0.466500 0.158786 0.564450
Si Si2 0.452220 0.407513 0.825388
Si Si3 0.741107 0.000000 0.509624
Si Si4 0.454425 0.000000 0.045266
Si Si5 0.800649 0.253558 0.617533
Si Si6 0.828585 0.850420 0.879877
Si Si7 0.461721 0.273099 0.267850
Si Si8 0.735483 0.590357 0.294525
O O1 0.655271 0.078959 0.466362
O O2 0.599410 0.223339 0.600526
O O3 0.452710 0.204910 0.408681
O O4 0.119338 0.131598 0.798469
O O5 0.498396 0.500000 0.852416
O O6 0.633122 0.333658 0.786228
O O7 0.582643 0.405983 0.563829
O O8 0.093767 0.390368 0.066334
O O9 0.099988 0.000000 0.297836
O O10 0.564326 0.000000 0.791247
O O11 0.594214 0.921724 0.037248
O O12 0.848064 0.170611 0.683288
O O13 0.148724 0.278665 0.374281
O O14 0.724145 0.762717 0.996784
O O15 0.555842 0.352960 0.292849
O O16 0.713655 0.500000 0.252043
#
# Coordination Sequence:
#
# PCOD9131130 Si02
#       8
#     2   2   1   1   2   2   2   2
#     4  11  24  45  68  96 134 178 225 270 341 398
#     4  10  22  41  68  97 133 180 225 275 334 400
#     4  12  27  45  74  99 132 184 222 280 337 396
#     4  12  27  47  70 101 138 172 228 280 333 404
#     4  11  23  42  67  99 134 174 227 277 330 403
#     4  11  26  43  69  98 138 176 223 280 337 400
#     4  11  25  40  69 102 131 181 223 282 331 403
#     4  10  22  42  67  97 135 177 224 276 335 400
#
# _framework density 22.086274
#
# number of rings (size 3 to 8) (size 9 to 14) (size 15 to 20)
#    0.000    1.143    2.857    2.143    8.000    3.429 
#    0.000    0.714    0.000    0.000    0.000    0.000 
#    0.000    0.000    0.000    0.000    0.000    0.000 
#
# Total GULP energy -78064.868905 kJ/mol
# GULP energy per Si atom -5576.062065 kJ/mol
# Density = 2.203600 g / cm^3
# Si number density = 22.086274 Si / 1000 Ang^3
#
#
#
# Elastic Constant Matrix: (Units=GPa)
#
#
# Indices 1 2 3 4 5 6 
#
# 1 101.9935 43.0584 27.4164 0.0000 -25.4468 0.0000
# 2 43.0584 121.6918 7.7875 0.0000 -16.0541 0.0000
# 3 27.4164 7.7875 77.7879 0.0000 -17.1865 0.0000
# 4 0.0000 0.0000 0.0000 32.8821 0.0000 -8.5496
# 5 -25.4468 -16.0541 -17.1865 0.0000 25.2963 0.0000
# 6 0.0000 0.0000 0.0000 -8.5496 0.0000 32.9643
#
#
#
# Elastic Compliance Matrix: (Units=1/GPa)
#
#
# Indices 1 2 3 4 5 6 
#
# 1 0.014682 -0.003611 -0.002420 0.000000 0.010834 0.000000
# 2 -0.003611 0.009868 0.001019 0.000000 0.003323 0.000000
# 3 -0.002420 0.001019 0.015545 0.000000 0.008774 0.000000
# 4 0.000000 0.000000 0.000000 0.032611 0.000000 0.008458
# 5 0.010834 0.003323 0.008774 0.000000 0.058500 0.000000
# 6 0.000000 0.000000 0.000000 0.008458 0.000000 0.032529
#
#
# Mechanical properties :
#
#
# Convention : Reuss Voigt Hill
#
# Bulk Modulus (GPa) = 33.25349 50.88864 42.07107
# Shear Modulus (GPa) = 27.20596 33.10926 30.15761
#
# Velocity S-wave (km/s) = 3.51351 3.87601 3.69920
# Velocity P-wave (km/s) = 5.61681 6.56674 6.11026
#
# Compressibility (1/GPa) = 0.03007203
#
# Stress axis : x y z
#
# Youngs Moduli (GPa) = 68.10840 101.33468 64.33035
#
# Poissons Ratio (x) = 0.36592 0.15565
# Poissons Ratio (y) = 0.24594 -0.06554
# Poissons Ratio (z) = 0.16480 -0.10324
#
# Static dielectric constant tensor:
#      x y z
#    x 1.840340 0.000000 0.109080 
#    y 0.000000 1.803680 0.000000 
#    z 0.109080 0.000000 1.999450 
# 
# From -- ./inp_files/434.got.cif
#   From: 2010.05.17/outbox.cif.g08.bks.cpg/sg6_1_cif.got.tgz:434.got - 2010.06.03 19:42:10.
