data_PCOD9131377
_publ_section_title
;
Structure prediction by ZEFSAII (Michael W. Deem and Ramdas Pophale) SiO2 
 PCOD9131377
Probable space group: P C
;
_chemical_formula_sum "Si O2"
_cell_formula_units_Z 16
_cell_length_a 7.791380
_cell_length_b 16.193918
_cell_length_c 5.624565
_cell_angle_alpha 90.000000
_cell_angle_beta 63.432217
_cell_angle_gamma 90.000000
_cell_volume 634.731281
_symmetry_space_group_name_H-M "P C"
_symmetry_group_IT_number 7
_symmetry_cell_setting 'monoclinic'
loop_
_space_group_symop_operation_xyz
x,y,z
x,-y,1/2+z
loop_
_atom_site_type_symbol
_atom_site_label
_atom_site_fract_x
_atom_site_fract_y
_atom_site_fract_z
Si Si1 0.848940 0.122136 0.995680
Si Si2 0.211988 0.725150 0.647543
Si Si3 0.214139 0.186255 0.631756
Si Si4 0.667334 0.709965 0.386394
Si Si5 0.640677 0.817429 0.014105
Si Si6 0.523091 0.983441 0.249933
Si Si7 0.070073 0.540486 0.712519
Si Si8 0.647537 0.523039 0.497206
O O1 0.771681 0.211713 0.943222
O O2 0.708266 0.042392 0.083319
O O3 0.060806 0.112053 0.763010
O O4 0.830498 0.144679 0.284166
O O5 0.189450 0.766222 0.400656
O O6 0.439119 0.715333 0.549817
O O7 0.123830 0.635230 0.692048
O O8 0.148486 0.771178 0.927785
O O9 0.447350 0.180671 0.473572
O O10 0.688414 0.729346 0.092315
O O11 0.714877 0.618874 0.445449
O O12 0.578149 0.887690 0.240480
O O13 0.421166 0.992537 0.057346
O O14 0.134439 0.503294 0.418407
O O15 0.840264 0.530625 0.864249
O O16 0.547152 0.499048 0.808044
#
# Coordination Sequence:
#
# PCOD9131377 Si02
#       8
#     2   2   2   2   2   2   2   2
#     4  11  24  41  73 104 137 187 230 287 339 426
#     4  11  25  44  66 100 138 179 228 299 340 418
#     4  11  26  41  71 103 136 182 236 275 355 403
#     4  11  24  43  72  98 139 183 242 276 360 410
#     4  10  23  47  68 105 143 185 225 297 341 418
#     4  10  21  41  68  99 141 180 222 281 351 399
#     4  10  22  40  61  89 130 174 220 281 355 394
#     4  10  25  39  61  96 130 174 233 282 349 406
#
# _framework density 25.207515999999998
#
# number of rings (size 3 to 8) (size 9 to 14) (size 15 to 20)
#    0.000    1.500    2.500    0.750   10.500    1.000 
#    0.000    5.000    0.000    0.000    0.000    0.000 
#    0.000    0.000    0.000    0.000    0.000    0.000 
#
# Total GULP energy -89186.492653 kJ/mol
# GULP energy per Si atom -5574.155791 kJ/mol
# Density = 2.515014 g / cm^3
# Si number density = 25.207516 Si / 1000 Ang^3
#
#
#
# Elastic Constant Matrix: (Units=GPa)
#
#
# Indices 1 2 3 4 5 6 
#
# 1 95.9809 18.8998 30.4747 0.0000 -8.7147 0.0000
# 2 18.8998 86.1104 24.0904 0.0000 7.4222 0.0000
# 3 30.4747 24.0904 138.5614 0.0000 28.4335 0.0000
# 4 0.0000 0.0000 0.0000 -21.9459 0.0000 21.1314
# 5 -8.7147 7.4222 28.4335 0.0000 36.6437 0.0000
# 6 0.0000 0.0000 0.0000 21.1314 0.0000 32.8972
#
#
#
# Elastic Compliance Matrix: (Units=1/GPa)
#
#
# Indices 1 2 3 4 5 6 
#
# 1 0.012607 -0.002284 -0.003670 0.000000 0.006309 0.000000
# 2 -0.002284 0.012650 -0.001261 0.000000 -0.002127 0.000000
# 3 -0.003670 -0.001261 0.009955 0.000000 -0.008342 0.000000
# 4 0.000000 0.000000 0.000000 -0.028154 0.000000 0.018084
# 5 0.006309 -0.002127 -0.008342 0.000000 0.035694 0.000000
# 6 0.000000 0.000000 0.000000 0.018084 0.000000 0.018781
#
#
# Mechanical properties :
#
#
# Convention : Reuss Voigt Hill
#
# Bulk Modulus (GPa) = 48.11629 51.95361 50.03495
# Shear Modulus (GPa) = 60.32026 25.99818 43.15922
#
# Velocity S-wave (km/s) = 4.89708 3.21497 4.14231
# Velocity P-wave (km/s) = 7.14876 5.86826 6.53993
#
# Compressibility (1/GPa) = 0.02078298
#
# Stress axis : x y z
#
# Youngs Moduli (GPa) = 79.32386 79.04949 100.44971
#
# Poissons Ratio (x) = 0.18054 0.36866
# Poissons Ratio (y) = 0.18117 0.12662
# Poissons Ratio (z) = 0.29113 0.09964
#
# Static dielectric constant tensor:
#      x y z
#    x 2.078760 0.000000 0.094890 
#    y 0.000000 2.034790 0.000000 
#    z 0.094890 0.000000 2.119130 
# 
# From -- ./inp_files/629.got.cif
#   From: 2010.05.17/outbox.cif.g08.bks.cpg/sg7_cif.got.tgz:629.got - 2010.06.03 19:44:50.
