data_PCOD9131181
_publ_section_title
;
Structure prediction by ZEFSAII (Michael W. Deem and Ramdas Pophale) SiO2 
 PCOD9131181
Probable space group: P M
;
_chemical_formula_sum "Si O2"
_cell_formula_units_Z 13
_cell_length_a 5.109591
_cell_length_b 19.026609
_cell_length_c 5.184816
_cell_angle_alpha 90.000000
_cell_angle_beta 88.198505
_cell_angle_gamma 90.000000
_cell_volume 503.809292
_symmetry_space_group_name_H-M "P M"
_symmetry_group_IT_number 6
_symmetry_cell_setting 'monoclinic'
loop_
_space_group_symop_operation_xyz
x,y,z
x,-y,z
loop_
_atom_site_type_symbol
_atom_site_label
_atom_site_fract_x
_atom_site_fract_y
_atom_site_fract_z
Si Si1 0.753920 0.118723 0.253940
Si Si2 0.571759 0.387154 0.030987
Si Si3 0.929837 0.386945 0.503904
Si Si4 0.066308 0.000000 0.998431
Si Si5 0.455079 0.229437 0.939513
Si Si6 0.252788 0.500000 0.761103
Si Si7 0.431415 0.000000 0.492856
Si Si8 0.972688 0.228757 0.589096
O O1 0.883391 0.068006 0.038173
O O2 0.970752 0.167280 0.381510
O O3 0.616727 0.067839 0.465082
O O4 0.541794 0.169951 0.134677
O O5 0.756786 0.392688 0.771107
O O6 0.476009 0.307114 0.059845
O O7 0.339762 0.438870 0.966497
O O8 0.747039 0.407203 0.270412
O O9 0.015586 0.306149 0.471622
O O10 0.165148 0.438652 0.556341
O O11 0.256091 0.000000 0.240515
O O12 0.242185 0.000000 0.741163
O O13 0.681568 0.228707 0.715321
O O14 0.180645 0.218247 0.808707
#
# Coordination Sequence:
#
# PCOD9131181 Si02
#       8
#     2   2   2   1   2   1   1   2
#     4  11  28  50  84 117 166 218 280 345 424 498
#     4  11  25  47  71 112 156 209 274 338 406 488
#     4  11  25  47  71 112 156 209 274 338 406 488
#     4  11  30  53  83 122 170 214 276 338 428 514
#     4  11  26  48  79 117 161 213 282 345 411 489
#     4  12  24  46  76 108 164 216 260 338 418 478
#     4  11  30  53  83 122 170 214 276 338 428 514
#     4  11  26  48  79 117 161 213 282 345 411 489
#
# _framework density 25.803415000000001
#
# number of rings (size 3 to 8) (size 9 to 14) (size 15 to 20)
#    0.000    0.923    3.077    0.923    8.615    3.692 
#    0.000    2.308    0.000    0.000    0.000    0.000 
#    0.000    0.000    0.000    0.000    0.000    0.000 
#
# Total GULP energy -72770.577946 kJ/mol
# GULP energy per Si atom -5597.736765 kJ/mol
# Density = 2.574469 g / cm^3
# Si number density = 25.803415 Si / 1000 Ang^3
#
#
#
# Elastic Constant Matrix: (Units=GPa)
#
#
# Indices 1 2 3 4 5 6 
#
# 1 69.5358 36.5823 53.4352 0.0000 -11.1067 0.0000
# 2 36.5823 223.1052 69.1595 0.0000 22.8051 0.0000
# 3 53.4352 69.1595 199.9072 0.0000 31.7113 0.0000
# 4 0.0000 0.0000 0.0000 15.3496 0.0000 0.2928
# 5 -11.1067 22.8051 31.7113 0.0000 71.3471 0.0000
# 6 0.0000 0.0000 0.0000 0.2928 0.0000 -48.0184
#
#
#
# Elastic Compliance Matrix: (Units=1/GPa)
#
#
# Indices 1 2 3 4 5 6 
#
# 1 0.021229 -0.002326 -0.005930 0.000000 0.006684 0.000000
# 2 -0.002326 0.005329 -0.000962 0.000000 -0.001638 0.000000
# 3 -0.005930 -0.000962 0.007550 0.000000 -0.003971 0.000000
# 4 0.000000 0.000000 0.000000 0.065141 0.000000 0.000397
# 5 0.006684 -0.001638 -0.003971 0.000000 0.017345 0.000000
# 6 0.000000 0.000000 0.000000 0.000397 0.000000 -0.020823
#
#
# Mechanical properties :
#
#
# Convention : Reuss Voigt Hill
#
# Bulk Modulus (GPa) = 63.80643 90.10027 76.95335
# Shear Modulus (GPa) = 41.86454 29.96042 35.91248
#
# Velocity S-wave (km/s) = 4.03232 3.41119 3.73469
# Velocity P-wave (km/s) = 6.81624 7.10695 6.96311
#
# Compressibility (1/GPa) = 0.01567240
#
# Stress axis : x y z
#
# Youngs Moduli (GPa) = 47.10428 187.64407 132.44419
#
# Poissons Ratio (x) = 0.43644 0.78543
# Poissons Ratio (y) = 0.10956 0.12743
# Poissons Ratio (z) = 0.27934 0.18055
#
# Static dielectric constant tensor:
#      x y z
#    x 2.088600 0.000000 -0.059930 
#    y 0.000000 1.993680 0.000000 
#    z -0.059930 0.000000 2.016350 
# 
# From -- ./inp_files/580.got.cif
#   From: 2010.05.17/outbox.cif.g08.bks.cpg/sg6_1_cif.got.tgz:580.got - 2010.06.03 19:42:10.
