data_PCOD9131407
_publ_section_title
;
Structure prediction by ZEFSAII (Michael W. Deem and Ramdas Pophale) SiO2 
 PCOD9131407
Probable space group: P C
;
_chemical_formula_sum "Si O2"
_cell_formula_units_Z 14
_cell_length_a 6.915129
_cell_length_b 14.945611
_cell_length_c 5.037828
_cell_angle_alpha 90.000000
_cell_angle_beta 67.607851
_cell_angle_gamma 90.000000
_cell_volume 481.404737
_symmetry_space_group_name_H-M "P C"
_symmetry_group_IT_number 7
_symmetry_cell_setting 'monoclinic'
loop_
_space_group_symop_operation_xyz
x,y,z
x,-y,1/2+z
loop_
_atom_site_type_symbol
_atom_site_label
_atom_site_fract_x
_atom_site_fract_y
_atom_site_fract_z
Si Si1 0.738870 0.669180 0.534120
Si Si2 0.330166 0.266297 0.486062
Si Si3 0.088631 0.065713 0.095522
Si Si4 0.562439 0.056152 0.784456
Si Si5 0.184090 0.631905 0.552885
Si Si6 0.922897 0.189368 0.562071
Si Si7 0.539915 0.489989 0.769015
O O1 0.568507 0.734746 0.760740
O O2 0.586451 0.565569 0.974670
O O3 0.946214 0.639668 0.585029
O O4 0.828562 0.718686 0.224196
O O5 0.307574 0.299540 0.796951
O O6 0.162229 0.185644 0.546568
O O7 0.226251 0.336332 0.329334
O O8 0.960868 0.155692 0.238449
O O9 0.052174 0.996527 0.359562
O O10 0.332135 0.092399 0.959852
O O11 0.747365 0.122034 0.755524
O O12 0.577862 0.028850 0.469551
O O13 0.293160 0.536625 0.444545
O O14 0.626775 0.423339 0.982026
#
# Coordination Sequence:
#
# PCOD9131407 Si02
#       7
#     2   2   2   2   2   2   2
#     4  11  26  46  74 103 142 191 235 303 371 416
#     4  11  25  47  67 102 142 179 235 294 358 428
#     4  10  22  42  68 100 143 188 235 287 338 418
#     4  10  22  42  71 103 139 190 234 278 348 417
#     4  11  25  47  69  99 134 184 237 296 361 436
#     4  11  24  43  70 105 145 184 237 293 356 427
#     4  12  24  47  73 100 137 180 247 303 352 438
#
# _framework density 29.081558999999999
#
# number of rings (size 3 to 8) (size 9 to 14) (size 15 to 20)
#    0.000    1.143    2.857    1.714    0.000   10.286 
#    0.000    5.714    0.000    0.000    0.000    0.000 
#    0.000    0.000    0.000    0.000    0.000    0.000 
#
# Total GULP energy -78222.616128 kJ/mol
# GULP energy per Si atom -5587.329723 kJ/mol
# Density = 2.901537 g / cm^3
# Si number density = 29.081559 Si / 1000 Ang^3
#
#
#
# Elastic Constant Matrix: (Units=GPa)
#
#
# Indices 1 2 3 4 5 6 
#
# 1 173.3275 64.0162 71.7832 0.0000 -25.8191 0.0000
# 2 64.0162 108.4591 41.4541 0.0000 -17.7745 0.0000
# 3 71.7832 41.4541 174.3979 0.0000 7.7922 0.0000
# 4 0.0000 0.0000 0.0000 60.0933 0.0000 -7.0590
# 5 -25.8191 -17.7745 7.7922 0.0000 83.7615 0.0000
# 6 0.0000 0.0000 0.0000 -7.0590 0.0000 52.9151
#
#
#
# Elastic Compliance Matrix: (Units=1/GPa)
#
#
# Indices 1 2 3 4 5 6 
#
# 1 0.008580 -0.003663 -0.002756 0.000000 0.002124 0.000000
# 2 -0.003663 0.012203 -0.001464 0.000000 0.001597 0.000000
# 3 -0.002756 -0.001464 0.007299 0.000000 -0.001839 0.000000
# 4 0.000000 0.000000 0.000000 0.016906 0.000000 0.002255
# 5 0.002124 0.001597 -0.001839 0.000000 0.013103 0.000000
# 6 0.000000 0.000000 0.000000 0.002255 0.000000 0.019199
#
#
# Mechanical properties :
#
#
# Convention : Reuss Voigt Hill
#
# Bulk Modulus (GPa) = 81.19646 90.07684 85.63665
# Shear Modulus (GPa) = 51.46086 57.94939 54.70512
#
# Velocity S-wave (km/s) = 4.21115 4.46875 4.34186
# Velocity P-wave (km/s) = 7.18512 7.59391 7.39234
#
# Compressibility (1/GPa) = 0.01231581
#
# Stress axis : x y z
#
# Youngs Moduli (GPa) = 116.55139 81.94447 137.01286
#
# Poissons Ratio (x) = 0.30015 0.37758
# Poissons Ratio (y) = 0.42691 0.20065
# Poissons Ratio (z) = 0.32119 0.12000
#
# Static dielectric constant tensor:
#      x y z
#    x 2.235740 0.000000 0.062170 
#    y 0.000000 2.340780 0.000000 
#    z 0.062170 0.000000 2.385990 
# 
# From -- ./inp_files/795.got.cif
#   From: 2010.05.17/outbox.cif.g08.bks.cpg/sg7_cif.got.tgz:795.got - 2010.06.03 19:44:50.
