data_PCOD9131528
_publ_section_title
;
Structure prediction by ZEFSAII (Michael W. Deem and Ramdas Pophale) SiO2 
 PCOD9131528
Probable space group: C M
;
_chemical_formula_sum "Si O2"
_cell_formula_units_Z 32
_cell_length_a 23.799046
_cell_length_b 8.537114
_cell_length_c 9.189971
_cell_angle_alpha 90.000000
_cell_angle_beta 67.731313
_cell_angle_gamma 90.000000
_cell_volume 1727.914400
_symmetry_space_group_name_H-M "C M"
_symmetry_group_IT_number 8
_symmetry_cell_setting 'monoclinic'
loop_
_space_group_symop_operation_xyz
x,y,z
x,-y,z
1/2+x,1/2+y,z
1/2+x,1/2-y,z
loop_
_atom_site_type_symbol
_atom_site_label
_atom_site_fract_x
_atom_site_fract_y
_atom_site_fract_z
Si Si1 0.334860 0.313628 0.784850
Si Si2 0.088264 0.190217 0.194311
Si Si3 0.207722 0.811394 0.907258
Si Si4 0.830775 0.313864 0.456591
Si Si5 0.459987 0.186360 0.647645
Si Si6 0.956091 0.812968 0.320615
Si Si7 0.704986 0.813104 0.580343
Si Si8 0.086659 0.811792 0.535320
O O1 0.337309 0.500000 0.789931
O O2 0.271259 0.251143 0.909524
O O3 0.332691 0.260616 0.617043
O O4 0.397375 0.241087 0.783541
O O5 0.091915 0.234916 0.360136
O O6 0.022202 0.239135 0.197638
O O7 0.088063 0.000000 0.190381
O O8 0.147886 0.242934 0.051375
O O9 0.202718 0.750495 0.747474
O O10 0.209846 0.000000 0.903929
O O11 0.828059 0.500000 0.473485
O O12 0.894572 0.264554 0.322260
O O13 0.768195 0.251038 0.451009
O O14 0.459482 0.268774 0.488951
O O15 0.523216 0.241143 0.655477
O O16 0.459069 0.000000 0.629415
O O17 0.950652 0.000000 0.312919
O O18 0.645672 0.750559 0.558215
O O19 0.706618 0.000000 0.579696
O O20 0.083786 0.000000 0.546901
#
# Coordination Sequence:
#
# PCOD9131528 Si02
#       8
#     4   4   4   4   4   4   4   4
#     4  10  17  27  43  67  95 125 158 199 240 280
#     4   8  17  31  51  74  98 126 160 196 240 287
#     4  10  18  32  51  73  98 129 162 199 240 285
#     4  10  17  27  44  68  93 123 159 200 241 281
#     4  10  17  27  44  69  95 123 157 198 239 282
#     4   9  15  27  45  68  95 124 156 198 240 281
#     4  11  21  33  48  72 100 130 162 198 239 287
#     4  10  19  34  52  73  98 128 160 198 241 287
#
# _framework density 18.519435999999999
#
# number of rings (size 3 to 8) (size 9 to 14) (size 15 to 20)
#    0.000    2.250    0.000    9.375    0.000    0.000 
#    0.000    7.500    0.000    1.500    0.000    7.000 
#    0.000    0.000    0.000    0.000    0.000    0.000 
#
# Total GULP energy -89172.381335 kJ/mol
# GULP energy per Si atom -5573.273833 kJ/mol
# Density = 1.847728 g / cm^3
# Si number density = 18.519436 Si / 1000 Ang^3
#
#
#
# Elastic Constant Matrix: (Units=GPa)
#
#
# Indices 1 2 3 4 5 6 
#
# 1 167.5415 38.1219 49.9392 0.0000 -54.9821 0.0000
# 2 38.1219 85.2909 15.1685 0.0000 -12.9628 0.0000
# 3 49.9392 15.1685 56.7845 0.0000 -39.5701 0.0000
# 4 0.0000 0.0000 0.0000 13.2627 0.0000 -11.1149
# 5 -54.9821 -12.9628 -39.5701 0.0000 37.9126 0.0000
# 6 0.0000 0.0000 0.0000 -11.1149 0.0000 29.3595
#
#
#
# Elastic Compliance Matrix: (Units=1/GPa)
#
#
# Indices 1 2 3 4 5 6 
#
# 1 0.012625 -0.003147 0.006404 0.000000 0.023917 0.000000
# 2 -0.003147 0.013178 -0.002908 0.000000 -0.003093 0.000000
# 3 0.006404 -0.002908 0.067968 0.000000 0.079233 0.000000
# 4 0.000000 0.000000 0.000000 0.110439 0.000000 0.041810
# 5 0.023917 -0.003093 0.079233 0.000000 0.142702 0.000000
# 6 0.000000 0.000000 0.000000 0.041810 0.000000 0.049889
#
#
# Mechanical properties :
#
#
# Convention : Reuss Voigt Hill
#
# Bulk Modulus (GPa) = 10.58536 57.34181 33.96358
# Shear Modulus (GPa) = 11.69341 29.86611 20.77976
#
# Velocity S-wave (km/s) = 2.51552 4.02019 3.35334
# Velocity P-wave (km/s) = 3.76369 7.25117 5.77689
#
# Compressibility (1/GPa) = 0.09447010
#
# Stress axis : x y z
#
# Youngs Moduli (GPa) = 79.21050 75.88310 14.71272
#
# Poissons Ratio (x) = 0.23878 -0.09423
# Poissons Ratio (y) = 0.24925 0.04279
# Poissons Ratio (z) = -0.50729 0.22068
#
# Static dielectric constant tensor:
#      x y z
#    x 1.700350 0.000000 -0.051250 
#    y 0.000000 1.617980 0.000000 
#    z -0.051250 0.000000 1.664770 
# 
# From -- ./inp_files/24252.got.cif
#   From: 2010.05.17/outbox.cif.g08.bks.cpg/sg8_13_cif.got.tgz:24252.got - 2010.06.03 19:46:02.
