data_PCOD9131073
_publ_section_title
;
Structure prediction by ZEFSAII (Michael W. Deem and Ramdas Pophale) SiO2 
 PCOD9131073
Probable space group: P M
;
_chemical_formula_sum "Si O2"
_cell_formula_units_Z 12
_cell_length_a 6.183212
_cell_length_b 14.729125
_cell_length_c 5.378124
_cell_angle_alpha 90.000000
_cell_angle_beta 106.884410
_cell_angle_gamma 90.000000
_cell_volume 468.689381
_symmetry_space_group_name_H-M "P M"
_symmetry_group_IT_number 6
_symmetry_cell_setting 'monoclinic'
loop_
_space_group_symop_operation_xyz
x,y,z
x,-y,z
loop_
_atom_site_type_symbol
_atom_site_label
_atom_site_fract_x
_atom_site_fract_y
_atom_site_fract_z
Si Si1 0.013490 0.500000 0.535560
Si Si2 0.640717 0.809100 0.747047
Si Si3 0.350136 0.096429 0.002411
Si Si4 0.088774 0.749787 0.139159
Si Si5 0.347271 0.352334 0.833818
Si Si6 0.729095 0.500000 0.947362
Si Si7 0.936337 0.895604 0.467198
O O1 0.167782 0.410649 0.618607
O O2 0.837214 0.500000 0.708025
O O3 0.906636 0.500000 0.229173
O O4 0.581259 0.880204 0.944088
O O5 0.871064 0.755230 0.884302
O O6 0.436649 0.736261 0.712842
O O7 0.707158 0.872534 0.540157
O O8 0.277872 0.173995 0.160655
O O9 0.148553 0.097315 0.729412
O O10 0.351114 0.000000 0.126889
O O11 0.229782 0.666665 0.062916
O O12 0.977752 0.797820 0.342893
O O13 0.567888 0.413790 0.935268
O O14 0.925742 0.000000 0.355123
#
# Coordination Sequence:
#
# PCOD9131073 Si02
#       7
#     1   2   2   2   2   1   2
#     4  11  26  55  80 117 149 193 243 311 385 469
#     4  10  21  41  60 100 134 187 236 295 368 425
#     4   9  19  36  57  85 131 182 235 294 354 419
#     4  10  21  41  60 101 134 184 241 297 359 428
#     4  10  24  48  74 110 147 191 244 306 374 463
#     4  11  26  55  82 113 147 199 239 307 395 463
#     4  10  21  38  63  96 141 191 245 300 354 425
#
# _framework density 25.603313
#
# number of rings (size 3 to 8) (size 9 to 14) (size 15 to 20)
#    0.000    2.000    0.000    2.000    0.000    7.333 
#   39.000    0.000    0.000    0.000    0.000    0.000 
#    0.000    0.000    0.000    0.000    0.000    0.000 
#
# Total GULP energy -66913.042148 kJ/mol
# GULP energy per Si atom -5576.086846 kJ/mol
# Density = 2.554504 g / cm^3
# Si number density = 25.603313 Si / 1000 Ang^3
#
#
#
# Elastic Constant Matrix: (Units=GPa)
#
#
# Indices 1 2 3 4 5 6 
#
# 1 135.8704 37.2291 27.6370 0.0000 -17.3888 0.0000
# 2 37.2291 119.3496 21.0830 0.0000 -2.4777 0.0000
# 3 27.6370 21.0830 65.8737 0.0000 -16.4626 0.0000
# 4 0.0000 0.0000 0.0000 -27.2522 0.0000 29.9713
# 5 -17.3888 -2.4777 -16.4626 0.0000 55.4979 0.0000
# 6 0.0000 0.0000 0.0000 29.9713 0.0000 -56.0224
#
#
#
# Elastic Compliance Matrix: (Units=1/GPa)
#
#
# Indices 1 2 3 4 5 6 
#
# 1 0.008720 -0.002245 -0.002465 0.000000 0.001901 0.000000
# 2 -0.002245 0.009471 -0.002332 0.000000 -0.000972 0.000000
# 3 -0.002465 -0.002332 0.018083 0.000000 0.004488 0.000000
# 4 0.000000 0.000000 0.000000 -0.089143 0.000000 -0.047690
# 5 0.001901 -0.000972 0.004488 0.000000 0.019902 0.000000
# 6 0.000000 0.000000 0.000000 -0.047690 0.000000 -0.043364
#
#
# Mechanical properties :
#
#
# Convention : Reuss Voigt Hill
#
# Bulk Modulus (GPa) = 45.06759 54.77688 49.92223
# Shear Modulus (GPa) = -91.15571 10.12097 -40.51737
#
# Velocity S-wave (km/s) = -5.97331 1.99037 -3.98239
# Velocity P-wave (km/s) = 5.47114 5.16943 1.26696
#
# Compressibility (1/GPa) = 0.02218890
#
# Stress axis : x y z
#
# Youngs Moduli (GPa) = 114.68238 105.58689 55.30189
#
# Poissons Ratio (x) = 0.23705 0.13631
# Poissons Ratio (y) = 0.25748 0.12898
# Poissons Ratio (z) = 0.28266 0.24626
#
# Static dielectric constant tensor:
#      x y z
#    x 1.982940 0.000000 0.015690 
#    y 0.000000 2.377130 0.000000 
#    z 0.015690 0.000000 2.209660 
# 
# From -- ./inp_files/275.got.cif
#   From: 2010.05.17/outbox.cif.g08.bks.cpg/sg6_1_cif.got.tgz:275.got - 2010.06.03 19:42:10.
