data_PCOD9131922
_publ_section_title
;
Structure prediction by ZEFSAII (Michael W. Deem and Ramdas Pophale) SiO2 
 PCOD9131922
Probable space group: C M
;
_chemical_formula_sum "Si O2"
_cell_formula_units_Z 32
_cell_length_a 21.567847
_cell_length_b 9.103774
_cell_length_c 14.078669
_cell_angle_alpha 90.000000
_cell_angle_beta 143.132428
_cell_angle_gamma 90.000000
_cell_volume 1658.508133
_symmetry_space_group_name_H-M "C M"
_symmetry_group_IT_number 8
_symmetry_cell_setting 'monoclinic'
loop_
_space_group_symop_operation_xyz
x,y,z
x,-y,z
1/2+x,1/2+y,z
1/2+x,1/2-y,z
loop_
_atom_site_type_symbol
_atom_site_label
_atom_site_fract_x
_atom_site_fract_y
_atom_site_fract_z
Si Si1 0.765630 0.677748 0.963030
Si Si2 0.178115 0.667100 0.172696
Si Si3 0.600697 0.678066 0.611232
Si Si4 0.268215 0.171452 0.659857
Si Si5 0.652470 0.166501 0.368204
Si Si6 0.955945 0.165283 0.117410
Si Si7 0.481180 0.339241 0.925911
Si Si8 0.865147 0.177507 0.273697
O O1 0.776159 0.500000 0.976294
O O2 0.652755 0.712809 0.778278
O O3 0.845893 0.757643 0.990339
O O4 0.806390 0.744230 0.113185
O O5 0.156464 0.500000 0.115548
O O6 0.169902 0.668496 0.276634
O O7 0.290890 0.706289 0.272687
O O8 0.087482 0.769077 0.021498
O O9 0.597407 0.500000 0.602952
O O10 0.684143 0.728386 0.633928
O O11 0.483546 0.725618 0.441220
O O12 0.221955 0.211357 0.501544
O O13 0.380470 0.241479 0.794190
O O14 0.278541 0.000000 0.690233
O O15 0.537799 0.218240 0.257098
O O16 0.673254 0.000000 0.426813
O O17 0.957991 0.000000 0.162819
O O18 0.989229 0.147597 0.049640
O O19 0.464446 0.500000 0.863316
O O20 0.866706 0.000000 0.259724
#
# Coordination Sequence:
#
# PCOD9131922 Si02
#       8
#     4   4   4   4   4   4   4   4
#     4  11  21  36  58  88 119 156 198 245 297 353
#     4   9  20  39  60  79 111 155 197 237 290 351
#     4   9  20  37  59  85 118 156 193 234 293 361
#     4  11  20  34  56  85 119 153 189 235 296 361
#     4  10  20  34  54  84 115 150 193 241 293 349
#     4  10  19  33  54  81 111 148 188 235 293 349
#     4  10  20  34  56  82 112 146 188 240 288 338
#     4  10  21  41  63  84 115 160 204 243 292 358
#
# _framework density 19.294447999999999
#
# number of rings (size 3 to 8) (size 9 to 14) (size 15 to 20)
#    0.000    2.000    1.250    2.625    0.000    3.000 
#    2.250    1.875    0.000    0.000    0.000    0.000 
#    0.000    0.000    0.000    0.000    0.000    0.000 
#
# Total GULP energy -89068.284268 kJ/mol
# GULP energy per Si atom -5566.767767 kJ/mol
# Density = 1.925053 g / cm^3
# Si number density = 19.294448 Si / 1000 Ang^3
#
#
#
# Elastic Constant Matrix: (Units=GPa)
#
#
# Indices 1 2 3 4 5 6 
#
# 1 47.3904 26.6800 46.3371 0.0000 18.0892 0.0000
# 2 26.6800 55.5012 39.3337 0.0000 13.8506 0.0000
# 3 46.3371 39.3337 122.5614 0.0000 19.4137 0.0000
# 4 0.0000 0.0000 0.0000 30.9494 0.0000 -3.9509
# 5 18.0892 13.8506 19.4137 0.0000 27.7689 0.0000
# 6 0.0000 0.0000 0.0000 -3.9509 0.0000 4.0840
#
#
#
# Elastic Compliance Matrix: (Units=1/GPa)
#
#
# Indices 1 2 3 4 5 6 
#
# 1 0.042711 -0.008950 -0.010768 0.000000 -0.015831 0.000000
# 2 -0.008950 0.026551 -0.004457 0.000000 -0.004297 0.000000
# 3 -0.010768 -0.004457 0.013716 0.000000 -0.000352 0.000000
# 4 0.000000 0.000000 0.000000 0.036863 0.000000 0.035662
# 5 -0.015831 -0.004297 -0.000352 0.000000 0.048713 0.000000
# 6 0.000000 0.000000 0.000000 0.035662 0.000000 0.279360
#
#
# Mechanical properties :
#
#
# Convention : Reuss Voigt Hill
#
# Bulk Modulus (GPa) = 28.87718 50.01717 39.44718
# Shear Modulus (GPa) = 9.84626 20.10060 14.97343
#
# Velocity S-wave (km/s) = 2.26147 3.23117 2.78879
# Velocity P-wave (km/s) = 4.67098 6.31664 5.55509
#
# Compressibility (1/GPa) = 0.03462942
#
# Stress axis : x y z
#
# Youngs Moduli (GPa) = 23.41294 37.66384 72.90595
#
# Poissons Ratio (x) = 0.33708 0.78506
# Poissons Ratio (y) = 0.20954 0.32491
# Poissons Ratio (z) = 0.25211 0.16785
#
# Static dielectric constant tensor:
#      x y z
#    x 1.706460 0.000000 -0.030840 
#    y 0.000000 1.686280 0.000000 
#    z -0.030840 0.000000 1.750800 
# 
# From -- ./inp_files/30051.got.cif
#   From: 2010.05.17/outbox.cif.g08.bks.cpg/sg8_16_cif.got.tgz:30051.got - 2010.06.03 19:46:02.
