data_PCOD9131771
_publ_section_title
;
Structure prediction by ZEFSAII (Michael W. Deem and Ramdas Pophale) SiO2 
 PCOD9131771
Probable space group: C M
;
_chemical_formula_sum "Si O2"
_cell_formula_units_Z 32
_cell_length_a 11.737116
_cell_length_b 14.332501
_cell_length_c 9.653427
_cell_angle_alpha 90.000000
_cell_angle_beta 84.312892
_cell_angle_gamma 90.000000
_cell_volume 1615.927873
_symmetry_space_group_name_H-M "C M"
_symmetry_group_IT_number 8
_symmetry_cell_setting 'monoclinic'
loop_
_space_group_symop_operation_xyz
x,y,z
x,-y,z
1/2+x,1/2+y,z
1/2+x,1/2-y,z
loop_
_atom_site_type_symbol
_atom_site_label
_atom_site_fract_x
_atom_site_fract_y
_atom_site_fract_z
Si Si1 0.193750 0.161205 0.745440
Si Si2 0.008988 0.820171 0.978730
Si Si3 0.924900 0.600433 0.607844
Si Si4 0.586856 0.251216 0.499526
Si Si5 0.043055 0.396674 0.896492
Si Si6 0.787867 0.102280 0.497042
Si Si7 0.015806 0.107962 0.289108
Si Si8 0.301612 0.355269 0.807194
O O1 0.119422 0.135430 0.887503
O O2 0.290146 0.101513 0.658132
O O3 0.101764 0.194684 0.642733
O O4 0.270132 0.247773 0.786540
O O5 0.013154 0.705544 0.965341
O O6 0.899850 0.859295 0.908527
O O7 0.007500 0.851994 0.136444
O O8 0.953031 0.500000 0.540103
O O9 0.971800 0.688504 0.516593
O O10 0.991573 0.606432 0.747056
O O11 0.692820 0.180113 0.485028
O O12 0.591261 0.323894 0.374806
O O13 0.006856 0.500000 0.958584
O O14 0.180716 0.398011 0.868451
O O15 0.831998 0.108400 0.650391
O O16 0.892460 0.110829 0.379519
O O17 0.734866 0.000000 0.486725
O O18 0.053852 0.000000 0.284078
#
# Coordination Sequence:
#
# PCOD9131771 Si02
#       8
#     4   4   4   4   4   4   4   4
#     4  10  19  35  62  91 121 158 200 247 306 361
#     4  11  22  40  62  87 131 170 207 249 306 364
#     4  11  20  35  63  99 125 149 195 255 313 369
#     4  11  20  41  64  89 123 160 202 254 313 361
#     4  10  20  36  63  96 124 154 199 261 314 363
#     4  10  20  37  64  95 118 153 203 260 313 363
#     4  11  27  43  58  84 125 171 213 251 298 365
#     4  10  18  35  64  95 121 153 203 257 309 358
#
# _framework density 19.802865000000001
#
# number of rings (size 3 to 8) (size 9 to 14) (size 15 to 20)
#    0.000    1.500    5.000    3.000    0.000    4.000 
#    0.000    2.500    0.000    0.000    0.000    0.000 
#    0.000    0.000    0.000    0.000    0.000    0.000 
#
# Total GULP energy -89238.637302 kJ/mol
# GULP energy per Si atom -5577.414831 kJ/mol
# Density = 1.975779 g / cm^3
# Si number density = 19.802865 Si / 1000 Ang^3
#
#
#
# Elastic Constant Matrix: (Units=GPa)
#
#
# Indices 1 2 3 4 5 6 
#
# 1 67.2600 27.5473 28.7399 0.0000 0.6288 0.0000
# 2 27.5473 123.5623 46.6870 0.0000 9.1511 0.0000
# 3 28.7399 46.6870 121.9538 0.0000 3.8837 0.0000
# 4 0.0000 0.0000 0.0000 48.5808 0.0000 78.3307
# 5 0.6288 9.1511 3.8837 0.0000 8.3815 0.0000
# 6 0.0000 0.0000 0.0000 78.3307 0.0000 239.4056
#
#
#
# Elastic Compliance Matrix: (Units=1/GPa)
#
#
# Indices 1 2 3 4 5 6 
#
# 1 0.017358 -0.002960 -0.003064 0.000000 0.003350 0.000000
# 2 -0.002960 0.010649 -0.003061 0.000000 -0.009987 0.000000
# 3 -0.003064 -0.003061 0.010130 0.000000 -0.001122 0.000000
# 4 0.000000 0.000000 0.000000 0.043569 0.000000 -0.014255
# 5 0.003350 -0.009987 -0.001122 0.000000 0.130483 0.000000
# 6 0.000000 0.000000 0.000000 -0.014255 0.000000 0.008841
#
#
# Mechanical properties :
#
#
# Convention : Reuss Voigt Hill
#
# Bulk Modulus (GPa) = 50.08521 57.63606 53.86063
# Shear Modulus (GPa) = 20.33709 73.26037 46.79873
#
# Velocity S-wave (km/s) = 3.20812 6.08894 4.86658
# Velocity P-wave (km/s) = 6.25056 8.86576 7.67044
#
# Compressibility (1/GPa) = 0.01996597
#
# Stress axis : x y z
#
# Youngs Moduli (GPa) = 57.61030 93.90300 98.72122
#
# Poissons Ratio (x) = 0.27797 0.30249
# Poissons Ratio (y) = 0.17054 0.30220
# Poissons Ratio (z) = 0.17652 0.28745
#
# Static dielectric constant tensor:
#      x y z
#    x 1.714940 0.000000 -0.018370 
#    y 0.000000 1.786310 0.000000 
#    z -0.018370 0.000000 1.651220 
# 
# From -- ./inp_files/10750.got.cif
#   From: 2010.05.17/outbox.cif.g08.bks.cpg/sg8_6_cif.got.tgz:10750.got - 2010.06.03 19:46:02.
