data_PCOD9131930
_publ_section_title
;
Structure prediction by ZEFSAII (Michael W. Deem and Ramdas Pophale) SiO2 
 PCOD9131930
Probable space group: C M
;
_chemical_formula_sum "Si O2"
_cell_formula_units_Z 32
_cell_length_a 21.620060
_cell_length_b 8.564041
_cell_length_c 14.308325
_cell_angle_alpha 90.000000
_cell_angle_beta 138.458841
_cell_angle_gamma 90.000000
_cell_volume 1756.877070
_symmetry_space_group_name_H-M "C M"
_symmetry_group_IT_number 8
_symmetry_cell_setting 'monoclinic'
loop_
_space_group_symop_operation_xyz
x,y,z
x,-y,z
1/2+x,1/2+y,z
1/2+x,1/2-y,z
loop_
_atom_site_type_symbol
_atom_site_label
_atom_site_fract_x
_atom_site_fract_y
_atom_site_fract_z
Si Si1 0.734780 0.810837 0.850850
Si Si2 0.467636 0.315160 0.853384
Si Si3 0.624055 0.811894 0.170561
Si Si4 0.766000 0.180491 0.186976
Si Si5 0.094556 0.319573 0.844229
Si Si6 0.395402 0.691089 0.178165
Si Si7 0.766031 0.312791 0.678395
Si Si8 0.601341 0.688914 0.352935
O O1 0.641296 0.760175 0.801184
O O2 0.745461 0.748125 0.759168
O O3 0.733210 0.000000 0.847839
O O4 0.824421 0.763551 0.014887
O O5 0.465990 0.500000 0.862186
O O6 0.512646 0.271093 0.804012
O O7 0.364982 0.248604 0.753489
O O8 0.536548 0.245074 0.010104
O O9 0.718013 0.751246 0.224774
O O10 0.616840 0.753783 0.267231
O O11 0.625029 0.000000 0.168264
O O12 0.852730 0.249435 0.228263
O O13 0.789407 0.000000 0.234585
O O14 0.681825 0.179877 0.015688
O O15 0.065834 0.500000 0.799806
O O16 0.393223 0.500000 0.178800
O O17 0.500100 0.740125 0.275686
O O18 0.768695 0.500000 0.683539
O O19 0.683440 0.262609 0.515468
O O20 0.600519 0.500000 0.347439
#
# Coordination Sequence:
#
# PCOD9131930 Si02
#       8
#     4   4   4   4   4   4   4   4
#     4   9  17  32  57  82 103 132 171 215 264 320
#     4  11  21  34  55  79 103 136 180 224 264 311
#     4  10  19  33  55  80 105 133 167 212 265 318
#     4   7  12  25  48  76 100 123 156 199 249 304
#     4   8  15  30  52  79 107 132 164 212 267 315
#     4   8  14  29  53  76  96 124 164 205 248 303
#     4  11  23  36  49  71 108 147 182 222 263 304
#     4  10  21  35  51  73 104 141 176 213 256 305
#
# _framework density 18.214137000000001
#
# number of rings (size 3 to 8) (size 9 to 14) (size 15 to 20)
#    0.000    2.750    0.000    4.875    0.000    2.500 
#    0.000    1.250    0.000    5.250    0.000    0.000 
#    0.000    0.000    0.000    0.000    0.000    0.000 
#
# Total GULP energy -89174.075009 kJ/mol
# GULP energy per Si atom -5573.379688 kJ/mol
# Density = 1.817268 g / cm^3
# Si number density = 18.214137 Si / 1000 Ang^3
#
#
#
# Elastic Constant Matrix: (Units=GPa)
#
#
# Indices 1 2 3 4 5 6 
#
# 1 218.4314 36.2818 97.4090 0.0000 18.0052 0.0000
# 2 36.2818 28.6178 24.8355 0.0000 2.8651 0.0000
# 3 97.4090 24.8355 92.4364 0.0000 7.7062 0.0000
# 4 0.0000 0.0000 0.0000 12.5157 0.0000 -8.0478
# 5 18.0052 2.8651 7.7062 0.0000 -5.5956 0.0000
# 6 0.0000 0.0000 0.0000 -8.0478 0.0000 27.7304
#
#
#
# Elastic Compliance Matrix: (Units=1/GPa)
#
#
# Indices 1 2 3 4 5 6 
#
# 1 0.007963 -0.004107 -0.008296 0.000000 0.012094 0.000000
# 2 -0.004107 0.047477 -0.008390 0.000000 -0.000459 0.000000
# 3 -0.008296 -0.008390 0.021886 0.000000 -0.000850 0.000000
# 4 0.000000 0.000000 0.000000 0.098231 0.000000 0.028508
# 5 0.012094 -0.000459 -0.000850 0.000000 -0.141200 0.000000
# 6 0.000000 0.000000 0.000000 0.028508 0.000000 0.044335
#
#
# Mechanical properties :
#
#
# Convention : Reuss Voigt Hill
#
# Bulk Modulus (GPa) = 27.98003 72.94869 50.46436
# Shear Modulus (GPa) = 37.82404 18.99403 28.40904
#
# Velocity S-wave (km/s) = 4.56195 3.23277 3.95362
# Velocity P-wave (km/s) = 6.56838 7.35336 6.97193
#
# Compressibility (1/GPa) = 0.03573978
#
# Stress axis : x y z
#
# Youngs Moduli (GPa) = 125.58117 21.06285 45.69145
#
# Poissons Ratio (x) = 0.08650 0.37907
# Poissons Ratio (y) = 0.51571 0.38336
# Poissons Ratio (z) = 1.04186 0.17672
#
# Static dielectric constant tensor:
#      x y z
#    x 1.657890 0.000000 0.009850 
#    y 0.000000 1.624710 0.000000 
#    z 0.009850 0.000000 1.591780 
# 
# From -- ./inp_files/27744.got.cif
#   From: 2010.05.17/outbox.cif.g08.bks.cpg/sg8_14_cif.got.tgz:27744.got - 2010.06.03 19:46:02.
