data_PCOD9131601
_publ_section_title
;
Structure prediction by ZEFSAII (Michael W. Deem and Ramdas Pophale) SiO2 
 PCOD9131601
Probable space group: C M
;
_chemical_formula_sum "Si O2"
_cell_formula_units_Z 32
_cell_length_a 8.040449
_cell_length_b 21.731003
_cell_length_c 14.157681
_cell_angle_alpha 90.000000
_cell_angle_beta 134.884495
_cell_angle_gamma 90.000000
_cell_volume 1752.713566
_symmetry_space_group_name_H-M "C M"
_symmetry_group_IT_number 8
_symmetry_cell_setting 'monoclinic'
loop_
_space_group_symop_operation_xyz
x,y,z
x,-y,z
1/2+x,1/2+y,z
1/2+x,1/2-y,z
loop_
_atom_site_type_symbol
_atom_site_label
_atom_site_fract_x
_atom_site_fract_y
_atom_site_fract_z
Si Si1 0.246770 0.378792 0.631600
Si Si2 0.829912 0.689776 0.710321
Si Si3 0.533019 0.694977 0.896776
Si Si4 0.506481 0.745769 0.088129
Si Si5 0.978799 0.188017 0.275946
Si Si6 0.153344 0.069275 0.660256
Si Si7 0.222301 0.071279 0.462230
Si Si8 0.328168 0.735585 0.539525
O O1 0.401919 0.358087 0.785319
O O2 0.419520 0.416505 0.629051
O O3 0.202715 0.314789 0.556519
O O4 0.999518 0.410567 0.558914
O O5 0.847849 0.621773 0.757579
O O6 0.550617 0.700213 0.587800
O O7 0.923612 0.709345 0.645524
O O8 0.926033 0.740462 0.818287
O O9 0.523360 0.700198 0.005412
O O10 0.805510 0.704640 0.983253
O O11 0.462167 0.701187 0.158343
O O12 0.726628 0.787325 0.206741
O O13 0.066306 0.120808 0.342423
O O14 0.162837 0.234945 0.397028
O O15 0.141294 0.074516 0.540297
O O16 0.226894 0.000000 0.710915
O O17 0.193772 0.000000 0.421381
#
# Coordination Sequence:
#
# PCOD9131601 Si02
#       8
#     4   4   4   4   4   4   4   4
#     4  10  21  36  61  85 117 145 183 244 300 347
#     4  10  18  30  54  79 114 141 179 237 297 345
#     4  10  20  36  54  89 113 149 185 235 292 341
#     4  10  22  33  55  81 118 155 192 226 281 336
#     4  11  20  36  53  83 119 147 191 241 272 347
#     4  10  21  34  52  86 117 148 183 219 288 356
#     4  11  23  38  60  87 116 151 187 236 294 342
#     4  10  18  29  53  86 105 142 180 236 310 338
#
# _framework density 18.257404000000001
#
# number of rings (size 3 to 8) (size 9 to 14) (size 15 to 20)
#    0.000    1.750    1.250    5.625    3.500    0.000 
#    0.000    0.000    0.000    9.000    0.000    0.000 
#    0.000    0.000    0.000    0.000    0.000    0.000 
#
# Total GULP energy -89088.611636 kJ/mol
# GULP energy per Si atom -5568.038227 kJ/mol
# Density = 1.821585 g / cm^3
# Si number density = 18.257404 Si / 1000 Ang^3
#
#
#
# Elastic Constant Matrix: (Units=GPa)
#
#
# Indices 1 2 3 4 5 6 
#
# 1 72.7547 23.2713 9.1409 0.0000 -0.2411 0.0000
# 2 23.2713 112.6156 20.5112 0.0000 7.3174 0.0000
# 3 9.1409 20.5112 55.6396 0.0000 6.0423 0.0000
# 4 0.0000 0.0000 0.0000 21.6593 0.0000 3.4371
# 5 -0.2411 7.3174 6.0423 0.0000 28.5388 0.0000
# 6 0.0000 0.0000 0.0000 3.4371 0.0000 21.4662
#
#
#
# Elastic Compliance Matrix: (Units=1/GPa)
#
#
# Indices 1 2 3 4 5 6 
#
# 1 0.014857 -0.002872 -0.001510 0.000000 0.001182 0.000000
# 2 -0.002872 0.010159 -0.003058 0.000000 -0.001982 0.000000
# 3 -0.001510 -0.003058 0.019718 0.000000 -0.003403 0.000000
# 4 0.000000 0.000000 0.000000 0.047373 0.000000 -0.007585
# 5 0.001182 -0.001982 -0.003403 0.000000 0.036279 0.000000
# 6 0.000000 0.000000 0.000000 -0.007585 0.000000 0.047799
#
#
# Mechanical properties :
#
#
# Convention : Reuss Voigt Hill
#
# Bulk Modulus (GPa) = 33.49717 38.53963 36.01840
# Shear Modulus (GPa) = 24.87355 26.87198 25.87277
#
# Velocity S-wave (km/s) = 3.69505 3.84062 3.76854
# Velocity P-wave (km/s) = 6.04909 6.38921 6.22148
#
# Compressibility (1/GPa) = 0.02985327
#
# Stress axis : x y z
#
# Youngs Moduli (GPa) = 67.30797 98.43554 50.71540
#
# Poissons Ratio (x) = 0.28269 0.07660
# Poissons Ratio (y) = 0.19329 0.15509
# Poissons Ratio (z) = 0.10167 0.30102
#
# Static dielectric constant tensor:
#      x y z
#    x 1.748650 0.000000 0.001580 
#    y 0.000000 1.682380 0.000000 
#    z 0.001580 0.000000 1.623180 
# 
# From -- ./inp_files/25606.got.cif
#   From: 2010.05.17/outbox.cif.g08.bks.cpg/sg8_13_cif.got.tgz:25606.got - 2010.06.03 19:46:02.
