data_PCOD9131663
_publ_section_title
;
Structure prediction by ZEFSAII (Michael W. Deem and Ramdas Pophale) SiO2 
 PCOD9131663
Probable space group: C M
;
_chemical_formula_sum "Si O2"
_cell_formula_units_Z 26
_cell_length_a 20.080966
_cell_length_b 7.280755
_cell_length_c 18.410310
_cell_angle_alpha 90.000000
_cell_angle_beta 19.875483
_cell_angle_gamma 90.000000
_cell_volume 915.106986
_symmetry_space_group_name_H-M "C M"
_symmetry_group_IT_number 8
_symmetry_cell_setting 'monoclinic'
loop_
_space_group_symop_operation_xyz
x,y,z
x,-y,z
1/2+x,1/2+y,z
1/2+x,1/2-y,z
loop_
_atom_site_type_symbol
_atom_site_label
_atom_site_fract_x
_atom_site_fract_y
_atom_site_fract_z
Si Si1 0.419590 0.206883 0.561910
Si Si2 0.872737 0.710013 0.302640
Si Si3 0.315918 0.208667 0.202994
Si Si4 0.413037 0.286365 0.887636
Si Si5 0.951783 0.276204 0.375890
Si Si6 0.325101 0.219834 0.819611
Si Si7 0.082098 0.500000 0.831665
O O1 0.658552 0.192970 0.314193
O O2 0.375437 0.308730 0.530634
O O3 0.386912 0.281633 0.675997
O O4 0.337958 0.000000 0.643274
O O5 0.805693 0.500000 0.372279
O O6 0.812338 0.792334 0.287216
O O7 0.849578 0.789104 0.406912
O O8 0.108920 0.704937 0.053794
O O9 0.237091 0.000000 0.286388
O O10 0.529204 0.164319 0.951462
O O11 0.441487 0.500000 0.876996
O O12 0.181837 0.236069 0.132191
O O13 0.451746 0.267376 0.760882
O O14 0.524325 0.157762 0.828728
O O15 0.933314 0.500000 0.397671
O O16 0.316755 0.000000 0.826533
#
# Coordination Sequence:
#
# PCOD9131663 Si02
#       7
#     4   4   4   4   4   4   2
#     4  10  19  32  53  80 109 140 184 236 274 319
#     4   9  18  34  53  75 105 146 185 223 279 331
#     4   9  19  32  52  79 106 142 183 226 275 328
#     4  10  18  32  53  81 107 143 184 234 276 323
#     4   8  14  28  52  73  97 138 183 217 264 321
#     4  10  20  32  52  81 113 145 188 230 272 333
#     4  10  18  32  56  82 110 138 192 230 272 332
#
# _framework density 28.411977
#
# number of rings (size 3 to 8) (size 9 to 14) (size 15 to 20)
#    0.462    2.154    2.308    1.385    0.000    1.846 
#    0.000    0.000    3.385    0.000    0.000    0.000 
#    0.000    0.000    0.000    0.000    0.000    0.000 
#
# Total GULP energy -72438.747986 kJ/mol
# GULP energy per Si atom -5572.211384 kJ/mol
# Density = 2.834731 g / cm^3
# Si number density = 28.411977 Si / 1000 Ang^3
#
#
#
# Elastic Constant Matrix: (Units=GPa)
#
#
# Indices 1 2 3 4 5 6 
#
# 1 193.0070 -8.1927 26.3255 -0.0013 51.5861 0.0004
# 2 -8.1927 153.7136 -14.8935 -0.0008 14.9449 0.0002
# 3 26.3255 -14.8935 143.0145 -0.0010 49.9043 0.0007
# 4 -0.0013 -0.0008 -0.0010 -14.1798 0.0010 25.1763
# 5 51.5861 14.9449 49.9043 0.0010 71.1832 -0.0006
# 6 0.0004 0.0002 0.0007 25.1763 -0.0006 16.3008
#
#
#
# Elastic Compliance Matrix: (Units=1/GPa)
#
#
# Indices 1 2 3 4 5 6 
#
# 1 0.006597 0.000973 0.000829 0.000000 -0.005567 0.000000
# 2 0.000973 0.007058 0.001746 0.000000 -0.003411 0.000000
# 3 0.000829 0.001746 0.009743 -0.000001 -0.007798 0.000000
# 4 0.000000 0.000000 -0.000001 -0.018845 0.000001 0.029106
# 5 -0.005567 -0.003411 -0.007798 0.000001 0.024266 -0.000001
# 6 0.000000 0.000000 0.000000 0.029106 -0.000001 0.016393
#
#
# Mechanical properties :
#
#
# Convention : Reuss Voigt Hill
#
# Bulk Modulus (GPa) = 32.79099 55.13485 43.96292
# Shear Modulus (GPa) = 103.56466 47.09389 75.32928
#
# Velocity S-wave (km/s) = 6.04402 4.07570 5.15468
# Velocity P-wave (km/s) = 7.76358 6.44950 7.13685
#
# Compressibility (1/GPa) = 0.03049619
#
# Stress axis : x y z
#
# Youngs Moduli (GPa) = 151.57927 141.67591 102.64275
#
# Poissons Ratio (x) = -0.13788 -0.08514
# Poissons Ratio (y) = -0.14752 -0.17925
# Poissons Ratio (z) = -0.12573 -0.24741
#
# Static dielectric constant tensor:
#      x y z
#    x 2.216690 0.000000 -0.054910 
#    y 0.000000 2.184600 0.000000 
#    z -0.054910 0.000000 2.419900 
# 
# From -- ./inp_files/27719.got.cif
#   From: 2010.05.17/outbox.cif.g08.bks.cpg/sg8_14_cif.got.tgz:27719.got - 2010.06.03 19:46:02.
