data_PCOD9131296
_publ_section_title
;
Structure prediction by ZEFSAII (Michael W. Deem and Ramdas Pophale) SiO2 
 PCOD9131296
Probable space group: P C
;
_chemical_formula_sum "Si O2"
_cell_formula_units_Z 16
_cell_length_a 7.722847
_cell_length_b 16.732829
_cell_length_c 5.674081
_cell_angle_alpha 90.000000
_cell_angle_beta 57.469950
_cell_angle_gamma 90.000000
_cell_volume 618.196204
_symmetry_space_group_name_H-M "P C"
_symmetry_group_IT_number 7
_symmetry_cell_setting 'monoclinic'
loop_
_space_group_symop_operation_xyz
x,y,z
x,-y,1/2+z
loop_
_atom_site_type_symbol
_atom_site_label
_atom_site_fract_x
_atom_site_fract_y
_atom_site_fract_z
Si Si1 0.117830 0.968677 0.716590
Si Si2 0.533851 0.690576 0.241590
Si Si3 0.922171 0.716932 0.302101
Si Si4 0.638883 0.969288 0.057929
Si Si5 0.383484 0.510756 0.357983
Si Si6 0.837886 0.544232 0.521662
Si Si7 0.260910 0.798115 0.748575
Si Si8 0.637100 0.808998 0.798791
O O1 0.137574 0.874513 0.750062
O O2 0.198372 0.987924 0.395016
O O3 0.878682 0.994262 0.888159
O O4 0.735782 0.703871 0.253084
O O5 0.471125 0.599716 0.290915
O O6 0.349269 0.743630 0.477510
O O7 0.582297 0.723958 0.950130
O O8 0.933806 0.632879 0.430790
O O9 0.850980 0.792166 0.513237
O O10 0.123875 0.742653 0.016649
O O11 0.559315 0.988171 0.377463
O O12 0.636595 0.875410 0.999884
O O13 0.272917 0.500567 0.689221
O O14 0.585263 0.453770 0.206252
O O15 0.881768 0.502839 0.742855
O O16 0.458772 0.829807 0.746701
#
# Coordination Sequence:
#
# PCOD9131296 Si02
#       8
#     2   2   2   2   2   2   2   2
#     4  10  24  46  74 102 142 193 239 295 359 426
#     4  11  24  44  69 101 143 189 239 297 361 429
#     4  11  24  44  71  99 144 190 235 304 355 432
#     4  10  24  44  74 107 137 185 244 293 354 431
#     4  10  19  37  70  97 131 183 240 287 352 422
#     4  10  19  38  68 100 129 182 243 284 354 422
#     4  11  28  44  68 112 143 188 242 295 365 428
#     4  11  26  43  72 102 143 190 236 291 366 428
#
# _framework density 25.881748999999999
#
# number of rings (size 3 to 8) (size 9 to 14) (size 15 to 20)
#    0.000    1.500    2.500    2.250   12.250    2.000 
#    0.000    1.250    0.000    0.000    0.000    0.000 
#    0.000    0.000    0.000    0.000    0.000    0.000 
#
# Total GULP energy -89671.812545 kJ/mol
# GULP energy per Si atom -5604.488284 kJ/mol
# Density = 2.582284 g / cm^3
# Si number density = 25.881749 Si / 1000 Ang^3
#
#
#
# Elastic Constant Matrix: (Units=GPa)
#
#
# Indices 1 2 3 4 5 6 
#
# 1 98.9696 14.6148 38.2460 0.0000 31.8343 0.0000
# 2 14.6148 105.7694 30.0522 0.0000 22.0603 0.0000
# 3 38.2460 30.0522 187.2073 0.0000 22.2831 0.0000
# 4 0.0000 0.0000 0.0000 52.3148 0.0000 13.3289
# 5 31.8343 22.0603 22.2831 0.0000 40.5279 0.0000
# 6 0.0000 0.0000 0.0000 13.3289 0.0000 25.6687
#
#
#
# Elastic Compliance Matrix: (Units=1/GPa)
#
#
# Indices 1 2 3 4 5 6 
#
# 1 0.014035 0.000739 -0.001740 0.000000 -0.010470 0.000000
# 2 0.000739 0.010917 -0.001206 0.000000 -0.005860 0.000000
# 3 -0.001740 -0.001206 0.006046 0.000000 -0.001301 0.000000
# 4 0.000000 0.000000 0.000000 0.022030 0.000000 -0.011439
# 5 -0.010470 -0.005860 -0.001301 0.000000 0.036803 0.000000
# 6 0.000000 0.000000 0.000000 -0.011439 0.000000 0.044898
#
#
# Mechanical properties :
#
#
# Convention : Reuss Voigt Hill
#
# Bulk Modulus (GPa) = 37.61665 61.97470 49.79568
# Shear Modulus (GPa) = 33.78288 44.30450 39.04369
#
# Velocity S-wave (km/s) = 3.61678 4.14188 3.88821
# Velocity P-wave (km/s) = 5.65748 6.84623 6.28005
#
# Compressibility (1/GPa) = 0.02658397
#
# Stress axis : x y z
#
# Youngs Moduli (GPa) = 71.25011 91.59796 165.41117
#
# Poissons Ratio (x) = -0.06767 0.28776
# Poissons Ratio (y) = -0.05263 0.19948
# Poissons Ratio (z) = 0.12395 0.11047
#
# Static dielectric constant tensor:
#      x y z
#    x 2.048940 0.000000 0.001490 
#    y 0.000000 1.976680 0.000000 
#    z 0.001490 0.000000 2.012770 
# 
# From -- ./inp_files/766.got.cif
#   From: 2010.05.17/outbox.cif.g08.bks.cpg/sg7_cif.got.tgz:766.got - 2010.06.03 19:44:50.
