data_PCOD9131054
_publ_section_title
;
Structure prediction by ZEFSAII (Michael W. Deem and Ramdas Pophale) SiO2 
 PCOD9131054
Probable space group: P M
;
_chemical_formula_sum "Si O2"
_cell_formula_units_Z 16
_cell_length_a 12.897980
_cell_length_b 9.067168
_cell_length_c 12.659884
_cell_angle_alpha 90.000000
_cell_angle_beta 35.104127
_cell_angle_gamma 90.000000
_cell_volume 851.411293
_symmetry_space_group_name_H-M "P M"
_symmetry_group_IT_number 6
_symmetry_cell_setting 'monoclinic'
loop_
_space_group_symop_operation_xyz
x,y,z
x,-y,z
loop_
_atom_site_type_symbol
_atom_site_label
_atom_site_fract_x
_atom_site_fract_y
_atom_site_fract_z
Si Si1 0.276950 0.177006 0.599370
Si Si2 0.026420 0.176172 0.302789
Si Si3 0.917636 0.322892 0.809107
Si Si4 0.385003 0.674702 0.960248
Si Si5 0.791404 0.323385 0.679745
Si Si6 0.803805 0.170592 0.287469
Si Si7 0.647794 0.324431 0.219916
Si Si8 0.405243 0.830065 0.721323
O O1 0.456381 0.244361 0.396129
O O2 0.290355 0.211989 0.713716
O O3 0.096771 0.242221 0.699599
O O4 0.283214 0.000000 0.585399
O O5 0.895985 0.241758 0.499675
O O6 0.953140 0.218450 0.247179
O O7 0.023905 0.000000 0.309600
O O8 0.224691 0.240387 0.151156
O O9 0.946095 0.500000 0.790789
O O10 0.868538 0.283787 0.730044
O O11 0.750287 0.288551 0.025990
O O12 0.356210 0.500000 0.990981
O O13 0.579770 0.710340 0.846311
O O14 0.384698 0.727101 0.838887
O O15 0.811548 0.500000 0.648948
O O16 0.776321 0.270083 0.208146
O O17 0.612578 0.173300 0.508876
O O18 0.836807 0.000000 0.228429
O O19 0.620744 0.500000 0.248780
O O20 0.362068 0.000000 0.786833
#
# Coordination Sequence:
#
# PCOD9131054 Si02
#       8
#     2   2   2   2   2   2   2   2
#     4  10  22  39  60  89 123 159 199 245 301 356
#     4  11  23  39  61  89 121 158 200 246 302 359
#     4  10  23  42  63  87 118 160 205 250 298 350
#     4  11  23  37  59  90 120 157 201 245 299 361
#     4  10  23  44  63  84 120 160 203 253 299 348
#     4   9  19  36  58  85 122 160 193 243 303 354
#     4  10  21  37  60  90 121 157 200 245 298 358
#     4   9  18  36  58  84 121 159 193 241 300 354
#
# _framework density 18.792327
#
# number of rings (size 3 to 8) (size 9 to 14) (size 15 to 20)
#    0.000    2.000    1.250    2.250    1.750    6.500 
#    0.000    2.500    0.000    0.000    0.000    0.000 
#    0.000    0.000    0.000    0.000    0.000    0.000 
#
# Total GULP energy -89390.108916 kJ/mol
# GULP energy per Si atom -5586.881807 kJ/mol
# Density = 1.874955 g / cm^3
# Si number density = 18.792327 Si / 1000 Ang^3
#
#
#
# Elastic Constant Matrix: (Units=GPa)
#
#
# Indices 1 2 3 4 5 6 
#
# 1 115.5721 39.1221 25.0454 0.0000 -16.6980 0.0000
# 2 39.1221 31.7599 17.3038 0.0000 -7.6937 0.0000
# 3 25.0454 17.3038 24.8912 0.0000 -13.8814 0.0000
# 4 0.0000 0.0000 0.0000 79.7735 0.0000 -6.5991
# 5 -16.6980 -7.6937 -13.8814 0.0000 23.0086 0.0000
# 6 0.0000 0.0000 0.0000 -6.5991 0.0000 26.4872
#
#
#
# Elastic Compliance Matrix: (Units=1/GPa)
#
#
# Indices 1 2 3 4 5 6 
#
# 1 0.015409 -0.017450 -0.000589 0.000000 0.004992 0.000000
# 2 -0.017450 0.071097 -0.038688 0.000000 -0.012231 0.000000
# 3 -0.000589 -0.038688 0.090740 0.000000 0.041380 0.000000
# 4 0.000000 0.000000 0.000000 0.012799 0.000000 0.003189
# 5 0.004992 -0.012231 0.041380 0.000000 0.067960 0.000000
# 6 0.000000 0.000000 0.000000 0.003189 0.000000 0.038549
#
#
# Mechanical properties :
#
#
# Convention : Reuss Voigt Hill
#
# Bulk Modulus (GPa) = 15.67629 37.24066 26.45848
# Shear Modulus (GPa) = 11.59361 31.90399 21.74880
#
# Velocity S-wave (km/s) = 2.48651 4.12480 3.40564
# Velocity P-wave (km/s) = 4.07475 6.52268 5.43824
#
# Compressibility (1/GPa) = 0.06379060
#
# Stress axis : x y z
#
# Youngs Moduli (GPa) = 64.89905 14.06526 11.02050
#
# Poissons Ratio (x) = 0.24544 0.00649
# Poissons Ratio (y) = 1.13250 0.42636
# Poissons Ratio (z) = 0.03823 0.54416
#
# Static dielectric constant tensor:
#      x y z
#    x 1.634910 0.000000 -0.010140 
#    y 0.000000 1.623970 0.000000 
#    z -0.010140 0.000000 1.645330 
# 
# From -- ./inp_files/5042.got.cif
#   From: 2010.05.17/outbox.cif.g08.bks.cpg/sg6_3_cif.got.tgz:5042.got - 2010.06.03 19:42:10.
