data_PCOD9131174
_publ_section_title
;
Structure prediction by ZEFSAII (Michael W. Deem and Ramdas Pophale) SiO2 
 PCOD9131174
Probable space group: P M
;
_chemical_formula_sum "Si O2"
_cell_formula_units_Z 16
_cell_length_a 8.624731
_cell_length_b 16.636103
_cell_length_c 8.968366
_cell_angle_alpha 90.000000
_cell_angle_beta 31.316722
_cell_angle_gamma 90.000000
_cell_volume 668.837186
_symmetry_space_group_name_H-M "P M"
_symmetry_group_IT_number 6
_symmetry_cell_setting 'monoclinic'
loop_
_space_group_symop_operation_xyz
x,y,z
x,-y,z
loop_
_atom_site_type_symbol
_atom_site_label
_atom_site_fract_x
_atom_site_fract_y
_atom_site_fract_z
Si Si1 0.272660 0.140358 0.089700
Si Si2 0.912967 0.147499 0.652564
Si Si3 0.022565 0.313675 0.226679
Si Si4 0.453772 0.592162 0.282956
Si Si5 0.690895 0.092312 0.388043
Si Si6 0.389057 0.678858 0.640648
Si Si7 0.076315 0.840067 0.841244
Si Si8 0.848228 0.658933 0.699141
O O1 0.225684 0.235443 0.093354
O O2 0.202524 0.128848 0.320396
O O3 0.985757 0.099772 0.248149
O O4 0.619813 0.117092 0.803421
O O5 0.878288 0.244716 0.683876
O O6 0.994414 0.121817 0.751282
O O7 0.698080 0.282789 0.442897
O O8 0.915400 0.358425 0.466808
O O9 0.205731 0.354313 0.937639
O O10 0.543555 0.500000 0.198259
O O11 0.508870 0.624181 0.406047
O O12 0.102181 0.605905 0.565502
O O13 0.573537 0.637640 0.035411
O O14 0.354515 0.119682 0.702577
O O15 0.668909 0.000000 0.362101
O O16 0.777555 0.148082 0.178627
O O17 0.171554 0.747191 0.753896
#
# Coordination Sequence:
#
# PCOD9131174 Si02
#       8
#     2   2   2   2   2   2   2   2
#     4  11  21  40  64  99 132 170 224 284 342 407
#     4  11  23  38  69 100 129 164 232 296 333 387
#     4  11  22  40  68 102 131 167 233 294 338 391
#     4  12  26  44  65  98 142 187 226 280 359 427
#     4  12  26  44  66  97 142 187 224 279 358 427
#     4  12  22  41  69 102 134 175 231 297 340 403
#     4  12  23  43  68 102 132 179 234 288 344 406
#     4  11  23  42  67  98 134 175 228 288 344 414
#
# _framework density 23.922114000000001
#
# number of rings (size 3 to 8) (size 9 to 14) (size 15 to 20)
#    0.000    0.500    3.750    6.750    1.750    0.000 
#    0.000    7.500    0.000    0.000    0.000    0.000 
#    0.000    0.000    0.000    0.000    0.000    0.000 
#
# Total GULP energy -89112.743312 kJ/mol
# GULP energy per Si atom -5569.546457 kJ/mol
# Density = 2.386767 g / cm^3
# Si number density = 23.922114 Si / 1000 Ang^3
#
#
#
# Elastic Constant Matrix: (Units=GPa)
#
#
# Indices 1 2 3 4 5 6 
#
# 1 94.1862 -3.5570 21.5927 0.0000 1.5648 0.0000
# 2 -3.5570 33.5777 16.9635 0.0000 5.9964 0.0000
# 3 21.5927 16.9635 152.7196 0.0000 6.8575 0.0000
# 4 0.0000 0.0000 0.0000 1.6832 0.0000 -8.3354
# 5 1.5648 5.9964 6.8575 0.0000 38.7194 0.0000
# 6 0.0000 0.0000 0.0000 -8.3354 0.0000 1.4793
#
#
#
# Elastic Compliance Matrix: (Units=1/GPa)
#
#
# Indices 1 2 3 4 5 6 
#
# 1 0.011118 0.002166 -0.001792 0.000000 -0.000468 0.000000
# 2 0.002166 0.032701 -0.003737 0.000000 -0.004490 0.000000
# 3 -0.001792 -0.003737 0.007245 0.000000 -0.000632 0.000000
# 4 0.000000 0.000000 0.000000 -0.022083 0.000000 -0.124430
# 5 -0.000468 -0.004490 -0.000632 0.000000 0.026653 0.000000
# 6 0.000000 0.000000 0.000000 -0.124430 0.000000 -0.025127
#
#
# Mechanical properties :
#
#
# Convention : Reuss Voigt Hill
#
# Bulk Modulus (GPa) = 22.55361 38.94243 30.74802
# Shear Modulus (GPa) = 96.13570 24.74202 60.43886
#
# Velocity S-wave (km/s) = 6.34620 3.21950 5.03187
# Velocity P-wave (km/s) = 7.94653 5.48948 6.82941
#
# Compressibility (1/GPa) = 0.04433880
#
# Stress axis : x y z
#
# Youngs Moduli (GPa) = 89.94784 30.58016 138.03180
#
# Poissons Ratio (x) = -0.06624 0.24729
# Poissons Ratio (y) = -0.19485 0.51582
# Poissons Ratio (z) = 0.16114 0.11428
#
# Static dielectric constant tensor:
#      x y z
#    x 1.998620 0.000000 0.060230 
#    y 0.000000 1.877750 0.000000 
#    z 0.060230 0.000000 1.877940 
# 
# From -- ./inp_files/3239.got.cif
#   From: 2010.05.17/outbox.cif.g08.bks.cpg/sg6_2_cif.got.tgz:3239.got - 2010.06.03 19:42:10.
