data_PCOD9131373
_publ_section_title
;
Structure prediction by ZEFSAII (Michael W. Deem and Ramdas Pophale) SiO2 
 PCOD9131373
Probable space group: P C
;
_chemical_formula_sum "Si O2"
_cell_formula_units_Z 14
_cell_length_a 6.617344
_cell_length_b 17.665722
_cell_length_c 5.494716
_cell_angle_alpha 90.000000
_cell_angle_beta 74.675421
_cell_angle_gamma 90.000000
_cell_volume 619.494463
_symmetry_space_group_name_H-M "P C"
_symmetry_group_IT_number 7
_symmetry_cell_setting 'monoclinic'
loop_
_space_group_symop_operation_xyz
x,y,z
x,-y,1/2+z
loop_
_atom_site_type_symbol
_atom_site_label
_atom_site_fract_x
_atom_site_fract_y
_atom_site_fract_z
Si Si1 0.734800 0.858907 0.087440
Si Si2 0.350037 0.956825 0.268047
Si Si3 0.124619 0.167790 0.136370
Si Si4 0.458980 0.747608 0.849457
Si Si5 0.849610 0.737211 0.418953
Si Si6 0.108033 0.372336 0.523866
Si Si7 0.925294 0.484089 0.261731
O O1 0.593341 0.931267 0.187376
O O2 0.810050 0.818813 0.308130
O O3 0.582294 0.796212 0.010996
O O4 0.933542 0.869663 0.847512
O O5 0.215573 0.884662 0.395444
O O6 0.308457 0.013665 0.508294
O O7 0.311196 0.192714 0.254839
O O8 0.031315 0.244619 0.053116
O O9 0.636867 0.715053 0.616542
O O10 0.312232 0.678679 0.975778
O O11 0.925272 0.679456 0.193057
O O12 0.104014 0.450949 0.674851
O O13 0.031937 0.404126 0.286308
O O14 0.806461 0.508041 0.545773
#
# Coordination Sequence:
#
# PCOD9131373 Si02
#       7
#     2   2   2   2   2   2   2
#     4  11  25  45  68 106 137 173 237 289 340 416
#     4  12  28  47  72 100 144 186 227 282 353 426
#     4  11  25  44  72 100 139 176 233 288 348 407
#     4  11  23  41  71 103 134 177 232 294 343 408
#     4  11  24  39  73 103 130 178 234 293 343 403
#     4  10  21  40  66  96 138 188 223 288 352 396
#     4   8  20  36  64  92 138 180 230 270 341 424
#
# _framework density 22.599070999999999
#
# number of rings (size 3 to 8) (size 9 to 14) (size 15 to 20)
#    0.857    0.571    2.857    1.714    6.000    1.143 
#    0.000    1.429    0.000    0.000    0.000    0.000 
#    0.000    0.000    0.000    0.000    0.000    0.000 
#
# Total GULP energy -78150.346165 kJ/mol
# GULP energy per Si atom -5582.167583 kJ/mol
# Density = 2.254763 g / cm^3
# Si number density = 22.599071 Si / 1000 Ang^3
#
#
#
# Elastic Constant Matrix: (Units=GPa)
#
#
# Indices 1 2 3 4 5 6 
#
# 1 61.6008 23.5679 6.6354 0.0000 -8.4260 0.0000
# 2 23.5679 70.8868 19.3657 0.0000 -16.6576 0.0000
# 3 6.6354 19.3657 86.0101 0.0000 -9.7665 0.0000
# 4 0.0000 0.0000 0.0000 50.9185 0.0000 3.3125
# 5 -8.4260 -16.6576 -9.7665 0.0000 43.1619 0.0000
# 6 0.0000 0.0000 0.0000 3.3125 0.0000 -2.5781
#
#
#
# Elastic Compliance Matrix: (Units=1/GPa)
#
#
# Indices 1 2 3 4 5 6 
#
# 1 0.018673 -0.005896 0.000044 0.000000 0.001380 0.000000
# 2 -0.005896 0.018107 -0.003037 0.000000 0.005150 0.000000
# 3 0.000044 -0.003037 0.012496 0.000000 0.001664 0.000000
# 4 0.000000 0.000000 0.000000 0.018124 0.000000 0.023287
# 5 0.001380 0.005150 0.001664 0.000000 0.025802 0.000000
# 6 0.000000 0.000000 0.000000 0.023287 0.000000 -0.357962
#
#
# Mechanical properties :
#
#
# Convention : Reuss Voigt Hill
#
# Bulk Modulus (GPa) = 31.74903 35.29286 33.52094
# Shear Modulus (GPa) = -21.14337 29.56238 4.20951
#
# Velocity S-wave (km/s) = -3.06205 3.62072 1.36628
# Velocity P-wave (km/s) = 1.25609 5.75590 4.16582
#
# Compressibility (1/GPa) = 0.03149702
#
# Stress axis : x y z
#
# Youngs Moduli (GPa) = 53.55217 55.22660 80.02580
#
# Poissons Ratio (x) = 0.32562 -0.00349
# Poissons Ratio (y) = 0.31575 0.24306
# Poissons Ratio (z) = -0.00234 0.16774
#
# Static dielectric constant tensor:
#      x y z
#    x 1.796530 0.000000 0.024810 
#    y 0.000000 1.858390 0.000000 
#    z 0.024810 0.000000 1.898030 
# 
# From -- ./inp_files/222.got.cif
#   From: 2010.05.17/outbox.cif.g08.bks.cpg/sg7_cif.got.tgz:222.got - 2010.06.03 19:44:50.
