data_PCOD9131269
_publ_section_title
;
Structure prediction by ZEFSAII (Michael W. Deem and Ramdas Pophale) SiO2 
 PCOD9131269
Probable space group: P C
;
_chemical_formula_sum "Si O2"
_cell_formula_units_Z 14
_cell_length_a 19.535593
_cell_length_b 7.068724
_cell_length_c 4.969002
_cell_angle_alpha 90.000000
_cell_angle_beta 105.019955
_cell_angle_gamma 90.000000
_cell_volume 662.735166
_symmetry_space_group_name_H-M "P C"
_symmetry_group_IT_number 7
_symmetry_cell_setting 'monoclinic'
loop_
_space_group_symop_operation_xyz
x,y,z
x,-y,1/2+z
loop_
_atom_site_type_symbol
_atom_site_label
_atom_site_fract_x
_atom_site_fract_y
_atom_site_fract_z
Si Si1 0.461580 0.122516 0.719130
Si Si2 0.595270 0.377388 0.012409
Si Si3 0.325611 0.631505 0.219635
Si Si4 0.732030 0.867345 0.515677
Si Si5 0.883856 0.132225 0.290770
Si Si6 0.171774 0.626643 0.944999
Si Si7 0.033484 0.129932 0.313065
O O1 0.528060 0.251184 0.865821
O O2 0.389342 0.230819 0.714522
O O3 0.464483 0.061774 0.412324
O O4 0.593042 0.561801 0.819998
O O5 0.666941 0.266605 0.015955
O O6 0.330195 0.549267 0.524286
O O7 0.247877 0.719286 0.087090
O O8 0.808812 0.772789 0.648891
O O9 0.728555 0.952435 0.213577
O O10 0.958344 0.231079 0.299985
O O11 0.883960 0.052136 0.592889
O O12 0.170220 0.556774 0.636793
O O13 0.103079 0.749195 0.934794
O O14 0.034235 0.949392 0.512281
#
# Coordination Sequence:
#
# PCOD9131269 Si02
#       7
#     2   2   2   2   2   2   2
#     4  12  24  39  60  85 108 137 181 223 261 311
#     4  12  24  39  57  81 113 144 174 214 270 322
#     4  10  21  39  58  78 109 145 176 214 270 322
#     4  10  19  36  58  79 105 140 183 223 261 311
#     4   8  16  30  51  76 103 137 175 219 267 309
#     4  10  21  36  54  78 110 145 176 214 270 322
#     4  10  19  33  54  79 106 140 183 223 261 311
#
# _framework density 21.124578
#
# number of rings (size 3 to 8) (size 9 to 14) (size 15 to 20)
#    0.000    1.714    0.000    5.143    0.000    1.143 
#    0.000    1.429    0.000    0.000    0.000    0.000 
#    0.000    0.000    0.000    0.000    0.000    0.000 
#
# Total GULP energy -78220.281054 kJ/mol
# GULP energy per Si atom -5587.162932 kJ/mol
# Density = 2.107650 g / cm^3
# Si number density = 21.124578 Si / 1000 Ang^3
#
#
#
# Elastic Constant Matrix: (Units=GPa)
#
#
# Indices 1 2 3 4 5 6 
#
# 1 195.9527 39.0088 2.2666 0.0000 34.7371 0.0000
# 2 39.0088 18.1605 -4.0556 0.0000 13.3612 0.0000
# 3 2.2666 -4.0556 65.7465 0.0000 -4.4041 0.0000
# 4 0.0000 0.0000 0.0000 24.6179 0.0000 -2.3539
# 5 34.7371 13.3612 -4.4041 0.0000 39.3936 0.0000
# 6 0.0000 0.0000 0.0000 -2.3539 0.0000 62.6892
#
#
#
# Elastic Compliance Matrix: (Units=1/GPa)
#
#
# Indices 1 2 3 4 5 6 
#
# 1 0.009177 -0.018633 -0.001596 0.000000 -0.001951 0.000000
# 2 -0.018633 0.111755 0.006144 0.000000 -0.020786 0.000000
# 3 -0.001596 0.006144 0.015716 0.000000 0.001081 0.000000
# 4 0.000000 0.000000 0.000000 0.040767 0.000000 0.001531
# 5 -0.001951 -0.020786 0.001081 0.000000 0.034276 0.000000
# 6 0.000000 0.000000 0.000000 0.001531 0.000000 0.016009
#
#
# Mechanical properties :
#
#
# Convention : Reuss Voigt Hill
#
# Bulk Modulus (GPa) = 9.21868 39.36659 24.29263
# Shear Modulus (GPa) = 17.12146 41.51612 29.31879
#
# Velocity S-wave (km/s) = 2.85002 4.43798 3.72949
# Velocity P-wave (km/s) = 3.89917 6.70349 5.48363
#
# Compressibility (1/GPa) = 0.10847539
#
# Stress axis : x y z
#
# Youngs Moduli (GPa) = 108.96853 8.94818 63.62790
#
# Poissons Ratio (x) = 0.16674 0.10158
# Poissons Ratio (y) = 2.03046 -0.39091
# Poissons Ratio (z) = 0.17397 -0.05498
#
# Static dielectric constant tensor:
#      x y z
#    x 1.789070 0.000000 0.020080 
#    y 0.000000 1.727110 0.000000 
#    z 0.020080 0.000000 1.728290 
# 
# From -- ./inp_files/1320.got.cif
#   From: 2010.05.17/outbox.cif.g08.bks.cpg/sg7_cif.got.tgz:1320.got - 2010.06.03 19:44:50.
