data_PCOD9131857
_publ_section_title
;
Structure prediction by ZEFSAII (Michael W. Deem and Ramdas Pophale) SiO2 
 PCOD9131857
Probable space group: C M
;
_chemical_formula_sum "Si O2"
_cell_formula_units_Z 32
_cell_length_a 14.044762
_cell_length_b 7.383990
_cell_length_c 12.397644
_cell_angle_alpha 90.000000
_cell_angle_beta 93.327267
_cell_angle_gamma 90.000000
_cell_volume 1283.547489
_symmetry_space_group_name_H-M "C M"
_symmetry_group_IT_number 8
_symmetry_cell_setting 'monoclinic'
loop_
_space_group_symop_operation_xyz
x,y,z
x,-y,z
1/2+x,1/2+y,z
1/2+x,1/2-y,z
loop_
_atom_site_type_symbol
_atom_site_label
_atom_site_fract_x
_atom_site_fract_y
_atom_site_fract_z
Si Si1 0.253490 0.715960 0.470360
Si Si2 0.060355 0.205620 0.038050
Si Si3 0.825724 0.291789 0.699760
Si Si4 0.533660 0.706832 0.638011
Si Si5 0.167135 0.777351 0.836432
Si Si6 0.972185 0.218596 0.413713
Si Si7 0.413757 0.278461 0.183940
Si Si8 0.199735 0.280234 0.238513
O O1 0.243671 0.500000 0.475313
O O2 0.252713 0.784333 0.592726
O O3 0.362360 0.755438 0.440156
O O4 0.192104 0.780867 0.363389
O O5 0.961511 0.286052 0.076238
O O6 0.304832 0.229675 0.200352
O O7 0.038644 0.000000 0.002031
O O8 0.123618 0.285870 0.946465
O O9 0.850597 0.500000 0.719697
O O10 0.923721 0.201773 0.670250
O O11 0.771012 0.219622 0.801028
O O12 0.564921 0.500000 0.627586
O O13 0.594860 0.785157 0.738399
O O14 0.534156 0.790119 0.517912
O O15 0.170720 0.000000 0.838694
O O16 0.975928 0.284504 0.291623
O O17 0.981960 0.000000 0.413056
O O18 0.416713 0.500000 0.183841
O O19 0.625237 0.295554 0.149059
O O20 0.194661 0.500000 0.237797
#
# Coordination Sequence:
#
# PCOD9131857 Si02
#       8
#     4   4   4   4   4   4   4   4
#     4   8  15  30  51  74 102 132 160 194 245 307
#     4  10  20  34  51  73 100 131 172 212 243 286
#     4  10  19  32  51  76 104 130 162 207 253 291
#     4   9  17  33  54  71  94 132 170 202 246 302
#     4   9  20  35  49  70 102 137 170 206 247 291
#     4   7  11  23  46  72  91 114 155 200 237 281
#     4   8  15  29  50  72  95 126 162 198 240 298
#     4   9  18  34  54  76 102 130 161 203 253 298
#
# _framework density 24.930903000000001
#
# number of rings (size 3 to 8) (size 9 to 14) (size 15 to 20)
#    0.000    3.250    0.000    2.625    0.000    2.500 
#    0.000    7.500    0.000    6.000    0.000    0.000 
#    0.000    0.000    0.000    0.000    0.000    0.000 
#
# Total GULP energy -89325.174053 kJ/mol
# GULP energy per Si atom -5582.823378 kJ/mol
# Density = 2.487416 g / cm^3
# Si number density = 24.930903 Si / 1000 Ang^3
#
#
#
# Elastic Constant Matrix: (Units=GPa)
#
#
# Indices 1 2 3 4 5 6 
#
# 1 68.4404 -5.7249 34.2812 0.0000 -26.4017 0.0000
# 2 -5.7249 86.5347 -1.8135 0.0000 -4.3458 0.0000
# 3 34.2812 -1.8135 97.6874 0.0000 -50.9634 0.0000
# 4 0.0000 0.0000 0.0000 7.3524 0.0000 0.5083
# 5 -26.4017 -4.3458 -50.9634 0.0000 51.1522 0.0000
# 6 0.0000 0.0000 0.0000 0.5083 0.0000 7.0301
#
#
#
# Elastic Compliance Matrix: (Units=1/GPa)
#
#
# Indices 1 2 3 4 5 6 
#
# 1 0.018905 0.001533 -0.003014 0.000000 0.006885 0.000000
# 2 0.001533 0.011839 0.001290 0.000000 0.003082 0.000000
# 3 -0.003014 0.001290 0.021998 0.000000 0.020471 0.000000
# 4 0.000000 0.000000 0.000000 0.136693 0.000000 -0.009883
# 5 0.006885 0.003082 0.020471 0.000000 0.043760 0.000000
# 6 0.000000 0.000000 0.000000 -0.009883 0.000000 0.142960
#
#
# Mechanical properties :
#
#
# Convention : Reuss Voigt Hill
#
# Bulk Modulus (GPa) = 19.09828 34.01645 26.55737
# Shear Modulus (GPa) = 12.69065 28.16826 20.42945
#
# Velocity S-wave (km/s) = 2.25862 3.36498 2.86570
# Velocity P-wave (km/s) = 3.80512 5.36389 4.65028
#
# Compressibility (1/GPa) = 0.05236073
#
# Stress axis : x y z
#
# Youngs Moduli (GPa) = 52.89545 84.46434 45.45903
#
# Poissons Ratio (x) = -0.12951 0.13701
# Poissons Ratio (y) = -0.08111 -0.05863
# Poissons Ratio (z) = 0.15942 -0.10893
#
# Static dielectric constant tensor:
#      x y z
#    x 2.016380 0.000000 -0.019060 
#    y 0.000000 1.944560 0.000000 
#    z -0.019060 0.000000 1.977550 
# 
# From -- ./inp_files/22785.got.cif
#   From: 2010.05.17/outbox.cif.g08.bks.cpg/sg8_12_cif.got.tgz:22785.got - 2010.06.03 19:46:02.
