data_PCOD9131118
_publ_section_title
;
Structure prediction by ZEFSAII (Michael W. Deem and Ramdas Pophale) SiO2 
 PCOD9131118
Probable space group: P M
;
_chemical_formula_sum "Si O2"
_cell_formula_units_Z 16
_cell_length_a 17.645243
_cell_length_b 8.965398
_cell_length_c 7.242995
_cell_angle_alpha 90.000000
_cell_angle_beta 129.768689
_cell_angle_gamma 90.000000
_cell_volume 880.713293
_symmetry_space_group_name_H-M "P M"
_symmetry_group_IT_number 6
_symmetry_cell_setting 'monoclinic'
loop_
_space_group_symop_operation_xyz
x,y,z
x,-y,z
loop_
_atom_site_type_symbol
_atom_site_label
_atom_site_fract_x
_atom_site_fract_y
_atom_site_fract_z
Si Si1 0.158160 0.677086 0.033460
Si Si2 0.723014 0.823831 0.570461
Si Si3 0.300869 0.320361 0.930437
Si Si4 0.998193 0.676598 0.464685
Si Si5 0.670891 0.327166 0.843899
Si Si6 0.804363 0.175673 0.313081
Si Si7 0.528602 0.676171 0.315023
Si Si8 0.144342 0.177875 0.411862
O O1 0.161640 0.500000 0.079354
O O2 0.253050 0.716124 0.055140
O O3 0.149384 0.764545 0.210153
O O4 0.067298 0.704291 0.751928
O O5 0.739348 0.726051 0.778549
O O6 0.795830 0.791053 0.516862
O O7 0.611122 0.775047 0.342444
O O8 0.725791 0.000000 0.616343
O O9 0.290205 0.500000 0.891049
O O10 0.416262 0.283239 0.105884
O O11 0.237042 0.241127 0.673383
O O12 0.997798 0.500000 0.429303
O O13 0.048962 0.758569 0.371442
O O14 0.891059 0.735715 0.349377
O O15 0.685582 0.500000 0.910850
O O16 0.562937 0.307899 0.583657
O O17 0.701896 0.225334 0.060407
O O18 0.819347 0.000000 0.313303
O O19 0.542527 0.500000 0.292322
O O20 0.143505 0.000000 0.415890
#
# Coordination Sequence:
#
# PCOD9131118 Si02
#       8
#     2   2   2   2   2   2   2   2
#     4   9  19  37  59  81 107 141 181 224 272 323
#     4   9  19  35  53  76 111 146 179 223 272 321
#     4   9  18  37  60  81 109 144 186 229 268 315
#     4  10  22  39  60  81 106 142 184 229 270 317
#     4   9  19  35  55  78 107 143 186 227 264 314
#     4  11  22  36  56  82 111 146 181 222 277 327
#     4   8  17  35  57  81 108 145 186 228 271 311
#     4  11  22  36  56  84 115 143 175 220 276 334
#
# _framework density 18.167093999999999
#
# number of rings (size 3 to 8) (size 9 to 14) (size 15 to 20)
#    0.750    1.750    0.000    3.000    0.000    6.000 
#    2.250    2.500    0.000    0.000    0.000    0.000 
#    0.000    0.000    0.000    0.000    0.000    0.000 
#
# Total GULP energy -89123.693769 kJ/mol
# GULP energy per Si atom -5570.230861 kJ/mol
# Density = 1.812575 g / cm^3
# Si number density = 18.167094 Si / 1000 Ang^3
#
#
#
# Elastic Constant Matrix: (Units=GPa)
#
#
# Indices 1 2 3 4 5 6 
#
# 1 61.6395 28.8904 20.2073 0.0000 -3.7806 0.0000
# 2 28.8904 52.4400 29.4815 0.0000 -10.9434 0.0000
# 3 20.2073 29.4815 40.7049 0.0000 -17.9995 0.0000
# 4 0.0000 0.0000 0.0000 8.2726 0.0000 -8.5791
# 5 -3.7806 -10.9434 -17.9995 0.0000 25.8798 0.0000
# 6 0.0000 0.0000 0.0000 -8.5791 0.0000 20.3664
#
#
#
# Elastic Compliance Matrix: (Units=1/GPa)
#
#
# Indices 1 2 3 4 5 6 
#
# 1 0.022685 -0.010042 -0.006356 0.000000 -0.005353 0.000000
# 2 -0.010042 0.036867 -0.022344 0.000000 -0.001418 0.000000
# 3 -0.006356 -0.022344 0.056779 0.000000 0.029114 0.000000
# 4 0.000000 0.000000 0.000000 0.214650 0.000000 0.090419
# 5 -0.005353 -0.001418 0.029114 0.000000 0.057507 0.000000
# 6 0.000000 0.000000 0.000000 0.090419 0.000000 0.087188
#
#
# Mechanical properties :
#
#
# Convention : Reuss Voigt Hill
#
# Bulk Modulus (GPa) = 25.74056 34.66031 30.20044
# Shear Modulus (GPa) = 8.83220 15.98412 12.40816
#
# Velocity S-wave (km/s) = 2.20731 2.96943 2.61627
# Velocity P-wave (km/s) = 4.54927 5.55668 5.07802
#
# Compressibility (1/GPa) = 0.03884919
#
# Stress axis : x y z
#
# Youngs Moduli (GPa) = 44.08165 27.12422 17.61206
#
# Poissons Ratio (x) = 0.27237 0.11194
# Poissons Ratio (y) = 0.44265 0.39352
# Poissons Ratio (z) = 0.28017 0.60606
#
# Static dielectric constant tensor:
#      x y z
#    x 1.620080 0.000000 0.014300 
#    y 0.000000 1.600640 0.000000 
#    z 0.014300 0.000000 1.640300 
# 
# From -- ./inp_files/1979.got.cif
#   From: 2010.05.17/outbox.cif.g08.bks.cpg/sg6_1_cif.got.tgz:1979.got - 2010.06.03 19:42:10.
