data_PCOD9131087
_publ_section_title
;
Structure prediction by ZEFSAII (Michael W. Deem and Ramdas Pophale) SiO2 
 PCOD9131087
Probable space group: P M
;
_chemical_formula_sum "Si O2"
_cell_formula_units_Z 15
_cell_length_a 6.781521
_cell_length_b 12.610663
_cell_length_c 9.534767
_cell_angle_alpha 90.000000
_cell_angle_beta 130.826837
_cell_angle_gamma 90.000000
_cell_volume 617.010404
_symmetry_space_group_name_H-M "P M"
_symmetry_group_IT_number 6
_symmetry_cell_setting 'monoclinic'
loop_
_space_group_symop_operation_xyz
x,y,z
x,-y,z
loop_
_atom_site_type_symbol
_atom_site_label
_atom_site_fract_x
_atom_site_fract_y
_atom_site_fract_z
Si Si1 0.880250 0.657704 0.227810
Si Si2 0.342139 0.883642 0.167902
Si Si3 0.428867 0.500000 0.911755
Si Si4 0.070870 0.116741 0.752385
Si Si5 0.977486 0.342296 0.595700
Si Si6 0.786870 0.116741 0.071128
Si Si7 0.428870 0.703895 0.411757
Si Si8 0.515600 0.883642 0.655611
O O1 0.647532 0.591168 0.053960
O O2 0.928870 0.628844 0.411756
O O3 0.157487 0.641862 0.275406
O O4 0.806148 0.781607 0.177090
O O5 0.282113 0.872600 0.975663
O O6 0.061563 0.884450 0.114720
O O7 0.461022 0.000000 0.252433
O O8 0.471608 0.782324 0.299142
O O9 0.210203 0.408832 0.769551
O O10 0.051593 0.218393 0.646425
O O11 0.796177 0.115550 0.708794
O O12 0.095542 0.000000 0.698863
O O13 0.700251 0.358139 0.548105
O O14 0.575627 0.127400 0.847850
O O15 0.762197 0.000000 0.124650
O O16 0.386132 0.782325 0.524372
O O17 0.396717 0.000000 0.571080
#
# Coordination Sequence:
#
# PCOD9131087 Si02
#       8
#     2   2   1   2   2   2   2   2
#     4  11  26  48  73 102 138 180 233 287 347 409
#     4   8  14  29  59 102 146 182 218 267 333 409
#     4  12  30  54  72  92 140 186 228 308 352 386
#     4   8  16  34  64 102 143 182 218 269 341 416
#     4  11  26  48  73 102 138 180 233 287 347 409
#     4   8  16  34  64 102 143 182 218 269 341 416
#     4  10  21  39  72 106 134 178 239 279 334 420
#     4   8  14  29  59 102 146 182 218 267 333 409
#
# _framework density 24.310773000000001
#
# number of rings (size 3 to 8) (size 9 to 14) (size 15 to 20)
#    0.000    2.667    0.000    2.400    3.733    2.133 
#    0.000    2.000    0.000    0.000    0.000    0.000 
#    0.000    0.000    0.000    0.000    0.000    0.000 
#
# Total GULP energy -83651.861476 kJ/mol
# GULP energy per Si atom -5576.790765 kJ/mol
# Density = 2.425544 g / cm^3
# Si number density = 24.310773 Si / 1000 Ang^3
#
#
#
# Elastic Constant Matrix: (Units=GPa)
#
#
# Indices 1 2 3 4 5 6 
#
# 1 134.2233 51.3605 69.3563 0.0000 22.4899 0.0000
# 2 51.3605 146.7000 65.3073 0.0000 20.6523 0.0000
# 3 69.3563 65.3073 125.8237 0.0000 31.9425 0.0000
# 4 0.0000 0.0000 0.0000 34.8868 0.0000 78.8581
# 5 22.4899 20.6523 31.9425 0.0000 54.6908 0.0000
# 6 0.0000 0.0000 0.0000 78.8581 0.0000 63.3414
#
#
#
# Elastic Compliance Matrix: (Units=1/GPa)
#
#
# Indices 1 2 3 4 5 6 
#
# 1 0.010695 -0.001421 -0.004905 0.000000 -0.000997 0.000000
# 2 -0.001421 0.009082 -0.003767 0.000000 -0.000645 0.000000
# 3 -0.004905 -0.003767 0.013776 0.000000 -0.004606 0.000000
# 4 0.000000 0.000000 0.000000 -0.015801 0.000000 0.019671
# 5 -0.000997 -0.000645 -0.004606 0.000000 0.021629 0.000000
# 6 0.000000 0.000000 0.000000 0.019671 0.000000 -0.008703
#
#
# Mechanical properties :
#
#
# Convention : Reuss Voigt Hill
#
# Bulk Modulus (GPa) = 74.80564 86.53279 80.66922
# Shear Modulus (GPa) = 90.38307 45.29866 67.84086
#
# Velocity S-wave (km/s) = 6.10401 4.32130 5.28831
# Velocity P-wave (km/s) = 8.97307 7.78266 8.39898
#
# Compressibility (1/GPa) = 0.01336798
#
# Stress axis : x y z
#
# Youngs Moduli (GPa) = 93.49746 110.11083 72.58986
#
# Poissons Ratio (x) = 0.15642 0.35606
# Poissons Ratio (y) = 0.13282 0.27344
# Poissons Ratio (z) = 0.45862 0.41478
#
# Static dielectric constant tensor:
#      x y z
#    x 2.024770 0.000000 0.011780 
#    y 0.000000 1.896920 0.000000 
#    z 0.011780 0.000000 1.927430 
# 
# From -- ./inp_files/3183.got.cif
#   From: 2010.05.17/outbox.cif.g08.bks.cpg/sg6_2_cif.got.tgz:3183.got - 2010.06.03 19:42:10.
