data_PCOD9131743
_publ_section_title
;
Structure prediction by ZEFSAII (Michael W. Deem and Ramdas Pophale) SiO2 
 PCOD9131743
Probable space group: C M
;
_chemical_formula_sum "Si O2"
_cell_formula_units_Z 32
_cell_length_a 29.844893
_cell_length_b 7.640314
_cell_length_c 12.250827
_cell_angle_alpha 90.000000
_cell_angle_beta 148.311465
_cell_angle_gamma 90.000000
_cell_volume 1467.422561
_symmetry_space_group_name_H-M "C M"
_symmetry_group_IT_number 8
_symmetry_cell_setting 'monoclinic'
loop_
_space_group_symop_operation_xyz
x,y,z
x,-y,z
1/2+x,1/2+y,z
1/2+x,1/2-y,z
loop_
_atom_site_type_symbol
_atom_site_label
_atom_site_fract_x
_atom_site_fract_y
_atom_site_fract_z
Si Si1 0.918790 0.290272 0.284220
Si Si2 0.267709 0.788515 0.477066
Si Si3 0.005030 0.296781 0.685310
Si Si4 0.074390 0.209944 0.456298
Si Si5 0.230826 0.784898 0.929612
Si Si6 0.698060 0.297894 0.103657
Si Si7 0.107367 0.785385 0.279620
Si Si8 0.952671 0.793853 0.807456
O O1 0.913999 0.500000 0.284332
O O2 0.958849 0.224805 0.481856
O O3 0.983460 0.249315 0.321370
O O4 0.821712 0.229749 0.069523
O O5 0.199807 0.730489 0.426808
O O6 0.365686 0.737563 0.692365
O O7 0.263559 0.000000 0.467047
O O8 0.236039 0.720652 0.293097
O O9 0.024648 0.500000 0.705518
O O10 0.949043 0.284803 0.678592
O O11 0.095520 0.207233 0.895543
O O12 0.149510 0.275023 0.691815
O O13 0.087004 0.274770 0.359483
O O14 0.082394 0.000000 0.468850
O O15 0.224956 0.723044 0.042666
O O16 0.227276 0.000000 0.923745
O O17 0.726253 0.500000 0.160429
O O18 0.105568 0.000000 0.276188
O O19 0.034287 0.727316 0.043620
O O20 0.964103 0.000000 0.815576
#
# Coordination Sequence:
#
# PCOD9131743 Si02
#       8
#     4   4   4   4   4   4   4   4
#     4  10  21  37  56  83 116 146 178 230 285 328
#     4  10  20  37  59  83 113 148 185 232 283 334
#     4  11  21  34  56  85 117 148 184 230 281 336
#     4  10  20  37  60  82 106 146 196 233 268 329
#     4   9  18  33  56  81 108 143 182 220 274 338
#     4  10  18  34  59  83 110 147 185 227 284 340
#     4   9  20  38  58  80 111 149 188 233 281 325
#     4  11  22  38  58  83 115 151 188 229 280 336
#
# _framework density 21.806941999999999
#
# number of rings (size 3 to 8) (size 9 to 14) (size 15 to 20)
#    0.000    2.000    2.500    1.500    0.000    4.000 
#    0.000    4.375    0.000    0.000    0.000    0.000 
#    0.000    0.000    0.000    0.000    0.000    0.000 
#
# Total GULP energy -89400.964503 kJ/mol
# GULP energy per Si atom -5587.560281 kJ/mol
# Density = 2.175731 g / cm^3
# Si number density = 21.806942 Si / 1000 Ang^3
#
#
#
# Elastic Constant Matrix: (Units=GPa)
#
#
# Indices 1 2 3 4 5 6 
#
# 1 163.4322 -3.5002 39.2040 0.0000 15.3823 0.0000
# 2 -3.5002 41.8419 -1.4989 0.0000 -5.4626 0.0000
# 3 39.2040 -1.4989 28.8858 0.0000 25.2484 0.0000
# 4 0.0000 0.0000 0.0000 3.6006 0.0000 14.5804
# 5 15.3823 -5.4626 25.2484 0.0000 39.0972 0.0000
# 6 0.0000 0.0000 0.0000 14.5804 0.0000 17.5233
#
#
#
# Elastic Compliance Matrix: (Units=1/GPa)
#
#
# Indices 1 2 3 4 5 6 
#
# 1 0.011315 0.001686 -0.026598 0.000000 0.012960 0.000000
# 2 0.001686 0.024790 -0.007920 0.000000 0.007915 0.000000
# 3 -0.026598 -0.007920 0.142646 0.000000 -0.082761 0.000000
# 4 0.000000 0.000000 0.000000 -0.117218 0.000000 0.097532
# 5 0.012960 0.007915 -0.082761 0.000000 0.075030 0.000000
# 6 0.000000 0.000000 0.000000 0.097532 0.000000 -0.024085
#
#
# Mechanical properties :
#
#
# Convention : Reuss Voigt Hill
#
# Bulk Modulus (GPa) = 8.84271 33.61884 21.23078
# Shear Modulus (GPa) = 23.16557 25.37456 24.27006
#
# Velocity S-wave (km/s) = 3.26283 3.41486 3.33971
# Velocity P-wave (km/s) = 4.27301 5.56762 4.96271
#
# Compressibility (1/GPa) = 0.11308746
#
# Stress axis : x y z
#
# Youngs Moduli (GPa) = 88.37585 40.33863 7.01037
#
# Poissons Ratio (x) = -0.06800 0.18646
# Poissons Ratio (y) = -0.14898 0.05552
# Poissons Ratio (z) = 2.35061 0.31947
#
# Static dielectric constant tensor:
#      x y z
#    x 1.781950 0.000000 -0.000860 
#    y 0.000000 1.833950 0.000000 
#    z -0.000860 0.000000 1.771390 
# 
# From -- ./inp_files/21367.got.cif
#   From: 2010.05.17/outbox.cif.g08.bks.cpg/sg8_11_cif.got.tgz:21367.got - 2010.06.03 19:46:02.
