data_PCOD9131235
_publ_section_title
;
Structure prediction by ZEFSAII (Michael W. Deem and Ramdas Pophale) SiO2 
 PCOD9131235
Probable space group: P C
;
_chemical_formula_sum "Si O2"
_cell_formula_units_Z 12
_cell_length_a 9.966846
_cell_length_b 9.668412
_cell_length_c 5.307962
_cell_angle_alpha 90.000000
_cell_angle_beta 115.697645
_cell_angle_gamma 90.000000
_cell_volume 460.904774
_symmetry_space_group_name_H-M "P C"
_symmetry_group_IT_number 7
_symmetry_cell_setting 'monoclinic'
loop_
_space_group_symop_operation_xyz
x,y,z
x,-y,1/2+z
loop_
_atom_site_type_symbol
_atom_site_label
_atom_site_fract_x
_atom_site_fract_y
_atom_site_fract_z
Si Si1 0.233730 0.730312 0.096030
Si Si2 0.686819 0.058359 0.786371
Si Si3 0.977049 0.871660 0.036682
Si Si4 0.082011 0.658499 0.466625
Si Si5 0.497912 0.421683 0.951697
Si Si6 0.806490 0.662466 0.525758
O O1 0.142460 0.874329 0.049053
O O2 0.158510 0.632180 0.256646
O O3 0.405879 0.715705 0.302852
O O4 0.195226 0.674258 0.788873
O O5 0.714069 0.221616 0.790469
O O6 0.849940 0.984672 0.954321
O O7 0.611954 0.008612 0.983297
O O8 0.016950 0.810636 0.342508
O O9 0.898505 0.751268 0.806180
O O10 0.931030 0.588820 0.452971
O O11 0.457571 0.528712 0.696708
O O12 0.675522 0.412101 0.068689
#
# Coordination Sequence:
#
# PCOD9131235 Si02
#       6
#     2   2   2   2   2   2
#     4   9  19  39  60  82 116 159 206 258 314 365
#     4  10  17  30  58  94 119 154 193 243 317 375
#     4   8  18  34  64  92 117 151 203 256 317 369
#     4   9  17  36  62  87 115 151 201 257 305 360
#     4  12  28  43  61  87 130 177 217 257 316 359
#     4  10  21  38  63  94 127 164 206 265 307 376
#
# _framework density 26.035748000000002
#
# number of rings (size 3 to 8) (size 9 to 14) (size 15 to 20)
#    1.000    1.333    1.667    1.000    2.333    0.000 
#    0.000   11.667    0.000   16.000    0.000    0.000 
#    0.000    0.000    0.000    0.000    0.000    0.000 
#
# Total GULP energy -66851.775138 kJ/mol
# GULP energy per Si atom -5570.981262 kJ/mol
# Density = 2.597649 g / cm^3
# Si number density = 26.035748 Si / 1000 Ang^3
#
#
#
# Elastic Constant Matrix: (Units=GPa)
#
#
# Indices 1 2 3 4 5 6 
#
# 1 107.3918 4.4178 47.8451 0.0000 -8.1479 0.0000
# 2 4.4178 33.1696 0.1544 0.0000 -5.0752 0.0000
# 3 47.8451 0.1544 126.1066 0.0000 -34.3847 0.0000
# 4 0.0000 0.0000 0.0000 20.3350 0.0000 0.5411
# 5 -8.1479 -5.0752 -34.3847 0.0000 51.2536 0.0000
# 6 0.0000 0.0000 0.0000 0.5411 0.0000 34.0689
#
#
#
# Elastic Compliance Matrix: (Units=1/GPa)
#
#
# Indices 1 2 3 4 5 6 
#
# 1 0.011375 -0.001728 -0.004733 0.000000 -0.001538 0.000000
# 2 -0.001728 0.030971 0.001688 0.000000 0.003924 0.000000
# 3 -0.004733 0.001688 0.011705 0.000000 0.007267 0.000000
# 4 0.000000 0.000000 0.000000 0.049197 0.000000 -0.000781
# 5 -0.001538 0.003924 0.007267 0.000000 0.024530 0.000000
# 6 0.000000 0.000000 0.000000 -0.000781 0.000000 0.029365
#
#
# Mechanical properties :
#
#
# Convention : Reuss Voigt Hill
#
# Bulk Modulus (GPa) = 22.46994 41.27807 31.87400
# Shear Modulus (GPa) = 27.54463 35.41488 31.47976
#
# Velocity S-wave (km/s) = 3.25615 3.69215 3.48098
# Velocity P-wave (km/s) = 4.77345 5.83650 5.33154
#
# Compressibility (1/GPa) = 0.04450390
#
# Stress axis : x y z
#
# Youngs Moduli (GPa) = 87.91476 32.28842 85.43442
#
# Poissons Ratio (x) = 0.05580 0.40434
# Poissons Ratio (y) = 0.15194 -0.14420
# Poissons Ratio (z) = 0.41608 -0.05450
#
# Static dielectric constant tensor:
#      x y z
#    x 2.156280 0.000000 -0.076600 
#    y 0.000000 2.111880 0.000000 
#    z -0.076600 0.000000 2.063290 
# 
# From -- ./inp_files/768.got.cif
#   From: 2010.05.17/outbox.cif.g08.bks.cpg/sg7_cif.got.tgz:768.got - 2010.06.03 19:44:50.
