data_PCOD9131984
_publ_section_title
;
Structure prediction by ZEFSAII (Michael W. Deem and Ramdas Pophale) SiO2 
 PCOD9131984
Probable space group: C M
;
_chemical_formula_sum "Si O2"
_cell_formula_units_Z 32
_cell_length_a 5.286983
_cell_length_b 24.921601
_cell_length_c 13.811461
_cell_angle_alpha 90.000000
_cell_angle_beta 78.765647
_cell_angle_gamma 90.000000
_cell_volume 1784.929174
_symmetry_space_group_name_H-M "C M"
_symmetry_group_IT_number 8
_symmetry_cell_setting 'monoclinic'
loop_
_space_group_symop_operation_xyz
x,y,z
x,-y,z
1/2+x,1/2+y,z
1/2+x,1/2-y,z
loop_
_atom_site_type_symbol
_atom_site_label
_atom_site_fract_x
_atom_site_fract_y
_atom_site_fract_z
Si Si1 0.034950 0.565317 0.984880
Si Si2 0.026026 0.225237 0.523528
Si Si3 0.303277 0.395314 0.316769
Si Si4 0.199622 0.269464 0.300397
Si Si5 0.840949 0.897066 0.538256
Si Si6 0.787102 0.436518 0.643483
Si Si7 0.856321 0.436077 0.211739
Si Si8 0.591450 0.565346 0.869129
O O1 0.039988 0.500000 0.983957
O O2 0.311576 0.583762 0.925384
O O3 0.809646 0.582126 0.928802
O O4 0.972173 0.580967 0.099392
O O5 0.284822 0.236137 0.564372
O O6 0.113878 0.239517 0.406797
O O7 0.922195 0.165310 0.535689
O O8 0.242523 0.331866 0.316803
O O9 0.319920 0.412835 0.427237
O O10 0.582962 0.407808 0.251146
O O11 0.070086 0.423414 0.277050
O O12 0.461356 0.241443 0.248391
O O13 0.558573 0.907611 0.603221
O O14 0.070293 0.926895 0.577909
O O15 0.843306 0.500000 0.644993
O O16 0.666257 0.418612 0.754934
O O17 0.809043 0.500000 0.212837
O O18 0.585978 0.500000 0.869475
#
# Coordination Sequence:
#
# PCOD9131984 Si02
#       8
#     4   4   4   4   4   4   4   4
#     4   9  17  33  56  75  98 137 181 231 276 297
#     4  10  19  34  56  76  96 135 178 243 277 293
#     4  12  23  35  55  77 112 156 183 218 263 319
#     4  10  19  34  56  76  96 135 178 243 277 293
#     4  12  23  35  55  77 112 156 183 218 263 319
#     4  11  24  37  51  80 117 149 188 218 250 329
#     4  11  24  37  51  80 117 149 188 218 250 329
#     4   9  17  33  56  75  98 137 181 231 276 297
#
# _framework density 17.927880999999999
#
# number of rings (size 3 to 8) (size 9 to 14) (size 15 to 20)
#    0.000    1.500    2.500    4.500    3.500    7.000 
#    0.000    0.000    0.000    0.000    0.000    0.000 
#    0.000   70.000    0.000    0.000    0.000    0.000 
#
# Total GULP energy -89278.492661 kJ/mol
# GULP energy per Si atom -5579.905791 kJ/mol
# Density = 1.788708 g / cm^3
# Si number density = 17.927881 Si / 1000 Ang^3
#
#
#
# Elastic Constant Matrix: (Units=GPa)
#
#
# Indices 1 2 3 4 5 6 
#
# 1 115.9970 3.6779 7.0017 0.0000 -8.8110 0.0000
# 2 3.6779 37.1951 15.0466 0.0000 -5.0217 0.0000
# 3 7.0017 15.0466 51.5896 0.0000 -5.5080 0.0000
# 4 0.0000 0.0000 0.0000 -9.2998 0.0000 -9.7439
# 5 -8.8110 -5.0217 -5.5080 0.0000 31.3221 0.0000
# 6 0.0000 0.0000 0.0000 -9.7439 0.0000 31.1846
#
#
#
# Elastic Compliance Matrix: (Units=1/GPa)
#
#
# Indices 1 2 3 4 5 6 
#
# 1 0.008856 -0.000202 -0.000897 0.000000 0.002301 0.000000
# 2 -0.000202 0.030843 -0.008608 0.000000 0.003374 0.000000
# 3 -0.000897 -0.008608 0.022260 0.000000 0.002282 0.000000
# 4 0.000000 0.000000 0.000000 -0.081009 0.000000 -0.025312
# 5 0.002301 0.003374 0.002282 0.000000 0.033516 0.000000
# 6 0.000000 0.000000 0.000000 -0.025312 0.000000 0.024158
#
#
# Mechanical properties :
#
#
# Convention : Reuss Voigt Hill
#
# Bulk Modulus (GPa) = 23.50490 28.47044 25.98767
# Shear Modulus (GPa) = 69.23234 22.57841 45.90538
#
# Velocity S-wave (km/s) = 6.22101 3.55266 5.06569
# Velocity P-wave (km/s) = 8.04615 5.72219 6.98155
#
# Compressibility (1/GPa) = 0.04254432
#
# Stress axis : x y z
#
# Youngs Moduli (GPa) = 112.91430 32.42227 44.92406
#
# Poissons Ratio (x) = 0.00655 0.04031
# Poissons Ratio (y) = 0.02281 0.38671
# Poissons Ratio (z) = 0.10132 0.27909
#
# Static dielectric constant tensor:
#      x y z
#    x 1.671840 0.000000 0.012660 
#    y 0.000000 1.612970 0.000000 
#    z 0.012660 0.000000 1.619950 
# 
# From -- ./inp_files/18194.got.cif
#   From: 2010.05.17/outbox.cif.g08.bks.cpg/sg8_10_cif.got.tgz:18194.got - 2010.06.03 19:46:02.
