data_PCOD9131622
_publ_section_title
;
Structure prediction by ZEFSAII (Michael W. Deem and Ramdas Pophale) SiO2 
 PCOD9131622
Probable space group: C M
;
_chemical_formula_sum "Si O2"
_cell_formula_units_Z 32
_cell_length_a 20.056220
_cell_length_b 8.438292
_cell_length_c 19.248440
_cell_angle_alpha 90.000000
_cell_angle_beta 23.359576
_cell_angle_gamma 90.000000
_cell_volume 1291.643545
_symmetry_space_group_name_H-M "C M"
_symmetry_group_IT_number 8
_symmetry_cell_setting 'monoclinic'
loop_
_space_group_symop_operation_xyz
x,y,z
x,-y,z
1/2+x,1/2+y,z
1/2+x,1/2-y,z
loop_
_atom_site_type_symbol
_atom_site_label
_atom_site_fract_x
_atom_site_fract_y
_atom_site_fract_z
Si Si1 0.074240 0.312933 0.076040
Si Si2 0.181831 0.686941 0.760154
Si Si3 0.884033 0.815412 0.138049
Si Si4 0.911418 0.812020 0.663148
Si Si5 0.660196 0.686131 0.246395
Si Si6 0.453549 0.684700 0.865416
Si Si7 0.447641 0.183741 0.339563
Si Si8 0.125854 0.681379 0.575775
O O1 0.032486 0.500000 0.112276
O O2 0.077648 0.270626 0.153594
O O3 0.930422 0.216575 0.173161
O O4 0.248769 0.290799 0.869175
O O5 0.195484 0.500000 0.730205
O O6 0.022923 0.710060 0.964660
O O7 0.340474 0.737484 0.655491
O O8 0.120887 0.787090 0.752615
O O9 0.910475 0.000000 0.096588
O O10 0.706177 0.762854 0.276481
O O11 0.057839 0.726103 0.565090
O O12 0.948688 0.000000 0.623367
O O13 0.682301 0.500000 0.231998
O O14 0.487475 0.719830 0.370971
O O15 0.800784 0.760505 0.060364
O O16 0.435409 0.500000 0.864876
O O17 0.478167 0.788030 0.773284
O O18 0.273332 0.211623 0.466520
O O19 0.468495 0.000000 0.337107
O O20 0.179789 0.500000 0.526439
#
# Coordination Sequence:
#
# PCOD9131622 Si02
#       8
#     4   4   4   4   4   4   4   4
#     4   9  19  36  59  84 110 142 181 227 278 329
#     4   9  17  32  55  83 113 141 177 227 280 328
#     4  10  18  30  53  84 115 144 179 223 272 326
#     4   9  18  35  59  85 112 143 180 224 275 332
#     4  11  21  36  59  86 115 145 183 229 278 330
#     4  11  21  36  59  85 113 146 187 230 276 329
#     4  11  23  40  59  80 111 149 188 230 279 332
#     4  12  25  39  55  79 113 150 189 232 278 328
#
# _framework density 24.774636000000001
#
# number of rings (size 3 to 8) (size 9 to 14) (size 15 to 20)
#    0.000    1.750    0.000    8.250    0.000    4.500 
#    0.000    1.250    0.000    4.500    0.000    0.000 
#    0.000    0.000    0.000    0.000    0.000    0.000 
#
# Total GULP energy -89555.407487 kJ/mol
# GULP energy per Si atom -5597.212968 kJ/mol
# Density = 2.471825 g / cm^3
# Si number density = 24.774636 Si / 1000 Ang^3
#
#
#
# Elastic Constant Matrix: (Units=GPa)
#
#
# Indices 1 2 3 4 5 6 
#
# 1 162.9243 37.3999 3.5507 -0.0002 -12.3345 0.0000
# 2 37.3999 64.9432 6.1872 -0.0005 -4.2776 0.0001
# 3 3.5507 6.1872 61.4130 -0.0006 -13.1972 0.0001
# 4 -0.0002 -0.0005 -0.0006 19.7446 0.0001 -10.3678
# 5 -12.3345 -4.2776 -13.1972 0.0001 44.6285 0.0000
# 6 0.0000 0.0001 0.0001 -10.3678 0.0000 41.4673
#
#
#
# Elastic Compliance Matrix: (Units=1/GPa)
#
#
# Indices 1 2 3 4 5 6 
#
# 1 0.007192 -0.004064 0.000360 0.000000 0.001705 0.000000
# 2 -0.004064 0.017894 -0.001538 0.000000 0.000137 0.000000
# 3 0.000360 -0.001538 0.017520 0.000000 0.005133 0.000000
# 4 0.000000 0.000000 0.000000 0.058301 0.000000 0.014577
# 5 0.001705 0.000137 0.005133 0.000000 0.024409 0.000000
# 6 0.000000 0.000000 0.000000 0.014577 0.000000 0.027760
#
#
# Mechanical properties :
#
#
# Convention : Reuss Voigt Hill
#
# Bulk Modulus (GPa) = 31.13146 42.61736 36.87441
# Shear Modulus (GPa) = 28.69147 37.31093 33.00120
#
# Velocity S-wave (km/s) = 3.40678 3.88495 3.65369
# Velocity P-wave (km/s) = 5.29792 6.11254 5.71975
#
# Compressibility (1/GPa) = 0.03212185
#
# Stress axis : x y z
#
# Youngs Moduli (GPa) = 139.04588 55.88499 57.07627
#
# Poissons Ratio (x) = 0.22710 -0.02054
# Poissons Ratio (y) = 0.56504 0.08780
# Poissons Ratio (z) = -0.05004 0.08597
#
# Static dielectric constant tensor:
#      x y z
#    x 1.969110 0.000000 0.004740 
#    y 0.000000 1.814380 0.000000 
#    z 0.004740 0.000000 2.121340 
# 
# From -- ./inp_files/32342.got.cif
#   From: 2010.05.17/outbox.cif.g08.bks.cpg/sg8_17_cif.got.tgz:32342.got - 2010.06.03 19:46:02.
