data_PCOD9131496
_publ_section_title
;
Structure prediction by ZEFSAII (Michael W. Deem and Ramdas Pophale) SiO2 
 PCOD9131496
Probable space group: C M
;
_chemical_formula_sum "Si O2"
_cell_formula_units_Z 28
_cell_length_a 7.528095
_cell_length_b 25.871090
_cell_length_c 7.553483
_cell_angle_alpha 90.000000
_cell_angle_beta 44.037558
_cell_angle_gamma 90.000000
_cell_volume 1022.616871
_symmetry_space_group_name_H-M "C M"
_symmetry_group_IT_number 8
_symmetry_cell_setting 'monoclinic'
loop_
_space_group_symop_operation_xyz
x,y,z
x,-y,z
1/2+x,1/2+y,z
1/2+x,1/2-y,z
loop_
_atom_site_type_symbol
_atom_site_label
_atom_site_fract_x
_atom_site_fract_y
_atom_site_fract_z
Si Si1 0.915290 0.440824 0.347620
Si Si2 0.425041 0.336484 0.371880
Si Si3 0.450976 0.118226 0.689597
Si Si4 0.114722 0.193258 0.736366
Si Si5 0.671258 0.237342 0.255712
Si Si6 0.884708 0.085975 0.826686
Si Si7 0.571385 0.556338 0.090926
O O1 0.972976 0.500000 0.354336
O O2 0.988106 0.401372 0.457534
O O3 0.607702 0.438072 0.545515
O O4 0.084932 0.425237 0.056940
O O5 0.623151 0.298280 0.320340
O O6 0.301665 0.300816 0.304149
O O7 0.164851 0.354237 0.651710
O O8 0.506887 0.393101 0.249072
O O9 0.237780 0.162726 0.816695
O O10 0.369273 0.065303 0.839203
O O11 0.375316 0.216351 0.464334
O O12 0.959304 0.145987 0.762476
O O13 0.884845 0.232642 0.947342
O O14 0.962561 0.064252 0.968946
O O15 0.507471 0.500000 0.204812
#
# Coordination Sequence:
#
# PCOD9131496 Si02
#       7
#     4   4   4   4   4   4   4
#     4  10  16  23  39  66 100 138 167 209 274 335
#     4  11  22  36  55  84 117 154 188 239 280 352
#     4   9  17  30  47  72 112 148 181 225 281 341
#     4   9  18  34  50  72 103 150 186 231 271 333
#     4  11  22  36  57  78 115 150 195 231 287 329
#     4  10  16  27  44  65 102 138 175 210 272 328
#     4  10  18  30  51  79 115 146 181 235 295 338
#
# _framework density 27.380732999999999
#
# number of rings (size 3 to 8) (size 9 to 14) (size 15 to 20)
#    0.000    2.286    4.286    4.286    2.000    0.571 
#    0.000    0.000    0.000    0.000    0.000    1.000 
#    0.000    0.000    0.000    0.000    0.000    0.000 
#
# Total GULP energy -77950.504321 kJ/mol
# GULP energy per Si atom -5567.893166 kJ/mol
# Density = 2.731841 g / cm^3
# Si number density = 27.380733 Si / 1000 Ang^3
#
#
#
# Elastic Constant Matrix: (Units=GPa)
#
#
# Indices 1 2 3 4 5 6 
#
# 1 86.3681 29.3506 47.2829 0.0000 22.5258 0.0000
# 2 29.3506 207.9670 74.3346 0.0000 6.8932 0.0000
# 3 47.2829 74.3346 184.8751 0.0000 -52.5502 0.0000
# 4 0.0000 0.0000 0.0000 51.6940 0.0000 -3.3707
# 5 22.5258 6.8932 -52.5502 0.0000 6.1384 0.0000
# 6 0.0000 0.0000 0.0000 -3.3707 0.0000 16.3935
#
#
#
# Elastic Compliance Matrix: (Units=1/GPa)
#
#
# Indices 1 2 3 4 5 6 
#
# 1 0.006137 -0.002867 0.004118 0.000000 0.015955 0.000000
# 2 -0.002867 0.005080 -0.000042 0.000000 0.004460 0.000000
# 3 0.004118 -0.000042 -0.000063 0.000000 -0.015604 0.000000
# 4 0.000000 0.000000 0.000000 0.019607 0.000000 0.004032
# 5 0.015955 0.004460 -0.015604 0.000000 -0.034231 0.000000
# 6 0.000000 0.000000 0.000000 0.004032 0.000000 0.061829
#
#
# Mechanical properties :
#
#
# Convention : Reuss Voigt Hill
#
# Bulk Modulus (GPa) = 73.67218 86.79405 80.23312
# Shear Modulus (GPa) = 82.69291 36.72799 59.71045
#
# Velocity S-wave (km/s) = 5.50152 3.66646 4.67491
# Velocity P-wave (km/s) = 8.20491 7.04923 7.64893
#
# Compressibility (1/GPa) = 0.01357364
#
# Stress axis : x y z
#
# Youngs Moduli (GPa) = 162.94735 196.84764 -15909.53492
#
# Poissons Ratio (x) = 0.56435 65.51860
# Poissons Ratio (y) = 0.46716 -0.66078
# Poissons Ratio (z) = -0.67105 0.00818
#
# Static dielectric constant tensor:
#      x y z
#    x 2.260970 0.000000 -0.062080 
#    y 0.000000 2.094260 0.000000 
#    z -0.062080 0.000000 2.478010 
# 
# From -- ./inp_files/20917.got.cif
#   From: 2010.05.17/outbox.cif.g08.bks.cpg/sg8_11_cif.got.tgz:20917.got - 2010.06.03 19:46:02.
