data_PCOD9131254
_publ_section_title
;
Structure prediction by ZEFSAII (Michael W. Deem and Ramdas Pophale) SiO2 
 PCOD9131254
Probable space group: P C
;
_chemical_formula_sum "Si O2"
_cell_formula_units_Z 16
_cell_length_a 9.406828
_cell_length_b 16.412506
_cell_length_c 5.214988
_cell_angle_alpha 90.000000
_cell_angle_beta 71.129166
_cell_angle_gamma 90.000000
_cell_volume 761.863845
_symmetry_space_group_name_H-M "P C"
_symmetry_group_IT_number 7
_symmetry_cell_setting 'monoclinic'
loop_
_space_group_symop_operation_xyz
x,y,z
x,-y,1/2+z
loop_
_atom_site_type_symbol
_atom_site_label
_atom_site_fract_x
_atom_site_fract_y
_atom_site_fract_z
Si Si1 0.167700 0.523337 0.718660
Si Si2 0.396522 0.758311 0.890924
Si Si3 0.898771 0.947344 0.990932
Si Si4 0.073550 0.781583 0.886747
Si Si5 0.901633 0.732545 0.501250
Si Si6 0.641085 0.322871 0.875415
Si Si7 0.371248 0.384838 0.797716
Si Si8 0.669125 0.825667 0.956315
O O1 0.079983 0.487682 0.529206
O O2 0.307442 0.459302 0.666548
O O3 0.252400 0.606238 0.602214
O O4 0.353411 0.696914 0.145938
O O5 0.499295 0.828845 0.955718
O O6 0.251389 0.782859 0.817765
O O7 0.513389 0.711432 0.640157
O O8 0.013655 0.873097 0.879050
O O9 0.736108 0.904528 0.051582
O O10 0.916888 0.986132 0.258608
O O11 0.004015 0.754382 0.200063
O O12 0.003661 0.727130 0.696231
O O13 0.789018 0.662495 0.460118
O O14 0.781303 0.802600 0.655714
O O15 0.544513 0.390651 0.781143
O O16 0.678867 0.251795 0.645752
#
# Coordination Sequence:
#
# PCOD9131254 Si02
#       8
#     2   2   2   2   2   2   2   2
#     4   8  16  30  48  76 119 144 187 227 280 344
#     4  10  22  34  60  89 123 146 190 252 295 327
#     4  11  22  39  63  80 108 155 197 231 288 363
#     4  11  23  39  57  87 117 149 195 243 288 343
#     4  10  19  37  57  80 116 149 189 235 281 344
#     4  10  18  35  59  88 115 148 191 241 291 325
#     4   9  18  32  53  87 116 154 188 241 290 330
#     4   9  20  38  59  85 112 145 193 244 283 338
#
# _framework density 21.001125999999999
#
# number of rings (size 3 to 8) (size 9 to 14) (size 15 to 20)
#    0.750    1.500    2.500    2.250    5.250    0.000 
#    0.000    1.250    0.000    0.000    0.000    5.250 
#    0.000    0.000    0.000    0.000    0.000    0.000 
#
# Total GULP energy -89077.165355 kJ/mol
# GULP energy per Si atom -5567.322835 kJ/mol
# Density = 2.095333 g / cm^3
# Si number density = 21.001126 Si / 1000 Ang^3
#
#
#
# Elastic Constant Matrix: (Units=GPa)
#
#
# Indices 1 2 3 4 5 6 
#
# 1 147.4677 25.4843 20.6929 0.0000 17.1510 0.0000
# 2 25.4843 31.6316 -5.3789 0.0000 0.8209 0.0000
# 3 20.6929 -5.3789 93.2389 0.0000 22.9382 0.0000
# 4 0.0000 0.0000 0.0000 16.9936 0.0000 10.7121
# 5 17.1510 0.8209 22.9382 0.0000 24.1477 0.0000
# 6 0.0000 0.0000 0.0000 10.7121 0.0000 -6.3903
#
#
#
# Elastic Compliance Matrix: (Units=1/GPa)
#
#
# Indices 1 2 3 4 5 6 
#
# 1 0.008738 -0.007109 -0.001151 0.000000 -0.004871 0.000000
# 2 -0.007109 0.037966 0.003710 0.000000 0.000234 0.000000
# 3 -0.001151 0.003710 0.014387 0.000000 -0.012975 0.000000
# 4 0.000000 0.000000 0.000000 0.028612 0.000000 0.047963
# 5 -0.004871 0.000234 -0.012975 0.000000 0.057188 0.000000
# 6 0.000000 0.000000 0.000000 0.047963 0.000000 -0.076088
#
#
# Mechanical properties :
#
#
# Convention : Reuss Voigt Hill
#
# Bulk Modulus (GPa) = 19.23387 39.32608 29.27997
# Shear Modulus (GPa) = 51.42334 22.38622 36.90478
#
# Velocity S-wave (km/s) = 4.95370 3.26844 4.19654
# Velocity P-wave (km/s) = 6.47281 5.74543 6.11993
#
# Compressibility (1/GPa) = 0.05199163
#
# Stress axis : x y z
#
# Youngs Moduli (GPa) = 114.44710 26.33924 69.50915
#
# Poissons Ratio (x) = 0.18724 0.08000
# Poissons Ratio (y) = 0.81359 -0.25791
# Poissons Ratio (z) = 0.13172 -0.09773
#
# Static dielectric constant tensor:
#      x y z
#    x 1.801570 0.000000 0.059350 
#    y 0.000000 1.786460 0.000000 
#    z 0.059350 0.000000 1.879320 
# 
# From -- ./inp_files/955.got.cif
#   From: 2010.05.17/outbox.cif.g08.bks.cpg/sg7_cif.got.tgz:955.got - 2010.06.03 19:44:50.
