data_PCOD9131903
_publ_section_title
;
Structure prediction by ZEFSAII (Michael W. Deem and Ramdas Pophale) SiO2 
 PCOD9131903
Probable space group: C M
;
_chemical_formula_sum "Si O2"
_cell_formula_units_Z 32
_cell_length_a 23.094029
_cell_length_b 9.091296
_cell_length_c 11.608134
_cell_angle_alpha 90.000000
_cell_angle_beta 142.399162
_cell_angle_gamma 90.000000
_cell_volume 1487.062901
_symmetry_space_group_name_H-M "C M"
_symmetry_group_IT_number 8
_symmetry_cell_setting 'monoclinic'
loop_
_space_group_symop_operation_xyz
x,y,z
x,-y,z
1/2+x,1/2+y,z
1/2+x,1/2-y,z
loop_
_atom_site_type_symbol
_atom_site_label
_atom_site_fract_x
_atom_site_fract_y
_atom_site_fract_z
Si Si1 0.236830 0.827037 0.817750
Si Si2 0.374706 0.177565 0.343093
Si Si3 0.522390 0.171705 0.113056
Si Si4 0.957590 0.673130 0.248064
Si Si5 0.360567 0.337133 0.558686
Si Si6 0.301368 0.829322 0.677215
Si Si7 0.073500 0.836904 0.976787
Si Si8 0.181916 0.674925 0.950026
O O1 0.239696 0.778104 0.689466
O O2 0.212272 0.000000 0.784612
O O3 0.347016 0.815965 0.033495
O O4 0.173975 0.735641 0.807545
O O5 0.454867 0.225709 0.376049
O O6 0.381166 0.233000 0.483013
O O7 0.279580 0.255048 0.149143
O O8 0.368327 0.000000 0.328209
O O9 0.411930 0.172820 0.894834
O O10 0.582652 0.261747 0.115451
O O11 0.551050 0.000000 0.158840
O O12 0.518112 0.234797 0.236713
O O13 0.980745 0.500000 0.287686
O O14 0.327776 0.500000 0.469702
O O15 0.294319 0.265838 0.551256
O O16 0.461831 0.353154 0.779634
O O17 0.279271 0.000000 0.618840
O O18 0.118067 0.000000 0.042268
O O19 0.108795 0.736731 0.927874
O O20 0.182653 0.500000 0.950505
#
# Coordination Sequence:
#
# PCOD9131903 Si02
#       8
#     4   4   4   4   4   4   4   4
#     4   8  14  27  46  68  94 123 157 196 238 283
#     4  10  19  33  52  72  98 131 163 195 239 293
#     4   8  13  25  45  68  92 117 153 197 237 279
#     4   7  12  24  44  68  91 118 152 192 235 279
#     4  10  20  32  48  73 102 129 161 202 242 281
#     4   8  14  26  46  69  93 124 159 195 237 284
#     4  10  20  33  48  69  99 131 161 196 240 288
#     4  11  21  32  49  73  99 127 162 203 244 285
#
# _framework density 21.518929
#
# number of rings (size 3 to 8) (size 9 to 14) (size 15 to 20)
#    0.000    3.000    0.000    4.500    0.000    2.000 
#    0.000    6.875    0.000    1.500    0.000    3.500 
#    0.000    0.000    0.000    0.000    0.000    0.000 
#
# Total GULP energy -89172.804814 kJ/mol
# GULP energy per Si atom -5573.300301 kJ/mol
# Density = 2.146995 g / cm^3
# Si number density = 21.518929 Si / 1000 Ang^3
#
#
#
# Elastic Constant Matrix: (Units=GPa)
#
#
# Indices 1 2 3 4 5 6 
#
# 1 162.6069 83.5954 43.4455 0.0000 -66.0660 0.0000
# 2 83.5954 116.8884 25.5641 0.0000 -35.1293 0.0000
# 3 43.4455 25.5641 37.8168 0.0000 -11.3361 0.0000
# 4 0.0000 0.0000 0.0000 15.1645 0.0000 -9.1946
# 5 -66.0660 -35.1293 -11.3361 0.0000 41.8165 0.0000
# 6 0.0000 0.0000 0.0000 -9.1946 0.0000 29.1635
#
#
#
# Elastic Compliance Matrix: (Units=1/GPa)
#
#
# Indices 1 2 3 4 5 6 
#
# 1 0.027673 -0.005642 -0.017734 0.000000 0.034173 0.000000
# 2 -0.005642 0.013655 -0.002158 0.000000 0.001972 0.000000
# 3 -0.017734 -0.002158 0.042812 0.000000 -0.018224 0.000000
# 4 0.000000 0.000000 0.000000 0.081529 0.000000 0.025704
# 5 0.034173 0.001972 -0.018224 0.000000 0.074620 0.000000
# 6 0.000000 0.000000 0.000000 0.025704 0.000000 0.042394
#
#
# Mechanical properties :
#
#
# Convention : Reuss Voigt Hill
#
# Bulk Modulus (GPa) = 30.23625 69.16913 49.70269
# Shear Modulus (GPa) = 14.50228 28.20936 21.35582
#
# Velocity S-wave (km/s) = 2.59883 3.62458 3.15369
# Velocity P-wave (km/s) = 4.80487 7.05194 6.03393
#
# Compressibility (1/GPa) = 0.03307289
#
# Stress axis : x y z
#
# Youngs Moduli (GPa) = 36.13676 73.23388 23.35787
#
# Poissons Ratio (x) = 0.41319 0.41422
# Poissons Ratio (y) = 0.20389 0.05040
# Poissons Ratio (z) = 0.64084 0.15801
#
# Static dielectric constant tensor:
#      x y z
#    x 1.825980 0.000000 -0.001040 
#    y 0.000000 1.749650 0.000000 
#    z -0.001040 0.000000 1.862550 
# 
# From -- ./inp_files/23723.got.cif
#   From: 2010.05.17/outbox.cif.g08.bks.cpg/sg8_12_cif.got.tgz:23723.got - 2010.06.03 19:46:02.
