data_PCOD9131698
_publ_section_title
;
Structure prediction by ZEFSAII (Michael W. Deem and Ramdas Pophale) SiO2 
 PCOD9131698
Probable space group: C M
;
_chemical_formula_sum "Si O2"
_cell_formula_units_Z 32
_cell_length_a 21.173822
_cell_length_b 8.532653
_cell_length_c 12.599251
_cell_angle_alpha 90.000000
_cell_angle_beta 127.785701
_cell_angle_gamma 90.000000
_cell_volume 1798.972065
_symmetry_space_group_name_H-M "C M"
_symmetry_group_IT_number 8
_symmetry_cell_setting 'monoclinic'
loop_
_space_group_symop_operation_xyz
x,y,z
x,-y,z
1/2+x,1/2+y,z
1/2+x,1/2-y,z
loop_
_atom_site_type_symbol
_atom_site_label
_atom_site_fract_x
_atom_site_fract_y
_atom_site_fract_z
Si Si1 0.930290 0.312045 0.710500
Si Si2 0.746361 0.689502 0.550851
Si Si3 0.331714 0.309903 0.264675
Si Si4 0.215998 0.688201 0.965512
Si Si5 0.187337 0.687724 0.271280
Si Si6 0.487397 0.689890 0.541023
Si Si7 0.669288 0.310602 0.693246
Si Si8 0.078346 0.813450 0.979607
O O1 0.932641 0.500000 0.711400
O O2 0.838855 0.261135 0.634207
O O3 0.961665 0.248602 0.630248
O O4 0.991035 0.250722 0.862142
O O5 0.744141 0.500000 0.544589
O O6 0.696677 0.753711 0.400221
O O7 0.710243 0.740407 0.626177
O O8 0.487073 0.500000 0.542981
O O9 0.267864 0.263975 0.289832
O O10 0.419547 0.256336 0.388160
O O11 0.293192 0.259987 0.113541
O O12 0.212920 0.500000 0.962433
O O13 0.212780 0.749933 0.843274
O O14 0.139181 0.748957 0.952148
O O15 0.182758 0.500000 0.263368
O O16 0.114231 0.756813 0.128457
O O17 0.333300 0.500000 0.265147
O O18 0.576763 0.741103 0.604789
O O19 0.670259 0.500000 0.696715
O O20 0.078410 0.000000 0.974617
#
# Coordination Sequence:
#
# PCOD9131698 Si02
#       8
#     4   4   4   4   4   4   4   4
#     4  11  21  34  54  81 112 144 188 237 273 319
#     4  10  22  38  54  79 116 154 188 224 275 333
#     4   8  16  30  51  79 106 133 173 226 271 316
#     4  10  19  33  53  80 112 144 182 228 275 325
#     4  10  19  34  56  82 111 143 184 229 277 329
#     4  10  18  33  56  80 106 141 186 229 274 326
#     4  10  21  36  55  79 112 152 185 222 275 334
#     4  11  21  34  55  82 111 143 184 231 282 332
#
# _framework density 17.787935000000001
#
# number of rings (size 3 to 8) (size 9 to 14) (size 15 to 20)
#    0.000    2.000    2.500    3.000    0.000    1.000 
#    0.000    1.875    0.000    1.500    0.000    0.000 
#    0.000    0.000    0.000    0.000    0.000    0.000 
#
# Total GULP energy -89298.400100 kJ/mol
# GULP energy per Si atom -5581.150006 kJ/mol
# Density = 1.774745 g / cm^3
# Si number density = 17.787935 Si / 1000 Ang^3
#
#
#
# Elastic Constant Matrix: (Units=GPa)
#
#
# Indices 1 2 3 4 5 6 
#
# 1 105.1234 24.4268 76.1152 0.0000 -8.5212 0.0000
# 2 24.4268 27.3703 25.8517 0.0000 -1.4942 0.0000
# 3 76.1152 25.8517 177.1591 0.0000 -7.0260 0.0000
# 4 0.0000 0.0000 0.0000 30.6535 0.0000 -3.5400
# 5 -8.5212 -1.4942 -7.0260 0.0000 27.7758 0.0000
# 6 0.0000 0.0000 0.0000 -3.5400 0.0000 16.4706
#
#
#
# Elastic Compliance Matrix: (Units=1/GPa)
#
#
# Indices 1 2 3 4 5 6 
#
# 1 0.015648 -0.008773 -0.005325 0.000000 0.002982 0.000000
# 2 -0.008773 0.047310 -0.003172 0.000000 -0.000949 0.000000
# 3 -0.005325 -0.003172 0.008408 0.000000 0.000323 0.000000
# 4 0.000000 0.000000 0.000000 0.033453 0.000000 0.007190
# 5 0.002982 -0.000949 0.000323 0.000000 0.036948 0.000000
# 6 0.000000 0.000000 0.000000 0.007190 0.000000 0.062260
#
#
# Mechanical properties :
#
#
# Convention : Reuss Voigt Hill
#
# Bulk Modulus (GPa) = 27.15448 62.49335 44.82392
# Shear Modulus (GPa) = 19.93287 27.19724 23.56506
#
# Velocity S-wave (km/s) = 3.35114 3.91445 3.64370
# Velocity P-wave (km/s) = 5.50203 7.45917 6.55407
#
# Compressibility (1/GPa) = 0.03682633
#
# Stress axis : x y z
#
# Youngs Moduli (GPa) = 63.90467 21.13727 118.93426
#
# Poissons Ratio (x) = 0.18545 0.63329
# Poissons Ratio (y) = 0.56066 0.37724
# Poissons Ratio (z) = 0.34027 0.06704
#
# Static dielectric constant tensor:
#      x y z
#    x 1.585150 0.000000 0.015230 
#    y 0.000000 1.607150 0.000000 
#    z 0.015230 0.000000 1.616250 
# 
# From -- ./inp_files/23857.got.cif
#   From: 2010.05.17/outbox.cif.g08.bks.cpg/sg8_12_cif.got.tgz:23857.got - 2010.06.03 19:46:02.
