data_PCOD9131632
_publ_section_title
;
Structure prediction by ZEFSAII (Michael W. Deem and Ramdas Pophale) SiO2 
 PCOD9131632
Probable space group: C M
;
_chemical_formula_sum "Si O2"
_cell_formula_units_Z 32
_cell_length_a 21.024264
_cell_length_b 7.530752
_cell_length_c 12.603109
_cell_angle_alpha 90.000000
_cell_angle_beta 126.358802
_cell_angle_gamma 90.000000
_cell_volume 1606.961516
_symmetry_space_group_name_H-M "C M"
_symmetry_group_IT_number 8
_symmetry_cell_setting 'monoclinic'
loop_
_space_group_symop_operation_xyz
x,y,z
x,-y,z
1/2+x,1/2+y,z
1/2+x,1/2-y,z
loop_
_atom_site_type_symbol
_atom_site_label
_atom_site_fract_x
_atom_site_fract_y
_atom_site_fract_z
Si Si1 0.766450 0.783419 0.838650
Si Si2 0.983317 0.782134 0.526952
Si Si3 0.303170 0.714166 0.319621
Si Si4 0.392318 0.704877 0.798203
Si Si5 0.538098 0.714186 0.814904
Si Si6 0.627664 0.292672 0.538503
Si Si7 0.221711 0.711544 0.025552
Si Si8 0.754470 0.289773 0.504574
O O1 0.842939 0.719884 0.848392
O O2 0.689594 0.723305 0.696937
O O3 0.766035 0.000000 0.835661
O O4 0.758976 0.721825 0.952036
O O5 0.013717 0.724755 0.672925
O O6 0.045055 0.718990 0.498884
O O7 0.893787 0.724916 0.419078
O O8 0.984502 0.000000 0.528008
O O9 0.305114 0.500000 0.317020
O O10 0.261033 0.781606 0.171798
O O11 0.258432 0.761205 0.383711
O O12 0.408204 0.500000 0.841472
O O13 0.474127 0.783112 0.836724
O O14 0.330925 0.709126 0.638687
O O15 0.531325 0.500000 0.806820
O O16 0.627989 0.758575 0.929363
O O17 0.613361 0.500000 0.501723
O O18 0.676021 0.219061 0.485891
O O19 0.234657 0.500000 0.037906
O O20 0.759074 0.500000 0.530673
#
# Coordination Sequence:
#
# PCOD9131632 Si02
#       8
#     4   4   4   4   4   4   4   4
#     4   9  17  30  48  73 101 127 162 202 243 290
#     4   9  16  30  52  74  95 127 170 203 236 289
#     4  10  20  36  53  69  99 139 171 198 242 302
#     4   9  17  31  51  74 100 131 165 201 245 295
#     4  10  18  31  53  76  99 130 168 205 242 292
#     4   9  17  30  49  74  99 125 160 204 251 290
#     4  10  21  34  50  74 103 134 165 203 249 294
#     4  10  19  30  48  76 104 127 161 208 252 290
#
# _framework density 19.913357999999999
#
# number of rings (size 3 to 8) (size 9 to 14) (size 15 to 20)
#    0.000    2.500    2.500    0.375    0.000    1.500 
#    0.000    1.875    0.000    4.500    0.000    0.000 
#    0.000    0.000    0.000    0.000    0.000    0.000 
#
# Total GULP energy -89255.708233 kJ/mol
# GULP energy per Si atom -5578.481765 kJ/mol
# Density = 1.986803 g / cm^3
# Si number density = 19.913358 Si / 1000 Ang^3
#
#
#
# Elastic Constant Matrix: (Units=GPa)
#
#
# Indices 1 2 3 4 5 6 
#
# 1 188.9016 -1.3962 90.4880 0.0000 -20.9700 0.0000
# 2 -1.3962 50.5721 -8.4382 0.0000 1.6716 0.0000
# 3 90.4880 -8.4382 124.5679 0.0000 -10.3744 0.0000
# 4 0.0000 0.0000 0.0000 9.3415 0.0000 6.1508
# 5 -20.9700 1.6716 -10.3744 0.0000 25.1142 0.0000
# 6 0.0000 0.0000 0.0000 6.1508 0.0000 5.9353
#
#
#
# Elastic Compliance Matrix: (Units=1/GPa)
#
#
# Indices 1 2 3 4 5 6 
#
# 1 0.008683 -0.000916 -0.005966 0.000000 0.004847 0.000000
# 2 -0.000916 0.020112 0.001919 0.000000 -0.001311 0.000000
# 3 -0.005966 0.001919 0.012496 0.000000 0.000053 0.000000
# 4 0.000000 0.000000 0.000000 0.336999 0.000000 -0.349234
# 5 0.004847 -0.001311 0.000053 0.000000 0.043974 0.000000
# 6 0.000000 0.000000 0.000000 -0.349234 0.000000 0.530397
#
#
# Mechanical properties :
#
#
# Convention : Reuss Voigt Hill
#
# Bulk Modulus (GPa) = 31.88347 58.37207 45.12777
# Shear Modulus (GPa) = 5.13853 26.97074 16.05464
#
# Velocity S-wave (km/s) = 1.60812 3.68422 2.84249
# Velocity P-wave (km/s) = 4.41519 6.89018 5.78656
#
# Compressibility (1/GPa) = 0.03136422
#
# Stress axis : x y z
#
# Youngs Moduli (GPa) = 115.17179 49.72181 80.02785
#
# Poissons Ratio (x) = 0.04554 0.47742
# Poissons Ratio (y) = 0.10548 -0.15353
# Poissons Ratio (z) = 0.68707 -0.09539
#
# Static dielectric constant tensor:
#      x y z
#    x 1.734800 0.000000 -0.015980 
#    y 0.000000 1.810050 0.000000 
#    z -0.015980 0.000000 1.651420 
# 
# From -- ./inp_files/23684.got.cif
#   From: 2010.05.17/outbox.cif.g08.bks.cpg/sg8_12_cif.got.tgz:23684.got - 2010.06.03 19:46:02.
