data_PCOD9131382
_publ_section_title
;
Structure prediction by ZEFSAII (Michael W. Deem and Ramdas Pophale) SiO2 
 PCOD9131382
Probable space group: P C
;
_chemical_formula_sum "Si O2"
_cell_formula_units_Z 10
_cell_length_a 7.084323
_cell_length_b 11.586480
_cell_length_c 5.186825
_cell_angle_alpha 90.000000
_cell_angle_beta 77.767620
_cell_angle_gamma 90.000000
_cell_volume 416.080847
_symmetry_space_group_name_H-M "P C"
_symmetry_group_IT_number 7
_symmetry_cell_setting 'monoclinic'
loop_
_space_group_symop_operation_xyz
x,y,z
x,-y,1/2+z
loop_
_atom_site_type_symbol
_atom_site_label
_atom_site_fract_x
_atom_site_fract_y
_atom_site_fract_z
Si Si1 0.337640 0.570601 0.259940
Si Si2 0.725213 0.281747 0.603666
Si Si3 0.286159 0.130024 0.946712
Si Si4 0.970395 0.719599 0.549179
Si Si5 0.444528 0.129102 0.404630
O O1 0.334147 0.463350 0.459947
O O2 0.543303 0.636478 0.219445
O O3 0.149599 0.638317 0.419850
O O4 0.840535 0.264484 0.833725
O O5 0.638913 0.163909 0.495613
O O6 0.857353 0.328265 0.330613
O O7 0.291071 0.176028 0.653757
O O8 0.070605 0.157264 0.098261
O O9 0.375659 0.002533 0.883513
O O10 0.421562 0.182873 0.129932
#
# Coordination Sequence:
#
# PCOD9131382 Si02
#       5
#     2   2   2   2   2
#     4  12  28  48  76 102 144 188 230 310 372 408
#     4  12  26  45  76 107 142 188 243 292 352 429
#     4  10  21  42  70  98 144 188 227 285 346 421
#     4  12  26  45  76 107 142 188 243 292 352 429
#     4  10  21  42  70  98 144 188 227 285 346 421
#
# _framework density 24.03379
#
# number of rings (size 3 to 8) (size 9 to 14) (size 15 to 20)
#    0.000    0.800    2.000    4.800    2.800    4.800 
#    0.000   24.000    0.000    0.000    0.000    0.000 
#    0.000    0.000    0.000    0.000    0.000    0.000 
#
# Total GULP energy -55688.260553 kJ/mol
# GULP energy per Si atom -5568.826055 kJ/mol
# Density = 2.397909 g / cm^3
# Si number density = 24.033790 Si / 1000 Ang^3
#
#
#
# Elastic Constant Matrix: (Units=GPa)
#
#
# Indices 1 2 3 4 5 6 
#
# 1 141.9384 32.8962 42.9213 0.0000 -2.4555 0.0000
# 2 32.8962 49.1962 12.6972 0.0000 -14.4634 0.0000
# 3 42.9213 12.6972 168.8375 0.0000 -1.5657 0.0000
# 4 0.0000 0.0000 0.0000 29.8220 0.0000 -1.6526
# 5 -2.4555 -14.4634 -1.5657 0.0000 59.3758 0.0000
# 6 0.0000 0.0000 0.0000 -1.6526 0.0000 18.5218
#
#
#
# Elastic Compliance Matrix: (Units=1/GPa)
#
#
# Indices 1 2 3 4 5 6 
#
# 1 0.008933 -0.005820 -0.001843 0.000000 -0.001097 0.000000
# 2 -0.005820 0.026126 -0.000429 0.000000 0.006112 0.000000
# 3 -0.001843 -0.000429 0.006424 0.000000 -0.000011 0.000000
# 4 0.000000 0.000000 0.000000 0.033699 0.000000 0.003007
# 5 -0.001097 0.006112 -0.000011 0.000000 0.018285 0.000000
# 6 0.000000 0.000000 0.000000 0.003007 0.000000 0.054259
#
#
# Mechanical properties :
#
#
# Convention : Reuss Voigt Hill
#
# Bulk Modulus (GPa) = 39.52775 59.66684 49.59730
# Shear Modulus (GPa) = 29.01230 39.64107 34.32668
#
# Velocity S-wave (km/s) = 3.47817 4.06567 3.78334
# Velocity P-wave (km/s) = 5.71075 6.84980 6.30604
#
# Compressibility (1/GPa) = 0.02529868
#
# Stress axis : x y z
#
# Youngs Moduli (GPa) = 111.95031 38.27644 155.67635
#
# Poissons Ratio (x) = 0.22276 0.28696
# Poissons Ratio (y) = 0.65151 0.06672
# Poissons Ratio (z) = 0.20636 0.01641
#
# Static dielectric constant tensor:
#      x y z
#    x 1.922960 0.000000 -0.016580 
#    y 0.000000 2.698360 0.000000 
#    z -0.016580 0.000000 2.004850 
# 
# From -- ./inp_files/73.got.cif
#   From: 2010.05.17/outbox.cif.g08.bks.cpg/sg7_cif.got.tgz:73.got - 2010.06.03 19:44:50.
