data_PCOD9131365
_publ_section_title
;
Structure prediction by ZEFSAII (Michael W. Deem and Ramdas Pophale) SiO2 
 PCOD9131365
Probable space group: P C
;
_chemical_formula_sum "Si O2"
_cell_formula_units_Z 16
_cell_length_a 6.521818
_cell_length_b 17.544573
_cell_length_c 5.388457
_cell_angle_alpha 90.000000
_cell_angle_beta 107.282689
_cell_angle_gamma 90.000000
_cell_volume 588.723438
_symmetry_space_group_name_H-M "P C"
_symmetry_group_IT_number 7
_symmetry_cell_setting 'monoclinic'
loop_
_space_group_symop_operation_xyz
x,y,z
x,-y,1/2+z
loop_
_atom_site_type_symbol
_atom_site_label
_atom_site_fract_x
_atom_site_fract_y
_atom_site_fract_z
Si Si1 0.101290 0.458610 0.011480
Si Si2 0.049605 0.849588 0.469952
Si Si3 0.584757 0.544564 0.359559
Si Si4 0.680365 0.243903 0.302658
Si Si5 0.449906 0.281789 0.729995
Si Si6 0.033787 0.108294 0.458805
Si Si7 0.699440 0.025743 0.843217
Si Si8 0.068657 0.305116 0.245080
O O1 0.150006 0.521232 0.242989
O O2 0.172141 0.377439 0.149518
O O3 0.842705 0.451531 0.929929
O O4 0.037268 0.760279 0.524989
O O5 0.163612 0.883468 0.753545
O O6 0.813122 0.891536 0.375671
O O7 0.155930 0.873689 0.252909
O O8 0.526045 0.511480 0.609543
O O9 0.499799 0.629161 0.284952
O O10 0.585531 0.253459 0.540334
O O11 0.842630 0.172005 0.368298
O O12 0.834844 0.315002 0.283978
O O13 0.511375 0.241960 0.013840
O O14 0.213222 0.277895 0.527042
O O15 0.910363 0.029341 0.425983
O O16 0.582710 0.998092 0.553445
#
# Coordination Sequence:
#
# PCOD9131365 Si02
#       8
#     2   2   2   2   2   2   2   2
#     4  10  23  38  63  88 120 165 209 260 319 374
#     4   9  18  32  55  90 119 153 203 255 294 367
#     4  10  21  40  62  85 121 163 206 263 322 371
#     4  11  24  42  62  94 131 163 211 265 313 371
#     4  12  26  41  65  95 126 169 213 264 319 385
#     4   9  17  31  57  85 118 162 199 244 302 366
#     4   8  14  27  49  85 116 148 205 240 290 366
#     4  11  25  43  67  94 129 167 216 259 325 376
#
# _framework density 27.177447999999998
#
# number of rings (size 3 to 8) (size 9 to 14) (size 15 to 20)
#    0.000    2.000    1.250    2.250    3.500    6.000 
#    0.000    0.000    0.000    0.000    0.000   84.000 
#    0.000    0.000    0.000    0.000    0.000    0.000 
#
# Total GULP energy -89567.763097 kJ/mol
# GULP energy per Si atom -5597.985194 kJ/mol
# Density = 2.711559 g / cm^3
# Si number density = 27.177448 Si / 1000 Ang^3
#
#
#
# Elastic Constant Matrix: (Units=GPa)
#
#
# Indices 1 2 3 4 5 6 
#
# 1 63.8539 8.5875 52.2940 0.0000 -6.8473 0.0000
# 2 8.5875 130.1793 54.2553 0.0000 -2.5649 0.0000
# 3 52.2940 54.2553 234.3492 0.0000 -33.2783 0.0000
# 4 0.0000 0.0000 0.0000 55.5887 0.0000 -3.7701
# 5 -6.8473 -2.5649 -33.2783 0.0000 62.0319 0.0000
# 6 0.0000 0.0000 0.0000 -3.7701 0.0000 27.9601
#
#
#
# Elastic Compliance Matrix: (Units=1/GPa)
#
#
# Indices 1 2 3 4 5 6 
#
# 1 0.019205 0.000585 -0.004456 0.000000 -0.000246 0.000000
# 2 0.000585 0.008553 -0.002221 0.000000 -0.000773 0.000000
# 3 -0.004456 -0.002221 0.006162 0.000000 0.002722 0.000000
# 4 0.000000 0.000000 0.000000 0.018155 0.000000 0.002448
# 5 -0.000246 -0.000773 0.002722 0.000000 0.017522 0.000000
# 6 0.000000 0.000000 0.000000 0.002448 0.000000 0.036095
#
#
# Mechanical properties :
#
#
# Convention : Reuss Voigt Hill
#
# Bulk Modulus (GPa) = 46.00255 73.18401 59.59328
# Shear Modulus (GPa) = 39.96119 49.99917 44.98018
#
# Velocity S-wave (km/s) = 3.83871 4.29386 4.07265
# Velocity P-wave (km/s) = 6.05071 7.18120 6.64006
#
# Compressibility (1/GPa) = 0.02173793
#
# Stress axis : x y z
#
# Youngs Moduli (GPa) = 52.07002 116.91304 162.28143
#
# Poissons Ratio (x) = -0.06844 0.72313
# Poissons Ratio (y) = -0.03048 0.36037
# Poissons Ratio (z) = 0.23202 0.25962
#
# Static dielectric constant tensor:
#      x y z
#    x 2.196900 0.000000 -0.045880 
#    y 0.000000 2.109680 0.000000 
#    z -0.045880 0.000000 2.173200 
# 
# From -- ./inp_files/842.got.cif
#   From: 2010.05.17/outbox.cif.g08.bks.cpg/sg7_cif.got.tgz:842.got - 2010.06.03 19:44:50.
