data_PCOD9131454
_publ_section_title
;
Structure prediction by ZEFSAII (Michael W. Deem and Ramdas Pophale) SiO2 
 PCOD9131454
Probable space group: P C
;
_chemical_formula_sum "Si O2"
_cell_formula_units_Z 14
_cell_length_a 5.078394
_cell_length_b 20.986404
_cell_length_c 5.016631
_cell_angle_alpha 90.000000
_cell_angle_beta 88.099266
_cell_angle_gamma 90.000000
_cell_volume 534.364453
_symmetry_space_group_name_H-M "P C"
_symmetry_group_IT_number 7
_symmetry_cell_setting 'monoclinic'
loop_
_space_group_symop_operation_xyz
x,y,z
x,-y,1/2+z
loop_
_atom_site_type_symbol
_atom_site_label
_atom_site_fract_x
_atom_site_fract_y
_atom_site_fract_z
Si Si1 0.533050 0.117882 0.138730
Si Si2 0.055174 0.858933 0.297586
Si Si3 0.160481 0.543920 0.557777
Si Si4 0.516815 0.636207 0.316351
Si Si5 0.023735 0.347729 0.438199
Si Si6 0.149244 0.957448 0.924945
Si Si7 0.280025 0.245884 0.112227
O O1 0.022971 0.111611 0.505801
O O2 0.453371 0.063549 0.351365
O O3 0.448807 0.188932 0.238944
O O4 0.805721 0.122664 0.981083
O O5 0.315307 0.892530 0.411377
O O6 0.127735 0.786305 0.366742
O O7 0.108372 0.509009 0.282800
O O8 0.454243 0.573432 0.495715
O O9 0.012399 0.605460 0.682462
O O10 0.468033 0.698228 0.500209
O O11 0.282803 0.636670 0.103476
O O12 0.779877 0.642062 0.139380
O O13 0.070844 0.278048 0.314472
O O14 0.073748 0.001546 0.173590
#
# Coordination Sequence:
#
# PCOD9131454 Si02
#       7
#     2   2   2   2   2   2   2
#     4  10  25  45  71 105 139 186 237 289 358 424
#     4  10  25  45  71 105 139 186 237 289 358 424
#     4  11  24  50  74 106 146 195 244 298 354 425
#     4  11  26  44  72 108 145 188 238 296 360 422
#     4  11  26  44  72 108 145 188 238 296 360 422
#     4  12  25  50  72 106 143 190 240 300 354 426
#     4   9  25  42  72 104 145 185 234 294 360 431
#
# _framework density 26.199345000000001
#
# number of rings (size 3 to 8) (size 9 to 14) (size 15 to 20)
#    0.857    0.571    2.857    0.000    6.000    6.857 
#    0.000    0.000    0.000    0.000    0.000    0.000 
#    0.000    0.000    0.000    0.000    0.000    0.000 
#
# Total GULP energy -78234.355337 kJ/mol
# GULP energy per Si atom -5588.168238 kJ/mol
# Density = 2.613971 g / cm^3
# Si number density = 26.199345 Si / 1000 Ang^3
#
#
#
# Elastic Constant Matrix: (Units=GPa)
#
#
# Indices 1 2 3 4 5 6 
#
# 1 100.1718 1.5790 39.8416 0.0000 -27.6824 0.0000
# 2 1.5790 108.7062 42.3203 0.0000 -4.5791 0.0000
# 3 39.8416 42.3203 176.6609 0.0000 -24.1837 0.0000
# 4 0.0000 0.0000 0.0000 66.8962 0.0000 -1.3815
# 5 -27.6824 -4.5791 -24.1837 0.0000 47.0660 0.0000
# 6 0.0000 0.0000 0.0000 -1.3815 0.0000 21.8429
#
#
#
# Elastic Compliance Matrix: (Units=1/GPa)
#
#
# Indices 1 2 3 4 5 6 
#
# 1 0.012603 0.000940 -0.002195 0.000000 0.006376 0.000000
# 2 0.000940 0.010219 -0.002633 0.000000 0.000194 0.000000
# 3 -0.002195 -0.002633 0.007072 0.000000 0.002087 0.000000
# 4 0.000000 0.000000 0.000000 0.014968 0.000000 0.000947
# 5 0.006376 0.000194 0.002087 0.000000 0.026088 0.000000
# 6 0.000000 0.000000 0.000000 0.000947 0.000000 0.045841
#
#
# Mechanical properties :
#
#
# Convention : Reuss Voigt Hill
#
# Bulk Modulus (GPa) = 45.21269 61.44674 53.32971
# Shear Modulus (GPa) = 37.89591 47.28087 42.58839
#
# Velocity S-wave (km/s) = 3.80734 4.25274 4.03619
# Velocity P-wave (km/s) = 6.05165 6.90064 6.49004
#
# Compressibility (1/GPa) = 0.02211768
#
# Stress axis : x y z
#
# Youngs Moduli (GPa) = 79.34617 97.85844 141.40233
#
# Poissons Ratio (x) = -0.09198 0.31032
# Poissons Ratio (y) = -0.07458 0.37237
# Poissons Ratio (z) = 0.17413 0.25770
#
# Static dielectric constant tensor:
#      x y z
#    x 2.120900 0.000000 0.091310 
#    y 0.000000 2.122890 0.000000 
#    z 0.091310 0.000000 2.069270 
# 
# From -- ./inp_files/292.got.cif
#   From: 2010.05.17/outbox.cif.g08.bks.cpg/sg7_cif.got.tgz:292.got - 2010.06.03 19:44:50.
