data_PCOD9131102
_publ_section_title
;
Structure prediction by ZEFSAII (Michael W. Deem and Ramdas Pophale) SiO2 
 PCOD9131102
Probable space group: P M
;
_chemical_formula_sum "Si O2"
_cell_formula_units_Z 11
_cell_length_a 5.273270
_cell_length_b 12.254102
_cell_length_c 7.363655
_cell_angle_alpha 90.000000
_cell_angle_beta 86.703989
_cell_angle_gamma 90.000000
_cell_volume 475.046297
_symmetry_space_group_name_H-M "P M"
_symmetry_group_IT_number 6
_symmetry_cell_setting 'monoclinic'
loop_
_space_group_symop_operation_xyz
x,y,z
x,-y,z
loop_
_atom_site_type_symbol
_atom_site_label
_atom_site_fract_x
_atom_site_fract_y
_atom_site_fract_z
Si Si1 0.421040 0.324933 0.310070
Si Si2 0.926235 0.123245 0.615488
Si Si3 0.421511 0.252834 0.698876
Si Si4 0.064541 0.307316 0.022613
Si Si5 0.756943 0.125232 0.208503
Si Si6 0.750248 0.500000 0.077782
O O1 0.413729 0.333013 0.526383
O O2 0.157587 0.346604 0.218459
O O3 0.511876 0.201541 0.255282
O O4 0.618611 0.405608 0.210969
O O5 0.698780 0.199984 0.694708
O O6 0.898878 0.124719 0.397519
O O7 0.204174 0.163855 0.658192
O O8 0.883356 0.000000 0.679400
O O9 0.315963 0.300947 0.889554
O O10 0.930427 0.191253 0.059251
O O11 0.889291 0.402485 0.954557
O O12 0.700552 0.000000 0.161279
#
# Coordination Sequence:
#
# PCOD9131102 Si02
#       6
#     2   2   2   2   2   1
#     4  10  22  44  63  92 130 171 216 272 326 388
#     4  10  21  41  63  94 136 178 217 261 320 392
#     4  11  24  40  67  96 131 171 218 271 326 388
#     4  11  23  42  65  95 127 168 222 271 326 388
#     4   9  20  38  64  93 132 175 211 260 326 390
#     4  10  24  44  68  90 126 172 220 278 328 386
#
# _framework density 23.155636999999999
#
# number of rings (size 3 to 8) (size 9 to 14) (size 15 to 20)
#    0.000    1.818    1.818    1.091    5.091    3.636 
#    0.000    1.818    0.000    0.000    0.000    0.000 
#    0.000    0.000    0.000    0.000    0.000    0.000 
#
# Total GULP energy -61238.450817 kJ/mol
# GULP energy per Si atom -5567.131892 kJ/mol
# Density = 2.310293 g / cm^3
# Si number density = 23.155637 Si / 1000 Ang^3
#
#
#
# Elastic Constant Matrix: (Units=GPa)
#
#
# Indices 1 2 3 4 5 6 
#
# 1 59.6471 16.4978 18.9143 0.0000 -4.9836 0.0000
# 2 16.4978 137.0057 28.7652 0.0000 -18.4223 0.0000
# 3 18.9143 28.7652 83.0761 0.0000 -10.6194 0.0000
# 4 0.0000 0.0000 0.0000 5.5881 0.0000 -29.1129
# 5 -4.9836 -18.4223 -10.6194 0.0000 41.2239 0.0000
# 6 0.0000 0.0000 0.0000 -29.1129 0.0000 -37.1778
#
#
#
# Elastic Compliance Matrix: (Units=1/GPa)
#
#
# Indices 1 2 3 4 5 6 
#
# 1 0.018345 -0.001358 -0.003620 0.000000 0.000678 0.000000
# 2 -0.001358 0.008325 -0.002191 0.000000 0.002992 0.000000
# 3 -0.003620 -0.002191 0.013896 0.000000 0.002163 0.000000
# 4 0.000000 0.000000 0.000000 0.035229 0.000000 -0.027587
# 5 0.000678 0.002992 0.002163 0.000000 0.026234 0.000000
# 6 0.000000 0.000000 0.000000 -0.027587 0.000000 -0.005295
#
#
# Mechanical properties :
#
#
# Convention : Reuss Voigt Hill
#
# Bulk Modulus (GPa) = 38.12532 45.34263 41.73397
# Shear Modulus (GPa) = 41.73112 16.29696 29.01404
#
# Velocity S-wave (km/s) = 4.24984 2.65580 3.54362
# Velocity P-wave (km/s) = 6.37041 5.38782 5.89960
#
# Compressibility (1/GPa) = 0.02622929
#
# Stress axis : x y z
#
# Youngs Moduli (GPa) = 54.50958 120.12390 71.96098
#
# Poissons Ratio (x) = 0.16311 0.26049
# Poissons Ratio (y) = 0.07402 0.15766
# Poissons Ratio (z) = 0.19732 0.26318
#
# Static dielectric constant tensor:
#      x y z
#    x 1.912600 0.000000 0.030050 
#    y 0.000000 1.844040 0.000000 
#    z 0.030050 0.000000 1.891200 
# 
# From -- ./inp_files/855.got.cif
#   From: 2010.05.17/outbox.cif.g08.bks.cpg/sg6_1_cif.got.tgz:855.got - 2010.06.03 19:42:10.
