data_PCOD9131733
_publ_section_title
;
Structure prediction by ZEFSAII (Michael W. Deem and Ramdas Pophale) SiO2 
 PCOD9131733
Probable space group: C M
;
_chemical_formula_sum "Si O2"
_cell_formula_units_Z 32
_cell_length_a 25.298739
_cell_length_b 7.746148
_cell_length_c 20.846189
_cell_angle_alpha 90.000000
_cell_angle_beta 23.901962
_cell_angle_gamma 90.000000
_cell_volume 1655.204731
_symmetry_space_group_name_H-M "C M"
_symmetry_group_IT_number 8
_symmetry_cell_setting 'monoclinic'
loop_
_space_group_symop_operation_xyz
x,y,z
x,-y,z
1/2+x,1/2+y,z
1/2+x,1/2-y,z
loop_
_atom_site_type_symbol
_atom_site_label
_atom_site_fract_x
_atom_site_fract_y
_atom_site_fract_z
Si Si1 0.208150 0.800178 0.829540
Si Si2 0.457801 0.288929 0.039166
Si Si3 0.842959 0.800815 0.550532
Si Si4 0.411610 0.792254 0.704925
Si Si5 0.890552 0.791847 0.876999
Si Si6 0.134721 0.707910 0.236274
Si Si7 0.593149 0.708176 0.755677
Si Si8 0.667340 0.211278 0.347687
O O1 0.293001 0.797592 0.669646
O O2 0.293405 0.723046 0.792113
O O3 0.184134 0.000000 0.872933
O O4 0.067770 0.724351 0.966314
O O5 0.459582 0.500000 0.038711
O O6 0.309912 0.232755 0.212985
O O7 0.507085 0.240869 0.913309
O O8 0.739523 0.767737 0.608608
O O9 0.991623 0.755908 0.369948
O O10 0.835899 0.000000 0.576141
O O11 0.397116 0.753688 0.795471
O O12 0.548099 0.729368 0.523797
O O13 0.412302 0.000000 0.696368
O O14 0.016299 0.730521 0.778150
O O15 0.889878 0.000000 0.882782
O O16 0.757049 0.729092 0.058776
O O17 0.141757 0.500000 0.229585
O O18 0.147013 0.766413 0.296529
O O19 0.597031 0.500000 0.750168
O O20 0.667513 0.000000 0.347321
#
# Coordination Sequence:
#
# PCOD9131733 Si02
#       8
#     4   4   4   4   4   4   4   4
#     4   9  17  32  53  75 103 143 182 214 256 315
#     4   8  13  25  51  79  96 118 172 229 253 288
#     4  11  21  31  50  82 112 137 170 224 277 310
#     4  10  20  33  51  75 109 147 175 213 265 318
#     4  10  21  36  57  80 105 142 182 222 264 314
#     4  10  18  34  57  79 103 138 185 222 257 315
#     4   9  17  33  55  77 102 137 178 219 264 319
#     4   9  15  28  52  79 100 128 178 223 254 301
#
# _framework density 19.332954999999998
#
# number of rings (size 3 to 8) (size 9 to 14) (size 15 to 20)
#    0.000    2.500    2.500    1.875    0.000    1.500 
#    0.000    1.250    0.000    4.500    0.000    0.000 
#    0.000    0.000    0.000    0.000    0.000    0.000 
#
# Total GULP energy -89241.515018 kJ/mol
# GULP energy per Si atom -5577.594689 kJ/mol
# Density = 1.928895 g / cm^3
# Si number density = 19.332955 Si / 1000 Ang^3
#
#
#
# Elastic Constant Matrix: (Units=GPa)
#
#
# Indices 1 2 3 4 5 6 
#
# 1 177.4481 3.2328 104.0105 0.0002 -26.6910 -0.0002
# 2 3.2328 29.4364 4.2436 -0.0007 -2.6615 0.0004
# 3 104.0105 4.2436 142.8488 -0.0011 -20.8474 0.0007
# 4 0.0002 -0.0007 -0.0011 -7.3248 0.0015 13.4575
# 5 -26.6910 -2.6615 -20.8474 0.0015 33.7560 -0.0006
# 6 -0.0002 0.0004 0.0007 13.4575 -0.0006 13.4248
#
#
#
# Elastic Compliance Matrix: (Units=1/GPa)
#
#
# Indices 1 2 3 4 5 6 
#
# 1 0.010268 0.000219 -0.006919 0.000001 0.003863 0.000000
# 2 0.000219 0.034281 -0.000833 -0.000001 0.002362 0.000001
# 3 -0.006919 -0.000833 0.012370 -0.000001 0.002103 0.000000
# 4 0.000001 -0.000001 -0.000001 -0.048042 0.000003 0.048159
# 5 0.003863 0.002362 0.002103 0.000003 0.034164 -0.000002
# 6 0.000000 0.000001 0.000000 0.048159 -0.000002 0.026213
#
#
# Mechanical properties :
#
#
# Convention : Reuss Voigt Hill
#
# Bulk Modulus (GPa) = 23.89335 63.63412 43.76373
# Shear Modulus (GPa) = 50.87960 23.85429 37.36694
#
# Velocity S-wave (km/s) = 5.13563 3.51645 4.40114
# Velocity P-wave (km/s) = 6.89579 7.03375 6.96511
#
# Compressibility (1/GPa) = 0.04185266
#
# Stress axis : x y z
#
# Youngs Moduli (GPa) = 97.38839 29.17058 80.84077
#
# Poissons Ratio (x) = -0.00639 0.55935
# Poissons Ratio (y) = -0.02134 0.06736
# Poissons Ratio (z) = 0.67384 0.02431
#
# Static dielectric constant tensor:
#      x y z
#    x 1.674590 0.000000 -0.038240 
#    y 0.000000 1.716800 0.000000 
#    z -0.038240 0.000000 1.660300 
# 
# From -- ./inp_files/31326.got.cif
#   From: 2010.05.17/outbox.cif.g08.bks.cpg/sg8_16_cif.got.tgz:31326.got - 2010.06.03 19:46:02.
