data_PCOD9131750
_publ_section_title
;
Structure prediction by ZEFSAII (Michael W. Deem and Ramdas Pophale) SiO2 
 PCOD9131750
Probable space group: C M
;
_chemical_formula_sum "Si O2"
_cell_formula_units_Z 32
_cell_length_a 11.059289
_cell_length_b 15.190095
_cell_length_c 14.309176
_cell_angle_alpha 90.000000
_cell_angle_beta 141.345527
_cell_angle_gamma 90.000000
_cell_volume 1501.480962
_symmetry_space_group_name_H-M "C M"
_symmetry_group_IT_number 8
_symmetry_cell_setting 'monoclinic'
loop_
_space_group_symop_operation_xyz
x,y,z
x,-y,z
1/2+x,1/2+y,z
1/2+x,1/2-y,z
loop_
_atom_site_type_symbol
_atom_site_label
_atom_site_fract_x
_atom_site_fract_y
_atom_site_fract_z
Si Si1 0.295970 0.737890 0.651840
Si Si2 0.383341 0.402805 0.101683
Si Si3 0.165740 0.226048 0.202630
Si Si4 0.311862 0.635608 0.413715
Si Si5 0.516117 0.100244 0.381677
Si Si6 0.146041 0.817431 0.750034
Si Si7 0.602266 0.595734 0.432835
Si Si8 0.041311 0.401073 0.021916
O O1 0.162686 0.656129 0.536141
O O2 0.246548 0.755524 0.730943
O O3 0.520538 0.723302 0.759229
O O4 0.223951 0.822639 0.547005
O O5 0.421283 0.500000 0.085017
O O6 0.464508 0.324533 0.089625
O O7 0.513443 0.395206 0.275464
O O8 0.160076 0.398125 0.996294
O O9 0.258409 0.263689 0.354567
O O10 0.322846 0.158549 0.257767
O O11 0.124788 0.316023 0.124441
O O12 0.120552 0.597269 0.343958
O O13 0.478431 0.633424 0.591306
O O14 0.415993 0.594149 0.388127
O O15 0.481466 0.000000 0.393079
O O16 0.314205 0.883621 0.880093
O O17 0.701811 0.500000 0.498476
O O18 0.076199 0.500000 0.079753
#
# Coordination Sequence:
#
# PCOD9131750 Si02
#       8
#     4   4   4   4   4   4   4   4
#     4  10  21  40  61  95 125 169 203 266 312 378
#     4  10  21  37  60  91 124 162 206 253 307 372
#     4  12  21  40  63  93 125 162 203 257 319 368
#     4  10  20  37  63  91 123 154 208 261 305 364
#     4  11  22  37  63  97 127 161 205 257 319 372
#     4  10  22  39  64  88 128 162 214 246 322 367
#     4  10  18  34  61  93 123 159 208 259 308 367
#     4  11  25  42  63  90 123 167 213 257 308 370
#
# _framework density 21.312291999999999
#
# number of rings (size 3 to 8) (size 9 to 14) (size 15 to 20)
#    0.000    1.500    3.750    3.000    1.750    4.500 
#    0.000    0.000    0.000    1.500    0.000    0.000 
#    0.000    0.000    0.000    0.000    0.000    0.000 
#
# Total GULP energy -89192.691380 kJ/mol
# GULP energy per Si atom -5574.543211 kJ/mol
# Density = 2.126378 g / cm^3
# Si number density = 21.312292 Si / 1000 Ang^3
#
#
#
# Elastic Constant Matrix: (Units=GPa)
#
#
# Indices 1 2 3 4 5 6 
#
# 1 73.7036 39.7112 14.6016 0.0000 26.3857 0.0000
# 2 39.7112 163.0668 39.5244 0.0001 23.8934 -0.0001
# 3 14.6016 39.5244 67.0024 0.0003 34.1767 -0.0001
# 4 0.0000 0.0001 0.0003 22.6441 0.0001 2.3975
# 5 26.3857 23.8934 34.1767 0.0001 31.9538 0.0000
# 6 0.0000 -0.0001 -0.0001 2.3975 0.0000 15.1249
#
#
#
# Elastic Compliance Matrix: (Units=1/GPa)
#
#
# Indices 1 2 3 4 5 6 
#
# 1 0.024470 -0.004624 0.013067 0.000000 -0.030724 0.000000
# 2 -0.004624 0.008079 -0.005775 0.000000 0.003954 0.000000
# 3 0.013067 -0.005775 0.041337 0.000000 -0.050684 0.000000
# 4 0.000000 0.000000 0.000000 0.044915 0.000000 -0.007120
# 5 -0.030724 0.003954 -0.050684 0.000000 0.107919 0.000000
# 6 0.000000 0.000000 0.000000 -0.007120 0.000000 0.067245
#
#
# Mechanical properties :
#
#
# Convention : Reuss Voigt Hill
#
# Bulk Modulus (GPa) = 12.62292 54.60524 33.61408
# Shear Modulus (GPa) = 15.87119 27.94027 21.90573
#
# Velocity S-wave (km/s) = 2.73187 3.62469 3.20948
# Velocity P-wave (km/s) = 3.98579 6.57229 5.43514
#
# Compressibility (1/GPa) = 0.07922096
#
# Stress axis : x y z
#
# Youngs Moduli (GPa) = 40.86670 123.77809 24.19143
#
# Poissons Ratio (x) = 0.57240 -0.31611
# Poissons Ratio (y) = 0.18899 0.13970
# Poissons Ratio (z) = -0.53400 0.71481
#
# Static dielectric constant tensor:
#      x y z
#    x 1.830800 0.000000 -0.033310 
#    y 0.000000 1.832040 0.000000 
#    z -0.033310 0.000000 1.811900 
# 
# From -- ./inp_files/28894.got.cif
#   From: 2010.05.17/outbox.cif.g08.bks.cpg/sg8_15_cif.got.tgz:28894.got - 2010.06.03 19:46:02.
