data_PCOD9131093
_publ_section_title
;
Structure prediction by ZEFSAII (Michael W. Deem and Ramdas Pophale) SiO2 
 PCOD9131093
Probable space group: P M
;
_chemical_formula_sum "Si O2"
_cell_formula_units_Z 12
_cell_length_a 12.263717
_cell_length_b 8.856066
_cell_length_c 9.696397
_cell_angle_alpha 90.000000
_cell_angle_beta 141.761180
_cell_angle_gamma 90.000000
_cell_volume 651.812065
_symmetry_space_group_name_H-M "P M"
_symmetry_group_IT_number 6
_symmetry_cell_setting 'monoclinic'
loop_
_space_group_symop_operation_xyz
x,y,z
x,-y,z
loop_
_atom_site_type_symbol
_atom_site_label
_atom_site_fract_x
_atom_site_fract_y
_atom_site_fract_z
Si Si1 0.560210 0.179717 0.559670
Si Si2 0.144264 0.821487 0.152515
Si Si3 0.557139 0.679853 0.256580
Si Si4 0.177760 0.819919 0.869363
Si Si5 0.848321 0.320631 0.044261
Si Si6 0.848147 0.819373 0.347280
O O1 0.352510 0.203851 0.382243
O O2 0.598792 0.249591 0.447963
O O3 0.591376 0.000000 0.585518
O O4 0.682981 0.254688 0.795435
O O5 0.020962 0.726639 0.129367
O O6 0.108164 0.000000 0.137627
O O7 0.110676 0.786060 0.957841
O O8 0.570588 0.500000 0.275991
O O9 0.689600 0.746813 0.276051
O O10 0.357677 0.730371 0.024765
O O11 0.028272 0.787665 0.609588
O O12 0.217945 0.000000 0.907799
O O13 0.835045 0.500000 0.041626
O O14 0.855486 0.247385 0.202042
O O15 0.825783 0.000000 0.319777
#
# Coordination Sequence:
#
# PCOD9131093 Si02
#       6
#     2   2   2   2   2   2
#     4  10  21  40  64  86 113 153 199 238 278 341
#     4   9  19  38  63  87 111 146 193 240 285 340
#     4  11  22  37  61  91 120 148 186 241 296 340
#     4   9  20  39  63  87 111 148 197 240 281 339
#     4  12  25  38  56  86 122 154 189 240 297 344
#     4  11  23  40  61  83 115 159 200 235 279 344
#
# _framework density 18.410212999999999
#
# number of rings (size 3 to 8) (size 9 to 14) (size 15 to 20)
#    0.000    1.667    0.000    6.000    0.000    7.333 
#    0.000    1.667    0.000    0.000    0.000    0.000 
#    0.000    0.000    0.000    0.000    0.000    0.000 
#
# Total GULP energy -67092.599837 kJ/mol
# GULP energy per Si atom -5591.049986 kJ/mol
# Density = 1.836831 g / cm^3
# Si number density = 18.410213 Si / 1000 Ang^3
#
#
#
# Elastic Constant Matrix: (Units=GPa)
#
#
# Indices 1 2 3 4 5 6 
#
# 1 45.6013 70.3889 147.1063 0.0000 -23.0792 0.0000
# 2 70.3889 122.1304 98.0420 0.0000 -8.2077 0.0000
# 3 147.1063 98.0420 102.6323 0.0000 -15.1241 0.0000
# 4 0.0000 0.0000 0.0000 20.7967 0.0000 2.8680
# 5 -23.0792 -8.2077 -15.1241 0.0000 14.5444 0.0000
# 6 0.0000 0.0000 0.0000 2.8680 0.0000 83.7174
#
#
#
# Elastic Compliance Matrix: (Units=1/GPa)
#
#
# Indices 1 2 3 4 5 6 
#
# 1 -0.002810 -0.007708 0.011920 0.000000 0.003586 0.000000
# 2 -0.007708 0.018365 -0.007995 0.000000 -0.010182 0.000000
# 3 0.011920 -0.007995 0.002856 0.000000 0.017373 0.000000
# 4 0.000000 0.000000 0.000000 0.048313 0.000000 -0.001655
# 5 0.003586 -0.010182 0.017373 0.000000 0.086764 0.000000
# 6 0.000000 0.000000 0.000000 -0.001655 0.000000 0.012002
#
#
# Mechanical properties :
#
#
# Convention : Reuss Voigt Hill
#
# Bulk Modulus (GPa) = 92.22277 100.15983 96.19130
# Shear Modulus (GPa) = 28.30129 20.80016 24.55072
#
# Velocity S-wave (km/s) = 3.92504 3.36492 3.65573
# Velocity P-wave (km/s) = 8.41090 8.34383 8.37744
#
# Compressibility (1/GPa) = 0.01084331
#
# Stress axis : x y z
#
# Youngs Moduli (GPa) = -355.84694 54.45287 350.12134
#
# Poissons Ratio (x) = 0.41973 -4.17337
# Poissons Ratio (y) = -2.74293 2.79928
# Poissons Ratio (z) = 4.24161 0.43536
#
# Static dielectric constant tensor:
#      x y z
#    x 1.602500 0.000000 0.009110 
#    y 0.000000 1.611240 0.000000 
#    z 0.009110 0.000000 1.618500 
# 
# From -- ./inp_files/2494.got.cif
#   From: 2010.05.17/outbox.cif.g08.bks.cpg/sg6_2_cif.got.tgz:2494.got - 2010.06.03 19:42:10.
