data_PCOD9131509
_publ_section_title
;
Structure prediction by ZEFSAII (Michael W. Deem and Ramdas Pophale) SiO2 
 PCOD9131509
Probable space group: C M
;
_chemical_formula_sum "Si O2"
_cell_formula_units_Z 26
_cell_length_a 14.391594
_cell_length_b 10.937033
_cell_length_c 8.566563
_cell_angle_alpha 90.000000
_cell_angle_beta 89.888419
_cell_angle_gamma 90.000000
_cell_volume 1348.385926
_symmetry_space_group_name_H-M "C M"
_symmetry_group_IT_number 8
_symmetry_cell_setting 'monoclinic'
loop_
_space_group_symop_operation_xyz
x,y,z
x,-y,z
1/2+x,1/2+y,z
1/2+x,1/2-y,z
loop_
_atom_site_type_symbol
_atom_site_label
_atom_site_fract_x
_atom_site_fract_y
_atom_site_fract_z
Si Si1 0.095790 0.363735 0.315400
Si Si2 0.422948 0.000000 0.990808
Si Si3 0.758709 0.269007 0.830256
Si Si4 0.603884 0.861440 0.667136
Si Si5 0.913065 0.500000 0.336534
Si Si6 0.472452 0.744613 0.888846
Si Si7 0.306105 0.000000 0.664025
Si Si8 0.126210 0.136986 0.092465
O O1 0.126487 0.500000 0.256388
O O2 0.133579 0.345394 0.489390
O O3 0.120651 0.247392 0.214261
O O4 0.984734 0.385204 0.339884
O O5 0.480350 0.874563 0.981214
O O6 0.368303 0.000000 0.825413
O O7 0.372351 0.000000 0.160217
O O8 0.690266 0.161657 0.779996
O O9 0.755108 0.371374 0.692907
O O10 0.863200 0.225423 0.864409
O O11 0.713385 0.334759 0.979844
O O12 0.523452 0.770588 0.724827
O O13 0.568580 0.000000 0.680347
O O14 0.853128 0.500000 0.493856
O O15 0.533581 0.649596 0.985029
O O16 0.131772 0.000000 0.157071
#
# Coordination Sequence:
#
# PCOD9131509 Si02
#       8
#     4   2   4   4   2   4   2   4
#     4   9  19  37  59  91 115 160 211 252 299 371
#     4  10  16  32  62  92 105 150 211 252 298 344
#     4  10  22  37  58  88 120 161 203 246 321 361
#     4  10  20  37  63  85 116 159 207 259 302 364
#     4  10  18  34  68  90 110 151 222 264 293 352
#     4  10  19  37  61  85 117 157 208 252 296 374
#     4  10  20  38  56  92 125 149 209 272 293 370
#     4  11  22  38  58  88 131 157 195 258 315 372
#
# _framework density 19.282314
#
# number of rings (size 3 to 8) (size 9 to 14) (size 15 to 20)
#    0.462    1.538    3.077    1.846    0.000    1.231 
#    6.923    0.000    0.000    6.462    0.000    0.000 
#    0.000    0.000    0.000    0.000    0.000    0.000 
#
# Total GULP energy -72376.944921 kJ/mol
# GULP energy per Si atom -5567.457302 kJ/mol
# Density = 1.923843 g / cm^3
# Si number density = 19.282314 Si / 1000 Ang^3
#
#
#
# Elastic Constant Matrix: (Units=GPa)
#
#
# Indices 1 2 3 4 5 6 
#
# 1 89.5145 11.7365 14.7549 0.0000 -5.9446 0.0000
# 2 11.7365 93.4624 50.5222 0.0000 -8.3396 0.0000
# 3 14.7549 50.5222 105.3837 0.0000 -17.5759 0.0000
# 4 0.0000 0.0000 0.0000 32.2534 0.0000 0.5883
# 5 -5.9446 -8.3396 -17.5759 0.0000 28.8379 0.0000
# 6 0.0000 0.0000 0.0000 0.5883 0.0000 18.2792
#
#
#
# Elastic Compliance Matrix: (Units=1/GPa)
#
#
# Indices 1 2 3 4 5 6 
#
# 1 0.011539 -0.000779 -0.000983 0.000000 0.001554 0.000000
# 2 -0.000779 0.014495 -0.006865 0.000000 -0.000153 0.000000
# 3 -0.000983 -0.006865 0.013974 0.000000 0.006329 0.000000
# 4 0.000000 0.000000 0.000000 0.031023 0.000000 -0.000998
# 5 0.001554 -0.000153 0.006329 0.000000 0.038810 0.000000
# 6 0.000000 0.000000 0.000000 -0.000998 0.000000 0.054739
#
#
# Mechanical properties :
#
#
# Convention : Reuss Voigt Hill
#
# Bulk Modulus (GPa) = 43.95115 49.15419 46.55267
# Shear Modulus (GPa) = 26.39670 29.96390 28.18030
#
# Velocity S-wave (km/s) = 3.70396 3.94630 3.82705
# Velocity P-wave (km/s) = 6.41369 6.80526 6.61238
#
# Compressibility (1/GPa) = 0.02275253
#
# Stress axis : x y z
#
# Youngs Moduli (GPa) = 86.66459 68.98999 71.56353
#
# Poissons Ratio (x) = 0.05374 0.07034
# Poissons Ratio (y) = 0.06751 0.49132
# Poissons Ratio (z) = 0.08518 0.47365
#
# Static dielectric constant tensor:
#      x y z
#    x 1.704820 0.000000 0.013030 
#    y 0.000000 1.708050 0.000000 
#    z 0.013030 0.000000 1.702540 
# 
# From -- ./inp_files/12481.got.cif
#   From: 2010.05.17/outbox.cif.g08.bks.cpg/sg8_7_cif.got.tgz:12481.got - 2010.06.03 19:46:02.
