data_PCOD9131679
_publ_section_title
;
Structure prediction by ZEFSAII (Michael W. Deem and Ramdas Pophale) SiO2 
 PCOD9131679
Probable space group: C M
;
_chemical_formula_sum "Si O2"
_cell_formula_units_Z 32
_cell_length_a 9.285831
_cell_length_b 19.069781
_cell_length_c 11.227616
_cell_angle_alpha 90.000000
_cell_angle_beta 54.152348
_cell_angle_gamma 90.000000
_cell_volume 1611.566863
_symmetry_space_group_name_H-M "C M"
_symmetry_group_IT_number 8
_symmetry_cell_setting 'monoclinic'
loop_
_space_group_symop_operation_xyz
x,y,z
x,-y,z
1/2+x,1/2+y,z
1/2+x,1/2-y,z
loop_
_atom_site_type_symbol
_atom_site_label
_atom_site_fract_x
_atom_site_fract_y
_atom_site_fract_z
Si Si1 0.345840 0.790544 0.120290
Si Si2 0.309145 0.422075 0.150093
Si Si3 0.128335 0.813891 0.996818
Si Si4 0.679490 0.778444 0.438291
Si Si5 0.448841 0.916743 0.216377
Si Si6 0.228363 0.575212 0.462995
Si Si7 0.324618 0.079461 0.743281
Si Si8 0.308135 0.156185 0.521177
O O1 0.278819 0.750388 0.272115
O O2 0.375297 0.870627 0.144776
O O3 0.202037 0.788405 0.086913
O O4 0.526971 0.752755 0.990054
O O5 0.366350 0.500000 0.088913
O O6 0.217891 0.427324 0.324169
O O7 0.156889 0.398663 0.133608
O O8 0.473306 0.371463 0.080830
O O9 0.279103 0.857503 0.854918
O O10 0.788193 0.843877 0.445732
O O11 0.486314 0.805425 0.487503
O O12 0.678041 0.716189 0.534834
O O13 0.357863 0.890341 0.382225
O O14 0.430439 0.000000 0.211565
O O15 0.318261 0.500000 0.453191
O O16 0.035543 0.574737 0.616696
O O17 0.241361 0.105786 0.658483
O O18 0.268492 0.000000 0.803232
#
# Coordination Sequence:
#
# PCOD9131679 Si02
#       8
#     4   4   4   4   4   4   4   4
#     4  11  23  36  56  82 123 151 191 240 288 342
#     4  10  18  33  59  85 110 145 193 234 280 338
#     4  12  23  37  55  85 119 153 190 234 291 342
#     4  10  18  32  55  82 108 143 184 237 277 325
#     4  10  19  35  60  86 112 150 194 241 289 336
#     4   9  17  33  58  83 108 145 190 232 278 333
#     4  10  21  37  58  83 114 149 189 235 283 347
#     4  10  19  33  57  82 110 144 189 231 280 335
#
# _framework density 19.856449999999999
#
# number of rings (size 3 to 8) (size 9 to 14) (size 15 to 20)
#    0.000    1.750    3.750    3.000    0.000    3.000 
#    0.000    0.000    0.000    0.750    0.000    3.500 
#    0.000    0.000    0.000    0.000    0.000    0.000 
#
# Total GULP energy -89087.346125 kJ/mol
# GULP energy per Si atom -5567.959133 kJ/mol
# Density = 1.981126 g / cm^3
# Si number density = 19.856450 Si / 1000 Ang^3
#
#
#
# Elastic Constant Matrix: (Units=GPa)
#
#
# Indices 1 2 3 4 5 6 
#
# 1 45.7856 21.9718 -10.0999 0.0000 -0.2638 0.0000
# 2 21.9718 109.1153 4.2251 0.0000 4.3476 0.0000
# 3 -10.0999 4.2251 28.0841 0.0000 -1.6635 0.0000
# 4 0.0000 0.0000 0.0000 -2.9630 0.0000 0.2206
# 5 -0.2638 4.3476 -1.6635 0.0000 11.8600 0.0000
# 6 0.0000 0.0000 0.0000 0.2206 0.0000 31.7012
#
#
#
# Elastic Compliance Matrix: (Units=1/GPa)
#
#
# Indices 1 2 3 4 5 6 
#
# 1 0.027198 -0.006075 0.010954 0.000000 0.004368 0.000000
# 2 -0.006075 0.010730 -0.004074 0.000000 -0.004640 0.000000
# 3 0.010954 -0.004074 0.040600 0.000000 0.007431 0.000000
# 4 0.000000 0.000000 0.000000 -0.337320 0.000000 0.002347
# 5 0.004368 -0.004640 0.007431 0.000000 0.087157 0.000000
# 6 0.000000 0.000000 0.000000 0.002347 0.000000 0.031528
#
#
# Mechanical properties :
#
#
# Convention : Reuss Voigt Hill
#
# Bulk Modulus (GPa) = 12.47848 23.90877 18.19362
# Shear Modulus (GPa) = -43.47680 19.24551 -12.11565
#
# Velocity S-wave (km/s) = -4.68434 3.11663 -2.47282
# Velocity P-wave (km/s) = 4.79160 5.00181 1.01455
#
# Compressibility (1/GPa) = 0.08013797
#
# Stress axis : x y z
#
# Youngs Moduli (GPa) = 36.76803 93.19250 24.63070
#
# Poissons Ratio (x) = 0.56612 -0.26980
# Poissons Ratio (y) = 0.22336 0.10034
# Poissons Ratio (z) = -0.40275 0.37965
#
# Static dielectric constant tensor:
#      x y z
#    x 1.667990 0.000000 -0.023880 
#    y 0.000000 1.797120 0.000000 
#    z -0.023880 0.000000 1.730610 
# 
# From -- ./inp_files/19264.got.cif
#   From: 2010.05.17/outbox.cif.g08.bks.cpg/sg8_10_cif.got.tgz:19264.got - 2010.06.03 19:46:02.
