data_PCOD9131327
_publ_section_title
;
Structure prediction by ZEFSAII (Michael W. Deem and Ramdas Pophale) SiO2 
 PCOD9131327
Probable space group: P C
;
_chemical_formula_sum "Si O2"
_cell_formula_units_Z 16
_cell_length_a 6.760287
_cell_length_b 17.887274
_cell_length_c 5.486505
_cell_angle_alpha 90.000000
_cell_angle_beta 72.063118
_cell_angle_gamma 90.000000
_cell_volume 631.199371
_symmetry_space_group_name_H-M "P C"
_symmetry_group_IT_number 7
_symmetry_cell_setting 'monoclinic'
loop_
_space_group_symop_operation_xyz
x,y,z
x,-y,1/2+z
loop_
_atom_site_type_symbol
_atom_site_label
_atom_site_fract_x
_atom_site_fract_y
_atom_site_fract_z
Si Si1 0.146550 0.483438 0.952820
Si Si2 0.795690 0.309294 0.554506
Si Si3 0.259026 0.726626 0.702396
Si Si4 0.675332 0.141605 0.643163
Si Si5 0.466526 0.381195 0.349788
Si Si6 0.447985 0.114603 0.236491
Si Si7 0.025491 0.960889 0.875679
Si Si8 0.130039 0.681931 0.299795
O O1 0.031409 0.505473 0.749468
O O2 0.183810 0.397037 0.905205
O O3 0.351673 0.538188 0.879646
O O4 0.679687 0.230941 0.610718
O O5 0.654028 0.369552 0.462920
O O6 0.008961 0.298393 0.319080
O O7 0.899860 0.323636 0.780062
O O8 0.336521 0.804424 0.781135
O O9 0.217313 0.747475 0.426413
O O10 0.460923 0.665674 0.603125
O O11 0.555648 0.106861 0.458062
O O12 0.910022 0.113915 0.508665
O O13 0.593444 0.117473 0.940121
O O14 0.279099 0.324376 0.506126
O O15 0.270730 0.052978 0.279066
O O16 0.968127 0.016935 0.120024
#
# Coordination Sequence:
#
# PCOD9131327 Si02
#       8
#     2   2   2   2   2   2   2   2
#     4  10  20  41  66  89 134 188 233 292 374 443
#     4  11  24  41  69 107 140 187 255 314 380 439
#     4  11  22  41  69  99 144 184 244 304 380 434
#     4  12  27  47  76 113 152 197 256 313 374 450
#     4  10  21  42  64  96 134 187 238 304 372 449
#     4  12  27  46  77 110 152 200 247 307 382 447
#     4  12  28  51  78 111 156 203 250 307 371 453
#     4  10  23  39  67  95 140 190 237 311 375 447
#
# _framework density 25.348566000000002
#
# number of rings (size 3 to 8) (size 9 to 14) (size 15 to 20)
#    0.000    1.000    3.750    2.250    3.500    5.000 
#    0.000    7.500    0.000    0.000    0.000    0.000 
#    0.000    0.000    0.000    0.000    0.000    0.000 
#
# Total GULP energy -89133.148709 kJ/mol
# GULP energy per Si atom -5570.821794 kJ/mol
# Density = 2.529087 g / cm^3
# Si number density = 25.348566 Si / 1000 Ang^3
#
#
#
# Elastic Constant Matrix: (Units=GPa)
#
#
# Indices 1 2 3 4 5 6 
#
# 1 113.4720 3.7047 37.2975 0.0000 3.4749 0.0000
# 2 3.7047 47.3711 20.7676 0.0000 -8.5907 0.0000
# 3 37.2975 20.7676 129.9927 0.0000 14.6044 0.0000
# 4 0.0000 0.0000 0.0000 29.2839 0.0000 4.2026
# 5 3.4749 -8.5907 14.6044 0.0000 46.3118 0.0000
# 6 0.0000 0.0000 0.0000 4.2026 0.0000 43.5069
#
#
#
# Elastic Compliance Matrix: (Units=1/GPa)
#
#
# Indices 1 2 3 4 5 6 
#
# 1 0.009745 0.000572 -0.002921 0.000000 0.000296 0.000000
# 2 0.000572 0.024199 -0.004696 0.000000 0.005927 0.000000
# 3 -0.002921 -0.004696 0.009698 0.000000 -0.003710 0.000000
# 4 0.000000 0.000000 0.000000 0.034629 0.000000 -0.003345
# 5 0.000296 0.005927 -0.003710 0.000000 0.023840 0.000000
# 6 0.000000 0.000000 0.000000 -0.003345 0.000000 0.023308
#
#
# Mechanical properties :
#
#
# Convention : Reuss Voigt Hill
#
# Bulk Modulus (GPa) = 33.83839 46.04171 39.94005
# Shear Modulus (GPa) = 33.47664 39.09159 36.28411
#
# Velocity S-wave (km/s) = 3.63802 3.93130 3.78750
# Velocity P-wave (km/s) = 5.57002 6.22974 5.90909
#
# Compressibility (1/GPa) = 0.02955223
#
# Stress axis : x y z
#
# Youngs Moduli (GPa) = 102.61659 41.32458 103.11635
#
# Poissons Ratio (x) = -0.02364 0.30117
# Poissons Ratio (y) = -0.05870 0.48423
# Poissons Ratio (z) = 0.29971 0.19406
#
# Static dielectric constant tensor:
#      x y z
#    x 1.971980 0.000000 0.034910 
#    y 0.000000 1.991930 0.000000 
#    z 0.034910 0.000000 2.531750 
# 
# From -- ./inp_files/394.got.cif
#   From: 2010.05.17/outbox.cif.g08.bks.cpg/sg7_cif.got.tgz:394.got - 2010.06.03 19:44:50.
