data_PCOD9131787
_publ_section_title
;
Structure prediction by ZEFSAII (Michael W. Deem and Ramdas Pophale) SiO2 
 PCOD9131787
Probable space group: C M
;
_chemical_formula_sum "Si O2"
_cell_formula_units_Z 32
_cell_length_a 10.420841
_cell_length_b 25.428833
_cell_length_c 10.540780
_cell_angle_alpha 90.000000
_cell_angle_beta 141.815598
_cell_angle_gamma 90.000000
_cell_volume 1726.740354
_symmetry_space_group_name_H-M "C M"
_symmetry_group_IT_number 8
_symmetry_cell_setting 'monoclinic'
loop_
_space_group_symop_operation_xyz
x,y,z
x,-y,z
1/2+x,1/2+y,z
1/2+x,1/2-y,z
loop_
_atom_site_type_symbol
_atom_site_label
_atom_site_fract_x
_atom_site_fract_y
_atom_site_fract_z
Si Si1 0.069640 0.679111 0.228010
Si Si2 0.171787 0.330977 0.012770
Si Si3 0.877464 0.392213 0.435954
Si Si4 0.618356 0.297128 0.266004
Si Si5 0.611360 0.941358 0.826916
Si Si6 0.032495 0.059618 0.985934
Si Si7 0.606685 0.712570 0.950359
Si Si8 0.300812 0.627731 0.618864
O O1 0.104596 0.669816 0.107011
O O2 0.153510 0.737066 0.331453
O O3 0.203464 0.635015 0.404548
O O4 0.825900 0.686332 0.075802
O O5 0.416694 0.322025 0.176154
O O6 0.091678 0.273962 0.900851
O O7 0.109308 0.387403 0.906261
O O8 0.800395 0.337596 0.434251
O O9 0.711150 0.410250 0.201845
O O10 0.924503 0.434808 0.580486
O O11 0.095815 0.380575 0.541767
O O12 0.592184 0.293416 0.092124
O O13 0.599578 0.000000 0.877731
O O14 0.828680 0.939699 0.917801
O O15 0.100044 0.000000 0.020100
O O16 0.961550 0.084144 0.796304
O O17 0.418965 0.680763 0.745845
#
# Coordination Sequence:
#
# PCOD9131787 Si02
#       8
#     4   4   4   4   4   4   4   4
#     4  10  22  36  55  83 126 155 190 235 292 355
#     4  10  21  39  57  86 121 158 196 235 294 352
#     4  11  19  35  62  87 115 148 193 246 296 336
#     4  10  18  37  57  84 116 152 193 242 290 344
#     4  10  21  36  57  87 117 153 201 244 292 343
#     4  10  20  36  60  89 118 149 198 253 291 336
#     4  10  20  39  57  84 121 156 194 243 289 349
#     4  11  20  36  59  86 118 155 190 238 292 349
#
# _framework density 18.532026999999999
#
# number of rings (size 3 to 8) (size 9 to 14) (size 15 to 20)
#    0.000    1.750    3.750    1.125    1.750    0.500 
#    2.250    0.625    0.000    0.750    0.000    0.000 
#    0.000    0.000    0.000    0.000    0.000    0.000 
#
# Total GULP energy -89075.062199 kJ/mol
# GULP energy per Si atom -5567.191387 kJ/mol
# Density = 1.848985 g / cm^3
# Si number density = 18.532027 Si / 1000 Ang^3
#
#
#
# Elastic Constant Matrix: (Units=GPa)
#
#
# Indices 1 2 3 4 5 6 
#
# 1 66.8626 16.3541 21.5565 0.0000 -7.5714 0.0000
# 2 16.3541 123.9701 41.8069 0.0000 -5.8158 0.0000
# 3 21.5565 41.8069 77.3197 0.0000 2.6858 0.0000
# 4 0.0000 0.0000 0.0000 24.7441 0.0000 -0.9524
# 5 -7.5714 -5.8158 2.6858 0.0000 10.5382 0.0000
# 6 0.0000 0.0000 0.0000 -0.9524 0.0000 20.1888
#
#
#
# Elastic Compliance Matrix: (Units=1/GPa)
#
#
# Indices 1 2 3 4 5 6 
#
# 1 0.018446 0.000209 -0.005771 0.000000 0.014839 0.000000
# 2 0.000209 0.010386 -0.005931 0.000000 0.007393 0.000000
# 3 -0.005771 -0.005931 0.018168 0.000000 -0.012050 0.000000
# 4 0.000000 0.000000 0.000000 0.040487 0.000000 0.001910
# 5 0.014839 0.007393 -0.012050 0.000000 0.112705 0.000000
# 6 0.000000 0.000000 0.000000 0.001910 0.000000 0.049623
#
#
# Mechanical properties :
#
#
# Convention : Reuss Voigt Hill
#
# Bulk Modulus (GPa) = 41.64307 47.50971 44.57639
# Shear Modulus (GPa) = 17.80599 23.65656 20.73127
#
# Velocity S-wave (km/s) = 3.10308 3.57672 3.34829
# Velocity P-wave (km/s) = 5.94630 6.53831 6.24932
#
# Compressibility (1/GPa) = 0.02401360
#
# Stress axis : x y z
#
# Youngs Moduli (GPa) = 54.21265 96.28565 55.04307
#
# Poissons Ratio (x) = -0.02012 0.31766
# Poissons Ratio (y) = -0.01133 0.32644
# Poissons Ratio (z) = 0.31287 0.57104
#
# Static dielectric constant tensor:
#      x y z
#    x 1.638280 0.000000 -0.019020 
#    y 0.000000 1.681120 0.000000 
#    z -0.019020 0.000000 1.657620 
# 
# From -- ./inp_files/20929.got.cif
#   From: 2010.05.17/outbox.cif.g08.bks.cpg/sg8_11_cif.got.tgz:20929.got - 2010.06.03 19:46:02.
