data_PCOD9131631
_publ_section_title
;
Structure prediction by ZEFSAII (Michael W. Deem and Ramdas Pophale) SiO2 
 PCOD9131631
Probable space group: C M
;
_chemical_formula_sum "Si O2"
_cell_formula_units_Z 32
_cell_length_a 25.037062
_cell_length_b 8.965070
_cell_length_c 19.160443
_cell_angle_alpha 90.000000
_cell_angle_beta 153.110179
_cell_angle_gamma 90.000000
_cell_volume 1945.119983
_symmetry_space_group_name_H-M "C M"
_symmetry_group_IT_number 8
_symmetry_cell_setting 'monoclinic'
loop_
_space_group_symop_operation_xyz
x,y,z
x,-y,z
1/2+x,1/2+y,z
1/2+x,1/2-y,z
loop_
_atom_site_type_symbol
_atom_site_label
_atom_site_fract_x
_atom_site_fract_y
_atom_site_fract_z
Si Si1 0.933620 0.675335 0.743210
Si Si2 0.711644 0.321587 0.386965
Si Si3 0.400998 0.677550 0.246920
Si Si4 0.174423 0.822187 0.053910
Si Si5 0.541395 0.828999 0.296240
Si Si6 0.630073 0.830876 0.550119
Si Si7 0.133809 0.679391 0.157498
Si Si8 0.867594 0.325417 0.828900
O O1 0.965159 0.500000 0.772033
O O2 0.831207 0.711970 0.569117
O O3 0.884864 0.691202 0.765382
O O4 0.050871 0.773424 0.874808
O O5 0.701837 0.500000 0.369235
O O6 0.602987 0.257657 0.305749
O O7 0.707672 0.243714 0.307490
O O8 0.393455 0.500000 0.236270
O O9 0.283950 0.751802 0.140411
O O10 0.433409 0.743984 0.208119
O O11 0.514028 0.729565 0.425636
O O12 0.170237 0.752374 0.126740
O O13 0.184454 0.000000 0.068931
O O14 0.632954 0.834076 0.468422
O O15 0.512682 0.000000 0.244205
O O16 0.753759 0.766488 0.719698
O O17 0.609490 0.000000 0.549860
O O18 0.141865 0.500000 0.161651
O O19 0.994962 0.717092 0.008190
O O20 0.846287 0.500000 0.817894
#
# Coordination Sequence:
#
# PCOD9131631 Si02
#       8
#     4   4   4   4   4   4   4   4
#     4   9  18  31  49  72 100 132 168 209 252 298
#     4  11  20  33  53  78 106 137 171 207 254 308
#     4  10  18  31  51  74 101 132 168 210 254 298
#     4  11  21  34  52  76 102 132 174 215 252 299
#     4   9  18  30  48  76 103 129 163 206 250 294
#     4   9  17  27  46  75 101 125 160 206 248 291
#     4  10  22  36  50  72 107 142 171 207 254 305
#     4   9  16  30  49  71 100 133 167 206 252 299
#
# _framework density 16.451426999999999
#
# number of rings (size 3 to 8) (size 9 to 14) (size 15 to 20)
#    0.750    1.500    1.250    4.125    0.000    3.500 
#    0.000    0.000    0.000    1.500    0.000    0.000 
#    0.000    0.000    0.000    0.000    0.000    0.000 
#
# Total GULP energy -89094.428695 kJ/mol
# GULP energy per Si atom -5568.401793 kJ/mol
# Density = 1.641398 g / cm^3
# Si number density = 16.451427 Si / 1000 Ang^3
#
#
#
# Elastic Constant Matrix: (Units=GPa)
#
#
# Indices 1 2 3 4 5 6 
#
# 1 71.9669 51.7358 39.2233 0.0000 15.5977 0.0000
# 2 51.7358 121.3406 53.1883 0.0000 16.2804 0.0000
# 3 39.2233 53.1883 73.1549 0.0000 0.4616 0.0000
# 4 0.0000 0.0000 0.0000 18.8727 0.0000 0.8672
# 5 15.5977 16.2804 0.4616 0.0000 26.0435 0.0000
# 6 0.0000 0.0000 0.0000 0.8672 0.0000 25.0809
#
#
#
# Elastic Compliance Matrix: (Units=1/GPa)
#
#
# Indices 1 2 3 4 5 6 
#
# 1 0.025466 -0.004827 -0.010068 0.000000 -0.012056 0.000000
# 2 -0.004827 0.014631 -0.008011 0.000000 -0.006113 0.000000
# 3 -0.010068 -0.008011 0.024826 0.000000 0.010598 0.000000
# 4 0.000000 0.000000 0.000000 0.053071 0.000000 -0.001835
# 5 -0.012056 -0.006113 0.010598 0.000000 0.049252 0.000000
# 6 0.000000 0.000000 0.000000 -0.001835 0.000000 0.039934
#
#
# Mechanical properties :
#
#
# Convention : Reuss Voigt Hill
#
# Bulk Modulus (GPa) = 52.32949 61.63968 56.98458
# Shear Modulus (GPa) = 19.27809 22.15376 20.71592
#
# Velocity S-wave (km/s) = 3.42690 3.67361 3.55239
# Velocity P-wave (km/s) = 6.89461 7.45271 7.17909
#
# Compressibility (1/GPa) = 0.01910968
#
# Stress axis : x y z
#
# Youngs Moduli (GPa) = 39.26873 68.34728 40.28077
#
# Poissons Ratio (x) = 0.32990 0.40556
# Poissons Ratio (y) = 0.18954 0.32270
# Poissons Ratio (z) = 0.39537 0.54755
#
# Static dielectric constant tensor:
#      x y z
#    x 1.533540 0.000000 -0.000980 
#    y 0.000000 1.552970 0.000000 
#    z -0.000980 0.000000 1.557320 
# 
# From -- ./inp_files/30050.got.cif
#   From: 2010.05.17/outbox.cif.g08.bks.cpg/sg8_16_cif.got.tgz:30050.got - 2010.06.03 19:46:02.
