data_PCOD9131371
_publ_section_title
;
Structure prediction by ZEFSAII (Michael W. Deem and Ramdas Pophale) SiO2 
 PCOD9131371
Probable space group: P C
;
_chemical_formula_sum "Si O2"
_cell_formula_units_Z 16
_cell_length_a 7.313627
_cell_length_b 19.988908
_cell_length_c 4.944753
_cell_angle_alpha 90.000000
_cell_angle_beta 69.288873
_cell_angle_gamma 90.000000
_cell_volume 676.164566
_symmetry_space_group_name_H-M "P C"
_symmetry_group_IT_number 7
_symmetry_cell_setting 'monoclinic'
loop_
_space_group_symop_operation_xyz
x,y,z
x,-y,1/2+z
loop_
_atom_site_type_symbol
_atom_site_label
_atom_site_fract_x
_atom_site_fract_y
_atom_site_fract_z
Si Si1 0.188320 0.849701 0.451610
Si Si2 0.666394 0.541500 0.223854
Si Si3 0.379619 0.652811 0.576616
Si Si4 0.435433 0.738302 0.062014
Si Si5 0.419825 0.040818 0.158609
Si Si6 0.131088 0.457874 0.501314
Si Si7 0.812796 0.802981 0.858209
Si Si8 0.804624 0.111468 0.881790
O O1 0.331167 0.808925 0.180358
O O2 0.307617 0.895569 0.595491
O O3 0.044021 0.796635 0.682720
O O4 0.025745 0.893945 0.375713
O O5 0.617128 0.478176 0.442775
O O6 0.558627 0.604574 0.403997
O O7 0.898332 0.551034 0.116563
O O8 0.328581 0.686458 0.317983
O O9 0.426434 0.711346 0.764445
O O10 0.227608 0.605715 0.812189
O O11 0.665324 0.745333 0.022805
O O12 0.652073 0.053041 0.006389
O O13 0.372307 0.978545 0.987902
O O14 0.182394 0.520995 0.279277
O O15 0.729227 0.828710 0.615861
O O16 0.800298 0.862951 0.079849
#
# Coordination Sequence:
#
# PCOD9131371 Si02
#       8
#     2   2   2   2   2   2   2   2
#     4  10  28  45  75  93 140 184 227 263 360 403
#     4  10  21  40  65  89 130 182 219 274 343 400
#     4  12  25  38  64 102 133 168 232 285 333 393
#     4  12  26  42  68  98 137 179 225 284 335 402
#     4  12  27  44  73 108 138 168 226 290 336 410
#     4  10  21  40  65  90 132 178 222 275 338 401
#     4  10  23  44  72  92 129 185 226 262 333 417
#     4  10  23  45  72  94 133 178 223 269 332 414
#
# _framework density 23.662877000000002
#
# number of rings (size 3 to 8) (size 9 to 14) (size 15 to 20)
#    0.750    0.500    1.250    3.750    3.500    3.000 
#    0.000    0.000    0.000    0.000    0.000    0.000 
#    0.000    0.000    0.000    0.000    0.000    0.000 
#
# Total GULP energy -89400.311739 kJ/mol
# GULP energy per Si atom -5587.519484 kJ/mol
# Density = 2.360902 g / cm^3
# Si number density = 23.662877 Si / 1000 Ang^3
#
#
#
# Elastic Constant Matrix: (Units=GPa)
#
#
# Indices 1 2 3 4 5 6 
#
# 1 81.8893 28.7009 26.1623 0.0000 -22.9921 0.0000
# 2 28.7009 62.7044 22.6370 0.0000 -11.2857 0.0000
# 3 26.1623 22.6370 111.1420 0.0000 -11.5023 0.0000
# 4 0.0000 0.0000 0.0000 37.6474 0.0000 11.7336
# 5 -22.9921 -11.2857 -11.5023 0.0000 45.1710 0.0000
# 6 0.0000 0.0000 0.0000 11.7336 0.0000 11.6704
#
#
#
# Elastic Compliance Matrix: (Units=1/GPa)
#
#
# Indices 1 2 3 4 5 6 
#
# 1 0.016725 -0.005720 -0.002094 0.000000 0.006550 0.000000
# 2 -0.005720 0.019726 -0.002529 0.000000 0.001373 0.000000
# 3 -0.002094 -0.002529 0.010096 0.000000 0.000873 0.000000
# 4 0.000000 0.000000 0.000000 0.038684 0.000000 -0.038894
# 5 0.006550 0.001373 0.000873 0.000000 0.026038 0.000000
# 6 0.000000 0.000000 0.000000 -0.038894 0.000000 0.124792
#
#
# Mechanical properties :
#
#
# Convention : Reuss Voigt Hill
#
# Bulk Modulus (GPa) = 38.66961 45.63734 42.15348
# Shear Modulus (GPa) = 18.84183 30.78013 24.81098
#
# Velocity S-wave (km/s) = 2.82487 3.61054 3.24160
# Velocity P-wave (km/s) = 5.19781 6.05885 5.64477
#
# Compressibility (1/GPa) = 0.02586010
#
# Stress axis : x y z
#
# Youngs Moduli (GPa) = 59.79212 50.69390 99.05030
#
# Poissons Ratio (x) = 0.28998 0.20740
# Poissons Ratio (y) = 0.34203 0.25052
# Poissons Ratio (z) = 0.12520 0.12821
#
# Static dielectric constant tensor:
#      x y z
#    x 1.885940 0.000000 -0.027670 
#    y 0.000000 1.922430 0.000000 
#    z -0.027670 0.000000 1.874170 
# 
# From -- ./inp_files/920.got.cif
#   From: 2010.05.17/outbox.cif.g08.bks.cpg/sg7_cif.got.tgz:920.got - 2010.06.03 19:44:50.
