data_PCOD9131992
_publ_section_title
;
Structure prediction by ZEFSAII (Michael W. Deem and Ramdas Pophale) SiO2 
 PCOD9131992
Probable space group: C M
;
_chemical_formula_sum "Si O2"
_cell_formula_units_Z 32
_cell_length_a 17.255269
_cell_length_b 8.520147
_cell_length_c 21.350677
_cell_angle_alpha 90.000000
_cell_angle_beta 150.020759
_cell_angle_gamma 90.000000
_cell_volume 1568.475804
_symmetry_space_group_name_H-M "C M"
_symmetry_group_IT_number 8
_symmetry_cell_setting 'monoclinic'
loop_
_space_group_symop_operation_xyz
x,y,z
x,-y,z
1/2+x,1/2+y,z
1/2+x,1/2-y,z
loop_
_atom_site_type_symbol
_atom_site_label
_atom_site_fract_x
_atom_site_fract_y
_atom_site_fract_z
Si Si1 0.312810 0.309923 0.179890
Si Si2 0.015662 0.311098 0.053988
Si Si3 0.104384 0.819402 0.470450
Si Si4 0.224529 0.327541 0.374284
Si Si5 0.398696 0.678245 0.629004
Si Si6 0.195636 0.811401 0.768879
Si Si7 0.427779 0.320116 0.130288
Si Si8 0.004317 0.323938 0.521578
O O1 0.300241 0.500000 0.167421
O O2 0.173839 0.255714 0.129405
O O3 0.478913 0.276697 0.329034
O O4 0.317429 0.254877 0.109778
O O5 0.026551 0.500000 0.065228
O O6 0.965688 0.255281 0.088866
O O7 0.869762 0.268663 0.907898
O O8 0.285255 0.800403 0.581464
O O9 0.079354 0.695375 0.507387
O O10 0.073607 0.000000 0.467114
O O11 0.153800 0.500000 0.315473
O O12 0.321422 0.329400 0.505830
O O13 0.355547 0.289447 0.415606
O O14 0.095562 0.196011 0.280791
O O15 0.391970 0.500000 0.650139
O O16 0.576512 0.724502 0.742392
O O17 0.125699 0.729636 0.659074
O O18 0.186477 0.000000 0.753356
O O19 0.383914 0.500000 0.088405
O O20 0.952364 0.500000 0.499179
#
# Coordination Sequence:
#
# PCOD9131992 Si02
#       8
#     4   4   4   4   4   4   4   4
#     4   9  20  37  59  87 121 154 194 242 293 359
#     4  10  21  41  64  84 115 164 207 247 299 360
#     4  11  20  34  56  85 118 151 189 234 297 369
#     4  10  19  34  56  82 114 150 190 234 290 357
#     4   9  18  33  54  80 111 144 183 239 289 342
#     4   9  20  40  61  80 111 155 203 242 290 355
#     4  11  21  36  58  89 123 156 200 252 301 353
#     4  11  22  35  56  85 117 150 190 244 305 353
#
# _framework density 20.401971
#
# number of rings (size 3 to 8) (size 9 to 14) (size 15 to 20)
#    0.000    2.000    1.250    3.750    0.000    3.500 
#    2.250    1.875    0.000    0.000    0.000    0.000 
#    0.000    0.000    0.000    0.000    0.000    0.000 
#
# Total GULP energy -89085.608125 kJ/mol
# GULP energy per Si atom -5567.850508 kJ/mol
# Density = 2.035554 g / cm^3
# Si number density = 20.401971 Si / 1000 Ang^3
#
#
#
# Elastic Constant Matrix: (Units=GPa)
#
#
# Indices 1 2 3 4 5 6 
#
# 1 114.8642 16.6604 24.6556 0.0000 2.9572 0.0000
# 2 16.6604 22.6630 2.7970 0.0000 -0.8295 0.0000
# 3 24.6556 2.7970 46.5756 -0.0001 11.5921 0.0000
# 4 0.0000 0.0000 -0.0001 19.4929 0.0000 0.4326
# 5 2.9572 -0.8295 11.5921 0.0000 22.2948 0.0000
# 6 0.0000 0.0000 0.0000 0.4326 0.0000 24.5480
#
#
#
# Elastic Compliance Matrix: (Units=1/GPa)
#
#
# Indices 1 2 3 4 5 6 
#
# 1 0.010949 -0.007306 -0.005661 0.000000 0.001219 0.000000
# 2 -0.007306 0.049567 0.000219 0.000000 0.002699 0.000000
# 3 -0.005661 0.000219 0.027872 0.000000 -0.013733 0.000000
# 4 0.000000 0.000000 0.000000 0.051321 0.000000 -0.000904
# 5 0.001219 0.002699 -0.013733 0.000000 0.051933 0.000000
# 6 0.000000 0.000000 0.000000 -0.000904 0.000000 0.040752
#
#
# Mechanical properties :
#
#
# Convention : Reuss Voigt Hill
#
# Bulk Modulus (GPa) = 15.90002 30.25877 23.07939
# Shear Modulus (GPa) = 17.93047 22.59979 20.26513
#
# Velocity S-wave (km/s) = 2.96777 3.33186 3.15507
# Velocity P-wave (km/s) = 4.42197 5.44658 4.96080
#
# Compressibility (1/GPa) = 0.06289301
#
# Stress axis : x y z
#
# Youngs Moduli (GPa) = 91.32957 20.17452 35.87824
#
# Poissons Ratio (x) = 0.14740 0.20310
# Poissons Ratio (y) = 0.66725 -0.00786
# Poissons Ratio (z) = 0.51701 -0.00442
#
# Static dielectric constant tensor:
#      x y z
#    x 1.812610 0.000000 0.019860 
#    y 0.000000 1.713980 0.000000 
#    z 0.019860 0.000000 1.705310 
# 
# From -- ./inp_files/31702.got.cif
#   From: 2010.05.17/outbox.cif.g08.bks.cpg/sg8_16_cif.got.tgz:31702.got - 2010.06.03 19:46:02.
