data_PCOD9131549
_publ_section_title
;
Structure prediction by ZEFSAII (Michael W. Deem and Ramdas Pophale) SiO2 
 PCOD9131549
Probable space group: C M
;
_chemical_formula_sum "Si O2"
_cell_formula_units_Z 26
_cell_length_a 19.740363
_cell_length_b 7.751335
_cell_length_c 17.222706
_cell_angle_alpha 90.000000
_cell_angle_beta 143.400956
_cell_angle_gamma 90.000000
_cell_volume 1571.206847
_symmetry_space_group_name_H-M "C M"
_symmetry_group_IT_number 8
_symmetry_cell_setting 'monoclinic'
loop_
_space_group_symop_operation_xyz
x,y,z
x,-y,z
1/2+x,1/2+y,z
1/2+x,1/2-y,z
loop_
_atom_site_type_symbol
_atom_site_label
_atom_site_fract_x
_atom_site_fract_y
_atom_site_fract_z
Si Si1 0.383880 0.000000 0.257581
Si Si2 0.726729 0.809234 0.325812
Si Si3 0.056047 0.799083 0.452527
Si Si4 0.522456 0.207572 0.765594
Si Si5 0.757626 0.294041 0.525625
Si Si6 0.490309 0.792763 0.560414
Si Si7 0.646808 0.500000 0.974152
Si Si8 0.176237 0.000000 0.175337
O O1 0.462122 0.831230 0.331945
O O2 0.307024 0.000000 0.264930
O O3 0.284646 0.000000 0.102249
O O4 0.710411 0.787802 0.403008
O O5 0.862259 0.780589 0.439636
O O6 0.662825 0.666560 0.216559
O O7 0.695787 0.000000 0.271795
O O8 0.175629 0.756485 0.521903
O O9 0.055965 0.771110 0.545060
O O10 0.029765 0.000000 0.412345
O O11 0.389463 0.251346 0.658788
O O12 0.540767 0.250469 0.691275
O O13 0.599080 0.329625 0.888903
O O14 0.538026 0.000000 0.791262
O O15 0.757178 0.500000 0.511263
O O16 0.484154 0.000000 0.553168
O O17 0.612507 0.500000 0.034271
#
# Coordination Sequence:
#
# PCOD9131549 Si02
#       8
#     2   4   4   4   4   4   2   2
#     4  10  22  35  51  78 112 135 177 223 247 317
#     4  11  18  29  53  79 102 136 169 213 273 312
#     4  11  20  32  54  85 109 141 166 214 283 316
#     4   9  20  35  53  78 107 138 177 221 257 309
#     4   9  20  34  52  84 116 131 166 225 273 318
#     4  10  17  31  50  77 113 129 166 223 263 308
#     4  10  22  35  55  77  97 152 179 213 258 299
#     4  10  20  36  48  75 111 127 176 232 243 302
#
# _framework density 16.547789999999999
#
# number of rings (size 3 to 8) (size 9 to 14) (size 15 to 20)
#    0.462    1.538    3.846    1.385    6.462    1.231 
#    0.000    0.000    0.000    1.846    0.000    0.000 
#    0.000    0.000    0.000    0.000    0.000    0.000 
#
# Total GULP energy -72425.743819 kJ/mol
# GULP energy per Si atom -5571.211063 kJ/mol
# Density = 1.651013 g / cm^3
# Si number density = 16.547790 Si / 1000 Ang^3
#
#
#
# Elastic Constant Matrix: (Units=GPa)
#
#
# Indices 1 2 3 4 5 6 
#
# 1 105.8045 35.0250 37.7098 0.0000 -14.7165 0.0000
# 2 35.0250 109.8227 62.1111 0.0000 -6.3746 0.0000
# 3 37.7098 62.1111 113.6740 0.0000 -17.1909 0.0000
# 4 0.0000 0.0000 0.0000 19.1613 0.0000 -2.6410
# 5 -14.7165 -6.3746 -17.1909 0.0000 21.2004 0.0000
# 6 0.0000 0.0000 0.0000 -2.6410 0.0000 20.1831
#
#
#
# Elastic Compliance Matrix: (Units=1/GPa)
#
#
# Indices 1 2 3 4 5 6 
#
# 1 0.011685 -0.002462 -0.001615 0.000000 0.006062 0.000000
# 2 -0.002462 0.013782 -0.007232 0.000000 -0.003429 0.000000
# 3 -0.001615 -0.007232 0.014573 0.000000 0.008522 0.000000
# 4 0.000000 0.000000 0.000000 0.053147 0.000000 0.006954
# 5 0.006062 -0.003429 0.008522 0.000000 0.057256 0.000000
# 6 0.000000 0.000000 0.000000 0.006954 0.000000 0.050456
#
#
# Mechanical properties :
#
#
# Convention : Reuss Voigt Hill
#
# Bulk Modulus (GPa) = 57.39593 66.55479 61.97536
# Shear Modulus (GPa) = 21.80323 25.07265 23.43794
#
# Velocity S-wave (km/s) = 3.63380 3.89674 3.76756
# Velocity P-wave (km/s) = 7.23646 7.78159 7.51397
#
# Compressibility (1/GPa) = 0.01742284
#
# Stress axis : x y z
#
# Youngs Moduli (GPa) = 85.58086 72.55869 68.61910
#
# Poissons Ratio (x) = 0.17861 0.11079
# Poissons Ratio (y) = 0.21066 0.49628
# Poissons Ratio (z) = 0.13818 0.52478
#
# Static dielectric constant tensor:
#      x y z
#    x 1.566990 0.000000 -0.019880 
#    y 0.000000 1.578910 0.000000 
#    z -0.019880 0.000000 1.539000 
# 
# From -- ./inp_files/27175.got.cif
#   From: 2010.05.17/outbox.cif.g08.bks.cpg/sg8_14_cif.got.tgz:27175.got - 2010.06.03 19:46:02.
