data_PCOD9131669
_publ_section_title
;
Structure prediction by ZEFSAII (Michael W. Deem and Ramdas Pophale) SiO2 
 PCOD9131669
Probable space group: C M
;
_chemical_formula_sum "Si O2"
_cell_formula_units_Z 28
_cell_length_a 24.128026
_cell_length_b 11.184958
_cell_length_c 17.896345
_cell_angle_alpha 90.000000
_cell_angle_beta 164.578493
_cell_angle_gamma 90.000000
_cell_volume 1284.305113
_symmetry_space_group_name_H-M "C M"
_symmetry_group_IT_number 8
_symmetry_cell_setting 'monoclinic'
loop_
_space_group_symop_operation_xyz
x,y,z
x,-y,z
1/2+x,1/2+y,z
1/2+x,1/2-y,z
loop_
_atom_site_type_symbol
_atom_site_label
_atom_site_fract_x
_atom_site_fract_y
_atom_site_fract_z
Si Si1 0.310310 0.356784 0.597700
Si Si2 0.133361 0.626896 0.639768
Si Si3 0.245307 0.637561 0.347751
Si Si4 0.243580 0.756041 0.193111
Si Si5 0.780378 0.629912 0.793837
Si Si6 0.935156 0.635233 0.219143
Si Si7 0.320593 0.367334 0.138206
O O1 0.330531 0.500000 0.621056
O O2 0.312396 0.311162 0.515040
O O3 0.093939 0.335194 0.358761
O O4 0.510762 0.304016 0.898244
O O5 0.232331 0.500000 0.789253
O O6 0.253396 0.751084 0.808171
O O7 0.908096 0.642192 0.384730
O O8 0.080192 0.625302 0.482234
O O9 0.311991 0.500000 0.431541
O O10 0.313692 0.700266 0.361718
O O11 0.992877 0.639320 0.024339
O O12 0.251298 0.664043 0.133062
O O13 0.789049 0.500000 0.844913
O O14 0.573069 0.625630 0.473853
O O15 0.845192 0.500000 0.093523
O O16 0.785184 0.748182 0.042357
O O17 0.245426 0.500000 0.017466
#
# Coordination Sequence:
#
# PCOD9131669 Si02
#       7
#     4   4   4   4   4   4   4
#     4  10  20  34  55  83 110 140 183 230 274 325
#     4   9  17  30  51  77 105 142 181 218 270 327
#     4  10  20  34  55  83 110 140 183 230 274 325
#     4  10  18  32  54  78 110 146 178 220 274 328
#     4   8  15  29  49  73 100 131 174 222 262 309
#     4   8  15  29  49  73 100 131 174 222 262 309
#     4   9  17  30  51  77 105 142 181 218 270 327
#
# _framework density 21.801672
#
# number of rings (size 3 to 8) (size 9 to 14) (size 15 to 20)
#    0.000    3.143    0.000    2.571    0.000    1.143 
#    0.000    7.143    0.000   24.857    0.000    0.000 
#    0.000    0.000    0.000    0.000    0.000    0.000 
#
# Total GULP energy -78019.180446 kJ/mol
# GULP energy per Si atom -5572.798603 kJ/mol
# Density = 2.175205 g / cm^3
# Si number density = 21.801672 Si / 1000 Ang^3
#
#
#
# Elastic Constant Matrix: (Units=GPa)
#
#
# Indices 1 2 3 4 5 6 
#
# 1 102.9115 55.9675 14.6919 0.0011 -15.5810 0.0010
# 2 55.9675 182.3375 10.8089 0.0004 9.2070 0.0002
# 3 14.6919 10.8089 42.5703 -0.0008 -1.6019 0.0010
# 4 0.0011 0.0004 -0.0008 -1.9149 0.0008 -6.4470
# 5 -15.5810 9.2070 -1.6019 0.0008 15.2846 0.0008
# 6 0.0010 0.0002 0.0010 -6.4470 0.0008 -7.1262
#
#
#
# Elastic Compliance Matrix: (Units=1/GPa)
#
#
# Indices 1 2 3 4 5 6 
#
# 1 0.016381 -0.005827 -0.003427 -0.000003 0.019849 0.000006
# 2 -0.005827 0.007836 -0.000381 0.000000 -0.010700 -0.000002
# 3 -0.003427 -0.000381 0.024745 0.000011 -0.000670 -0.000007
# 4 -0.000003 0.000000 0.000011 0.255256 -0.000004 -0.230927
# 5 0.019849 -0.010700 -0.000670 -0.000004 0.092035 0.000016
# 6 0.000006 -0.000002 -0.000007 -0.230927 0.000016 0.068591
#
#
# Mechanical properties :
#
#
# Convention : Reuss Voigt Hill
#
# Bulk Modulus (GPa) = 33.68018 54.52842 44.10430
# Shear Modulus (GPa) = 10.12125 17.67208 13.89667
#
# Velocity S-wave (km/s) = 2.15697 2.85016 2.52744
# Velocity P-wave (km/s) = 4.65675 5.99138 5.36572
#
# Compressibility (1/GPa) = 0.02969105
#
# Stress axis : x y z
#
# Youngs Moduli (GPa) = 61.04819 127.61937 40.41255
#
# Poissons Ratio (x) = 0.74364 0.13849
# Poissons Ratio (y) = 0.35573 0.01540
# Poissons Ratio (z) = 0.20920 0.04864
#
# Static dielectric constant tensor:
#      x y z
#    x 1.796630 0.000000 -0.016040 
#    y 0.000000 1.874330 0.000000 
#    z -0.016040 0.000000 1.776620 
# 
# From -- ./inp_files/30125.got.cif
#   From: 2010.05.17/outbox.cif.g08.bks.cpg/sg8_16_cif.got.tgz:30125.got - 2010.06.03 19:46:02.
