data_PCOD9131951
_publ_section_title
;
Structure prediction by ZEFSAII (Michael W. Deem and Ramdas Pophale) SiO2 
 PCOD9131951
Probable space group: C M
;
_chemical_formula_sum "Si O2"
_cell_formula_units_Z 32
_cell_length_a 21.289165
_cell_length_b 8.200989
_cell_length_c 7.983184
_cell_angle_alpha 90.000000
_cell_angle_beta 116.110681
_cell_angle_gamma 90.000000
_cell_volume 1251.558049
_symmetry_space_group_name_H-M "C M"
_symmetry_group_IT_number 8
_symmetry_cell_setting 'monoclinic'
loop_
_space_group_symop_operation_xyz
x,y,z
x,-y,z
1/2+x,1/2+y,z
1/2+x,1/2-y,z
loop_
_atom_site_type_symbol
_atom_site_label
_atom_site_fract_x
_atom_site_fract_y
_atom_site_fract_z
Si Si1 0.122210 0.182851 0.940180
Si Si2 0.995421 0.312707 0.960030
Si Si3 0.529805 0.189400 0.530588
Si Si4 0.373964 0.690534 0.601010
Si Si5 0.239556 0.690910 0.279892
Si Si6 0.649725 0.689389 0.484571
Si Si7 0.403471 0.194927 0.187262
Si Si8 0.287585 0.198215 0.820751
O O1 0.063654 0.203616 0.016987
O O2 0.075170 0.224174 0.724999
O O3 0.148420 0.000000 0.960862
O O4 0.190219 0.288135 0.061615
O O5 0.018610 0.500000 0.987274
O O6 0.943182 0.285347 0.740321
O O7 0.949568 0.282109 0.070991
O O8 0.581086 0.203991 0.429581
O O9 0.454386 0.262792 0.391448
O O10 0.522548 0.000000 0.564137
O O11 0.391268 0.500000 0.600440
O O12 0.320132 0.751402 0.392813
O O13 0.325332 0.713856 0.709743
O O14 0.244037 0.500000 0.325151
O O15 0.194161 0.779613 0.370001
O O16 0.630132 0.500000 0.471476
O O17 0.705882 0.726803 0.698330
O O18 0.399046 0.000000 0.211335
O O19 0.327558 0.252710 0.035832
O O20 0.298046 0.000000 0.816072
#
# Coordination Sequence:
#
# PCOD9131951 Si02
#       8
#     4   4   4   4   4   4   4   4
#     4  12  25  39  54  76 108 144 187 235 279 324
#     4  10  19  35  59  84 110 141 178 219 270 330
#     4  11  22  37  55  75 106 146 184 224 274 327
#     4   9  17  30  52  83 113 138 172 220 268 317
#     4  10  20  36  58  83 111 144 182 224 274 328
#     4  10  19  33  56  84 111 140 177 223 270 318
#     4   8  16  32  56  81 102 132 175 216 255 312
#     4   8  15  30  52  78 107 137 173 217 264 314
#
# _framework density 25.568131000000001
#
# number of rings (size 3 to 8) (size 9 to 14) (size 15 to 20)
#    0.000    2.250    0.000    4.500    0.000    3.000 
#    0.000    6.875    0.000    4.500    0.000    0.000 
#    0.000    0.000    0.000    0.000    0.000    0.000 
#
# Total GULP energy -89470.339906 kJ/mol
# GULP energy per Si atom -5591.896244 kJ/mol
# Density = 2.550994 g / cm^3
# Si number density = 25.568131 Si / 1000 Ang^3
#
#
#
# Elastic Constant Matrix: (Units=GPa)
#
#
# Indices 1 2 3 4 5 6 
#
# 1 90.8910 14.2409 10.7451 0.0000 33.4973 0.0000
# 2 14.2409 51.4674 14.0455 0.0000 8.3427 0.0000
# 3 10.7451 14.0455 160.6663 0.0000 30.8295 0.0000
# 4 0.0000 0.0000 0.0000 29.5595 0.0000 1.9322
# 5 33.4973 8.3427 30.8295 0.0000 50.5074 0.0000
# 6 0.0000 0.0000 0.0000 1.9322 0.0000 25.8405
#
#
#
# Elastic Compliance Matrix: (Units=1/GPa)
#
#
# Indices 1 2 3 4 5 6 
#
# 1 0.015093 -0.002840 0.001212 0.000000 -0.010280 0.000000
# 2 -0.002840 0.020727 -0.001502 0.000000 -0.000623 0.000000
# 3 0.001212 -0.001502 0.007227 0.000000 -0.004967 0.000000
# 4 0.000000 0.000000 0.000000 0.033996 0.000000 -0.002542
# 5 -0.010280 -0.000623 -0.004967 0.000000 0.029752 0.000000
# 6 0.000000 0.000000 0.000000 -0.002542 0.000000 0.038889
#
#
# Mechanical properties :
#
#
# Convention : Reuss Voigt Hill
#
# Bulk Modulus (GPa) = 27.18563 42.34307 34.76435
# Shear Modulus (GPa) = 30.44925 38.78103 34.61514
#
# Velocity S-wave (km/s) = 3.45469 3.89880 3.68345
# Velocity P-wave (km/s) = 5.15451 6.07160 5.63175
#
# Compressibility (1/GPa) = 0.03678414
#
# Stress axis : x y z
#
# Youngs Moduli (GPa) = 66.25750 48.24704 138.36058
#
# Poissons Ratio (x) = 0.13704 -0.16763
# Poissons Ratio (y) = 0.18819 0.20789
# Poissons Ratio (z) = -0.08027 0.07249
#
# Static dielectric constant tensor:
#      x y z
#    x 2.046650 0.000000 -0.066140 
#    y 0.000000 1.851700 0.000000 
#    z -0.066140 0.000000 2.140540 
# 
# From -- ./inp_files/17350.got.cif
#   From: 2010.05.17/outbox.cif.g08.bks.cpg/sg8_9_cif.got.tgz:17350.got - 2010.06.03 19:46:02.
