data_PCOD9131197
_publ_section_title
;
Structure prediction by ZEFSAII (Michael W. Deem and Ramdas Pophale) SiO2 
 PCOD9131197
Probable space group: P M
;
_chemical_formula_sum "Si O2"
_cell_formula_units_Z 16
_cell_length_a 9.000000
_cell_length_b 9.000000
_cell_length_c 12.000000
_cell_angle_alpha 90.000000
_cell_angle_beta 60.000000
_cell_angle_gamma 90.000000
_cell_volume 841.776692
_symmetry_space_group_name_H-M "P M"
_symmetry_group_IT_number 6
_symmetry_cell_setting 'monoclinic'
loop_
_space_group_symop_operation_xyz
x,y,z
x,-y,z
loop_
_atom_site_type_symbol
_atom_site_label
_atom_site_fract_x
_atom_site_fract_y
_atom_site_fract_z
Si Si1 0.293590 0.828233 0.135440
Si Si2 0.936840 0.677036 0.876339
Si Si3 0.912773 0.171929 0.641823
Si Si4 0.691968 0.823781 0.376362
Si Si5 0.536834 0.169258 0.667796
Si Si6 0.652960 0.827871 0.131242
Si Si7 0.009477 0.674879 0.382879
Si Si8 0.261868 0.674458 0.908064
O O1 0.476667 0.825021 0.128199
O O2 0.175349 0.723441 0.253543
O O3 0.233188 0.000000 0.159424
O O4 0.286731 0.768123 0.011738
O O5 0.938561 0.500000 0.858194
O O6 0.927187 0.754313 0.758341
O O7 0.100779 0.717913 0.891070
O O8 0.779727 0.725669 0.013323
O O9 0.719691 0.174067 0.663005
O O10 0.013636 0.252857 0.504270
O O11 0.965601 0.000000 0.630805
O O12 0.555621 0.803459 0.528137
O O13 0.642357 0.785751 0.267231
O O14 0.854583 0.736312 0.363907
O O15 0.732445 0.000000 0.362548
O O16 0.422534 0.291060 0.769554
O O17 0.469929 0.000000 0.708041
O O18 0.714555 0.000000 0.106009
O O19 0.991103 0.500000 0.401726
O O20 0.247071 0.500000 0.941647
#
# Coordination Sequence:
#
# PCOD9131197 Si02
#       8
#     2   2   2   2   2   2   2   2
#     4  11  23  39  59  84 114 150 193 237 282 335
#     4  11  24  39  56  83 117 150 188 236 288 339
#     4  10  21  39  62  86 113 149 192 233 279 336
#     4   9  19  38  61  85 115 151 192 234 278 332
#     4   9  19  36  59  86 113 146 189 234 279 334
#     4  10  22  39  60  85 112 148 194 239 282 333
#     4  11  22  37  59  88 119 150 186 229 282 339
#     4  11  24  39  56  83 117 152 190 234 286 340
#
# _framework density 19.007415999999999
#
# number of rings (size 3 to 8) (size 9 to 14) (size 15 to 20)
#    0.000    1.750    0.000    4.875    0.000   12.000 
#    0.000    1.250    0.000    0.000    0.000    0.000 
#    0.000    0.000    0.000    0.000    0.000    0.000 
#
# Total GULP energy -89267.370818 kJ/mol
# GULP energy per Si atom -5579.210676 kJ/mol
# Density = 1.896415 g / cm^3
# Si number density = 19.007416 Si / 1000 Ang^3
#
#
#
# Elastic Constant Matrix: (Units=GPa)
#
#
# Indices 1 2 3 4 5 6 
#
# 1 64.3621 35.9844 54.6528 0.0000 34.0480 0.0000
# 2 35.9844 62.7861 55.3941 0.0000 20.1729 0.0000
# 3 54.6528 55.3941 129.7260 0.0000 43.4197 0.0000
# 4 0.0000 0.0000 0.0000 39.1569 0.0000 2.7356
# 5 34.0480 20.1729 43.4197 0.0000 43.0064 0.0000
# 6 0.0000 0.0000 0.0000 2.7356 0.0000 25.4042
#
#
#
# Elastic Compliance Matrix: (Units=1/GPa)
#
#
# Indices 1 2 3 4 5 6 
#
# 1 0.034381 -0.010343 -0.003899 0.000000 -0.018431 0.000000
# 2 -0.010343 0.028727 -0.009274 0.000000 0.004076 0.000000
# 3 -0.003899 -0.009274 0.016345 0.000000 -0.009066 0.000000
# 4 0.000000 0.000000 0.000000 0.025732 0.000000 -0.002771
# 5 -0.018431 0.004076 -0.009066 0.000000 0.045085 0.000000
# 6 0.000000 0.000000 0.000000 -0.002771 0.000000 0.039662
#
#
# Mechanical properties :
#
#
# Convention : Reuss Voigt Hill
#
# Bulk Modulus (GPa) = 30.84294 60.99299 45.91796
# Shear Modulus (GPa) = 20.18002 28.90302 24.54152
#
# Velocity S-wave (km/s) = 3.26190 3.90374 3.59716
# Velocity P-wave (km/s) = 5.51803 7.24414 6.43919
#
# Compressibility (1/GPa) = 0.03242234
#
# Stress axis : x y z
#
# Youngs Moduli (GPa) = 29.08617 34.81049 61.17918
#
# Poissons Ratio (x) = 0.36003 0.23854
# Poissons Ratio (y) = 0.30083 0.56735
# Poissons Ratio (z) = 0.11341 0.32282
#
# Static dielectric constant tensor:
#      x y z
#    x 1.670180 0.000000 -0.043970 
#    y 0.000000 1.645580 0.000000 
#    z -0.043970 0.000000 1.656960 
# 
# From -- ./inp_files/3762.got.cif
#   From: 2010.05.17/outbox.ucp.g08.bks.cvg/sg6_2_cif.got.tgz:3762.got - 2010.06.11 12:59:37.
