data_PCOD9131600
_publ_section_title
;
Structure prediction by ZEFSAII (Michael W. Deem and Ramdas Pophale) SiO2 
 PCOD9131600
Probable space group: C M
;
_chemical_formula_sum "Si O2"
_cell_formula_units_Z 28
_cell_length_a 14.268117
_cell_length_b 9.674215
_cell_length_c 12.160507
_cell_angle_alpha 90.000000
_cell_angle_beta 131.839457
_cell_angle_gamma 90.000000
_cell_volume 1250.547385
_symmetry_space_group_name_H-M "C M"
_symmetry_group_IT_number 8
_symmetry_cell_setting 'monoclinic'
loop_
_space_group_symop_operation_xyz
x,y,z
x,-y,z
1/2+x,1/2+y,z
1/2+x,1/2-y,z
loop_
_atom_site_type_symbol
_atom_site_label
_atom_site_fract_x
_atom_site_fract_y
_atom_site_fract_z
Si Si1 0.482280 0.780331 0.629470
Si Si2 0.403185 0.339307 0.208242
Si Si3 0.252595 0.655292 0.322884
Si Si4 0.691058 0.663076 0.941881
Si Si5 0.325350 0.149244 0.710096
Si Si6 0.049910 0.666258 0.018974
Si Si7 0.099005 0.343954 0.489276
O O1 0.350228 0.720586 0.482103
O O2 0.598769 0.687440 0.765072
O O3 0.432940 0.857094 0.699775
O O4 0.534418 0.848059 0.559359
O O5 0.427889 0.500000 0.196786
O O6 0.319994 0.343292 0.256037
O O7 0.522403 0.253404 0.345622
O O8 0.317201 0.255985 0.053532
O O9 0.238767 0.500000 0.349019
O O10 0.113373 0.708128 0.183926
O O11 0.717908 0.500000 0.974965
O O12 0.608079 0.724993 0.977953
O O13 0.401392 0.169826 0.882532
O O14 0.232543 0.272960 0.613859
O O15 0.258814 0.000000 0.659342
O O16 0.081259 0.500000 0.025210
O O17 0.104177 0.500000 0.453207
#
# Coordination Sequence:
#
# PCOD9131600 Si02
#       7
#     4   4   4   4   4   4   4
#     4  10  21  36  58  86 119 155 190 234 288 345
#     4   9  18  34  55  79 113 154 191 233 291 351
#     4   8  14  28  52  80 108 144 189 234 282 335
#     4  10  18  29  52  85 116 150 195 241 284 336
#     4  10  21  38  59  83 114 153 194 236 288 348
#     4   8  16  32  53  77 110 153 195 235 286 345
#     4  11  23  39  61  88 116 149 194 245 291 342
#
# _framework density 22.390194999999999
#
# number of rings (size 3 to 8) (size 9 to 14) (size 15 to 20)
#    0.000    2.571    0.000    3.000    0.000    6.286 
#    0.000    2.143    0.000    5.143    0.000    0.000 
#    0.000    0.000    0.000    0.000    0.000    0.000 
#
# Total GULP energy -77960.432336 kJ/mol
# GULP energy per Si atom -5568.602310 kJ/mol
# Density = 2.233923 g / cm^3
# Si number density = 22.390195 Si / 1000 Ang^3
#
#
#
# Elastic Constant Matrix: (Units=GPa)
#
#
# Indices 1 2 3 4 5 6 
#
# 1 69.3067 18.9301 26.3175 0.0000 -15.6407 0.0000
# 2 18.9301 167.4390 88.9271 0.0000 12.8569 0.0000
# 3 26.3175 88.9271 179.3263 0.0000 14.7506 0.0000
# 4 0.0000 0.0000 0.0000 4.4835 0.0000 14.5177
# 5 -15.6407 12.8569 14.7506 0.0000 37.6824 0.0000
# 6 0.0000 0.0000 0.0000 14.5177 0.0000 8.2213
#
#
#
# Elastic Compliance Matrix: (Units=1/GPa)
#
#
# Indices 1 2 3 4 5 6 
#
# 1 0.017810 -0.001248 -0.002726 0.000000 0.008885 0.000000
# 2 -0.001248 0.008251 -0.003755 0.000000 -0.001863 0.000000
# 3 -0.002726 -0.003755 0.008087 0.000000 -0.003016 0.000000
# 4 0.000000 0.000000 0.000000 -0.047275 0.000000 0.083481
# 5 0.008885 -0.001863 -0.003016 0.000000 0.032042 0.000000
# 6 0.000000 0.000000 0.000000 0.083481 0.000000 -0.025782
#
#
# Mechanical properties :
#
#
# Convention : Reuss Voigt Hill
#
# Bulk Modulus (GPa) = 53.50637 76.04679 64.77658
# Shear Modulus (GPa) = 337.38688 28.87060 183.12874
#
# Velocity S-wave (km/s) = 12.28870 3.59476 9.05358
# Velocity P-wave (km/s) = 15.00995 7.16015 11.75939
#
# Compressibility (1/GPa) = 0.01868936
#
# Stress axis : x y z
#
# Youngs Moduli (GPa) = 56.14947 121.19941 123.66109
#
# Poissons Ratio (x) = 0.15128 0.33705
# Poissons Ratio (y) = 0.07008 0.46436
# Poissons Ratio (z) = 0.15304 0.45512
#
# Static dielectric constant tensor:
#      x y z
#    x 1.903810 0.000000 0.000620 
#    y 0.000000 1.791850 0.000000 
#    z 0.000620 0.000000 1.923370 
# 
# From -- ./inp_files/27281.got.cif
#   From: 2010.05.17/outbox.cif.g08.bks.cpg/sg8_14_cif.got.tgz:27281.got - 2010.06.03 19:46:02.
