data_PCOD9131788
_publ_section_title
;
Structure prediction by ZEFSAII (Michael W. Deem and Ramdas Pophale) SiO2 
 PCOD9131788
Probable space group: C M
;
_chemical_formula_sum "Si O2"
_cell_formula_units_Z 32
_cell_length_a 10.311704
_cell_length_b 15.762382
_cell_length_c 15.295631
_cell_angle_alpha 90.000000
_cell_angle_beta 40.476157
_cell_angle_gamma 90.000000
_cell_volume 1613.810019
_symmetry_space_group_name_H-M "C M"
_symmetry_group_IT_number 8
_symmetry_cell_setting 'monoclinic'
loop_
_space_group_symop_operation_xyz
x,y,z
x,-y,z
1/2+x,1/2+y,z
1/2+x,1/2-y,z
loop_
_atom_site_type_symbol
_atom_site_label
_atom_site_fract_x
_atom_site_fract_y
_atom_site_fract_z
Si Si1 0.977000 0.591936 0.989050
Si Si2 0.262456 0.405972 0.579160
Si Si3 0.225750 0.093680 0.545042
Si Si4 0.477280 0.848913 0.583737
Si Si5 0.626361 0.236454 0.787294
Si Si6 0.403386 0.404834 0.840586
Si Si7 0.832591 0.269239 0.345222
Si Si8 0.648558 0.342616 0.274445
O O1 0.986293 0.500000 0.938276
O O2 0.013691 0.672603 0.908983
O O3 0.166314 0.594894 0.956943
O O4 0.771691 0.598269 0.146711
O O5 0.278380 0.500000 0.611901
O O6 0.088289 0.407670 0.595598
O O7 0.201938 0.325283 0.669868
O O8 0.472058 0.384472 0.423207
O O9 0.347122 0.109954 0.573027
O O10 0.280640 0.160275 0.443998
O O11 0.996607 0.098394 0.694556
O O12 0.269433 0.000000 0.489985
O O13 0.331601 0.783768 0.709538
O O14 0.655432 0.798872 0.445573
O O15 0.485682 0.318081 0.839978
O O16 0.466315 0.500000 0.842306
O O17 0.808615 0.304517 0.260488
O O18 0.037579 0.226969 0.271228
#
# Coordination Sequence:
#
# PCOD9131788 Si02
#       8
#     4   4   4   4   4   4   4   4
#     4  11  24  40  58  87 123 161 205 258 310 362
#     4  11  22  36  61  94 127 162 206 257 306 368
#     4  10  19  33  60  93 123 155 196 255 307 356
#     4  10  18  37  57  88 124 159 202 249 308 361
#     4  11  20  38  62  90 119 165 206 251 309 367
#     4   9  20  37  59  87 119 157 204 251 304 363
#     4  11  20  40  60  91 117 162 203 252 300 372
#     4  11  24  39  65  86 126 161 211 249 314 365
#
# _framework density 19.828852000000001
#
# number of rings (size 3 to 8) (size 9 to 14) (size 15 to 20)
#    0.000    1.500    2.500    4.875    1.750    1.500 
#    0.000    0.000    0.000    0.000    0.000    0.000 
#    0.000    0.000    0.000    0.000    0.000    0.000 
#
# Total GULP energy -89199.371331 kJ/mol
# GULP energy per Si atom -5574.960708 kJ/mol
# Density = 1.978372 g / cm^3
# Si number density = 19.828852 Si / 1000 Ang^3
#
#
#
# Elastic Constant Matrix: (Units=GPa)
#
#
# Indices 1 2 3 4 5 6 
#
# 1 66.1738 31.7043 23.2799 -0.0001 -9.2253 0.0000
# 2 31.7043 142.0839 37.7834 -0.0010 2.6549 0.0003
# 3 23.2799 37.7834 82.0260 -0.0021 -4.0873 0.0002
# 4 -0.0001 -0.0010 -0.0021 39.7158 0.0009 15.5262
# 5 -9.2253 2.6549 -4.0873 0.0009 13.9756 -0.0001
# 6 0.0000 0.0003 0.0002 15.5262 -0.0001 24.2519
#
#
#
# Elastic Compliance Matrix: (Units=1/GPa)
#
#
# Indices 1 2 3 4 5 6 
#
# 1 0.019878 -0.003814 -0.003242 -0.000001 0.012898 0.000001
# 2 -0.003814 0.008850 -0.003251 0.000000 -0.005150 0.000000
# 3 -0.003242 -0.003251 0.014748 0.000001 0.002791 -0.000001
# 4 -0.000001 0.000000 0.000001 0.033584 -0.000003 -0.021501
# 5 0.012898 -0.005150 0.002791 -0.000003 0.081862 0.000002
# 6 0.000001 0.000000 -0.000001 -0.021501 0.000002 0.054999
#
#
# Mechanical properties :
#
#
# Convention : Reuss Voigt Hill
#
# Bulk Modulus (GPa) = 43.74112 52.86877 48.30494
# Shear Modulus (GPa) = 20.64800 28.75640 24.70220
#
# Velocity S-wave (km/s) = 3.23044 3.81232 3.53338
# Velocity P-wave (km/s) = 6.00179 6.78961 6.40782
#
# Compressibility (1/GPa) = 0.02286178
#
# Stress axis : x y z
#
# Youngs Moduli (GPa) = 50.30740 112.99627 67.80740
#
# Poissons Ratio (x) = 0.43102 0.21982
# Poissons Ratio (y) = 0.19189 0.22041
# Poissons Ratio (z) = 0.16309 0.36730
#
# Static dielectric constant tensor:
#      x y z
#    x 1.730270 0.000000 -0.007380 
#    y 0.000000 1.726560 0.000000 
#    z -0.007380 0.000000 1.677390 
# 
# From -- ./inp_files/28885.got.cif
#   From: 2010.05.17/outbox.cif.g08.bks.cpg/sg8_15_cif.got.tgz:28885.got - 2010.06.03 19:46:02.
