data_PCOD9131542
_publ_section_title
;
Structure prediction by ZEFSAII (Michael W. Deem and Ramdas Pophale) SiO2 
 PCOD9131542
Probable space group: C M
;
_chemical_formula_sum "Si O2"
_cell_formula_units_Z 26
_cell_length_a 18.749430
_cell_length_b 8.115826
_cell_length_c 12.907962
_cell_angle_alpha 90.000000
_cell_angle_beta 149.514536
_cell_angle_gamma 90.000000
_cell_volume 996.460861
_symmetry_space_group_name_H-M "C M"
_symmetry_group_IT_number 8
_symmetry_cell_setting 'monoclinic'
loop_
_space_group_symop_operation_xyz
x,y,z
x,-y,z
1/2+x,1/2+y,z
1/2+x,1/2-y,z
loop_
_atom_site_type_symbol
_atom_site_label
_atom_site_fract_x
_atom_site_fract_y
_atom_site_fract_z
Si Si1 0.927120 0.817508 0.836570
Si Si2 0.028934 0.308629 0.279191
Si Si3 0.948599 0.191081 0.493081
Si Si4 0.210610 0.804303 0.705369
Si Si5 0.264159 0.818034 0.447274
Si Si6 0.265717 0.312815 0.052043
Si Si7 0.139614 0.000000 0.994453
O O1 0.861442 0.768003 0.862732
O O2 0.871572 0.698397 0.678444
O O3 0.865902 0.000000 0.731524
O O4 0.088670 0.856779 0.017280
O O5 0.001394 0.500000 0.267155
O O6 0.123954 0.231604 0.490521
O O7 0.130534 0.294933 0.306925
O O8 0.879449 0.218224 0.103011
O O9 0.860441 0.282059 0.469524
O O10 0.862641 0.194965 0.278004
O O11 0.103335 0.260845 0.658614
O O12 0.957471 0.000000 0.535156
O O13 0.224241 0.000000 0.737730
O O14 0.205165 0.000000 0.371762
O O15 0.207115 0.500000 0.974109
O O16 0.172769 0.149472 0.953318
#
# Coordination Sequence:
#
# PCOD9131542 Si02
#       7
#     4   4   4   4   4   4   2
#     4   9  19  33  50  74 106 140 179 220 259 318
#     4  10  17  29  52  76 110 136 172 225 279 325
#     4   9  19  32  52  82 112 138 169 227 288 328
#     4   9  16  29  50  78 106 133 174 225 276 322
#     4  11  20  30  51  85 111 139 175 226 284 332
#     4  10  20  36  56  83 110 141 185 226 267 323
#     4  10  22  36  56  80 104 156 188 224 252 314
#
# _framework density 26.092343
#
# number of rings (size 3 to 8) (size 9 to 14) (size 15 to 20)
#    0.462    1.846    0.769    6.462    1.077    2.462 
#    0.000    0.000    0.000    1.846    0.000    0.000 
#    0.000    0.000    0.000    0.000    0.000    0.000 
#
# Total GULP energy -72367.656113 kJ/mol
# GULP energy per Si atom -5566.742778 kJ/mol
# Density = 2.603296 g / cm^3
# Si number density = 26.092343 Si / 1000 Ang^3
#
#
#
# Elastic Constant Matrix: (Units=GPa)
#
#
# Indices 1 2 3 4 5 6 
#
# 1 196.6174 41.9406 29.2619 0.0000 32.3721 0.0000
# 2 41.9406 11.9528 -21.2513 0.0000 1.7699 0.0000
# 3 29.2619 -21.2513 74.5250 0.0000 7.7541 0.0000
# 4 0.0000 0.0000 0.0000 18.1928 0.0000 29.3114
# 5 32.3721 1.7699 7.7541 0.0000 40.8148 0.0000
# 6 0.0000 0.0000 0.0000 29.3114 0.0000 30.9742
#
#
#
# Elastic Compliance Matrix: (Units=1/GPa)
#
#
# Indices 1 2 3 4 5 6 
#
# 1 -0.004089 0.035238 0.011707 0.000000 -0.000509 0.000000
# 2 0.035238 -0.121733 -0.047122 0.000000 -0.013718 0.000000
# 3 0.011707 -0.047122 -0.003940 0.000000 -0.006493 0.000000
# 4 0.000000 0.000000 0.000000 -0.104766 0.000000 0.099142
# 5 -0.000509 -0.013718 -0.006493 0.000000 0.026733 0.000000
# 6 0.000000 0.000000 0.000000 0.099142 0.000000 -0.061534
#
#
# Mechanical properties :
#
#
# Convention : Reuss Voigt Hill
#
# Bulk Modulus (GPa) = -7.68555 42.55527 17.43486
# Shear Modulus (GPa) = -16.00780 33.53930 8.76575
#
# Velocity S-wave (km/s) = -2.47959 3.58915 1.83489
# Velocity P-wave (km/s) = 3.33912 5.78972 3.34448
#
# Compressibility (1/GPa) = -0.13011432
#
# Stress axis : x y z
#
# Youngs Moduli (GPa) = -244.54321 -8.21473 -253.81422
#
# Poissons Ratio (x) = 0.28947 2.97142
# Poissons Ratio (y) = 8.61732 -11.96018
# Poissons Ratio (z) = 2.86288 -0.38709
#
# Static dielectric constant tensor:
#      x y z
#    x 2.446220 0.000000 -0.098750 
#    y 0.000000 2.004230 0.000000 
#    z -0.098750 0.000000 2.229140 
# 
# From -- ./inp_files/29406.got.cif
#   From: 2010.05.17/outbox.cif.g08.bks.cpg/sg8_15_cif.got.tgz:29406.got - 2010.06.03 19:46:02.
