data_PCOD9131480
_publ_section_title
;
Structure prediction by ZEFSAII (Michael W. Deem and Ramdas Pophale) SiO2 
 PCOD9131480
Probable space group: P C
;
_chemical_formula_sum "Si O2"
_cell_formula_units_Z 12
_cell_length_a 4.902418
_cell_length_b 20.706073
_cell_length_c 4.678349
_cell_angle_alpha 90.000000
_cell_angle_beta 67.184680
_cell_angle_gamma 90.000000
_cell_volume 437.742102
_symmetry_space_group_name_H-M "P C"
_symmetry_group_IT_number 7
_symmetry_cell_setting 'monoclinic'
loop_
_space_group_symop_operation_xyz
x,y,z
x,-y,1/2+z
loop_
_atom_site_type_symbol
_atom_site_label
_atom_site_fract_x
_atom_site_fract_y
_atom_site_fract_z
Si Si1 0.272650 0.378501 0.225460
Si Si2 0.411946 0.708688 0.169271
Si Si3 0.844666 0.457706 0.031767
Si Si4 0.355352 0.045156 0.667773
Si Si5 0.934018 0.208396 0.565064
Si Si6 0.818651 0.123993 0.104217
O O1 0.287131 0.351492 0.538292
O O2 0.504976 0.437338 0.135250
O O3 0.748370 0.267346 0.504109
O O4 0.392204 0.316519 0.999572
O O5 0.993703 0.598423 0.654989
O O6 0.210145 0.766728 0.135485
O O7 0.920312 0.522354 0.180145
O O8 0.027210 0.074694 0.839202
O O9 0.400339 0.021012 0.971797
O O10 0.568844 0.093305 0.410612
O O11 0.729275 0.173464 0.889080
O O12 0.006730 0.161856 0.271296
#
# Coordination Sequence:
#
# PCOD9131480 Si02
#       6
#     2   2   2   2   2   2
#     4  12  24  43  67  98 137 183 236 296 360 432
#     4  12  25  45  70 102 140 187 239 300 364 436
#     4  12  24  42  66  98 136 182 234 294 358 430
#     4  12  25  46  73 108 147 194 245 304 370 444
#     4  12  26  46  72 106 144 190 244 304 370 442
#     4  12  26  46  74 108 148 194 246 308 372 446
#
# _framework density 27.413399999999999
#
# number of rings (size 3 to 8) (size 9 to 14) (size 15 to 20)
#    0.000    0.000    0.000   11.000    0.000    2.667 
#    0.000    0.000    0.000    0.000    0.000    0.000 
#    0.000    0.000    0.000    0.000    0.000    0.000 
#
# Total GULP energy -67123.939916 kJ/mol
# GULP energy per Si atom -5593.661660 kJ/mol
# Density = 2.735101 g / cm^3
# Si number density = 27.413400 Si / 1000 Ang^3
#
#
#
# Elastic Constant Matrix: (Units=GPa)
#
#
# Indices 1 2 3 4 5 6 
#
# 1 129.4181 21.0822 36.4065 0.0000 6.5645 0.0000
# 2 21.0822 71.9162 33.4643 0.0000 2.4121 0.0000
# 3 36.4065 33.4643 157.4237 0.0000 21.9636 0.0000
# 4 0.0000 0.0000 0.0000 58.3264 0.0000 7.3807
# 5 6.5645 2.4121 21.9636 0.0000 54.1564 0.0000
# 6 0.0000 0.0000 0.0000 7.3807 0.0000 56.9681
#
#
#
# Elastic Compliance Matrix: (Units=1/GPa)
#
#
# Indices 1 2 3 4 5 6 
#
# 1 0.008462 -0.001754 -0.001539 0.000000 -0.000323 0.000000
# 2 -0.001754 0.015819 -0.003062 0.000000 0.000750 0.000000
# 3 -0.001539 -0.003062 0.007753 0.000000 -0.002821 0.000000
# 4 0.000000 0.000000 0.000000 0.017431 0.000000 -0.002258
# 5 -0.000323 0.000750 -0.002821 0.000000 0.019615 0.000000
# 6 0.000000 0.000000 0.000000 -0.002258 0.000000 0.017846
#
#
# Mechanical properties :
#
#
# Convention : Reuss Voigt Hill
#
# Bulk Modulus (GPa) = 51.74764 60.07376 55.91070
# Shear Modulus (GPa) = 47.13626 51.74383 49.44004
#
# Velocity S-wave (km/s) = 4.15114 4.34929 4.25137
# Velocity P-wave (km/s) = 6.47253 6.86902 6.67372
#
# Compressibility (1/GPa) = 0.01932455
#
# Stress axis : x y z
#
# Youngs Moduli (GPa) = 118.17662 63.21643 128.98783
#
# Poissons Ratio (x) = 0.11086 0.19852
# Poissons Ratio (y) = 0.20724 0.39492
# Poissons Ratio (z) = 0.18188 0.19355
#
# Static dielectric constant tensor:
#      x y z
#    x 2.072150 0.000000 -0.082070 
#    y 0.000000 2.197360 0.000000 
#    z -0.082070 0.000000 2.057640 
# 
# From -- ./inp_files/334.got.cif
#   From: 2010.05.17/outbox.cif.g08.bks.cpg/sg7_cif.got.tgz:334.got - 2010.06.03 19:44:50.
