data_PCOD9131448
_publ_section_title
;
Structure prediction by ZEFSAII (Michael W. Deem and Ramdas Pophale) SiO2 
 PCOD9131448
Probable space group: P C
;
_chemical_formula_sum "Si O2"
_cell_formula_units_Z 16
_cell_length_a 5.932364
_cell_length_b 20.668608
_cell_length_c 5.310787
_cell_angle_alpha 90.000000
_cell_angle_beta 76.327946
_cell_angle_gamma 90.000000
_cell_volume 632.723913
_symmetry_space_group_name_H-M "P C"
_symmetry_group_IT_number 7
_symmetry_cell_setting 'monoclinic'
loop_
_space_group_symop_operation_xyz
x,y,z
x,-y,1/2+z
loop_
_atom_site_type_symbol
_atom_site_label
_atom_site_fract_x
_atom_site_fract_y
_atom_site_fract_z
Si Si1 0.355710 0.542651 0.253700
Si Si2 0.435770 0.137393 0.102051
Si Si3 0.411140 0.722335 0.801834
Si Si4 0.128347 0.365143 0.126144
Si Si5 0.012555 0.745572 0.317509
Si Si6 0.941517 0.884759 0.568159
Si Si7 0.726518 0.346399 0.585457
Si Si8 0.319312 0.960405 0.268403
O O1 0.364344 0.493852 0.487765
O O2 0.133703 0.586149 0.393043
O O3 0.551817 0.597338 0.201954
O O4 0.455429 0.214085 0.125233
O O5 0.665318 0.110565 0.187414
O O6 0.448464 0.106133 0.817541
O O7 0.155872 0.120627 0.220008
O O8 0.363838 0.648636 0.716580
O O9 0.625346 0.708874 0.929096
O O10 0.196405 0.740283 0.043459
O O11 0.933524 0.379818 0.377372
O O12 0.111819 0.291927 0.031115
O O13 0.961347 0.818207 0.405073
O O14 0.807811 0.696809 0.296443
O O15 0.046090 0.942394 0.369812
O O16 0.371601 0.007973 0.489355
#
# Coordination Sequence:
#
# PCOD9131448 Si02
#       8
#     2   2   2   2   2   2   2   2
#     4  12  29  50  72 106 149 200 256 311 381 479
#     4  10  24  43  70 109 151 197 257 319 387 462
#     4  11  23  44  71 110 148 185 248 315 396 459
#     4  11  24  47  71 101 144 190 247 314 391 463
#     4  11  24  42  73 111 142 188 249 320 397 453
#     4  10  24  44  71 111 148 199 255 326 385 465
#     4  11  27  43  78 104 144 198 248 323 397 467
#     4  10  25  49  74 106 154 211 260 314 380 464
#
# _framework density 25.287489999999998
#
# number of rings (size 3 to 8) (size 9 to 14) (size 15 to 20)
#    0.750    0.500    2.500    1.500   12.250    2.000 
#    0.000    0.000    0.000    0.000    0.000    0.000 
#    0.000    0.000    0.000    0.000    0.000    0.000 
#
# Total GULP energy -89206.452060 kJ/mol
# GULP energy per Si atom -5575.403254 kJ/mol
# Density = 2.522993 g / cm^3
# Si number density = 25.287490 Si / 1000 Ang^3
#
#
#
# Elastic Constant Matrix: (Units=GPa)
#
#
# Indices 1 2 3 4 5 6 
#
# 1 108.0852 32.5036 14.2035 0.0000 -4.2743 0.0000
# 2 32.5036 112.3485 62.4202 0.0000 -6.9103 0.0000
# 3 14.2035 62.4202 105.7949 0.0000 -11.7759 0.0000
# 4 0.0000 0.0000 0.0000 47.5450 0.0000 4.7996
# 5 -4.2743 -6.9103 -11.7759 0.0000 21.5833 0.0000
# 6 0.0000 0.0000 0.0000 4.7996 0.0000 8.7142
#
#
#
# Elastic Compliance Matrix: (Units=1/GPa)
#
#
# Indices 1 2 3 4 5 6 
#
# 1 0.010192 -0.003256 0.000704 0.000000 0.001360 0.000000
# 2 -0.003256 0.014282 -0.008040 0.000000 -0.000459 0.000000
# 3 0.000704 -0.008040 0.014725 0.000000 0.005599 0.000000
# 4 0.000000 0.000000 0.000000 0.022271 0.000000 -0.012266
# 5 0.001360 -0.000459 0.005599 0.000000 0.049509 0.000000
# 6 0.000000 0.000000 0.000000 -0.012266 0.000000 0.121511
#
#
# Mechanical properties :
#
#
# Convention : Reuss Voigt Hill
#
# Bulk Modulus (GPa) = 55.51164 60.49811 58.00487
# Shear Modulus (GPa) = 19.25443 30.04192 24.64817
#
# Velocity S-wave (km/s) = 2.76238 3.45050 3.12543
# Velocity P-wave (km/s) = 5.67223 6.31274 6.00103
#
# Compressibility (1/GPa) = 0.01801424
#
# Stress axis : x y z
#
# Youngs Moduli (GPa) = 98.11156 70.01829 67.91233
#
# Poissons Ratio (x) = 0.22801 -0.04783
# Poissons Ratio (y) = 0.31950 0.54604
# Poissons Ratio (z) = -0.06911 0.56298
#
# Static dielectric constant tensor:
#      x y z
#    x 2.118780 0.000000 -0.016290 
#    y 0.000000 1.979810 0.000000 
#    z -0.016290 0.000000 2.012150 
# 
# From -- ./inp_files/387.got.cif
#   From: 2010.05.17/outbox.cif.g08.bks.cpg/sg7_cif.got.tgz:387.got - 2010.06.03 19:44:50.
