data_PCOD9131829
_publ_section_title
;
Structure prediction by ZEFSAII (Michael W. Deem and Ramdas Pophale) SiO2 
 PCOD9131829
Probable space group: C M
;
_chemical_formula_sum "Si O2"
_cell_formula_units_Z 32
_cell_length_a 34.989899
_cell_length_b 7.697805
_cell_length_c 5.090714
_cell_angle_alpha 90.000000
_cell_angle_beta 89.135512
_cell_angle_gamma 90.000000
_cell_volume 1371.004427
_symmetry_space_group_name_H-M "C M"
_symmetry_group_IT_number 8
_symmetry_cell_setting 'monoclinic'
loop_
_space_group_symop_operation_xyz
x,y,z
x,-y,z
1/2+x,1/2+y,z
1/2+x,1/2-y,z
loop_
_atom_site_type_symbol
_atom_site_label
_atom_site_fract_x
_atom_site_fract_y
_atom_site_fract_z
Si Si1 0.108050 0.287681 0.806920
Si Si2 0.981249 0.195501 0.538318
Si Si3 0.437797 0.802328 0.030449
Si Si4 0.733593 0.208314 0.506248
Si Si5 0.564007 0.209554 0.310730
Si Si6 0.317082 0.792011 0.283544
Si Si7 0.690384 0.212783 0.009448
Si Si8 0.859787 0.287202 0.779659
O O1 0.108921 0.500000 0.802975
O O2 0.095730 0.232381 0.518732
O O3 0.149245 0.231174 0.907270
O O4 0.076010 0.231788 0.020230
O O5 0.969188 0.303939 0.794745
O O6 0.022777 0.236633 0.418151
O O7 0.980322 0.000000 0.635787
O O8 0.952735 0.216531 0.294496
O O9 0.399992 0.728019 0.895231
O O10 0.428847 0.000000 0.110349
O O11 0.775396 0.250580 0.396413
O O12 0.722421 0.270139 0.796618
O O13 0.730815 0.000000 0.515215
O O14 0.702569 0.271091 0.296581
O O15 0.564254 0.000000 0.305776
O O16 0.348257 0.727480 0.491641
O O17 0.320124 0.000000 0.275141
O O18 0.327251 0.731736 0.990613
O O19 0.689565 0.000000 0.016691
O O20 0.861267 0.500000 0.768689
#
# Coordination Sequence:
#
# PCOD9131829 Si02
#       8
#     4   4   4   4   4   4   4   4
#     4   9  17  30  52  79 102 131 180 235 273 309
#     4  12  25  40  58  87 125 156 183 229 299 355
#     4  11  22  41  66  87 110 149 202 245 279 335
#     4  10  19  31  49  74 104 138 173 211 265 327
#     4  10  19  33  55  80 104 138 187 231 269 325
#     4  10  19  34  54  77 105 136 173 219 271 321
#     4   9  17  30  49  74 104 135 172 223 273 311
#     4   9  19  35  57  80 102 135 180 229 273 315
#
# _framework density 23.340551000000001
#
# number of rings (size 3 to 8) (size 9 to 14) (size 15 to 20)
#    0.000    2.000    0.000    4.500    0.000    6.000 
#    0.000    3.750    0.000    4.500    0.000    0.000 
#    0.000    0.000    0.000    0.000    0.000    0.000 
#
# Total GULP energy -89461.847050 kJ/mol
# GULP energy per Si atom -5591.365441 kJ/mol
# Density = 2.328743 g / cm^3
# Si number density = 23.340551 Si / 1000 Ang^3
#
#
#
# Elastic Constant Matrix: (Units=GPa)
#
#
# Indices 1 2 3 4 5 6 
#
# 1 52.0846 -7.6588 -26.1049 0.0000 1.7393 0.0000
# 2 -7.6588 41.0912 2.4864 0.0000 3.1937 0.0000
# 3 -26.1049 2.4864 71.4355 0.0000 2.1280 0.0000
# 4 0.0000 0.0000 0.0000 3.3120 0.0000 -2.8696
# 5 1.7393 3.1937 2.1280 0.0000 40.3895 0.0000
# 6 0.0000 0.0000 0.0000 -2.8696 0.0000 8.2650
#
#
#
# Elastic Compliance Matrix: (Units=1/GPa)
#
#
# Indices 1 2 3 4 5 6 
#
# 1 0.024269 0.004135 0.008779 0.000000 -0.001835 0.000000
# 2 0.004135 0.025236 0.000698 0.000000 -0.002210 0.000000
# 3 0.008779 0.000698 0.017223 0.000000 -0.001341 0.000000
# 4 0.000000 0.000000 0.000000 0.431836 0.000000 0.149932
# 5 -0.001835 -0.002210 -0.001341 0.000000 0.025083 0.000000
# 6 0.000000 0.000000 0.000000 0.149932 0.000000 0.173048
#
#
# Mechanical properties :
#
#
# Convention : Reuss Voigt Hill
#
# Bulk Modulus (GPa) = 10.64358 11.33963 10.99161
# Shear Modulus (GPa) = 7.13482 23.45255 15.29369
#
# Velocity S-wave (km/s) = 1.75028 3.17329 2.56254
# Velocity P-wave (km/s) = 2.94188 4.27730 3.67083
#
# Compressibility (1/GPa) = 0.09395332
#
# Stress axis : x y z
#
# Youngs Moduli (GPa) = 41.20468 39.62549 58.06336
#
# Poissons Ratio (x) = -0.16384 -0.50976
# Poissons Ratio (y) = -0.17037 -0.04055
# Poissons Ratio (z) = -0.36175 -0.02768
#
# Static dielectric constant tensor:
#      x y z
#    x 1.871200 0.000000 -0.009470 
#    y 0.000000 1.884810 0.000000 
#    z -0.009470 0.000000 1.842820 
# 
# From -- ./inp_files/6421.got.cif
#   From: 2010.05.17/outbox.cif.g08.bks.cpg/sg8_4_cif.got.tgz:6421.got - 2010.06.03 19:46:02.
