data_PCOD9131478
_publ_section_title
;
Structure prediction by ZEFSAII (Michael W. Deem and Ramdas Pophale) SiO2 
 PCOD9131478
Probable space group: P C
;
_chemical_formula_sum "Si O2"
_cell_formula_units_Z 12
_cell_length_a 5.455293
_cell_length_b 17.627199
_cell_length_c 5.009046
_cell_angle_alpha 90.000000
_cell_angle_beta 99.706077
_cell_angle_gamma 90.000000
_cell_volume 474.782625
_symmetry_space_group_name_H-M "P C"
_symmetry_group_IT_number 7
_symmetry_cell_setting 'monoclinic'
loop_
_space_group_symop_operation_xyz
x,y,z
x,-y,1/2+z
loop_
_atom_site_type_symbol
_atom_site_label
_atom_site_fract_x
_atom_site_fract_y
_atom_site_fract_z
Si Si1 0.338930 0.311479 0.430680
Si Si2 0.952927 0.948559 0.908293
Si Si3 0.301568 0.153359 0.698654
Si Si4 0.649566 0.329022 0.001524
Si Si5 0.853837 0.174689 0.017503
Si Si6 0.956279 0.448880 0.339724
O O1 0.243386 0.233250 0.541193
O O2 0.547887 0.338249 0.685633
O O3 0.160816 0.383044 0.363857
O O4 0.449040 0.292257 0.162620
O O5 0.833732 0.868878 0.795420
O O6 0.891880 0.005406 0.659675
O O7 0.237079 0.919626 0.004938
O O8 0.590130 0.156832 0.828125
O O9 0.099083 0.147752 0.902421
O O10 0.863777 0.265841 0.033570
O O11 0.719647 0.405510 0.169220
O O12 0.976652 0.480153 0.642888
#
# Coordination Sequence:
#
# PCOD9131478 Si02
#       6
#     2   2   2   2   2   2
#     4  11  27  46  76 106 144 195 253 311 371 444
#     4  12  27  50  77 112 160 200 248 312 383 460
#     4  11  28  50  81 112 150 200 260 315 375 448
#     4  11  27  46  76 106 144 195 253 311 371 444
#     4  11  28  50  81 112 150 200 260 315 375 448
#     4  12  27  44  73 106 154 192 244 308 379 456
#
# _framework density 25.274722000000001
#
# number of rings (size 3 to 8) (size 9 to 14) (size 15 to 20)
#    0.000    0.667    1.667    3.000   21.000    5.333 
#    0.000    0.000    0.000    0.000    0.000    0.000 
#    0.000    0.000    0.000    0.000    0.000    0.000 
#
# Total GULP energy -67105.566105 kJ/mol
# GULP energy per Si atom -5592.130509 kJ/mol
# Density = 2.521720 g / cm^3
# Si number density = 25.274722 Si / 1000 Ang^3
#
#
#
# Elastic Constant Matrix: (Units=GPa)
#
#
# Indices 1 2 3 4 5 6 
#
# 1 80.7630 12.6465 27.3875 0.0000 -1.8242 0.0000
# 2 12.6465 86.6640 18.4984 0.0000 8.6561 0.0000
# 3 27.3875 18.4984 103.4065 0.0000 -1.7331 0.0000
# 4 0.0000 0.0000 0.0000 67.8342 0.0000 7.0738
# 5 -1.8242 8.6561 -1.7331 0.0000 41.5467 0.0000
# 6 0.0000 0.0000 0.0000 7.0738 0.0000 31.0106
#
#
#
# Elastic Compliance Matrix: (Units=1/GPa)
#
#
# Indices 1 2 3 4 5 6 
#
# 1 0.013761 -0.001359 -0.003389 0.000000 0.000746 0.000000
# 2 -0.001359 0.012416 -0.001907 0.000000 -0.002726 0.000000
# 3 -0.003389 -0.001907 0.010921 0.000000 0.000704 0.000000
# 4 0.000000 0.000000 0.000000 0.015101 0.000000 -0.003445
# 5 0.000746 -0.002726 0.000704 0.000000 0.024699 0.000000
# 6 0.000000 0.000000 0.000000 -0.003445 0.000000 0.033033
#
#
# Mechanical properties :
#
#
# Convention : Reuss Voigt Hill
#
# Bulk Modulus (GPa) = 42.03751 43.09985 42.56868
# Shear Modulus (GPa) = 38.11816 42.23170 40.17493
#
# Velocity S-wave (km/s) = 3.88771 4.09211 3.99122
# Velocity P-wave (km/s) = 6.06801 6.27827 6.17403
#
# Compressibility (1/GPa) = 0.02378828
#
# Stress axis : x y z
#
# Youngs Moduli (GPa) = 72.67014 80.53820 91.56617
#
# Poissons Ratio (x) = 0.10947 0.31031
# Poissons Ratio (y) = 0.09877 0.17461
# Poissons Ratio (z) = 0.24627 0.15358
#
# Static dielectric constant tensor:
#      x y z
#    x 2.050790 0.000000 0.022860 
#    y 0.000000 2.078800 0.000000 
#    z 0.022860 0.000000 2.033200 
# 
# From -- ./inp_files/195.got.cif
#   From: 2010.05.17/outbox.cif.g08.bks.cpg/sg7_cif.got.tgz:195.got - 2010.06.03 19:44:50.
