data_PCOD9131869
_publ_section_title
;
Structure prediction by ZEFSAII (Michael W. Deem and Ramdas Pophale) SiO2 
 PCOD9131869
Probable space group: C M
;
_chemical_formula_sum "Si O2"
_cell_formula_units_Z 28
_cell_length_a 15.828118
_cell_length_b 13.302325
_cell_length_c 16.563246
_cell_angle_alpha 90.000000
_cell_angle_beta 25.006472
_cell_angle_gamma 90.000000
_cell_volume 1474.197711
_symmetry_space_group_name_H-M "C M"
_symmetry_group_IT_number 8
_symmetry_cell_setting 'monoclinic'
loop_
_space_group_symop_operation_xyz
x,y,z
x,-y,z
1/2+x,1/2+y,z
1/2+x,1/2-y,z
loop_
_atom_site_type_symbol
_atom_site_label
_atom_site_fract_x
_atom_site_fract_y
_atom_site_fract_z
Si Si1 0.393660 0.699619 0.807970
Si Si2 0.280642 0.730078 0.239282
Si Si3 0.604167 0.883300 0.921746
Si Si4 0.817248 0.708516 0.655969
Si Si5 0.740740 0.116249 0.104526
Si Si6 0.661664 0.616470 0.953814
Si Si7 0.782123 0.617250 0.507847
O O1 0.258683 0.638021 0.861398
O O2 0.311025 0.812550 0.874746
O O3 0.627291 0.682551 0.590513
O O4 0.363322 0.655479 0.923043
O O5 0.273395 0.680361 0.156410
O O6 0.052792 0.729892 0.466055
O O7 0.391508 0.836876 0.133270
O O8 0.437701 0.661860 0.153270
O O9 0.692529 0.811593 0.774772
O O10 0.594345 0.000000 0.910854
O O11 0.732978 0.636722 0.799582
O O12 0.793451 0.657891 0.589790
O O13 0.508298 0.123336 0.280985
O O14 0.786299 0.000000 0.083135
O O15 0.668268 0.500000 0.967941
O O16 0.721476 0.500000 0.559483
#
# Coordination Sequence:
#
# PCOD9131869 Si02
#       7
#     4   4   4   4   4   4   4
#     4  10  20  33  49  73 104 131 162 204 247 302
#     4   9  19  35  55  78 100 127 171 218 253 293
#     4  10  21  34  51  76 105 139 169 199 249 306
#     4   9  19  35  55  78 100 127 171 218 253 293
#     4  10  19  32  53  77  99 127 165 211 258 296
#     4  10  21  35  52  75 103 136 169 205 252 302
#     4  10  19  32  53  77  99 127 165 211 258 296
#
# _framework density 18.993383000000001
#
# number of rings (size 3 to 8) (size 9 to 14) (size 15 to 20)
#    0.000    2.571    0.000    3.857    0.000    6.857 
#    0.000    2.857    0.000    1.714    0.000    0.000 
#    0.000    0.000    0.000    0.000    0.000    0.000 
#
# Total GULP energy -78116.303663 kJ/mol
# GULP energy per Si atom -5579.735976 kJ/mol
# Density = 1.895015 g / cm^3
# Si number density = 18.993383 Si / 1000 Ang^3
#
#
#
# Elastic Constant Matrix: (Units=GPa)
#
#
# Indices 1 2 3 4 5 6 
#
# 1 37.4278 7.1568 5.0962 -0.0032 -25.2572 0.0014
# 2 7.1568 122.7375 19.1365 -0.0050 -27.8262 0.0027
# 3 5.0962 19.1365 72.0950 0.0001 -29.7162 -0.0012
# 4 -0.0032 -0.0050 0.0001 18.5166 0.0013 -1.4528
# 5 -25.2572 -27.8262 -29.7162 0.0013 36.0400 -0.0001
# 6 0.0014 0.0027 -0.0012 -1.4528 -0.0001 12.5722
#
#
#
# Elastic Compliance Matrix: (Units=1/GPa)
#
#
# Indices 1 2 3 4 5 6 
#
# 1 0.078764 0.010613 0.026880 0.000010 0.085557 -0.000006
# 2 0.010613 0.011336 0.004414 0.000003 0.019830 -0.000003
# 3 0.026880 0.004414 0.030248 0.000002 0.047187 0.000000
# 4 0.000010 0.000003 0.000002 0.054500 0.000010 0.006298
# 5 0.085557 0.019830 0.047187 0.000010 0.141924 -0.000007
# 6 -0.000006 -0.000003 0.000000 0.006298 -0.000007 0.080268
#
#
# Mechanical properties :
#
#
# Convention : Reuss Voigt Hill
#
# Bulk Modulus (GPa) = 4.89803 32.78214 18.84008
# Shear Modulus (GPa) = 13.11373 26.81714 19.96543
#
# Velocity S-wave (km/s) = 2.63047 3.76163 3.24571
# Velocity P-wave (km/s) = 3.43660 6.01363 4.89765
#
# Compressibility (1/GPa) = 0.20416391
#
# Stress axis : x y z
#
# Youngs Moduli (GPa) = 12.69613 88.21372 33.05961
#
# Poissons Ratio (x) = -0.93622 -0.88865
# Poissons Ratio (y) = -0.13474 -0.14594
# Poissons Ratio (z) = -0.34127 -0.38941
#
# Static dielectric constant tensor:
#      x y z
#    x 1.671450 0.000000 -0.021820 
#    y 0.000000 1.637850 0.000000 
#    z -0.021820 0.000000 1.699110 
# 
# From -- ./inp_files/26912.got.cif
#   From: 2010.05.17/outbox.cif.g08.bks.cpg/sg8_14_cif.got.tgz:26912.got - 2010.06.03 19:46:02.
