data_PCOD9131360
_publ_section_title
;
Structure prediction by ZEFSAII (Michael W. Deem and Ramdas Pophale) SiO2 
 PCOD9131360
Probable space group: P C
;
_chemical_formula_sum "Si O2"
_cell_formula_units_Z 14
_cell_length_a 21.726978
_cell_length_b 6.718645
_cell_length_c 5.334992
_cell_angle_alpha 90.000000
_cell_angle_beta 49.886996
_cell_angle_gamma 90.000000
_cell_volume 595.591624
_symmetry_space_group_name_H-M "P C"
_symmetry_group_IT_number 7
_symmetry_cell_setting 'monoclinic'
loop_
_space_group_symop_operation_xyz
x,y,z
x,-y,1/2+z
loop_
_atom_site_type_symbol
_atom_site_label
_atom_site_fract_x
_atom_site_fract_y
_atom_site_fract_z
Si Si1 0.492720 0.621818 0.085900
Si Si2 0.149919 0.133056 0.836503
Si Si3 0.337280 0.887244 0.473570
Si Si4 0.833372 0.867574 0.160276
Si Si5 0.273952 0.506720 0.510078
Si Si6 0.992917 0.623603 0.689617
Si Si7 0.652000 0.869729 0.590664
O O1 0.485794 0.545675 0.389185
O O2 0.424564 0.788837 0.213381
O O3 0.580556 0.716246 0.817311
O O4 0.201302 0.348066 0.710144
O O5 0.161674 0.989185 0.563967
O O6 0.057943 0.204367 0.062220
O O7 0.263932 0.738800 0.595732
O O8 0.330540 0.941682 0.783778
O O9 0.903003 0.706399 0.949932
O O10 0.742500 0.785101 0.379035
O O11 0.842043 0.978469 0.404897
O O12 0.323302 0.530964 0.129466
O O13 0.006381 0.533475 0.378533
O O14 0.644795 0.969513 0.335299
#
# Coordination Sequence:
#
# PCOD9131360 Si02
#       7
#     2   2   2   2   2   2   2
#     4  12  24  41  65  95 134 172 218 277 328 396
#     4  12  26  46  72  98 132 179 223 273 341 403
#     4  12  26  46  72  98 132 179 223 273 341 403
#     4  10  21  39  63  92 128 171 220 270 326 398
#     4  12  26  46  68 100 136 164 222 280 326 402
#     4  12  24  41  65  95 134 172 218 277 328 396
#     4  10  21  39  63  92 128 171 220 270 326 398
#
# _framework density 23.506038
#
# number of rings (size 3 to 8) (size 9 to 14) (size 15 to 20)
#    0.000    0.571    0.000    8.571    0.000    4.571 
#    0.000    0.000    0.000    0.000    0.000    0.000 
#    0.000    0.000    0.000    0.000    0.000    0.000 
#
# Total GULP energy -78146.634795 kJ/mol
# GULP energy per Si atom -5581.902485 kJ/mol
# Density = 2.345254 g / cm^3
# Si number density = 23.506038 Si / 1000 Ang^3
#
#
#
# Elastic Constant Matrix: (Units=GPa)
#
#
# Indices 1 2 3 4 5 6 
#
# 1 107.7503 42.6636 38.2040 0.0000 -4.4156 0.0000
# 2 42.6636 70.7682 26.5098 0.0000 -18.8923 0.0000
# 3 38.2040 26.5098 106.8782 0.0000 10.5477 0.0000
# 4 0.0000 0.0000 0.0000 59.3950 0.0000 -9.6330
# 5 -4.4156 -18.8923 10.5477 0.0000 46.1525 0.0000
# 6 0.0000 0.0000 0.0000 -9.6330 0.0000 51.4617
#
#
#
# Elastic Compliance Matrix: (Units=1/GPa)
#
#
# Indices 1 2 3 4 5 6 
#
# 1 0.013036 -0.007078 -0.002805 0.000000 -0.001009 0.000000
# 2 -0.007078 0.022383 -0.003948 0.000000 0.009387 0.000000
# 3 -0.002805 -0.003948 0.011790 0.000000 -0.004579 0.000000
# 4 0.000000 0.000000 0.000000 0.017364 0.000000 0.003250
# 5 -0.001009 0.009387 -0.004579 0.000000 0.026460 0.000000
# 6 0.000000 0.000000 0.000000 0.003250 0.000000 0.020040
#
#
# Mechanical properties :
#
#
# Convention : Reuss Voigt Hill
#
# Bulk Modulus (GPa) = 51.15691 55.57238 53.36464
# Shear Modulus (GPa) = 34.42336 43.26980 38.84658
#
# Velocity S-wave (km/s) = 3.83096 4.29510 4.06965
# Velocity P-wave (km/s) = 6.43264 6.94912 6.69586
#
# Compressibility (1/GPa) = 0.01954770
#
# Stress axis : x y z
#
# Youngs Moduli (GPa) = 76.70915 44.67750 84.81631
#
# Poissons Ratio (x) = 0.31622 0.23789
# Poissons Ratio (y) = 0.54293 0.33487
# Poissons Ratio (z) = 0.21515 0.17639
#
# Static dielectric constant tensor:
#      x y z
#    x 1.900820 0.000000 0.103430 
#    y 0.000000 2.016140 0.000000 
#    z 0.103430 0.000000 2.126270 
# 
# From -- ./inp_files/1428.got.cif
#   From: 2010.05.17/outbox.cif.g08.bks.cpg/sg7_cif.got.tgz:1428.got - 2010.06.03 19:44:50.
