data_PCOD9131019
_publ_section_title
;
Structure prediction by ZEFSAII (Michael W. Deem and Ramdas Pophale) SiO2 
 PCOD9131019
Probable space group: P M
;
_chemical_formula_sum "Si O2"
_cell_formula_units_Z 12
_cell_length_a 4.947691
_cell_length_b 13.314954
_cell_length_c 7.605249
_cell_angle_alpha 90.000000
_cell_angle_beta 72.227580
_cell_angle_gamma 90.000000
_cell_volume 477.110213
_symmetry_space_group_name_H-M "P M"
_symmetry_group_IT_number 6
_symmetry_cell_setting 'monoclinic'
loop_
_space_group_symop_operation_xyz
x,y,z
x,-y,z
loop_
_atom_site_type_symbol
_atom_site_label
_atom_site_fract_x
_atom_site_fract_y
_atom_site_fract_z
Si Si1 0.154920 0.885382 0.117350
Si Si2 0.165202 0.247079 0.612913
Si Si3 0.730485 0.884735 0.536022
Si Si4 0.306141 0.615103 0.284381
Si Si5 0.707969 0.248216 0.044365
Si Si6 0.400530 0.614967 0.871425
O O1 0.949661 0.885571 0.328004
O O2 0.457939 0.835217 0.092410
O O3 0.994067 0.811762 0.016217
O O4 0.184621 0.000000 0.051573
O O5 0.906953 0.167830 0.656220
O O6 0.121943 0.316477 0.447696
O O7 0.253147 0.327955 0.743381
O O8 0.446657 0.176302 0.548476
O O9 0.658775 0.000000 0.590858
O O10 0.326995 0.500000 0.337478
O O11 0.608807 0.673625 0.216414
O O12 0.227364 0.614375 0.091819
O O13 0.669541 0.320361 0.882841
O O14 0.468125 0.500000 0.815384
#
# Coordination Sequence:
#
# PCOD9131019 Si02
#       6
#     2   2   2   2   2   2
#     4  11  20  37  64  93 122 162 204 246 303 360
#     4  12  22  41  65  90 125 158 205 249 299 364
#     4  11  22  39  62  91 124 162 202 252 303 356
#     4   9  19  40  65  92 123 160 202 247 304 361
#     4  10  20  39  60  91 122 160 200 246 299 358
#     4   9  21  42  64  91 124 160 201 252 306 357
#
# _framework density 25.151423000000001
#
# number of rings (size 3 to 8) (size 9 to 14) (size 15 to 20)
#    1.000    0.667    3.333    1.500    0.000    4.000 
#    0.000   15.000    0.000    0.000    0.000    0.000 
#    0.000    0.000    0.000    0.000    0.000    0.000 
#
# Total GULP energy -67073.886894 kJ/mol
# GULP energy per Si atom -5589.490574 kJ/mol
# Density = 2.509418 g / cm^3
# Si number density = 25.151423 Si / 1000 Ang^3
#
#
#
# Elastic Constant Matrix: (Units=GPa)
#
#
# Indices 1 2 3 4 5 6 
#
# 1 84.0167 50.6898 -12.6445 0.0000 3.0422 0.0000
# 2 50.6898 263.5830 44.5313 0.0000 12.6511 0.0000
# 3 -12.6445 44.5313 74.4899 0.0000 17.6939 0.0000
# 4 0.0000 0.0000 0.0000 34.7880 0.0000 -0.0565
# 5 3.0422 12.6511 17.6939 0.0000 28.3280 0.0000
# 6 0.0000 0.0000 0.0000 -0.0565 0.0000 2.1850
#
#
#
# Elastic Compliance Matrix: (Units=1/GPa)
#
#
# Indices 1 2 3 4 5 6 
#
# 1 0.015087 -0.003678 0.005583 0.000000 -0.003465 0.000000
# 2 -0.003678 0.005120 -0.003800 0.000000 0.000482 0.000000
# 3 0.005583 -0.003800 0.019237 0.000000 -0.010918 0.000000
# 4 0.000000 0.000000 0.000000 0.028747 0.000000 0.000743
# 5 -0.003465 0.000482 -0.010918 0.000000 0.042277 0.000000
# 6 0.000000 0.000000 0.000000 0.000743 0.000000 0.457682
#
#
# Mechanical properties :
#
#
# Convention : Reuss Voigt Hill
#
# Bulk Modulus (GPa) = 28.04675 65.24921 46.64798
# Shear Modulus (GPa) = 8.56419 35.69441 22.12930
#
# Velocity S-wave (km/s) = 1.84728 3.77129 2.96943
# Velocity P-wave (km/s) = 3.96551 6.70540 5.50852
#
# Compressibility (1/GPa) = 0.03565475
#
# Stress axis : x y z
#
# Youngs Moduli (GPa) = 66.28050 195.30901 51.98213
#
# Poissons Ratio (x) = 0.71843 -0.29022
# Poissons Ratio (y) = 0.24381 0.19752
# Poissons Ratio (z) = -0.37005 0.74212
#
# Static dielectric constant tensor:
#      x y z
#    x 1.999760 0.000000 -0.111670 
#    y 0.000000 1.920340 0.000000 
#    z -0.111670 0.000000 2.284760 
# 
# From -- ./inp_files/1106.got.cif
#   From: 2010.05.17/outbox.cif.g08.bks.cpg/sg6_1_cif.got.tgz:1106.got - 2010.06.03 19:42:10.
