data_PCOD9131366
_publ_section_title
;
Structure prediction by ZEFSAII (Michael W. Deem and Ramdas Pophale) SiO2 
 PCOD9131366
Probable space group: P C
;
_chemical_formula_sum "Si O2"
_cell_formula_units_Z 14
_cell_length_a 7.300565
_cell_length_b 15.976351
_cell_length_c 5.476361
_cell_angle_alpha 90.000000
_cell_angle_beta 67.903117
_cell_angle_gamma 90.000000
_cell_volume 591.826723
_symmetry_space_group_name_H-M "P C"
_symmetry_group_IT_number 7
_symmetry_cell_setting 'monoclinic'
loop_
_space_group_symop_operation_xyz
x,y,z
x,-y,1/2+z
loop_
_atom_site_type_symbol
_atom_site_label
_atom_site_fract_x
_atom_site_fract_y
_atom_site_fract_z
Si Si1 0.078920 0.739028 0.698980
Si Si2 0.500904 0.902822 0.886579
Si Si3 0.516632 0.683592 0.582059
Si Si4 0.652819 0.907606 0.310768
Si Si5 0.070004 0.846471 0.202639
Si Si6 0.671055 0.671073 0.006280
Si Si7 0.417051 0.498103 0.662335
O O1 0.293702 0.697428 0.604348
O O2 0.063258 0.792184 0.455572
O O3 0.896902 0.674491 0.807020
O O4 0.065751 0.793194 0.954251
O O5 0.529674 0.867346 0.597211
O O6 0.570253 0.998755 0.820574
O O7 0.629424 0.870124 0.051093
O O8 0.276061 0.895736 0.086295
O O9 0.553327 0.714344 0.839785
O O10 0.542681 0.583196 0.597140
O O11 0.654243 0.709840 0.287187
O O12 0.878016 0.905059 0.286084
O O13 0.561460 0.581642 0.089761
O O14 0.296945 0.497837 0.472335
#
# Coordination Sequence:
#
# PCOD9131366 Si02
#       7
#     2   2   2   2   2   2   2
#     4  12  26  40  63  95 130 170 204 252 322 384
#     4  10  23  42  67  94 124 166 208 258 312 365
#     4  10  21  40  62  89 127 166 210 261 309 370
#     4  10  23  42  67  94 124 166 208 258 312 365
#     4  12  26  42  63  97 130 162 210 256 310 386
#     4  10  21  40  62  89 127 166 210 261 309 370
#     4   8  16  34  58  84 116 158 204 258 302 344
#
# _framework density 23.655571999999999
#
# number of rings (size 3 to 8) (size 9 to 14) (size 15 to 20)
#    0.000    1.714    0.000    3.429    0.000   11.429 
#    0.000   12.857    0.000    0.000    0.000    0.000 
#    0.000    0.000    0.000    0.000    0.000    0.000 
#
# Total GULP energy -78155.084614 kJ/mol
# GULP energy per Si atom -5582.506044 kJ/mol
# Density = 2.360173 g / cm^3
# Si number density = 23.655572 Si / 1000 Ang^3
#
#
#
# Elastic Constant Matrix: (Units=GPa)
#
#
# Indices 1 2 3 4 5 6 
#
# 1 124.6699 11.1024 41.8052 0.0000 -3.9861 0.0000
# 2 11.1024 78.4608 21.3555 0.0000 8.2800 0.0000
# 3 41.8052 21.3555 195.4634 0.0000 45.3465 0.0000
# 4 0.0000 0.0000 0.0000 32.5232 0.0000 5.5767
# 5 -3.9861 8.2800 45.3465 0.0000 66.7557 0.0000
# 6 0.0000 0.0000 0.0000 5.5767 0.0000 12.9158
#
#
#
# Elastic Compliance Matrix: (Units=1/GPa)
#
#
# Indices 1 2 3 4 5 6 
#
# 1 0.008953 -0.000866 -0.002338 0.000000 0.002230 0.000000
# 2 -0.000866 0.013254 -0.001032 0.000000 -0.000995 0.000000
# 3 -0.002338 -0.001032 0.006804 0.000000 -0.004633 0.000000
# 4 0.000000 0.000000 0.000000 0.033206 0.000000 -0.014337
# 5 0.002230 -0.000995 -0.004633 0.000000 0.018384 0.000000
# 6 0.000000 0.000000 0.000000 -0.014337 0.000000 0.083615
#
#
# Mechanical properties :
#
#
# Convention : Reuss Voigt Hill
#
# Bulk Modulus (GPa) = 48.68731 60.79114 54.73922
# Shear Modulus (GPa) = 27.84999 44.06100 35.95550
#
# Velocity S-wave (km/s) = 3.43492 4.32047 3.90289
# Velocity P-wave (km/s) = 6.02976 7.11638 6.59549
#
# Compressibility (1/GPa) = 0.02053923
#
# Stress axis : x y z
#
# Youngs Moduli (GPa) = 111.68824 75.45104 146.97938
#
# Poissons Ratio (x) = 0.06534 0.34359
# Poissons Ratio (y) = 0.09672 0.15170
# Poissons Ratio (z) = 0.26109 0.07787
#
# Static dielectric constant tensor:
#      x y z
#    x 1.853590 0.000000 0.077410 
#    y 0.000000 2.063410 0.000000 
#    z 0.077410 0.000000 1.992610 
# 
# From -- ./inp_files/202.got.cif
#   From: 2010.05.17/outbox.cif.g08.bks.cpg/sg7_cif.got.tgz:202.got - 2010.06.03 19:44:50.
