data_PCOD9131200
_publ_section_title
;
Structure prediction by ZEFSAII (Michael W. Deem and Ramdas Pophale) SiO2 
 PCOD9131200
Probable space group: P C
;
_chemical_formula_sum "Si O2"
_cell_formula_units_Z 14
_cell_length_a 7.268812
_cell_length_b 17.370243
_cell_length_c 5.203533
_cell_angle_alpha 90.000000
_cell_angle_beta 118.896038
_cell_angle_gamma 90.000000
_cell_volume 575.205161
_symmetry_space_group_name_H-M "P C"
_symmetry_group_IT_number 7
_symmetry_cell_setting 'monoclinic'
loop_
_space_group_symop_operation_xyz
x,y,z
x,-y,1/2+z
loop_
_atom_site_type_symbol
_atom_site_label
_atom_site_fract_x
_atom_site_fract_y
_atom_site_fract_z
Si Si1 0.462110 0.684334 0.171310
Si Si2 0.568185 0.476194 0.609728
Si Si3 0.114301 0.949766 0.015490
Si Si4 0.355655 0.169648 0.335851
Si Si5 0.618912 0.050038 0.194165
Si Si6 0.208127 0.690656 0.511801
Si Si7 0.086512 0.460548 0.707640
O O1 0.601475 0.609087 0.249970
O O2 0.508222 0.767110 0.075682
O O3 0.385301 0.696249 0.408594
O O4 0.282929 0.657957 0.839553
O O5 0.657085 0.468319 0.385863
O O6 0.342512 0.518309 0.381533
O O7 0.153365 0.017120 0.827830
O O8 0.243314 0.879259 0.982552
O O9 0.866532 0.930907 0.855129
O O10 0.486828 0.120237 0.221301
O O11 0.175898 0.220346 0.067819
O O12 0.580111 0.017344 0.881489
O O13 0.060778 0.626900 0.286165
O O14 0.016333 0.518629 0.878864
#
# Coordination Sequence:
#
# PCOD9131200 Si02
#       7
#     2   2   2   2   2   2   2
#     4  10  18  25  39  68  97 127 163 195 242 292
#     4  10  13  22  36  54  91 130 156 197 233 267
#     4  10  22  38  56  76  97 129 169 201 242 302
#     4  10  22  32  54  74 108 128 158 208 256 286
#     4  10  22  38  56  76  97 129 169 201 242 302
#     4  10  18  25  39  68  97 127 163 195 242 292
#     4  10  13  22  36  54  91 130 156 197 233 267
#
# _framework density 24.339144000000001
#
# number of rings (size 3 to 8) (size 9 to 14) (size 15 to 20)
#    0.857    1.143    5.714    0.857    4.000    0.000 
#    0.000    0.000    0.000    0.000    0.000    0.000 
#    0.000   20.571    0.000    0.571    0.000    0.000 
#
# Total GULP energy -77935.136954 kJ/mol
# GULP energy per Si atom -5566.795497 kJ/mol
# Density = 2.428375 g / cm^3
# Si number density = 24.339144 Si / 1000 Ang^3
#
#
#
# Elastic Constant Matrix: (Units=GPa)
#
#
# Indices 1 2 3 4 5 6 
#
# 1 70.7604 26.7251 15.0991 0.0000 -26.8572 0.0000
# 2 26.7251 133.3388 13.6723 0.0000 -17.5203 0.0000
# 3 15.0991 13.6723 118.9124 0.0000 -8.9500 0.0000
# 4 0.0000 0.0000 0.0000 50.3569 0.0000 -8.4101
# 5 -26.8572 -17.5203 -8.9500 0.0000 38.1333 0.0000
# 6 0.0000 0.0000 0.0000 -8.4101 0.0000 -0.5893
#
#
#
# Elastic Compliance Matrix: (Units=1/GPa)
#
#
# Indices 1 2 3 4 5 6 
#
# 1 0.020128 -0.002209 -0.001335 0.000000 0.012848 0.000000
# 2 -0.002209 0.008274 -0.000511 0.000000 0.002126 0.000000
# 3 -0.001335 -0.000511 0.008703 0.000000 0.000868 0.000000
# 4 0.000000 0.000000 0.000000 0.005869 0.000000 -0.083761
# 5 0.012848 0.002126 0.000868 0.000000 0.036453 0.000000
# 6 0.000000 0.000000 0.000000 -0.083761 0.000000 -0.501531
#
#
# Mechanical properties :
#
#
# Convention : Reuss Voigt Hill
#
# Bulk Modulus (GPa) = 34.48826 48.22275 41.35551
# Shear Modulus (GPa) = -12.36616 35.41451 11.52418
#
# Velocity S-wave (km/s) = -2.25650 3.81864 2.17833
# Velocity P-wave (km/s) = 2.72242 6.26886 4.83271
#
# Compressibility (1/GPa) = 0.02899537
#
# Stress axis : x y z
#
# Youngs Moduli (GPa) = 49.68272 120.85797 114.90167
#
# Poissons Ratio (x) = 0.26700 0.15337
# Poissons Ratio (y) = 0.10976 0.05870
# Poissons Ratio (z) = 0.06631 0.06174
#
# Static dielectric constant tensor:
#      x y z
#    x 2.242370 0.000000 -0.010690 
#    y 0.000000 2.010470 0.000000 
#    z -0.010690 0.000000 1.968930 
# 
# From -- ./inp_files/705.got.cif
#   From: 2010.05.17/outbox.cif.g08.bks.cpg/sg7_cif.got.tgz:705.got - 2010.06.03 19:44:50.
