data_PCOD9131947
_publ_section_title
;
Structure prediction by ZEFSAII (Michael W. Deem and Ramdas Pophale) SiO2 
 PCOD9131947
Probable space group: C M
;
_chemical_formula_sum "Si O2"
_cell_formula_units_Z 32
_cell_length_a 15.988891
_cell_length_b 8.082006
_cell_length_c 10.771045
_cell_angle_alpha 90.000000
_cell_angle_beta 116.317895
_cell_angle_gamma 90.000000
_cell_volume 1247.590348
_symmetry_space_group_name_H-M "C M"
_symmetry_group_IT_number 8
_symmetry_cell_setting 'monoclinic'
loop_
_space_group_symop_operation_xyz
x,y,z
x,-y,z
1/2+x,1/2+y,z
1/2+x,1/2-y,z
loop_
_atom_site_type_symbol
_atom_site_label
_atom_site_fract_x
_atom_site_fract_y
_atom_site_fract_z
Si Si1 0.143810 0.805594 0.836940
Si Si2 0.933413 0.805854 0.903064
Si Si3 0.252170 0.700768 0.662044
Si Si4 0.606917 0.692825 0.154340
Si Si5 0.274291 0.802664 0.412187
Si Si6 0.998621 0.684615 0.312153
Si Si7 0.984940 0.194919 0.571149
Si Si8 0.319549 0.687613 0.089642
O O1 0.193905 0.771517 0.737752
O O2 0.039208 0.747855 0.731442
O O3 0.142152 0.000000 0.860882
O O4 0.212944 0.730840 0.985602
O O5 0.034370 0.734091 0.006221
O O6 0.872866 0.801950 0.991040
O O7 0.948219 0.000000 0.882004
O O8 0.858990 0.739573 0.756452
O O9 0.249734 0.500000 0.665377
O O10 0.223472 0.763341 0.508849
O O11 0.620876 0.500000 0.132386
O O12 0.548199 0.698655 0.244985
O O13 0.707663 0.762712 0.258132
O O14 0.386286 0.797427 0.219856
O O15 0.374514 0.720474 0.493352
O O16 0.285393 0.000000 0.406530
O O17 0.026992 0.500000 0.295950
O O18 0.020328 0.717419 0.469431
O O19 0.003858 0.000000 0.572842
O O20 0.326452 0.500000 0.138427
#
# Coordination Sequence:
#
# PCOD9131947 Si02
#       8
#     4   4   4   4   4   4   4   4
#     4  10  20  35  57  84 110 140 183 230 272 319
#     4   7  13  28  51  77 102 131 168 208 255 312
#     4  10  19  33  56  82 108 141 176 215 270 330
#     4   9  18  35  57  80 107 140 178 222 272 319
#     4  11  23  37  54  77 107 143 184 229 271 319
#     4  11  21  34  57  86 112 141 182 226 266 320
#     4  11  24  40  55  74 108 150 187 227 276 325
#     4   9  17  32  55  82 112 142 174 219 274 326
#
# _framework density 25.649443000000002
#
# number of rings (size 3 to 8) (size 9 to 14) (size 15 to 20)
#    0.000    2.250    0.000    5.250    0.000    6.000 
#    0.000    1.875    0.000    6.000    0.000    0.000 
#    0.000    0.000    0.000    0.000    0.000    0.000 
#
# Total GULP energy -89484.028726 kJ/mol
# GULP energy per Si atom -5592.751795 kJ/mol
# Density = 2.559106 g / cm^3
# Si number density = 25.649443 Si / 1000 Ang^3
#
#
#
# Elastic Constant Matrix: (Units=GPa)
#
#
# Indices 1 2 3 4 5 6 
#
# 1 140.2861 1.7864 30.6320 0.0000 35.9784 0.0000
# 2 1.7864 66.5081 15.3269 0.0000 6.3954 0.0000
# 3 30.6320 15.3269 159.6719 0.0000 36.3260 0.0000
# 4 0.0000 0.0000 0.0000 21.4966 0.0000 6.1355
# 5 35.9784 6.3954 36.3260 0.0000 55.7242 0.0000
# 6 0.0000 0.0000 0.0000 6.1355 0.0000 25.1006
#
#
#
# Elastic Compliance Matrix: (Units=1/GPa)
#
#
# Indices 1 2 3 4 5 6 
#
# 1 0.008580 0.000388 -0.000485 0.000000 -0.005268 0.000000
# 2 0.000388 0.015436 -0.001287 0.000000 -0.001183 0.000000
# 3 -0.000485 -0.001287 0.007485 0.000000 -0.004418 0.000000
# 4 0.000000 0.000000 0.000000 0.050008 0.000000 -0.012224
# 5 -0.005268 -0.001183 -0.004418 0.000000 0.024363 0.000000
# 6 0.000000 0.000000 0.000000 -0.012224 0.000000 0.042828
#
#
# Mechanical properties :
#
#
# Convention : Reuss Voigt Hill
#
# Bulk Modulus (GPa) = 34.80320 51.32853 43.06586
# Shear Modulus (GPa) = 31.04730 41.71233 36.37982
#
# Velocity S-wave (km/s) = 3.48292 4.03705 3.77018
# Velocity P-wave (km/s) = 5.45643 6.46416 5.98155
#
# Compressibility (1/GPa) = 0.02873299
#
# Stress axis : x y z
#
# Youngs Moduli (GPa) = 116.54520 64.78501 133.60795
#
# Poissons Ratio (x) = -0.02513 0.06476
# Poissons Ratio (y) = -0.04520 0.17195
# Poissons Ratio (z) = 0.05649 0.08337
#
# Static dielectric constant tensor:
#      x y z
#    x 2.155810 0.000000 -0.011390 
#    y 0.000000 1.899120 0.000000 
#    z -0.011390 0.000000 2.037830 
# 
# From -- ./inp_files/22777.got.cif
#   From: 2010.05.17/outbox.cif.g08.bks.cpg/sg8_12_cif.got.tgz:22777.got - 2010.06.03 19:46:02.
