data_PCOD9131010
_publ_section_title
;
Structure prediction by ZEFSAII (Michael W. Deem and Ramdas Pophale) SiO2 
 PCOD9131010
Probable space group: P M
;
_chemical_formula_sum "Si O2"
_cell_formula_units_Z 16
_cell_length_a 9.449605
_cell_length_b 8.467806
_cell_length_c 11.386713
_cell_angle_alpha 90.000000
_cell_angle_beta 65.710855
_cell_angle_gamma 90.000000
_cell_volume 830.482826
_symmetry_space_group_name_H-M "P M"
_symmetry_group_IT_number 6
_symmetry_cell_setting 'monoclinic'
loop_
_space_group_symop_operation_xyz
x,y,z
x,-y,z
loop_
_atom_site_type_symbol
_atom_site_label
_atom_site_fract_x
_atom_site_fract_y
_atom_site_fract_z
Si Si1 0.805680 0.188061 0.062120
Si Si2 0.341278 0.191262 0.589446
Si Si3 0.033864 0.311501 0.576405
Si Si4 0.173367 0.188436 0.291471
Si Si5 0.495978 0.808306 0.296556
Si Si6 0.125420 0.315273 0.052709
Si Si7 0.425972 0.187106 0.823105
Si Si8 0.737497 0.687287 0.828624
O O1 0.659718 0.245797 0.189994
O O2 0.964732 0.268965 0.046166
O O3 0.822362 0.000000 0.072907
O O4 0.766486 0.224389 0.940761
O O5 0.173319 0.261546 0.615790
O O6 0.454634 0.238840 0.443705
O O7 0.401322 0.238435 0.696549
O O8 0.327501 0.000000 0.592045
O O9 0.037740 0.500000 0.558907
O O10 0.069631 0.230101 0.439938
O O11 0.870676 0.266300 0.690036
O O12 0.349148 0.239079 0.266254
O O13 0.118792 0.271855 0.192236
O O14 0.173072 0.000000 0.273781
O O15 0.498211 0.000000 0.293631
O O16 0.155404 0.500000 0.027409
O O17 0.267675 0.221183 0.946452
O O18 0.569325 0.273365 0.834889
O O19 0.457234 0.000000 0.813643
O O20 0.752160 0.500000 0.844640
#
# Coordination Sequence:
#
# PCOD9131010 Si02
#       8
#     2   2   2   2   2   2   2   2
#     4  11  22  38  61  86 115 153 199 245 290 347
#     4   9  19  37  60  85 114 150 194 240 286 341
#     4  10  21  37  58  86 119 154 191 234 292 353
#     4  10  20  38  63  88 115 150 195 241 287 345
#     4   8  17  35  59  86 113 143 184 237 288 335
#     4  12  25  40  58  84 120 155 191 241 301 355
#     4  11  23  39  61  87 114 152 202 246 289 347
#     4  11  24  40  58  84 120 157 194 242 299 351
#
# _framework density 19.265902000000001
#
# number of rings (size 3 to 8) (size 9 to 14) (size 15 to 20)
#    0.000    1.750    0.000    5.250    0.000    7.000 
#    0.000    6.875    0.000    0.000    0.000    0.000 
#    0.000    0.000    0.000    0.000    0.000    0.000 
#
# Total GULP energy -89426.858379 kJ/mol
# GULP energy per Si atom -5589.178649 kJ/mol
# Density = 1.922205 g / cm^3
# Si number density = 19.265902 Si / 1000 Ang^3
#
#
#
# Elastic Constant Matrix: (Units=GPa)
#
#
# Indices 1 2 3 4 5 6 
#
# 1 90.4961 -10.2639 46.5174 0.0000 0.1829 0.0000
# 2 -10.2639 19.8880 -8.2597 0.0000 1.9060 0.0000
# 3 46.5174 -8.2597 66.5680 0.0000 -7.8354 0.0000
# 4 0.0000 0.0000 0.0000 21.0432 0.0000 -6.0217
# 5 0.1829 1.9060 -7.8354 0.0000 40.9997 0.0000
# 6 0.0000 0.0000 0.0000 -6.0217 0.0000 23.9537
#
#
#
# Elastic Compliance Matrix: (Units=1/GPa)
#
#
# Indices 1 2 3 4 5 6 
#
# 1 0.017839 0.004378 -0.012231 0.000000 -0.002621 0.000000
# 2 0.004378 0.054149 0.003438 0.000000 -0.001880 0.000000
# 3 -0.012231 0.003438 0.024535 0.000000 0.004584 0.000000
# 4 0.000000 0.000000 0.000000 0.051205 0.000000 0.012872
# 5 -0.002621 -0.001880 0.004584 0.000000 0.025366 0.000000
# 6 0.000000 0.000000 0.000000 0.012872 0.000000 0.044983
#
#
# Mechanical properties :
#
#
# Convention : Reuss Voigt Hill
#
# Bulk Modulus (GPa) = 11.40335 25.88219 18.64277
# Shear Modulus (GPa) = 19.52071 27.12987 23.32529
#
# Velocity S-wave (km/s) = 3.18657 3.75664 3.48329
# Velocity P-wave (km/s) = 4.41257 5.68154 5.08678
#
# Compressibility (1/GPa) = 0.08769355
#
# Stress axis : x y z
#
# Youngs Moduli (GPa) = 56.05645 18.46757 40.75736
#
# Poissons Ratio (x) = -0.08085 0.49851
# Poissons Ratio (y) = -0.24541 -0.14013
# Poissons Ratio (z) = 0.68564 -0.06350
#
# Static dielectric constant tensor:
#      x y z
#    x 1.630600 0.000000 -0.004050 
#    y 0.000000 1.657800 0.000000 
#    z -0.004050 0.000000 1.663740 
# 
# From -- ./inp_files/3753.got.cif
#   From: 2010.05.17/outbox.cif.g08.bks.cpg/sg6_2_cif.got.tgz:3753.got - 2010.06.03 19:42:10.
