data_PCOD9131080
_publ_section_title
;
Structure prediction by ZEFSAII (Michael W. Deem and Ramdas Pophale) SiO2 
 PCOD9131080
Probable space group: P M
;
_chemical_formula_sum "Si O2"
_cell_formula_units_Z 16
_cell_length_a 14.155907
_cell_length_b 9.136558
_cell_length_c 7.140416
_cell_angle_alpha 90.000000
_cell_angle_beta 58.413395
_cell_angle_gamma 90.000000
_cell_volume 786.695487
_symmetry_space_group_name_H-M "P M"
_symmetry_group_IT_number 6
_symmetry_cell_setting 'monoclinic'
loop_
_space_group_symop_operation_xyz
x,y,z
x,-y,z
loop_
_atom_site_type_symbol
_atom_site_label
_atom_site_fract_x
_atom_site_fract_y
_atom_site_fract_z
Si Si1 0.315120 0.332442 0.759820
Si Si2 0.264514 0.666934 0.364693
Si Si3 0.535930 0.173906 0.449443
Si Si4 0.695642 0.827822 0.588029
Si Si5 0.043316 0.171293 0.671300
Si Si6 0.483024 0.829006 0.073417
Si Si7 0.912369 0.674046 0.512476
Si Si8 0.092195 0.827237 0.061752
O O1 0.315729 0.500000 0.822928
O O2 0.291390 0.333180 0.559924
O O3 0.434306 0.257372 0.651934
O O4 0.214487 0.241779 0.952585
O O5 0.240048 0.500000 0.334823
O O6 0.156900 0.768425 0.461181
O O7 0.374713 0.730434 0.154380
O O8 0.652427 0.211286 0.425095
O O9 0.527906 0.201603 0.236850
O O10 0.519341 0.000000 0.496404
O O11 0.794474 0.731567 0.563286
O O12 0.727917 0.000000 0.558799
O O13 0.585642 0.810160 0.828446
O O14 0.943687 0.261629 0.683416
O O15 0.029768 0.000000 0.645315
O O16 0.056193 0.189349 0.881027
O O17 0.448484 0.000000 0.103661
O O18 0.917912 0.500000 0.507026
O O19 0.004443 0.742502 0.278952
O O20 0.093905 0.000000 0.102626
#
# Coordination Sequence:
#
# PCOD9131080 Si02
#       8
#     2   2   2   2   2   2   2   2
#     4   9  17  31  54  85 118 147 179 225 282 340
#     4   9  17  31  54  85 118 147 179 225 282 340
#     4   9  18  34  56  80 108 144 184 228 279 333
#     4  10  22  39  56  77 106 143 193 241 275 324
#     4  10  21  39  63  87 114 151 193 236 282 337
#     4   9  18  34  56  80 108 144 184 228 279 333
#     4  12  26  41  58  83 116 151 191 241 291 342
#     4  10  21  39  63  87 114 151 193 236 282 337
#
# _framework density 20.338238
#
# number of rings (size 3 to 8) (size 9 to 14) (size 15 to 20)
#    0.000    2.250    0.000    2.625    0.000    7.500 
#    0.000    6.250    0.000    0.000    0.000    0.000 
#    0.000    0.000    0.000    0.000    0.000    0.000 
#
# Total GULP energy -89437.466132 kJ/mol
# GULP energy per Si atom -5589.841633 kJ/mol
# Density = 2.029195 g / cm^3
# Si number density = 20.338238 Si / 1000 Ang^3
#
#
#
# Elastic Constant Matrix: (Units=GPa)
#
#
# Indices 1 2 3 4 5 6 
#
# 1 107.9555 55.8187 1.7735 0.0000 -3.3779 0.0000
# 2 55.8187 112.6832 13.6546 0.0000 -4.6686 0.0000
# 3 1.7735 13.6546 33.5085 0.0000 9.5148 0.0000
# 4 0.0000 0.0000 0.0000 6.1665 0.0000 39.8660
# 5 -3.3779 -4.6686 9.5148 0.0000 21.3324 0.0000
# 6 0.0000 0.0000 0.0000 39.8660 0.0000 -86.8887
#
#
#
# Elastic Compliance Matrix: (Units=1/GPa)
#
#
# Indices 1 2 3 4 5 6 
#
# 1 0.012577 -0.006498 0.002084 0.000000 -0.000360 0.000000
# 2 -0.006498 0.013047 -0.006288 0.000000 0.004631 0.000000
# 3 0.002084 -0.006288 0.037318 0.000000 -0.017691 0.000000
# 4 0.000000 0.000000 0.000000 0.040887 0.000000 0.018760
# 5 -0.000360 0.004631 -0.017691 0.000000 0.055724 0.000000
# 6 0.000000 0.000000 0.000000 0.018760 0.000000 -0.002902
#
#
# Mechanical properties :
#
#
# Convention : Reuss Voigt Hill
#
# Bulk Modulus (GPa) = 24.07278 44.07119 34.07199
# Shear Modulus (GPa) = 26.05514 0.31540 13.18527
#
# Velocity S-wave (km/s) = 3.58312 0.39422 2.54893
# Velocity P-wave (km/s) = 5.38333 4.68224 5.04498
#
# Compressibility (1/GPa) = 0.04154069
#
# Stress axis : x y z
#
# Youngs Moduli (GPa) = 79.50864 76.64630 26.79640
#
# Poissons Ratio (x) = 0.49803 -0.05585
# Poissons Ratio (y) = 0.51663 0.16849
# Poissons Ratio (z) = -0.16573 0.48192
#
# Static dielectric constant tensor:
#      x y z
#    x 1.745380 0.000000 0.062720 
#    y 0.000000 1.680510 0.000000 
#    z 0.062720 0.000000 1.724050 
# 
# From -- ./inp_files/4106.got.cif
#   From: 2010.05.17/outbox.cif.g08.bks.cpg/sg6_3_cif.got.tgz:4106.got - 2010.06.03 19:42:10.
