data_PCOD9131134
_publ_section_title
;
Structure prediction by ZEFSAII (Michael W. Deem and Ramdas Pophale) SiO2 
 PCOD9131134
Probable space group: P M
;
_chemical_formula_sum "Si O2"
_cell_formula_units_Z 16
_cell_length_a 9.740488
_cell_length_b 8.398062
_cell_length_c 19.761606
_cell_angle_alpha 90.000000
_cell_angle_beta 150.694065
_cell_angle_gamma 90.000000
_cell_volume 791.244267
_symmetry_space_group_name_H-M "P M"
_symmetry_group_IT_number 6
_symmetry_cell_setting 'monoclinic'
loop_
_space_group_symop_operation_xyz
x,y,z
x,-y,z
loop_
_atom_site_type_symbol
_atom_site_label
_atom_site_fract_x
_atom_site_fract_y
_atom_site_fract_z
Si Si1 0.734970 0.687211 0.517940
Si Si2 0.189632 0.683290 0.496982
Si Si3 0.552040 0.189890 0.774996
Si Si4 0.176253 0.693977 0.022946
Si Si5 0.313869 0.810768 0.818493
Si Si6 0.605026 0.687940 0.314282
Si Si7 0.203451 0.817859 0.360707
Si Si8 0.577152 0.310714 0.070287
O O1 0.807114 0.500000 0.545873
O O2 0.701723 0.755413 0.427575
O O3 0.433027 0.711440 0.421792
O O4 0.986478 0.771018 0.666061
O O5 0.247332 0.500000 0.502846
O O6 0.352028 0.726374 0.634788
O O7 0.259381 0.794824 0.464423
O O8 0.861571 0.698391 0.372641
O O9 0.471162 0.239594 0.816675
O O10 0.512937 0.000000 0.753977
O O11 0.866991 0.236380 0.890891
O O12 0.162149 0.500000 0.017358
O O13 0.334700 0.750644 0.159201
O O14 0.363845 0.740075 0.038548
O O15 0.348796 0.000000 0.841358
O O16 0.440158 0.728472 0.939028
O O17 0.552994 0.500000 0.304622
O O18 0.883203 0.767646 0.208863
O O19 0.245118 0.000000 0.358189
O O20 0.616304 0.500000 0.094126
#
# Coordination Sequence:
#
# PCOD9131134 Si02
#       8
#     2   2   2   2   2   2   2   2
#     4  11  23  42  68  97 125 168 218 263 315 381
#     4  11  21  42  70  94 122 163 216 268 313 377
#     4  11  25  42  62  95 132 170 210 258 324 384
#     4  10  22  42  66  94 124 163 214 266 315 374
#     4  11  25  44  63  92 134 173 211 265 325 381
#     4   9  19  39  67  95 121 154 209 269 315 363
#     4  12  26  43  64  96 133 169 207 263 328 384
#     4  11  24  44  68  93 125 170 219 266 315 380
#
# _framework density 20.221315000000001
#
# number of rings (size 3 to 8) (size 9 to 14) (size 15 to 20)
#    0.000    1.250    2.500    3.000    3.500    2.500 
#    0.000    0.625    0.000    0.000    0.000    0.000 
#    0.000    0.000    0.000    0.000    0.000    0.000 
#
# Total GULP energy -89424.611029 kJ/mol
# GULP energy per Si atom -5589.038189 kJ/mol
# Density = 2.017529 g / cm^3
# Si number density = 20.221315 Si / 1000 Ang^3
#
#
#
# Elastic Constant Matrix: (Units=GPa)
#
#
# Indices 1 2 3 4 5 6 
#
# 1 59.6296 -5.6400 23.2048 0.0000 1.6676 0.0000
# 2 -5.6400 28.4363 -3.2300 0.0000 3.4035 0.0000
# 3 23.2048 -3.2300 78.9819 0.0000 3.7360 0.0000
# 4 0.0000 0.0000 0.0000 22.3090 0.0000 -3.6027
# 5 1.6676 3.4035 3.7360 0.0000 30.2212 0.0000
# 6 0.0000 0.0000 0.0000 -3.6027 0.0000 24.0078
#
#
#
# Elastic Compliance Matrix: (Units=1/GPa)
#
#
# Indices 1 2 3 4 5 6 
#
# 1 0.019235 0.003283 -0.005481 0.000000 -0.000753 0.000000
# 2 0.003283 0.036424 0.000732 0.000000 -0.004374 0.000000
# 3 -0.005481 0.000732 0.014375 0.000000 -0.001557 0.000000
# 4 0.000000 0.000000 0.000000 0.045938 0.000000 0.006894
# 5 -0.000753 -0.004374 -0.001557 0.000000 0.033816 0.000000
# 6 0.000000 0.000000 0.000000 0.006894 0.000000 0.042688
#
#
# Mechanical properties :
#
#
# Convention : Reuss Voigt Hill
#
# Bulk Modulus (GPa) = 14.90302 21.74639 18.32470
# Shear Modulus (GPa) = 22.95939 25.48848 24.22394
#
# Velocity S-wave (km/s) = 3.37323 3.55417 3.46488
# Velocity P-wave (km/s) = 4.74948 5.25551 5.00889
#
# Compressibility (1/GPa) = 0.06710051
#
# Stress axis : x y z
#
# Youngs Moduli (GPa) = 51.98919 27.45441 69.56467
#
# Poissons Ratio (x) = -0.09012 0.38130
# Poissons Ratio (y) = -0.17066 -0.05092
# Poissons Ratio (z) = 0.28497 -0.02010
#
# Static dielectric constant tensor:
#      x y z
#    x 1.722080 0.000000 -0.013170 
#    y 0.000000 1.697050 0.000000 
#    z -0.013170 0.000000 1.686130 
# 
# From -- ./inp_files/2689.got.cif
#   From: 2010.05.17/outbox.cif.g08.bks.cpg/sg6_2_cif.got.tgz:2689.got - 2010.06.03 19:42:10.
