data_PCOD9131131
_publ_section_title
;
Structure prediction by ZEFSAII (Michael W. Deem and Ramdas Pophale) SiO2 
 PCOD9131131
Probable space group: P M
;
_chemical_formula_sum "Si O2"
_cell_formula_units_Z 16
_cell_length_a 7.010195
_cell_length_b 17.763910
_cell_length_c 9.824419
_cell_angle_alpha 90.000000
_cell_angle_beta 44.318526
_cell_angle_gamma 90.000000
_cell_volume 854.738226
_symmetry_space_group_name_H-M "P M"
_symmetry_group_IT_number 6
_symmetry_cell_setting 'monoclinic'
loop_
_space_group_symop_operation_xyz
x,y,z
x,-y,z
loop_
_atom_site_type_symbol
_atom_site_label
_atom_site_fract_x
_atom_site_fract_y
_atom_site_fract_z
Si Si1 0.848640 0.842275 0.112050
Si Si2 0.645040 0.410686 0.905740
Si Si3 0.023048 0.585603 0.192919
Si Si4 0.835364 0.182598 0.436614
Si Si5 0.388636 0.911219 0.163285
Si Si6 0.018193 0.681048 0.923534
Si Si7 0.438651 0.087191 0.826562
Si Si8 0.657367 0.345000 0.595839
O O1 0.780248 0.820782 0.302903
O O2 0.606297 0.886626 0.163788
O O3 0.921890 0.766702 0.991477
O O4 0.119760 0.893146 0.976908
O O5 0.705625 0.500000 0.880939
O O6 0.675489 0.379621 0.736880
O O7 0.837666 0.363483 0.906625
O O8 0.322979 0.400368 0.103935
O O9 0.026500 0.500000 0.139378
O O10 0.786556 0.597715 0.422551
O O11 0.982926 0.641230 0.087826
O O12 0.609224 0.138696 0.638556
O O13 0.828770 0.268293 0.490694
O O14 0.121666 0.140385 0.312965
O O15 0.319651 0.000000 0.208812
O O16 0.507753 0.898855 0.950189
O O17 0.341055 0.674633 0.727135
O O18 0.488384 0.000000 0.770297
#
# Coordination Sequence:
#
# PCOD9131131 Si02
#       8
#     2   2   2   2   2   2   2   2
#     4  11  23  39  63  93 124 160 204 250 305 361
#     4  10  24  41  63  91 123 162 205 253 305 359
#     4  10  22  42  63  87 123 161 200 250 304 362
#     4  11  23  40  64  92 124 162 205 250 303 360
#     4  10  24  41  63  91 123 162 205 253 305 359
#     4  11  23  39  63  93 124 160 204 250 305 361
#     4  10  22  42  63  87 123 161 200 250 304 362
#     4  11  23  40  64  92 124 162 205 250 303 360
#
# _framework density 18.719183000000001
#
# number of rings (size 3 to 8) (size 9 to 14) (size 15 to 20)
#    0.000    1.500    2.500    1.500    3.500    6.000 
#    0.000    0.000    0.000    0.000    0.000    0.000 
#    0.000    0.000    0.000    0.000    0.000    0.000 
#
# Total GULP energy -89387.917368 kJ/mol
# GULP energy per Si atom -5586.744836 kJ/mol
# Density = 1.867658 g / cm^3
# Si number density = 18.719183 Si / 1000 Ang^3
#
#
#
# Elastic Constant Matrix: (Units=GPa)
#
#
# Indices 1 2 3 4 5 6 
#
# 1 58.9587 1.3559 5.5350 0.0000 4.4633 0.0000
# 2 1.3559 50.4107 -1.9438 0.0000 1.9249 0.0000
# 3 5.5350 -1.9438 67.1904 0.0000 -0.4708 0.0000
# 4 0.0000 0.0000 0.0000 72.5222 0.0000 1.8507
# 5 4.4633 1.9249 -0.4708 0.0000 8.4797 0.0000
# 6 0.0000 0.0000 0.0000 1.8507 0.0000 32.8969
#
#
#
# Elastic Compliance Matrix: (Units=1/GPa)
#
#
# Indices 1 2 3 4 5 6 
#
# 1 0.017823 -0.000179 -0.001539 0.000000 -0.009426 0.000000
# 2 -0.000179 0.020032 0.000563 0.000000 -0.004422 0.000000
# 3 -0.001539 0.000563 0.015037 0.000000 0.001517 0.000000
# 4 0.000000 0.000000 0.000000 0.013809 0.000000 -0.000777
# 5 -0.009426 -0.004422 0.001517 0.000000 0.123979 0.000000
# 6 0.000000 0.000000 0.000000 -0.000777 0.000000 0.030442
#
#
# Mechanical properties :
#
#
# Convention : Reuss Voigt Hill
#
# Bulk Modulus (GPa) = 19.76966 20.71710 20.24338
# Shear Modulus (GPa) = 20.80798 34.22059 27.51429
#
# Velocity S-wave (km/s) = 3.33766 4.28027 3.83801
# Velocity P-wave (km/s) = 5.04355 5.95978 5.52071
#
# Compressibility (1/GPa) = 0.05058255
#
# Stress axis : x y z
#
# Youngs Moduli (GPa) = 56.10650 49.91898 66.50342
#
# Poissons Ratio (x) = 0.00893 0.10238
# Poissons Ratio (y) = 0.01003 -0.03746
# Poissons Ratio (z) = 0.08637 -0.02812
#
# Static dielectric constant tensor:
#      x y z
#    x 1.614940 0.000000 -0.003470 
#    y 0.000000 1.559430 0.000000 
#    z -0.003470 0.000000 1.631570 
# 
# From -- ./inp_files/624.got.cif
#   From: 2010.05.17/outbox.cif.g08.bks.cpg/sg6_1_cif.got.tgz:624.got - 2010.06.03 19:42:10.
