data_PCOD9131178
_publ_section_title
;
Structure prediction by ZEFSAII (Michael W. Deem and Ramdas Pophale) SiO2 
 PCOD9131178
Probable space group: P M
;
_chemical_formula_sum "Si O2"
_cell_formula_units_Z 14
_cell_length_a 7.542211
_cell_length_b 13.914222
_cell_length_c 6.496924
_cell_angle_alpha 90.000000
_cell_angle_beta 114.155873
_cell_angle_gamma 90.000000
_cell_volume 622.110586
_symmetry_space_group_name_H-M "P M"
_symmetry_group_IT_number 6
_symmetry_cell_setting 'monoclinic'
loop_
_space_group_symop_operation_xyz
x,y,z
x,-y,z
loop_
_atom_site_type_symbol
_atom_site_label
_atom_site_fract_x
_atom_site_fract_y
_atom_site_fract_z
Si Si1 0.710350 0.611083 0.818520
Si Si2 0.386368 0.674166 0.330203
Si Si3 0.639019 0.108326 0.799056
Si Si4 0.259346 0.777883 0.610738
Si Si5 0.698292 0.234121 0.184620
Si Si6 0.143547 0.394517 0.852351
Si Si7 0.937104 0.889775 0.587676
O O1 0.697894 0.500000 0.883474
O O2 0.533435 0.628019 0.570445
O O3 0.917123 0.622944 0.799724
O O4 0.715694 0.682708 0.019142
O O5 0.217500 0.734414 0.366098
O O6 0.519694 0.738463 0.244407
O O7 0.270230 0.605546 0.120810
O O8 0.475456 0.183886 0.662458
O O9 0.833169 0.122356 0.757111
O O10 0.575389 0.000000 0.734077
O O11 0.672708 0.134577 0.050043
O O12 0.229753 0.689217 0.751047
O O13 0.163880 0.869309 0.676559
O O14 0.868578 0.201786 0.418814
O O15 0.158415 0.500000 0.759636
O O16 0.895796 0.000000 0.502844
#
# Coordination Sequence:
#
# PCOD9131178 Si02
#       7
#     2   2   2   2   2   2   2
#     4  11  25  44  69 103 142 186 233 284 346 411
#     4  12  23  42  69  99 140 184 230 282 347 409
#     4  11  23  43  67  95 133 176 227 286 345 410
#     4  12  23  44  68  99 138 177 228 290 341 413
#     4  12  21  44  66  97 134 177 224 288 341 406
#     4  11  25  43  67 101 140 185 235 284 346 415
#     4  11  25  44  71 102 135 181 234 288 351 416
#
# _framework density 22.504037
#
# number of rings (size 3 to 8) (size 9 to 14) (size 15 to 20)
#    0.000    0.571    4.286    3.857    0.000    3.429 
#    0.000    3.571    0.000    0.000    0.000    0.000 
#    0.000    0.000    0.000    0.000    0.000    0.000 
#
# Total GULP energy -78035.706768 kJ/mol
# GULP energy per Si atom -5573.979055 kJ/mol
# Density = 2.245282 g / cm^3
# Si number density = 22.504037 Si / 1000 Ang^3
#
#
#
# Elastic Constant Matrix: (Units=GPa)
#
#
# Indices 1 2 3 4 5 6 
#
# 1 102.3961 45.2783 20.6824 0.0000 -25.1628 0.0000
# 2 45.2783 133.8662 37.9019 0.0000 -23.6310 0.0000
# 3 20.6824 37.9019 70.3750 0.0000 -14.3617 0.0000
# 4 0.0000 0.0000 0.0000 33.7865 0.0000 0.3155
# 5 -25.1628 -23.6310 -14.3617 0.0000 34.1261 0.0000
# 6 0.0000 0.0000 0.0000 0.3155 0.0000 22.4872
#
#
#
# Elastic Compliance Matrix: (Units=1/GPa)
#
#
# Indices 1 2 3 4 5 6 
#
# 1 0.012982 -0.002892 -0.000780 0.000000 0.007241 0.000000
# 2 -0.002892 0.010136 -0.003951 0.000000 0.003224 0.000000
# 3 -0.000780 -0.003951 0.017384 0.000000 0.004005 0.000000
# 4 0.000000 0.000000 0.000000 0.029601 0.000000 -0.000415
# 5 0.007241 0.003224 0.004005 0.000000 0.038560 0.000000
# 6 0.000000 0.000000 0.000000 -0.000415 0.000000 0.044475
#
#
# Mechanical properties :
#
#
# Convention : Reuss Voigt Hill
#
# Bulk Modulus (GPa) = 39.59463 57.15137 48.37300
# Shear Modulus (GPa) = 28.27996 31.59829 29.93912
#
# Velocity S-wave (km/s) = 3.54879 3.75122 3.65141
# Velocity P-wave (km/s) = 5.86724 6.64931 6.27048
#
# Compressibility (1/GPa) = 0.02525595
#
# Stress axis : x y z
#
# Youngs Moduli (GPa) = 77.03132 98.65789 57.52379
#
# Poissons Ratio (x) = 0.28529 0.04487
# Poissons Ratio (y) = 0.22275 0.22729
# Poissons Ratio (z) = 0.06008 0.38982
#
# Static dielectric constant tensor:
#      x y z
#    x 2.070100 0.000000 0.135150 
#    y 0.000000 1.808810 0.000000 
#    z 0.135150 0.000000 1.961070 
# 
# From -- ./inp_files/1222.got.cif
#   From: 2010.05.17/outbox.cif.g08.bks.cpg/sg6_1_cif.got.tgz:1222.got - 2010.06.03 19:42:10.
