data_PCOD9131378
_publ_section_title
;
Structure prediction by ZEFSAII (Michael W. Deem and Ramdas Pophale) SiO2 
 PCOD9131378
Probable space group: P C
;
_chemical_formula_sum "Si O2"
_cell_formula_units_Z 14
_cell_length_a 6.173258
_cell_length_b 16.836194
_cell_length_c 5.516868
_cell_angle_alpha 90.000000
_cell_angle_beta 106.256687
_cell_angle_gamma 90.000000
_cell_volume 550.465305
_symmetry_space_group_name_H-M "P C"
_symmetry_group_IT_number 7
_symmetry_cell_setting 'monoclinic'
loop_
_space_group_symop_operation_xyz
x,y,z
x,-y,1/2+z
loop_
_atom_site_type_symbol
_atom_site_label
_atom_site_fract_x
_atom_site_fract_y
_atom_site_fract_z
Si Si1 0.436800 0.545150 0.456090
Si Si2 0.364686 0.753333 0.048106
Si Si3 0.662733 0.312591 0.263364
Si Si4 0.184866 0.889962 0.300835
Si Si5 0.847430 0.784975 0.444641
Si Si6 0.043830 0.641929 0.224361
Si Si7 0.472004 0.976733 0.702853
O O1 0.483853 0.494428 0.712518
O O2 0.813057 0.361806 0.501489
O O3 0.168794 0.567276 0.378391
O O4 0.219162 0.828029 0.093235
O O5 0.604546 0.775091 0.245601
O O6 0.233226 0.677035 0.104470
O O7 0.441627 0.726651 0.808247
O O8 0.807834 0.238540 0.209595
O O9 0.584738 0.375119 0.037847
O O10 0.969339 0.863921 0.388650
O O11 0.391020 0.893725 0.564736
O O12 0.240099 0.974374 0.192667
O O13 0.998795 0.712048 0.398998
O O14 0.585711 0.980120 0.003603
#
# Coordination Sequence:
#
# PCOD9131378 Si02
#       7
#     2   2   2   2   2   2   2
#     4  12  28  48  73 102 144 188 232 287 361 436
#     4  10  21  42  67 102 136 177 237 297 350 411
#     4  11  25  43  72 104 142 175 243 302 347 423
#     4   9  20  39  67  96 137 192 227 288 357 403
#     4  10  22  40  69 102 131 179 238 297 347 412
#     4  10  24  45  69  97 138 180 231 293 355 413
#     4   8  18  37  61  91 140 177 234 272 341 426
#
# _framework density 25.433029999999999
#
# number of rings (size 3 to 8) (size 9 to 14) (size 15 to 20)
#    0.857    1.143    1.429    0.857    6.000    5.714 
#    0.000    1.429    0.000    0.000    0.000    0.000 
#    0.000    0.000    0.000    0.000    0.000    0.000 
#
# Total GULP energy -78050.949919 kJ/mol
# GULP energy per Si atom -5575.067851 kJ/mol
# Density = 2.537514 g / cm^3
# Si number density = 25.433030 Si / 1000 Ang^3
#
#
#
# Elastic Constant Matrix: (Units=GPa)
#
#
# Indices 1 2 3 4 5 6 
#
# 1 66.6502 23.1935 45.1655 0.0000 -11.4663 0.0000
# 2 23.1935 82.7219 38.2156 0.0000 -5.7863 0.0000
# 3 45.1655 38.2156 124.0386 0.0000 -8.2307 0.0000
# 4 0.0000 0.0000 0.0000 40.6232 0.0000 -7.5535
# 5 -11.4663 -5.7863 -8.2307 0.0000 56.1596 0.0000
# 6 0.0000 0.0000 0.0000 -7.5535 0.0000 30.7476
#
#
#
# Elastic Compliance Matrix: (Units=1/GPa)
#
#
# Indices 1 2 3 4 5 6 
#
# 1 0.020910 -0.002596 -0.006613 0.000000 0.003033 0.000000
# 2 -0.002596 0.014455 -0.003479 0.000000 0.000450 0.000000
# 3 -0.006613 -0.003479 0.011541 0.000000 -0.000017 0.000000
# 4 0.000000 0.000000 0.000000 0.025795 0.000000 0.006337
# 5 0.003033 0.000450 -0.000017 0.000000 0.018469 0.000000
# 6 0.000000 0.000000 0.000000 0.006337 0.000000 0.034080
#
#
# Mechanical properties :
#
#
# Convention : Reuss Voigt Hill
#
# Bulk Modulus (GPa) = 46.44405 54.06224 50.25314
# Shear Modulus (GPa) = 31.68568 36.62849 34.15708
#
# Velocity S-wave (km/s) = 3.53349 3.79911 3.66870
# Velocity P-wave (km/s) = 5.91171 6.36766 6.14392
#
# Compressibility (1/GPa) = 0.02153128
#
# Stress axis : x y z
#
# Youngs Moduli (GPa) = 47.82429 69.18077 86.65134
#
# Poissons Ratio (x) = 0.17956 0.57302
# Poissons Ratio (y) = 0.12413 0.30142
# Poissons Ratio (z) = 0.31626 0.24065
#
# Static dielectric constant tensor:
#      x y z
#    x 2.004240 0.000000 -0.011040 
#    y 0.000000 2.020990 0.000000 
#    z -0.011040 0.000000 2.134240 
# 
# From -- ./inp_files/285.got.cif
#   From: 2010.05.17/outbox.cif.g08.bks.cpg/sg7_cif.got.tgz:285.got - 2010.06.03 19:44:50.
