data_PCOD9131994
_publ_section_title
;
Structure prediction by ZEFSAII (Michael W. Deem and Ramdas Pophale) SiO2 
 PCOD9131994
Probable space group: C M
;
_chemical_formula_sum "Si O2"
_cell_formula_units_Z 32
_cell_length_a 20.676272
_cell_length_b 8.585048
_cell_length_c 25.678279
_cell_angle_alpha 90.000000
_cell_angle_beta 23.162387
_cell_angle_gamma 90.000000
_cell_volume 1792.863674
_symmetry_space_group_name_H-M "C M"
_symmetry_group_IT_number 8
_symmetry_cell_setting 'monoclinic'
loop_
_space_group_symop_operation_xyz
x,y,z
x,-y,z
1/2+x,1/2+y,z
1/2+x,1/2-y,z
loop_
_atom_site_type_symbol
_atom_site_label
_atom_site_fract_x
_atom_site_fract_y
_atom_site_fract_z
Si Si1 0.604940 0.813346 0.616070
Si Si2 0.486187 0.685389 0.089448
Si Si3 0.964250 0.313601 0.326424
Si Si4 0.786420 0.187347 0.798062
Si Si5 0.091029 0.686801 0.118314
Si Si6 0.065676 0.311275 0.868465
Si Si7 0.764530 0.686629 0.165963
Si Si8 0.961095 0.688763 0.834112
O O1 0.116743 0.500000 0.606314
O O2 0.779224 0.741057 0.472662
O O3 0.459825 0.758703 0.685306
O O4 0.549008 0.764622 0.715662
O O5 0.500893 0.500000 0.076979
O O6 0.485679 0.744068 0.148907
O O7 0.331239 0.740694 0.170031
O O8 0.647122 0.758761 0.942278
O O9 0.974240 0.500000 0.321778
O O10 0.025497 0.264598 0.223517
O O11 0.088207 0.242083 0.277019
O O12 0.716698 0.237911 0.793207
O O13 0.795772 0.000000 0.792609
O O14 0.088129 0.500000 0.117444
O O15 0.277088 0.745842 0.973205
O O16 0.068283 0.500000 0.866058
O O17 0.056086 0.259406 0.816030
O O18 0.898767 0.265692 0.022467
O O19 0.769000 0.500000 0.166962
O O20 0.950324 0.500000 0.842405
#
# Coordination Sequence:
#
# PCOD9131994 Si02
#       8
#     4   4   4   4   4   4   4   4
#     4  11  23  37  57  84 115 156 196 236 287 347
#     4  11  21  34  56  86 118 150 188 240 290 341
#     4  11  24  40  58  83 117 156 196 241 290 345
#     4  10  19  34  56  83 115 151 189 237 288 337
#     4  11  22  36  57  86 114 148 196 245 290 337
#     4   8  16  31  55  84 111 142 181 229 285 333
#     4  10  19  35  59  85 115 151 189 236 289 344
#     4  10  19  35  58  85 113 146 191 238 285 340
#
# _framework density 17.84854
#
# number of rings (size 3 to 8) (size 9 to 14) (size 15 to 20)
#    0.000    1.750    2.500    3.750    0.000    2.000 
#    0.000    1.875    0.000    6.000    0.000    0.000 
#    0.000    0.000    0.000    0.000    0.000    0.000 
#
# Total GULP energy -89341.703642 kJ/mol
# GULP energy per Si atom -5583.856478 kJ/mol
# Density = 1.780792 g / cm^3
# Si number density = 17.848540 Si / 1000 Ang^3
#
#
#
# Elastic Constant Matrix: (Units=GPa)
#
#
# Indices 1 2 3 4 5 6 
#
# 1 142.7049 21.2166 51.2758 0.0003 -14.4637 0.0000
# 2 21.2166 37.6164 12.0719 -0.0009 3.7819 -0.0004
# 3 51.2758 12.0719 84.7317 0.0009 -6.9673 -0.0003
# 4 0.0003 -0.0009 0.0009 27.9483 0.0002 -6.4224
# 5 -14.4637 3.7819 -6.9673 0.0002 27.0768 0.0000
# 6 0.0000 -0.0004 -0.0003 -6.4224 0.0000 27.9601
#
#
#
# Elastic Compliance Matrix: (Units=1/GPa)
#
#
# Indices 1 2 3 4 5 6 
#
# 1 0.009938 -0.004469 -0.004995 0.000000 0.004647 0.000000
# 2 -0.004469 0.030552 -0.002243 0.000001 -0.007232 0.000001
# 3 -0.004995 -0.002243 0.015274 -0.000001 0.001575 0.000000
# 4 0.000000 0.000001 -0.000001 0.037774 -0.000001 0.008677
# 5 0.004647 -0.007232 0.001575 -0.000001 0.040830 0.000000
# 6 0.000000 0.000001 0.000000 0.008677 0.000000 0.037758
#
#
# Mechanical properties :
#
#
# Convention : Reuss Voigt Hill
#
# Bulk Modulus (GPa) = 30.91276 48.24240 39.57758
# Shear Modulus (GPa) = 24.23383 28.62961 26.43172
#
# Velocity S-wave (km/s) = 3.68876 4.00938 3.85241
# Velocity P-wave (km/s) = 5.95816 6.96570 6.48154
#
# Compressibility (1/GPa) = 0.03234910
#
# Stress axis : x y z
#
# Youngs Moduli (GPa) = 100.62630 32.73121 65.47181
#
# Poissons Ratio (x) = 0.14629 0.32703
# Poissons Ratio (y) = 0.44974 0.14684
# Poissons Ratio (z) = 0.50263 0.07341
#
# Static dielectric constant tensor:
#      x y z
#    x 1.628880 0.000000 0.001440 
#    y 0.000000 1.602260 0.000000 
#    z 0.001440 0.000000 1.570840 
# 
# From -- ./inp_files/31343.got.cif
#   From: 2010.05.17/outbox.cif.g08.bks.cpg/sg8_16_cif.got.tgz:31343.got - 2010.06.03 19:46:02.
