data_PCOD9131672
_publ_section_title
;
Structure prediction by ZEFSAII (Michael W. Deem and Ramdas Pophale) SiO2 
 PCOD9131672
Probable space group: C M
;
_chemical_formula_sum "Si O2"
_cell_formula_units_Z 18
_cell_length_a 13.334286
_cell_length_b 8.287825
_cell_length_c 17.064969
_cell_angle_alpha 90.000000
_cell_angle_beta 22.984617
_cell_angle_gamma 90.000000
_cell_volume 736.408946
_symmetry_space_group_name_H-M "C M"
_symmetry_group_IT_number 8
_symmetry_cell_setting 'monoclinic'
loop_
_space_group_symop_operation_xyz
x,y,z
x,-y,z
1/2+x,1/2+y,z
1/2+x,1/2-y,z
loop_
_atom_site_type_symbol
_atom_site_label
_atom_site_fract_x
_atom_site_fract_y
_atom_site_fract_z
Si Si1 0.029390 0.668455 0.657380
Si Si2 0.051834 0.500000 0.200066
Si Si3 0.874988 0.183154 0.254307
Si Si4 0.100000 0.000000 0.812739
Si Si5 0.863468 0.813854 0.576337
Si Si6 0.518330 0.500000 0.684560
O O1 0.883269 0.500000 0.760836
O O2 0.227498 0.666883 0.443589
O O3 0.198442 0.675608 0.615524
O O4 0.880349 0.835205 0.762243
O O5 0.052132 0.337024 0.146809
O O6 0.796345 0.500000 0.438662
O O7 0.320695 0.500000 0.052138
O O8 0.652445 0.246829 0.356000
O O9 0.966214 0.000000 0.171466
O O10 0.240371 0.173174 0.719543
O O11 0.065646 0.000000 0.742699
O O12 0.879406 0.000000 0.594986
#
# Coordination Sequence:
#
# PCOD9131672 Si02
#       6
#     4   2   4   2   4   2
#     4   8  16  28  48  76 100 136 178 220 258 322
#     4  10  20  34  56  83 110 143 186 232 274 327
#     4  10  18  32  54  83 107 145 187 222 276 334
#     4  10  20  34  56  83 110 143 186 232 274 327
#     4  10  18  32  54  83 107 145 187 222 276 334
#     4   8  16  32  52  72 102 142 176 210 276 320
#
# _framework density 24.442941999999999
#
# number of rings (size 3 to 8) (size 9 to 14) (size 15 to 20)
#    0.000    2.667    2.222    0.000    0.000    0.889 
#    0.000    0.000    0.000   24.000    0.000    0.000 
#    0.000    0.000    0.000    0.000    0.000    0.000 
#
# Total GULP energy -50131.955270 kJ/mol
# GULP energy per Si atom -5570.217252 kJ/mol
# Density = 2.438731 g / cm^3
# Si number density = 24.442942 Si / 1000 Ang^3
#
#
#
# Elastic Constant Matrix: (Units=GPa)
#
#
# Indices 1 2 3 4 5 6 
#
# 1 64.9097 27.3761 4.5584 -0.0014 5.4083 -0.0001
# 2 27.3761 275.3123 8.6025 0.0199 0.3070 -0.0004
# 3 4.5584 8.6025 76.0281 0.0160 16.0966 0.0000
# 4 -0.0014 0.0199 0.0160 0.4994 0.0003 -14.2910
# 5 5.4083 0.3070 16.0966 0.0003 27.0572 0.0000
# 6 -0.0001 -0.0004 0.0000 -14.2910 0.0000 41.1951
#
#
#
# Elastic Compliance Matrix: (Units=1/GPa)
#
#
# Indices 1 2 3 4 5 6 
#
# 1 0.016363 -0.001620 -0.000125 -0.000013 -0.003178 -0.000005
# 2 -0.001620 0.003807 -0.000450 0.000016 0.000548 0.000006
# 3 -0.000125 -0.000450 0.015108 0.000052 -0.008958 0.000018
# 4 -0.000013 0.000016 0.000052 -0.224301 -0.000026 -0.077813
# 5 -0.003178 0.000548 -0.008958 -0.000026 0.042917 -0.000009
# 6 -0.000005 0.000006 0.000018 -0.077813 -0.000009 -0.002719
#
#
# Mechanical properties :
#
#
# Convention : Reuss Voigt Hill
#
# Bulk Modulus (GPa) = 32.37414 55.25823 43.81618
# Shear Modulus (GPa) = -37.27396 38.79788 0.76196
#
# Velocity S-wave (km/s) = -3.90928 3.98839 0.55893
# Velocity P-wave (km/s) = 2.66517 6.62313 4.28735
#
# Compressibility (1/GPa) = 0.03088885
#
# Stress axis : x y z
#
# Youngs Moduli (GPa) = 61.11481 262.69309 66.19041
#
# Poissons Ratio (x) = 0.42546 0.00827
# Poissons Ratio (y) = 0.09898 0.02976
# Poissons Ratio (z) = 0.00764 0.11812
#
# Static dielectric constant tensor:
#      x y z
#    x 1.986570 0.000000 -0.024120 
#    y 0.000000 2.070250 0.000000 
#    z -0.024120 0.000000 1.902550 
# 
# From -- ./inp_files/9621.got.cif
#   From: 2010.05.17/outbox.cif.g08.bks.cpg/sg8_5_cif.got.tgz:9621.got - 2010.06.03 19:46:02.
