data_PCOD9131078
_publ_section_title
;
Structure prediction by ZEFSAII (Michael W. Deem and Ramdas Pophale) SiO2 
 PCOD9131078
Probable space group: P M
;
_chemical_formula_sum "Si O2"
_cell_formula_units_Z 13
_cell_length_a 4.735091
_cell_length_b 19.028508
_cell_length_c 5.622665
_cell_angle_alpha 90.000000
_cell_angle_beta 88.400196
_cell_angle_gamma 90.000000
_cell_volume 506.414299
_symmetry_space_group_name_H-M "P M"
_symmetry_group_IT_number 6
_symmetry_cell_setting 'monoclinic'
loop_
_space_group_symop_operation_xyz
x,y,z
x,-y,z
loop_
_atom_site_type_symbol
_atom_site_label
_atom_site_fract_x
_atom_site_fract_y
_atom_site_fract_z
Si Si1 0.768541 0.500000 0.712250
Si Si2 0.440319 0.110996 0.678661
Si Si3 0.962911 0.110355 0.336445
Si Si4 0.613591 0.000000 0.036577
Si Si5 0.629157 0.376475 0.032239
Si Si6 0.979890 0.728278 0.342404
Si Si7 0.490102 0.500000 0.349994
Si Si8 0.457993 0.728961 0.670914
O O1 0.801833 0.429669 0.855618
O O2 0.832703 0.500000 0.429910
O O3 0.426354 0.500000 0.631925
O O4 0.257663 0.088457 0.451012
O O5 0.425736 0.060800 0.901436
O O6 0.372887 0.191740 0.738103
O O7 0.757436 0.107177 0.571547
O O8 0.976997 0.191254 0.251699
O O9 0.819309 0.060757 0.149914
O O10 0.431941 0.326741 0.878494
O O11 0.840231 0.326570 0.170151
O O12 0.457878 0.430137 0.204297
O O13 0.782891 0.728732 0.582535
O O14 0.286122 0.711040 0.436709
#
# Coordination Sequence:
#
# PCOD9131078 Si02
#       8
#     1   2   2   1   2   2   1   2
#     4   8  18  34  60  93 132 169 215 265 320 384
#     4  10  23  39  57  86 118 154 202 254 306 371
#     4  10  23  39  57  86 118 154 202 254 306 371
#     4  12  22  38  62  80 120 156 208 238 330 348
#     4   9  19  34  63  89 124 162 212 251 325 370
#     4  10  21  39  61  87 121 158 205 258 315 374
#     4   8  18  34  60  93 132 169 215 265 320 384
#     4  10  21  39  61  87 121 158 205 258 315 374
#
# _framework density 25.670679
#
# number of rings (size 3 to 8) (size 9 to 14) (size 15 to 20)
#    0.923    1.231    0.000    2.769    0.000    3.692 
#    0.000   12.308    0.000    9.231    0.000    0.000 
#    0.000    0.000    0.000    0.000    0.000    0.000 
#
# Total GULP energy -72428.030375 kJ/mol
# GULP energy per Si atom -5571.386952 kJ/mol
# Density = 2.561225 g / cm^3
# Si number density = 25.670679 Si / 1000 Ang^3
#
#
#
# Elastic Constant Matrix: (Units=GPa)
#
#
# Indices 1 2 3 4 5 6 
#
# 1 58.8381 9.1674 1.3514 0.0000 -1.0352 0.0000
# 2 9.1674 222.7116 110.2578 0.0000 40.3463 0.0000
# 3 1.3514 110.2578 118.2708 0.0000 22.6433 0.0000
# 4 0.0000 0.0000 0.0000 -11.9447 0.0000 74.0822
# 5 -1.0352 40.3463 22.6433 0.0000 30.9138 0.0000
# 6 0.0000 0.0000 0.0000 74.0822 0.0000 -20.0229
#
#
#
# Elastic Compliance Matrix: (Units=1/GPa)
#
#
# Indices 1 2 3 4 5 6 
#
# 1 0.017235 -0.001438 0.000784 0.000000 0.001880 0.000000
# 2 -0.001438 0.009554 -0.007553 0.000000 -0.006985 0.000000
# 3 0.000784 -0.007553 0.015813 0.000000 -0.001698 0.000000
# 4 0.000000 0.000000 0.000000 0.003815 0.000000 0.014114
# 5 0.001880 -0.006985 -0.001698 0.000000 0.042771 0.000000
# 6 0.000000 0.000000 0.000000 0.014114 0.000000 0.002276
#
#
# Mechanical properties :
#
#
# Convention : Reuss Voigt Hill
#
# Bulk Modulus (GPa) = 38.18680 71.26375 54.72528
# Shear Modulus (GPa) = 42.87938 18.39216 30.63577
#
# Velocity S-wave (km/s) = 4.09144 2.67959 3.45833
# Velocity P-wave (km/s) = 6.10146 6.11512 6.10829
#
# Compressibility (1/GPa) = 0.02618706
#
# Stress axis : x y z
#
# Youngs Moduli (GPa) = 58.02179 104.66935 63.24088
#
# Poissons Ratio (x) = 0.15051 -0.04956
# Poissons Ratio (y) = 0.08343 0.47765
# Poissons Ratio (z) = -0.04547 0.79056
#
# Static dielectric constant tensor:
#      x y z
#    x 2.069730 0.000000 -0.083800 
#    y 0.000000 1.945650 0.000000 
#    z -0.083800 0.000000 1.992620 
# 
# From -- ./inp_files/577.got.cif
#   From: 2010.05.17/outbox.cif.g08.bks.cpg/sg6_1_cif.got.tgz:577.got - 2010.06.03 19:42:10.
