data_PCOD9131603
_publ_section_title
;
Structure prediction by ZEFSAII (Michael W. Deem and Ramdas Pophale) SiO2 
 PCOD9131603
Probable space group: C M
;
_chemical_formula_sum "Si O2"
_cell_formula_units_Z 30
_cell_length_a 5.384480
_cell_length_b 32.747107
_cell_length_c 8.436883
_cell_angle_alpha 90.000000
_cell_angle_beta 122.660638
_cell_angle_gamma 90.000000
_cell_volume 1252.419487
_symmetry_space_group_name_H-M "C M"
_symmetry_group_IT_number 8
_symmetry_cell_setting 'monoclinic'
loop_
_space_group_symop_operation_xyz
x,y,z
x,-y,z
1/2+x,1/2+y,z
1/2+x,1/2-y,z
loop_
_atom_site_type_symbol
_atom_site_label
_atom_site_fract_x
_atom_site_fract_y
_atom_site_fract_z
Si Si1 0.375000 0.270956 0.776280
Si Si2 0.838483 0.000000 0.984231
Si Si3 0.563586 0.924780 0.020634
Si Si4 0.536188 0.739087 0.347511
Si Si5 0.208196 0.642063 0.841828
Si Si6 0.546324 0.903346 0.358418
Si Si7 0.934732 0.934831 0.735821
Si Si8 0.127097 0.144981 0.452877
O O1 0.700034 0.260186 0.829557
O O2 0.185772 0.266010 0.543651
O O3 0.349586 0.314294 0.854777
O O4 0.780258 0.963056 0.093148
O O5 0.870758 0.965147 0.855761
O O6 0.700184 0.882382 0.004379
O O7 0.281223 0.937470 0.814598
O O8 0.433950 0.918698 0.151026
O O9 0.195061 0.748094 0.243407
O O10 0.582710 0.691379 0.386878
O O11 0.362642 0.610394 0.775637
O O12 0.866400 0.646539 0.675920
O O13 0.296992 0.881246 0.376461
O O14 0.706083 0.939073 0.513376
O O15 0.821090 0.873823 0.407201
#
# Coordination Sequence:
#
# PCOD9131603 Si02
#       8
#     4   2   4   4   4   4   4   4
#     4  10  20  30  56  98 127 173 235 277 333 389
#     4  10  24  46  70 104 134 176 224 274 346 406
#     4  11  24  45  70 100 137 183 217 283 340 411
#     4  10  18  29  56  91 124 172 228 277 333 385
#     4  10  21  37  66  96 133 178 233 277 335 398
#     4  11  26  41  69 101 134 177 224 273 342 398
#     4  10  23  43  70  98 135 173 226 277 331 413
#     4  11  21  39  61  99 132 173 235 279 325 409
#
# _framework density 23.953634000000001
#
# number of rings (size 3 to 8) (size 9 to 14) (size 15 to 20)
#    0.000    1.600    4.000    1.200   11.200    0.533 
#    0.000    1.333    0.000    4.800    0.000    0.000 
#    0.000    0.000    0.000    0.000    0.000    0.000 
#
# Total GULP energy -83588.451059 kJ/mol
# GULP energy per Si atom -5572.563404 kJ/mol
# Density = 2.389911 g / cm^3
# Si number density = 23.953634 Si / 1000 Ang^3
#
#
#
# Elastic Constant Matrix: (Units=GPa)
#
#
# Indices 1 2 3 4 5 6 
#
# 1 109.3661 4.1605 19.1644 0.0000 -6.2848 0.0000
# 2 4.1605 103.9774 8.2542 0.0000 -8.1018 0.0000
# 3 19.1644 8.2542 63.1187 0.0000 1.7633 0.0000
# 4 0.0000 0.0000 0.0000 -0.7397 0.0000 -13.4757
# 5 -6.2848 -8.1018 1.7633 0.0000 35.8587 0.0000
# 6 0.0000 0.0000 0.0000 -13.4757 0.0000 -16.6948
#
#
#
# Elastic Compliance Matrix: (Units=1/GPa)
#
#
# Indices 1 2 3 4 5 6 
#
# 1 0.009780 -0.000007 -0.003021 0.000000 0.001861 0.000000
# 2 -0.000007 0.009905 -0.001358 0.000000 0.002304 0.000000
# 3 -0.003021 -0.001358 0.016985 0.000000 -0.001671 0.000000
# 4 0.000000 0.000000 0.000000 0.098643 0.000000 -0.079622
# 5 0.001861 0.002304 -0.001671 0.000000 0.028816 0.000000
# 6 0.000000 0.000000 0.000000 -0.079622 0.000000 0.004371
#
#
# Mechanical properties :
#
#
# Convention : Reuss Voigt Hill
#
# Bulk Modulus (GPa) = 35.84227 37.73559 36.78893
# Shear Modulus (GPa) = 26.79979 20.01039 23.40509
#
# Velocity S-wave (km/s) = 3.34850 2.89343 3.12925
# Velocity P-wave (km/s) = 5.47226 5.19138 5.33367
#
# Compressibility (1/GPa) = 0.02790002
#
# Stress axis : x y z
#
# Youngs Moduli (GPa) = 102.24828 100.95912 58.87708
#
# Poissons Ratio (x) = 0.00066 0.17785
# Poissons Ratio (y) = 0.00067 0.07994
# Poissons Ratio (z) = 0.30885 0.13707
#
# Static dielectric constant tensor:
#      x y z
#    x 1.955030 0.000000 0.018990 
#    y 0.000000 1.894850 0.000000 
#    z 0.018990 0.000000 2.020110 
# 
# From -- ./inp_files/7196.got.cif
#   From: 2010.05.17/outbox.cif.g08.bks.cpg/sg8_4_cif.got.tgz:7196.got - 2010.06.03 19:46:02.
