data_PCOD9131106
_publ_section_title
;
Structure prediction by ZEFSAII (Michael W. Deem and Ramdas Pophale) SiO2 
 PCOD9131106
Probable space group: P M
;
_chemical_formula_sum "Si O2"
_cell_formula_units_Z 12
_cell_length_a 4.910074
_cell_length_b 11.517800
_cell_length_c 9.541529
_cell_angle_alpha 90.000000
_cell_angle_beta 90.325040
_cell_angle_gamma 90.000000
_cell_volume 539.595795
_symmetry_space_group_name_H-M "P M"
_symmetry_group_IT_number 6
_symmetry_cell_setting 'monoclinic'
loop_
_space_group_symop_operation_xyz
x,y,z
x,-y,z
loop_
_atom_site_type_symbol
_atom_site_label
_atom_site_fract_x
_atom_site_fract_y
_atom_site_fract_z
Si Si1 0.512110 0.718388 0.467730
Si Si2 0.941900 0.283438 0.938261
Si Si3 0.428038 0.632028 0.771826
Si Si4 0.984502 0.867949 0.406990
Si Si5 0.647527 0.872764 0.114738
Si Si6 0.606346 0.371828 0.171624
O O1 0.425322 0.652642 0.606496
O O2 0.257025 0.793494 0.413335
O O3 0.616764 0.638650 0.339560
O O4 0.759185 0.805793 0.502130
O O5 0.221309 0.288793 0.857858
O O6 0.725031 0.341478 0.832636
O O7 0.838454 0.155841 0.982971
O O8 0.888215 0.355157 0.084225
O O9 0.350620 0.500000 0.801940
O O10 0.838311 0.870442 0.253991
O O11 0.042718 0.000000 0.447233
O O12 0.472188 0.753181 0.127286
O O13 0.515796 0.000000 0.108968
O O14 0.498307 0.500000 0.135586
#
# Coordination Sequence:
#
# PCOD9131106 Si02
#       6
#     2   2   2   2   2   2
#     4  11  23  39  65  98 124 169 212 266 320 380
#     4  10  24  40  66  93 123 174 216 257 317 386
#     4  12  24  43  62  91 135 172 205 263 335 385
#     4  10  21  41  66  94 127 166 215 267 323 378
#     4   8  19  39  64  93 126 164 210 265 319 370
#     4   9  19  38  65  97 124 161 217 268 305 373
#
# _framework density 22.238868
#
# number of rings (size 3 to 8) (size 9 to 14) (size 15 to 20)
#    1.000    1.000    0.000    3.500    2.333    0.667 
#    0.000   13.333    0.000    0.000    0.000    0.000 
#    0.000    0.000    0.000    0.000    0.000    0.000 
#
# Total GULP energy -66855.609538 kJ/mol
# GULP energy per Si atom -5571.300795 kJ/mol
# Density = 2.218825 g / cm^3
# Si number density = 22.238868 Si / 1000 Ang^3
#
#
#
# Elastic Constant Matrix: (Units=GPa)
#
#
# Indices 1 2 3 4 5 6 
#
# 1 74.1521 3.7792 12.6013 0.0000 -8.2906 0.0000
# 2 3.7792 145.9446 19.7239 0.0000 4.7658 0.0000
# 3 12.6013 19.7239 125.7787 0.0000 -18.6247 0.0000
# 4 0.0000 0.0000 0.0000 13.4432 0.0000 0.3008
# 5 -8.2906 4.7658 -18.6247 0.0000 12.0339 0.0000
# 6 0.0000 0.0000 0.0000 0.3008 0.0000 15.0888
#
#
#
# Elastic Compliance Matrix: (Units=1/GPa)
#
#
# Indices 1 2 3 4 5 6 
#
# 1 0.014691 -0.000767 0.000249 0.000000 0.010811 0.000000
# 2 -0.000767 0.007367 -0.002061 0.000000 -0.006636 0.000000
# 3 0.000249 -0.002061 0.010891 0.000000 0.017844 0.000000
# 4 0.000000 0.000000 0.000000 0.074420 0.000000 -0.001484
# 5 0.010811 -0.006636 0.017844 0.000000 0.120792 0.000000
# 6 0.000000 0.000000 0.000000 -0.001484 0.000000 0.066304
#
#
# Mechanical properties :
#
#
# Convention : Reuss Voigt Hill
#
# Bulk Modulus (GPa) = 35.98227 46.45380 41.21804
# Shear Modulus (GPa) = 16.18717 28.76457 22.47587
#
# Velocity S-wave (km/s) = 2.70085 3.60034 3.18253
# Velocity P-wave (km/s) = 5.09324 6.18200 5.66385
#
# Compressibility (1/GPa) = 0.02779146
#
# Stress axis : x y z
#
# Youngs Moduli (GPa) = 68.06762 135.74026 91.81965
#
# Poissons Ratio (x) = 0.10413 -0.02289
# Poissons Ratio (y) = 0.05222 0.18924
# Poissons Ratio (z) = -0.01697 0.27976
#
# Static dielectric constant tensor:
#      x y z
#    x 1.813950 0.000000 0.002190 
#    y 0.000000 1.849260 0.000000 
#    z 0.002190 0.000000 1.832650 
# 
# From -- ./inp_files/2111.got.cif
#   From: 2010.05.17/outbox.cif.g08.bks.cpg/sg6_2_cif.got.tgz:2111.got - 2010.06.03 19:42:10.
