data_PCOD9131873
_publ_section_title
;
Structure prediction by ZEFSAII (Michael W. Deem and Ramdas Pophale) SiO2 
 PCOD9131873
Probable space group: C M
;
_chemical_formula_sum "Si O2"
_cell_formula_units_Z 32
_cell_length_a 21.236108
_cell_length_b 7.952248
_cell_length_c 12.642875
_cell_angle_alpha 90.000000
_cell_angle_beta 127.564784
_cell_angle_gamma 90.000000
_cell_volume 1692.388631
_symmetry_space_group_name_H-M "C M"
_symmetry_group_IT_number 8
_symmetry_cell_setting 'monoclinic'
loop_
_space_group_symop_operation_xyz
x,y,z
x,-y,z
1/2+x,1/2+y,z
1/2+x,1/2-y,z
loop_
_atom_site_type_symbol
_atom_site_label
_atom_site_fract_x
_atom_site_fract_y
_atom_site_fract_z
Si Si1 0.716830 0.702504 0.224080
Si Si2 0.480089 0.202351 0.252073
Si Si3 0.299280 0.203478 0.094509
Si Si4 0.387451 0.196179 0.797567
Si Si5 0.535640 0.203823 0.077253
Si Si6 0.753175 0.805216 0.818033
Si Si7 0.268300 0.205972 0.504467
Si Si8 0.131795 0.200369 0.527978
O O1 0.723492 0.500000 0.230747
O O2 0.756565 0.765232 0.156948
O O3 0.624211 0.745821 0.138010
O O4 0.759411 0.763331 0.375217
O O5 0.390656 0.262628 0.180554
O O6 0.512299 0.263714 0.171247
O O7 0.543183 0.250146 0.406251
O O8 0.477191 0.000000 0.243999
O O9 0.300454 0.000000 0.098566
O O10 0.255230 0.255217 0.942062
O O11 0.321245 0.206845 0.822572
O O12 0.344298 0.267032 0.649202
O O13 0.402402 0.000000 0.790793
O O14 0.469025 0.268046 0.926921
O O15 0.531442 0.000000 0.074601
O O16 0.670174 0.772439 0.673819
O O17 0.773602 0.000000 0.828716
O O18 0.190543 0.256476 0.492595
O O19 0.269730 0.000000 0.506322
O O20 0.137165 0.000000 0.539983
#
# Coordination Sequence:
#
# PCOD9131873 Si02
#       8
#     4   4   4   4   4   4   4   4
#     4  10  20  35  55  79 108 144 185 223 264 325
#     4  10  19  33  53  80 110 142 185 226 267 315
#     4  10  21  38  56  75 111 154 185 219 271 329
#     4   9  17  33  54  77 108 145 180 218 272 326
#     4  10  19  32  53  79 111 143 177 227 271 313
#     4  11  21  33  53  81 110 139 183 232 273 320
#     4   8  15  29  51  77 101 131 176 217 255 313
#     4  10  19  33  55  80 109 140 177 224 277 329
#
# _framework density 18.908187999999999
#
# number of rings (size 3 to 8) (size 9 to 14) (size 15 to 20)
#    0.000    2.250    2.500    2.250    0.000    1.500 
#    0.000    1.250    0.000    3.000    0.000    0.000 
#    0.000    0.000    0.000    0.000    0.000    0.000 
#
# Total GULP energy -89267.607801 kJ/mol
# GULP energy per Si atom -5579.225488 kJ/mol
# Density = 1.886515 g / cm^3
# Si number density = 18.908188 Si / 1000 Ang^3
#
#
#
# Elastic Constant Matrix: (Units=GPa)
#
#
# Indices 1 2 3 4 5 6 
#
# 1 114.2328 4.6849 90.7509 0.0000 -6.0411 0.0000
# 2 4.6849 17.8283 4.5509 0.0000 0.4733 0.0000
# 3 90.7509 4.5509 203.4875 0.0000 -5.6987 0.0000
# 4 0.0000 0.0000 0.0000 14.9638 0.0000 5.9809
# 5 -6.0411 0.4733 -5.6987 0.0000 23.9836 0.0000
# 6 0.0000 0.0000 0.0000 5.9809 0.0000 14.2619
#
#
#
# Elastic Compliance Matrix: (Units=1/GPa)
#
#
# Indices 1 2 3 4 5 6 
#
# 1 0.013732 -0.002127 -0.006019 0.000000 0.002071 0.000000
# 2 -0.002127 0.056790 -0.000370 0.000000 -0.001745 0.000000
# 3 -0.006019 -0.000370 0.007615 0.000000 0.000301 0.000000
# 4 0.000000 0.000000 0.000000 0.080285 0.000000 -0.033668
# 5 0.002071 -0.001745 0.000301 0.000000 0.042323 0.000000
# 6 0.000000 0.000000 0.000000 -0.033668 0.000000 0.084236
#
#
# Mechanical properties :
#
#
# Convention : Reuss Voigt Hill
#
# Bulk Modulus (GPa) = 16.36514 59.50244 37.93379
# Shear Modulus (GPa) = 15.50954 26.34598 20.92776
#
# Velocity S-wave (km/s) = 2.86712 3.73683 3.33048
# Velocity P-wave (km/s) = 4.43106 7.08209 5.90721
#
# Compressibility (1/GPa) = 0.06110549
#
# Stress axis : x y z
#
# Youngs Moduli (GPa) = 72.82090 17.60864 131.31579
#
# Poissons Ratio (x) = 0.03746 0.79036
# Poissons Ratio (y) = 0.15490 0.04862
# Poissons Ratio (z) = 0.43829 0.00652
#
# Static dielectric constant tensor:
#      x y z
#    x 1.624890 0.000000 -0.000670 
#    y 0.000000 1.684010 0.000000 
#    z -0.000670 0.000000 1.674710 
# 
# From -- ./inp_files/23727.got.cif
#   From: 2010.05.17/outbox.cif.g08.bks.cpg/sg8_12_cif.got.tgz:23727.got - 2010.06.03 19:46:02.
