data_PCOD9131136
_publ_section_title
;
Structure prediction by ZEFSAII (Michael W. Deem and Ramdas Pophale) SiO2 
 PCOD9131136
Probable space group: P M
;
_chemical_formula_sum "Si O2"
_cell_formula_units_Z 15
_cell_length_a 5.285717
_cell_length_b 24.114682
_cell_length_c 5.050425
_cell_angle_alpha 90.000000
_cell_angle_beta 99.959834
_cell_angle_gamma 90.000000
_cell_volume 634.042551
_symmetry_space_group_name_H-M "P M"
_symmetry_group_IT_number 6
_symmetry_cell_setting 'monoclinic'
loop_
_space_group_symop_operation_xyz
x,y,z
x,-y,z
loop_
_atom_site_type_symbol
_atom_site_label
_atom_site_fract_x
_atom_site_fract_y
_atom_site_fract_z
Si Si1 0.703340 0.732710 0.092180
Si Si2 0.005135 0.560782 0.926210
Si Si3 0.315472 0.561104 0.482604
Si Si4 0.019205 0.907226 0.769781
Si Si5 0.447781 0.092516 0.450972
Si Si6 0.206827 0.194330 0.121521
Si Si7 0.231864 0.000000 0.108837
Si Si8 0.695286 0.342707 0.583621
O O1 0.432299 0.762115 0.105207
O O2 0.774430 0.687428 0.328519
O O3 0.941160 0.775338 0.141944
O O4 0.663197 0.704866 0.797909
O O5 0.881898 0.500000 0.862903
O O6 0.258108 0.559463 0.785315
O O7 0.864364 0.612309 0.772059
O O8 0.066723 0.565377 0.246654
O O9 0.424096 0.500000 0.426827
O O10 0.461493 0.617734 0.457218
O O11 0.734215 0.901639 0.608040
O O12 0.234851 0.933262 0.612835
O O13 0.128655 0.847566 0.872446
O O14 0.020939 0.950562 0.008433
O O15 0.330271 0.151814 0.353145
O O16 0.442239 0.049351 0.211488
#
# Coordination Sequence:
#
# PCOD9131136 Si02
#       8
#     2   2   2   2   2   2   1   2
#     4  12  30  46  77  99 150 188 254 302 376 412
#     4  10  22  42  69 101 139 181 230 293 368 444
#     4  10  22  42  69 101 139 181 230 293 368 444
#     4  11  24  44  74 101 144 190 236 294 364 428
#     4  11  24  44  74 101 144 190 236 294 364 428
#     4  11  28  49  66 106 133 196 243 308 346 448
#     4  10  24  42  68 116 148 174 246 284 372 424
#     4  12  27  44  70 104 138 189 236 312 358 446
#
# _framework density 23.657719
#
# number of rings (size 3 to 8) (size 9 to 14) (size 15 to 20)
#    0.000    1.067    0.000    4.400   11.200    4.267 
#    0.000    5.333    0.000    0.000    0.000    0.000 
#    0.000    0.000    0.000    0.000    0.000    0.000 
#
# Total GULP energy -83517.016865 kJ/mol
# GULP energy per Si atom -5567.801124 kJ/mol
# Density = 2.360387 g / cm^3
# Si number density = 23.657719 Si / 1000 Ang^3
#
#
#
# Elastic Constant Matrix: (Units=GPa)
#
#
# Indices 1 2 3 4 5 6 
#
# 1 70.0308 1.3469 25.9968 0.0000 21.9793 0.0000
# 2 1.3469 84.1203 15.2987 0.0000 12.3823 0.0000
# 3 25.9968 15.2987 102.7055 0.0000 22.4170 0.0000
# 4 0.0000 0.0000 0.0000 86.4570 0.0000 -33.6314
# 5 21.9793 12.3823 22.4170 0.0000 43.1093 0.0000
# 6 0.0000 0.0000 0.0000 -33.6314 0.0000 -35.5095
#
#
#
# Elastic Compliance Matrix: (Units=1/GPa)
#
#
# Indices 1 2 3 4 5 6 
#
# 1 0.017863 0.001431 -0.002997 0.000000 -0.007960 0.000000
# 2 0.001431 0.012661 -0.001461 0.000000 -0.003606 0.000000
# 3 -0.002997 -0.001461 0.011605 0.000000 -0.004087 0.000000
# 4 0.000000 0.000000 0.000000 0.008452 0.000000 -0.008005
# 5 -0.007960 -0.003606 -0.004087 0.000000 0.030416 0.000000
# 6 0.000000 0.000000 0.000000 -0.008005 0.000000 -0.020580
#
#
# Mechanical properties :
#
#
# Convention : Reuss Voigt Hill
#
# Bulk Modulus (GPa) = 27.72075 38.01572 32.86823
# Shear Modulus (GPa) = 63.69630 33.09232 48.39431
#
# Velocity S-wave (km/s) = 5.19447 3.74411 4.52774
# Velocity P-wave (km/s) = 6.90794 5.89873 6.42319
#
# Compressibility (1/GPa) = 0.03607407
#
# Stress axis : x y z
#
# Youngs Moduli (GPa) = 55.98259 78.98023 86.17088
#
# Poissons Ratio (x) = -0.11300 0.25827
# Poissons Ratio (y) = -0.08010 0.12589
# Poissons Ratio (z) = 0.16779 0.11539
#
# Static dielectric constant tensor:
#      x y z
#    x 2.020550 0.000000 -0.078010 
#    y 0.000000 1.889650 0.000000 
#    z -0.078010 0.000000 2.014160 
# 
# From -- ./inp_files/673.got.cif
#   From: 2010.05.17/outbox.cif.g08.bks.cpg/sg6_1_cif.got.tgz:673.got - 2010.06.03 19:42:10.
