data_PCOD9131813
_publ_section_title
;
Structure prediction by ZEFSAII (Michael W. Deem and Ramdas Pophale) SiO2 
 PCOD9131813
Probable space group: C M
;
_chemical_formula_sum "Si O2"
_cell_formula_units_Z 32
_cell_length_a 20.822112
_cell_length_b 7.566278
_cell_length_c 12.640191
_cell_angle_alpha 90.000000
_cell_angle_beta 126.785135
_cell_angle_gamma 90.000000
_cell_volume 1594.893988
_symmetry_space_group_name_H-M "C M"
_symmetry_group_IT_number 8
_symmetry_cell_setting 'monoclinic'
loop_
_space_group_symop_operation_xyz
x,y,z
x,-y,z
1/2+x,1/2+y,z
1/2+x,1/2-y,z
loop_
_atom_site_type_symbol
_atom_site_label
_atom_site_fract_x
_atom_site_fract_y
_atom_site_fract_z
Si Si1 0.750000 0.792175 0.814320
Si Si2 0.674723 0.716936 0.383173
Si Si3 0.998938 0.785840 0.611319
Si Si4 0.146175 0.213236 0.905230
Si Si5 0.097365 0.216842 0.086803
Si Si6 0.916231 0.202869 0.894953
Si Si7 0.354415 0.793739 0.608101
Si Si8 0.099876 0.204636 0.521280
O O1 0.720018 0.770903 0.904793
O O2 0.838351 0.719192 0.876771
O O3 0.681845 0.710196 0.671429
O O4 0.750503 0.000000 0.788390
O O5 0.674842 0.500000 0.384679
O O6 0.642569 0.771471 0.237471
O O7 0.765676 0.773595 0.495870
O O8 0.619597 0.780026 0.426047
O O9 0.065583 0.729936 0.763499
O O10 0.031465 0.719667 0.530457
O O11 0.912895 0.726130 0.566098
O O12 0.999436 0.000000 0.610119
O O13 0.146650 0.000000 0.905252
O O14 0.139894 0.273438 0.019799
O O15 0.096188 0.000000 0.083063
O O16 0.004892 0.279070 0.996621
O O17 0.894495 0.204157 0.749255
O O18 0.922196 0.000000 0.938010
O O19 0.347879 0.000000 0.629316
O O20 0.078689 0.000000 0.483441
#
# Coordination Sequence:
#
# PCOD9131813 Si02
#       8
#     4   4   4   4   4   4   4   4
#     4  10  19  29  48  77 104 127 158 208 258 293
#     4   9  18  32  52  76  99 129 172 211 243 290
#     4   9  17  30  49  73 100 130 167 204 245 293
#     4   9  17  31  52  73  97 132 169 203 242 294
#     4   9  17  33  54  73  97 133 174 207 240 294
#     4  10  19  33  52  74  99 131 169 206 247 295
#     4  11  20  30  50  78 103 126 162 213 254 288
#     4   9  17  32  51  72  99 132 169 204 241 293
#
# _framework density 20.064029000000001
#
# number of rings (size 3 to 8) (size 9 to 14) (size 15 to 20)
#    0.000    2.500    2.500    1.500    0.000    2.500 
#    0.000    1.250    0.000    6.000    0.000    0.000 
#    0.000    0.000    0.000    0.000    0.000    0.000 
#
# Total GULP energy -89259.126822 kJ/mol
# GULP energy per Si atom -5578.695426 kJ/mol
# Density = 2.001836 g / cm^3
# Si number density = 20.064029 Si / 1000 Ang^3
#
#
#
# Elastic Constant Matrix: (Units=GPa)
#
#
# Indices 1 2 3 4 5 6 
#
# 1 145.2968 -6.6878 41.6834 0.0000 -21.6587 0.0000
# 2 -6.6878 46.2229 -5.7308 0.0000 -0.4679 0.0000
# 3 41.6834 -5.7308 82.2155 0.0000 -15.8236 0.0000
# 4 0.0000 0.0000 0.0000 6.2887 0.0000 0.9990
# 5 -21.6587 -0.4679 -15.8236 0.0000 31.7756 0.0000
# 6 0.0000 0.0000 0.0000 0.9990 0.0000 15.2330
#
#
#
# Elastic Compliance Matrix: (Units=1/GPa)
#
#
# Indices 1 2 3 4 5 6 
#
# 1 0.008529 0.000844 -0.003477 0.000000 0.004094 0.000000
# 2 0.000844 0.021947 0.001410 0.000000 0.001601 0.000000
# 3 -0.003477 0.001410 0.015011 0.000000 0.005126 0.000000
# 4 0.000000 0.000000 0.000000 0.160690 0.000000 -0.010538
# 5 0.004094 0.001601 0.005126 0.000000 0.036838 0.000000
# 6 0.000000 0.000000 0.000000 -0.010538 0.000000 0.066338
#
#
# Mechanical properties :
#
#
# Convention : Reuss Voigt Hill
#
# Bulk Modulus (GPa) = 23.23352 36.91830 30.07591
# Shear Modulus (GPa) = 15.33050 26.95749 21.14399
#
# Velocity S-wave (km/s) = 2.76720 3.66945 3.24979
# Velocity P-wave (km/s) = 4.67062 6.03269 5.39481
#
# Compressibility (1/GPa) = 0.04304127
#
# Stress axis : x y z
#
# Youngs Moduli (GPa) = 117.24287 45.56331 66.61765
#
# Poissons Ratio (x) = -0.03847 0.23166
# Poissons Ratio (y) = -0.09900 -0.09392
# Poissons Ratio (z) = 0.40771 -0.06424
#
# Static dielectric constant tensor:
#      x y z
#    x 1.733120 0.000000 -0.010510 
#    y 0.000000 1.772390 0.000000 
#    z -0.010510 0.000000 1.660440 
# 
# From -- ./inp_files/23717.got.cif
#   From: 2010.05.17/outbox.cif.g08.bks.cpg/sg8_12_cif.got.tgz:23717.got - 2010.06.03 19:46:02.
