data_PCOD9131205
_publ_section_title
;
Structure prediction by ZEFSAII (Michael W. Deem and Ramdas Pophale) SiO2 
 PCOD9131205
Probable space group: P C
;
_chemical_formula_sum "Si O2"
_cell_formula_units_Z 16
_cell_length_a 20.941959
_cell_length_b 6.449064
_cell_length_c 5.145555
_cell_angle_alpha 90.000000
_cell_angle_beta 97.254273
_cell_angle_gamma 90.000000
_cell_volume 689.375642
_symmetry_space_group_name_H-M "P C"
_symmetry_group_IT_number 7
_symmetry_cell_setting 'monoclinic'
loop_
_space_group_symop_operation_xyz
x,y,z
x,-y,1/2+z
loop_
_atom_site_type_symbol
_atom_site_label
_atom_site_fract_x
_atom_site_fract_y
_atom_site_fract_z
Si Si1 0.852540 0.144477 0.121430
Si Si2 0.987564 0.258826 0.366735
Si Si3 0.171428 0.645465 0.289936
Si Si4 0.715123 0.150045 0.119132
Si Si5 0.039727 0.203801 0.890608
Si Si6 0.306116 0.628016 0.483877
Si Si7 0.439423 0.143750 0.019822
Si Si8 0.578427 0.853262 0.607251
O O1 0.784403 0.259771 0.133991
O O2 0.916523 0.272335 0.215040
O O3 0.854294 0.957332 0.336320
O O4 0.993697 0.326989 0.667846
O O5 0.006837 0.015950 0.427226
O O6 0.040515 0.306693 0.174531
O O7 0.168679 0.465829 0.510009
O O8 0.110645 0.793334 0.307192
O O9 0.241229 0.750319 0.371762
O O10 0.715423 0.004763 0.373509
O O11 0.646112 0.264476 0.095900
O O12 0.302595 0.567451 0.784436
O O13 0.375058 0.725277 0.463131
O O14 0.437976 0.973596 0.792751
O O15 0.509257 0.256080 0.038369
O O16 0.579060 0.036748 0.389865
#
# Coordination Sequence:
#
# PCOD9131205 Si02
#       8
#     2   2   2   2   2   2   2   2
#     4  10  14  23  36  56  90 125 148 173 226 285
#     4  10  17  28  43  67  95 119 137 189 239 282
#     4  10  21  37  52  66  88 123 160 199 234 279
#     4   8  14  20  34  55  84 127 151 175 213 289
#     4  10  18  30  45  64  89 117 148 184 240 277
#     4  10  21  38  56  74 102 136 173 209 251 306
#     4  10  19  33  53  78 106 133 163 214 257 298
#     4   8  14  25  39  62  94 126 148 187 238 278
#
# _framework density 23.209406999999999
#
# number of rings (size 3 to 8) (size 9 to 14) (size 15 to 20)
#    0.000    2.500    2.500    1.500    0.000    0.000 
#    4.500    0.000    0.000    0.000    0.000    0.000 
#    0.000    6.000    0.000    0.000    0.000    0.000 
#
# Total GULP energy -89131.926206 kJ/mol
# GULP energy per Si atom -5570.745388 kJ/mol
# Density = 2.315658 g / cm^3
# Si number density = 23.209407 Si / 1000 Ang^3
#
#
#
# Elastic Constant Matrix: (Units=GPa)
#
#
# Indices 1 2 3 4 5 6 
#
# 1 218.7916 0.0622 -15.9884 0.0000 28.1164 0.0000
# 2 0.0622 21.0286 -14.2520 0.0000 3.9702 0.0000
# 3 -15.9884 -14.2520 137.8495 0.0000 -13.0660 0.0000
# 4 0.0000 0.0000 0.0000 -51.9738 0.0000 1.0565
# 5 28.1164 3.9702 -13.0660 0.0000 41.6987 0.0000
# 6 0.0000 0.0000 0.0000 1.0565 0.0000 9.7847
#
#
#
# Elastic Compliance Matrix: (Units=1/GPa)
#
#
# Indices 1 2 3 4 5 6 
#
# 1 0.005028 0.000859 0.000353 0.000000 -0.003361 0.000000
# 2 0.000859 0.051732 0.005077 0.000000 -0.003914 0.000000
# 3 0.000353 0.005077 0.007989 0.000000 0.001782 0.000000
# 4 0.000000 0.000000 0.000000 -0.019198 0.000000 0.002073
# 5 -0.003361 -0.003914 0.001782 0.000000 0.027179 0.000000
# 6 0.000000 0.000000 0.000000 0.002073 0.000000 0.101976
#
#
# Mechanical properties :
#
#
# Convention : Reuss Voigt Hill
#
# Bulk Modulus (GPa) = 12.93185 35.25704 24.09444
# Shear Modulus (GPa) = 26.60957 27.09179 26.85068
#
# Velocity S-wave (km/s) = 3.38967 3.42025 3.40500
# Velocity P-wave (km/s) = 4.57206 5.55169 5.08552
#
# Compressibility (1/GPa) = 0.07732846
#
# Stress axis : x y z
#
# Youngs Moduli (GPa) = 198.88209 19.33052 125.17117
#
# Poissons Ratio (x) = -0.01661 -0.04424
# Poissons Ratio (y) = -0.17090 -0.63551
# Poissons Ratio (z) = -0.07029 -0.09814
#
# Static dielectric constant tensor:
#      x y z
#    x 1.961130 0.000000 0.030660 
#    y 0.000000 3.160270 0.000000 
#    z 0.030660 0.000000 1.918150 
# 
# From -- ./inp_files/1373.got.cif
#   From: 2010.05.17/outbox.cif.g08.bks.cpg/sg7_cif.got.tgz:1373.got - 2010.06.03 19:44:50.
