data_PCOD9131670
_publ_section_title
;
Structure prediction by ZEFSAII (Michael W. Deem and Ramdas Pophale) SiO2 
 PCOD9131670
Probable space group: C M
;
_chemical_formula_sum "Si O2"
_cell_formula_units_Z 28
_cell_length_a 14.218671
_cell_length_b 10.805059
_cell_length_c 11.435781
_cell_angle_alpha 90.000000
_cell_angle_beta 53.662768
_cell_angle_gamma 90.000000
_cell_volume 1415.275298
_symmetry_space_group_name_H-M "C M"
_symmetry_group_IT_number 8
_symmetry_cell_setting 'monoclinic'
loop_
_space_group_symop_operation_xyz
x,y,z
x,-y,z
1/2+x,1/2+y,z
1/2+x,1/2-y,z
loop_
_atom_site_type_symbol
_atom_site_label
_atom_site_fract_x
_atom_site_fract_y
_atom_site_fract_z
Si Si1 0.769680 0.134597 0.873190
Si Si2 0.685925 0.356516 0.545102
Si Si3 0.334323 0.358445 0.089902
Si Si4 0.557788 0.858869 0.310903
Si Si5 0.405476 0.144426 0.207050
Si Si6 0.734030 0.365498 0.784184
Si Si7 0.961711 0.752169 0.603750
O O1 0.690709 0.249472 0.891405
O O2 0.872904 0.137675 0.700503
O O3 0.713152 0.000000 0.920316
O O4 0.833006 0.157629 0.950461
O O5 0.648848 0.500000 0.556510
O O6 0.795985 0.338149 0.378103
O O7 0.716634 0.342811 0.659006
O O8 0.579824 0.268420 0.588064
O O9 0.374819 0.500000 0.085362
O O10 0.395339 0.247888 0.114664
O O11 0.196405 0.352362 0.221830
O O12 0.516946 0.838709 0.208936
O O13 0.497423 0.764989 0.443768
O O14 0.520177 0.000000 0.368116
O O15 0.401421 0.000000 0.169868
O O16 0.686623 0.500000 0.849401
O O17 0.874308 0.359479 0.701453
#
# Coordination Sequence:
#
# PCOD9131670 Si02
#       7
#     4   4   4   4   4   4   4
#     4   9  20  37  55  75 111 147 174 214 269 320
#     4  10  18  32  54  81 109 140 174 220 271 316
#     4  10  21  39  55  76 110 147 177 215 268 319
#     4  10  19  35  59  80 107 141 177 221 272 314
#     4  10  19  34  55  82 106 138 180 221 263 315
#     4   9  19  35  56  77 105 138 179 222 261 311
#     4  10  18  32  58  79 106 137 183 211 268 311
#
# _framework density 19.784137000000001
#
# number of rings (size 3 to 8) (size 9 to 14) (size 15 to 20)
#    0.857    1.429    2.857    0.857    0.000    0.571 
#    2.571    5.714    0.000    0.000    0.000    0.000 
#    0.000    0.000    0.000    0.000    0.000    0.000 
#
# Total GULP energy -77935.331054 kJ/mol
# GULP energy per Si atom -5566.809361 kJ/mol
# Density = 1.973911 g / cm^3
# Si number density = 19.784137 Si / 1000 Ang^3
#
#
#
# Elastic Constant Matrix: (Units=GPa)
#
#
# Indices 1 2 3 4 5 6 
#
# 1 60.5008 40.1202 10.9862 0.0000 9.6542 0.0000
# 2 40.1202 133.2437 61.5404 0.0000 36.5525 0.0000
# 3 10.9862 61.5404 81.4220 0.0000 10.3851 0.0000
# 4 0.0000 0.0000 0.0000 22.8835 0.0000 8.5550
# 5 9.6542 36.5525 10.3851 0.0000 28.2788 0.0000
# 6 0.0000 0.0000 0.0000 8.5550 0.0000 11.6145
#
#
#
# Elastic Compliance Matrix: (Units=1/GPa)
#
#
# Indices 1 2 3 4 5 6 
#
# 1 0.021254 -0.008714 0.003365 0.000000 0.002772 0.000000
# 2 -0.008714 0.021378 -0.012419 0.000000 -0.020097 0.000000
# 3 0.003365 -0.012419 0.020262 0.000000 0.007462 0.000000
# 4 0.000000 0.000000 0.000000 0.060306 0.000000 -0.044420
# 5 0.002772 -0.020097 0.007462 0.000000 0.057652 0.000000
# 6 0.000000 0.000000 0.000000 -0.044420 0.000000 0.118818
#
#
# Mechanical properties :
#
#
# Convention : Reuss Voigt Hill
#
# Bulk Modulus (GPa) = 36.55218 55.60668 46.07943
# Shear Modulus (GPa) = 14.52112 23.38999 18.95556
#
# Velocity S-wave (km/s) = 2.71214 3.44213 3.09871
# Velocity P-wave (km/s) = 5.32196 6.63064 6.01201
#
# Compressibility (1/GPa) = 0.02735815
#
# Stress axis : x y z
#
# Youngs Moduli (GPa) = 47.04972 46.77727 49.35306
#
# Poissons Ratio (x) = 0.40764 -0.16608
# Poissons Ratio (y) = 0.41001 0.61290
# Poissons Ratio (z) = -0.15833 0.58091
#
# Static dielectric constant tensor:
#      x y z
#    x 1.709690 0.000000 -0.040540 
#    y 0.000000 1.706280 0.000000 
#    z -0.040540 0.000000 1.705350 
# 
# From -- ./inp_files/12624.got.cif
#   From: 2010.05.17/outbox.cif.g08.bks.cpg/sg8_7_cif.got.tgz:12624.got - 2010.06.03 19:46:02.
