data_PCOD9131686
_publ_section_title
;
Structure prediction by ZEFSAII (Michael W. Deem and Ramdas Pophale) SiO2 
 PCOD9131686
Probable space group: C M
;
_chemical_formula_sum "Si O2"
_cell_formula_units_Z 28
_cell_length_a 18.991787
_cell_length_b 10.044425
_cell_length_c 20.227223
_cell_angle_alpha 90.000000
_cell_angle_beta 158.864576
_cell_angle_gamma 90.000000
_cell_volume 1391.300823
_symmetry_space_group_name_H-M "C M"
_symmetry_group_IT_number 8
_symmetry_cell_setting 'monoclinic'
loop_
_space_group_symop_operation_xyz
x,y,z
x,-y,z
1/2+x,1/2+y,z
1/2+x,1/2-y,z
loop_
_atom_site_type_symbol
_atom_site_label
_atom_site_fract_x
_atom_site_fract_y
_atom_site_fract_z
Si Si1 0.564700 0.343757 0.096450
Si Si2 0.139244 0.231822 0.500814
Si Si3 0.915405 0.845915 0.430468
Si Si4 0.726153 0.643953 0.436553
Si Si5 0.925907 0.349508 0.199013
Si Si6 0.123426 0.654447 0.710382
Si Si7 0.025947 0.159501 0.906002
O O1 0.622317 0.500000 0.154032
O O2 0.720898 0.243774 0.263949
O O3 0.343335 0.327766 0.928312
O O4 0.553877 0.312770 0.008146
O O5 0.213379 0.143405 0.504796
O O6 0.324467 0.285121 0.702271
O O7 0.994471 0.161654 0.424735
O O8 0.023074 0.344977 0.357837
O O9 0.073045 0.765277 0.612003
O O10 0.890913 0.000000 0.428636
O O11 0.667413 0.500000 0.358050
O O12 0.569065 0.757223 0.281769
O O13 0.946949 0.669248 0.607643
O O14 0.918517 0.500000 0.168137
O O15 0.709818 0.293622 0.022949
O O16 0.115687 0.500000 0.677847
O O17 0.023676 0.000000 0.898056
#
# Coordination Sequence:
#
# PCOD9131686 Si02
#       7
#     4   4   4   4   4   4   4
#     4  10  20  37  61  87 114 153 201 241 282 344
#     4  10  20  35  59  82 117 149 186 234 292 340
#     4  12  24  38  60  91 121 151 190 246 303 346
#     4   9  20  40  60  82 116 152 191 235 286 342
#     4   9  19  34  57  82 112 147 187 234 282 336
#     4  10  22  42  64  83 115 160 201 238 283 350
#     4  10  18  32  57  89 113 144 194 240 282 336
#
# _framework density 20.125050999999999
#
# number of rings (size 3 to 8) (size 9 to 14) (size 15 to 20)
#    0.857    1.143    2.857    1.286    0.000    2.286 
#    2.571    1.429    0.000    0.000    0.000    0.000 
#    0.000    0.000    0.000    0.000    0.000    0.000 
#
# Total GULP energy -78014.737186 kJ/mol
# GULP energy per Si atom -5572.481228 kJ/mol
# Density = 2.007925 g / cm^3
# Si number density = 20.125051 Si / 1000 Ang^3
#
#
#
# Elastic Constant Matrix: (Units=GPa)
#
#
# Indices 1 2 3 4 5 6 
#
# 1 65.5246 13.7460 9.7736 -0.0010 22.2486 -0.0004
# 2 13.7460 77.6252 42.9870 -0.0035 13.7106 -0.0021
# 3 9.7736 42.9870 111.7739 -0.0049 22.8551 -0.0023
# 4 -0.0010 -0.0035 -0.0049 14.1094 -0.0016 -8.7968
# 5 22.2486 13.7106 22.8551 -0.0016 41.1708 -0.0007
# 6 -0.0004 -0.0021 -0.0023 -8.7968 -0.0007 -11.4765
#
#
#
# Elastic Compliance Matrix: (Units=1/GPa)
#
#
# Indices 1 2 3 4 5 6 
#
# 1 0.019025 -0.002285 0.001311 0.000000 -0.010248 0.000000
# 2 -0.002285 0.016823 -0.006065 0.000001 -0.001001 -0.000002
# 3 0.001311 -0.006065 0.012292 0.000001 -0.005512 -0.000002
# 4 0.000000 0.000001 0.000001 0.047957 0.000000 -0.036759
# 5 -0.010248 -0.001001 -0.005512 0.000000 0.033220 -0.000001
# 6 0.000000 -0.000002 -0.000002 -0.036759 -0.000001 -0.058959
#
#
# Mechanical properties :
#
#
# Convention : Reuss Voigt Hill
#
# Bulk Modulus (GPa) = 29.35994 43.10408 36.23201
# Shear Modulus (GPa) = 52.19778 21.32187 36.75983
#
# Velocity S-wave (km/s) = 5.09834 3.25848 4.27848
# Velocity P-wave (km/s) = 7.01981 5.96838 6.51534
#
# Compressibility (1/GPa) = 0.03406002
#
# Stress axis : x y z
#
# Youngs Moduli (GPa) = 52.56294 59.44386 81.35526
#
# Poissons Ratio (x) = 0.13581 -0.10662
# Poissons Ratio (y) = 0.12009 0.49345
# Poissons Ratio (z) = -0.06888 0.36055
#
# Static dielectric constant tensor:
#      x y z
#    x 1.750900 0.000000 0.009460 
#    y 0.000000 1.707910 0.000000 
#    z 0.009460 0.000000 1.700330 
# 
# From -- ./inp_files/32271.got.cif
#   From: 2010.05.17/outbox.cif.g08.bks.cpg/sg8_17_cif.got.tgz:32271.got - 2010.06.03 19:46:02.
