data_PCOD9131923
_publ_section_title
;
Structure prediction by ZEFSAII (Michael W. Deem and Ramdas Pophale) SiO2 
 PCOD9131923
Probable space group: C M
;
_chemical_formula_sum "Si O2"
_cell_formula_units_Z 28
_cell_length_a 13.227025
_cell_length_b 12.663764
_cell_length_c 10.873807
_cell_angle_alpha 90.000000
_cell_angle_beta 40.498449
_cell_angle_gamma 90.000000
_cell_volume 1182.870645
_symmetry_space_group_name_H-M "C M"
_symmetry_group_IT_number 8
_symmetry_cell_setting 'monoclinic'
loop_
_space_group_symop_operation_xyz
x,y,z
x,-y,z
1/2+x,1/2+y,z
1/2+x,1/2-y,z
loop_
_atom_site_type_symbol
_atom_site_label
_atom_site_fract_x
_atom_site_fract_y
_atom_site_fract_z
Si Si1 0.254260 0.614477 0.475820
Si Si2 0.061809 0.658048 0.900090
Si Si3 0.012712 0.848627 0.795130
Si Si4 0.206879 0.121901 0.181410
Si Si5 0.527531 0.228570 0.531405
Si Si6 0.857648 0.337827 0.464529
Si Si7 0.681603 0.838934 0.057889
O O1 0.330572 0.500000 0.395938
O O2 0.151262 0.614724 0.697055
O O3 0.150134 0.637273 0.452015
O O4 0.348046 0.722814 0.406659
O O5 0.156763 0.642349 0.936110
O O6 0.039240 0.782043 0.893471
O O7 0.885172 0.617647 0.064039
O O8 0.839135 0.892729 0.961905
O O9 0.985051 0.772847 0.702983
O O10 0.687959 0.610344 0.604795
O O11 0.102887 0.174929 0.385017
O O12 0.164009 0.000000 0.191485
O O13 0.195644 0.214158 0.087336
O O14 0.388770 0.183581 0.579158
O O15 0.020492 0.381378 0.265439
#
# Coordination Sequence:
#
# PCOD9131923 Si02
#       7
#     4   4   4   4   4   4   4
#     4  10  20  34  58  88 113 147 194 236 281 342
#     4   9  17  32  53  81 115 147 183 231 284 335
#     4   9  17  30  52  77 107 147 185 223 276 337
#     4  10  20  34  57  87 114 149 197 237 277 339
#     4   9  18  34  53  80 117 148 184 236 287 331
#     4   9  18  31  52  80 111 146 185 228 278 332
#     4  10  19  33  54  81 113 148 183 231 286 332
#
# _framework density 23.671226999999998
#
# number of rings (size 3 to 8) (size 9 to 14) (size 15 to 20)
#    0.000    2.857    0.000    3.857    0.000    2.286 
#    0.000    0.000    0.000   20.571    0.000   12.000 
#    0.000    0.000    0.000    0.000    0.000    0.000 
#
# Total GULP energy -77936.344198 kJ/mol
# GULP energy per Si atom -5566.881728 kJ/mol
# Density = 2.361735 g / cm^3
# Si number density = 23.671227 Si / 1000 Ang^3
#
#
#
# Elastic Constant Matrix: (Units=GPa)
#
#
# Indices 1 2 3 4 5 6 
#
# 1 178.9151 32.5020 37.9891 0.0000 -33.9777 0.0000
# 2 32.5020 158.0726 20.0416 0.0000 -8.6449 0.0000
# 3 37.9891 20.0416 92.7279 0.0000 -39.2394 0.0000
# 4 0.0000 0.0000 0.0000 20.2892 0.0000 6.5493
# 5 -33.9777 -8.6449 -39.2394 0.0000 57.1586 0.0000
# 6 0.0000 0.0000 0.0000 6.5493 0.0000 -12.3345
#
#
#
# Elastic Compliance Matrix: (Units=1/GPa)
#
#
# Indices 1 2 3 4 5 6 
#
# 1 0.006595 -0.001039 -0.001247 0.000000 0.002907 0.000000
# 2 -0.001039 0.006668 -0.001198 0.000000 -0.000432 0.000000
# 3 -0.001247 -0.001198 0.015735 0.000000 0.009879 0.000000
# 4 0.000000 0.000000 0.000000 0.042076 0.000000 0.022341
# 5 0.002907 -0.000432 0.009879 0.000000 0.025940 0.000000
# 6 0.000000 0.000000 0.000000 0.022341 0.000000 -0.069211
#
#
# Mechanical properties :
#
#
# Convention : Reuss Voigt Hill
#
# Bulk Modulus (GPa) = 45.39426 67.86456 56.62941
# Shear Modulus (GPa) = 118.72423 35.63484 77.17954
#
# Velocity S-wave (km/s) = 7.08974 3.88417 5.71626
# Velocity P-wave (km/s) = 9.28643 6.98910 8.21844
#
# Compressibility (1/GPa) = 0.02202922
#
# Stress axis : x y z
#
# Youngs Moduli (GPa) = 151.63380 149.96702 63.55362
#
# Poissons Ratio (x) = 0.15580 0.07926
# Poissons Ratio (y) = 0.15753 0.07615
# Poissons Ratio (z) = 0.18910 0.17970
#
# Static dielectric constant tensor:
#      x y z
#    x 1.921890 0.000000 -0.083960 
#    y 0.000000 1.923600 0.000000 
#    z -0.083960 0.000000 1.951150 
# 
# From -- ./inp_files/22061.got.cif
#   From: 2010.05.17/outbox.cif.g08.bks.cpg/sg8_12_cif.got.tgz:22061.got - 2010.06.03 19:46:02.
