data_PCOD9131354
_publ_section_title
;
Structure prediction by ZEFSAII (Michael W. Deem and Ramdas Pophale) SiO2 
 PCOD9131354
Probable space group: P C
;
_chemical_formula_sum "Si O2"
_cell_formula_units_Z 14
_cell_length_a 7.734907
_cell_length_b 17.265558
_cell_length_c 5.070346
_cell_angle_alpha 90.000000
_cell_angle_beta 70.158561
_cell_angle_gamma 90.000000
_cell_volume 636.934380
_symmetry_space_group_name_H-M "P C"
_symmetry_group_IT_number 7
_symmetry_cell_setting 'monoclinic'
loop_
_space_group_symop_operation_xyz
x,y,z
x,-y,1/2+z
loop_
_atom_site_type_symbol
_atom_site_label
_atom_site_fract_x
_atom_site_fract_y
_atom_site_fract_z
Si Si1 0.294700 0.840747 0.507560
Si Si2 0.587967 0.051640 0.580409
Si Si3 0.020479 0.456393 0.726666
Si Si4 0.189803 0.307007 0.846400
Si Si5 0.007445 0.948133 0.942765
Si Si6 0.405589 0.692613 0.723811
Si Si7 0.585341 0.542296 0.451920
O O1 0.428978 0.890696 0.255786
O O2 0.161317 0.784775 0.401680
O O3 0.165035 0.889925 0.766824
O O4 0.421304 0.780669 0.611430
O O5 0.797545 0.081430 0.512175
O O6 0.570058 0.021343 0.291434
O O7 0.096691 0.487892 0.414326
O O8 0.053279 0.367615 0.789105
O O9 0.803013 0.467636 0.819914
O O10 0.360996 0.309817 0.554237
O O11 0.235893 0.332540 0.120228
O O12 0.026037 0.020896 0.730410
O O13 0.552838 0.629060 0.568718
O O14 0.511200 0.518597 0.205368
#
# Coordination Sequence:
#
# PCOD9131354 Si02
#       7
#     2   2   2   2   2   2   2
#     4  10  24  40  60  90 126 160 192 252 306 358
#     4  10  22  40  64  91 117 157 204 243 295 359
#     4  10  21  39  60  83 114 157 202 251 297 348
#     4  10  23  38  55  89 117 155 200 237 311 358
#     4  10  22  40  64  91 117 157 204 243 295 359
#     4  10  23  38  55  89 117 155 200 237 311 358
#     4  10  21  39  60  83 114 157 202 251 297 348
#
# _framework density 21.980288999999999
#
# number of rings (size 3 to 8) (size 9 to 14) (size 15 to 20)
#    0.857    1.143    0.000    2.571    4.000    3.429 
#    5.143    0.000    0.000    0.000    0.000    0.000 
#    0.000    0.000    0.000    0.000    0.000    0.000 
#
# Total GULP energy -78038.083728 kJ/mol
# GULP energy per Si atom -5574.148838 kJ/mol
# Density = 2.193026 g / cm^3
# Si number density = 21.980289 Si / 1000 Ang^3
#
#
#
# Elastic Constant Matrix: (Units=GPa)
#
#
# Indices 1 2 3 4 5 6 
#
# 1 35.9016 19.4838 16.7355 0.0000 -11.3643 0.0000
# 2 19.4838 76.8764 20.6379 0.0000 -14.3737 0.0000
# 3 16.7355 20.6379 76.9267 0.0000 -6.5600 0.0000
# 4 0.0000 0.0000 0.0000 12.1634 0.0000 51.1069
# 5 -11.3643 -14.3737 -6.5600 0.0000 30.0335 0.0000
# 6 0.0000 0.0000 0.0000 51.1069 0.0000 -176.9150
#
#
#
# Elastic Compliance Matrix: (Units=1/GPa)
#
#
# Indices 1 2 3 4 5 6 
#
# 1 0.036818 -0.005997 -0.005561 0.000000 0.009846 0.000000
# 2 -0.005997 0.016142 -0.002609 0.000000 0.004886 0.000000
# 3 -0.005561 -0.002609 0.014901 0.000000 -0.000098 0.000000
# 4 0.000000 0.000000 0.000000 0.037137 0.000000 0.010728
# 5 0.009846 0.004886 -0.000098 0.000000 0.039339 0.000000
# 6 0.000000 0.000000 0.000000 0.010728 0.000000 -0.002553
#
#
# Mechanical properties :
#
#
# Convention : Reuss Voigt Hill
#
# Bulk Modulus (GPa) = 25.30024 33.71322 29.50673
# Shear Modulus (GPa) = 27.27865 -18.08711 4.59577
#
# Velocity S-wave (km/s) = 3.52668 -2.87170 1.44755
# Velocity P-wave (km/s) = 5.30270 2.09182 4.03078
#
# Compressibility (1/GPa) = 0.03952531
#
# Stress axis : x y z
#
# Youngs Moduli (GPa) = 27.16086 61.95067 67.11042
#
# Poissons Ratio (x) = 0.37153 0.37321
# Poissons Ratio (y) = 0.16289 0.17510
# Poissons Ratio (z) = 0.15104 0.16164
#
# Static dielectric constant tensor:
#      x y z
#    x 1.829470 0.000000 0.018760 
#    y 0.000000 1.837820 0.000000 
#    z 0.018760 0.000000 1.775980 
# 
# From -- ./inp_files/742.got.cif
#   From: 2010.05.17/outbox.cif.g08.bks.cpg/sg7_cif.got.tgz:742.got - 2010.06.03 19:44:50.
