data_PCOD9131137
_publ_section_title
;
Structure prediction by ZEFSAII (Michael W. Deem and Ramdas Pophale) SiO2 
 PCOD9131137
Probable space group: P M
;
_chemical_formula_sum "Si O2"
_cell_formula_units_Z 14
_cell_length_a 5.051015
_cell_length_b 19.934847
_cell_length_c 5.537871
_cell_angle_alpha 90.000000
_cell_angle_beta 91.175762
_cell_angle_gamma 90.000000
_cell_volume 557.497535
_symmetry_space_group_name_H-M "P M"
_symmetry_group_IT_number 6
_symmetry_cell_setting 'monoclinic'
loop_
_space_group_symop_operation_xyz
x,y,z
x,-y,z
loop_
_atom_site_type_symbol
_atom_site_label
_atom_site_fract_x
_atom_site_fract_y
_atom_site_fract_z
Si Si1 0.120650 0.879407 0.001030
Si Si2 0.881498 0.572444 0.020279
Si Si3 0.704602 0.683098 0.378771
Si Si4 0.634141 0.925360 0.735778
Si Si5 0.112373 0.743766 0.762113
Si Si6 0.366157 0.384916 0.749127
Si Si7 0.481548 0.179786 0.391655
O O1 0.298214 0.871252 0.240899
O O2 0.336028 0.911528 0.821948
O O3 0.045988 0.802089 0.943967
O O4 0.845623 0.917411 0.957129
O O5 0.913432 0.500000 0.145035
O O6 0.600936 0.577260 0.883206
O O7 0.098385 0.577304 0.811471
O O8 0.870984 0.635401 0.204390
O O9 0.465659 0.637180 0.484453
O O10 0.617343 0.755517 0.270309
O O11 0.876445 0.706412 0.616905
O O12 0.687168 0.866320 0.543560
O O13 0.656371 0.000000 0.635834
O O14 0.302793 0.686904 0.871361
O O15 0.287562 0.782207 0.569449
#
# Coordination Sequence:
#
# PCOD9131137 Si02
#       7
#     2   2   2   2   2   2   2
#     4  11  24  42  69 100 139 185 238 304 363 432
#     4  12  28  45  68 103 143 194 246 297 371 455
#     4  11  24  46  75 107 143 189 246 315 367 434
#     4  11  25  44  64 100 146 192 245 295 362 446
#     4  10  22  42  70 107 136 176 241 309 364 431
#     4  11  25  47  69  98 140 184 234 302 368 431
#     4  10  24  42  73 105 141 190 248 308 367 429
#
# _framework density 25.112217000000001
#
# number of rings (size 3 to 8) (size 9 to 14) (size 15 to 20)
#    0.000    1.143    2.857    1.714    8.000    2.286 
#    0.000    0.000    0.000    0.000    0.000    0.000 
#    0.000    0.000    0.000    0.000    0.000    0.000 
#
# Total GULP energy -78193.482292 kJ/mol
# GULP energy per Si atom -5585.248735 kJ/mol
# Density = 2.505506 g / cm^3
# Si number density = 25.112217 Si / 1000 Ang^3
#
#
#
# Elastic Constant Matrix: (Units=GPa)
#
#
# Indices 1 2 3 4 5 6 
#
# 1 142.9820 34.0105 21.3133 0.0000 -0.6823 0.0000
# 2 34.0105 133.9406 22.2697 0.0000 -6.0274 0.0000
# 3 21.3133 22.2697 46.4497 0.0000 2.2580 0.0000
# 4 0.0000 0.0000 0.0000 21.6721 0.0000 6.6909
# 5 -0.6823 -6.0274 2.2580 0.0000 43.5721 0.0000
# 6 0.0000 0.0000 0.0000 6.6909 0.0000 7.0564
#
#
#
# Elastic Compliance Matrix: (Units=1/GPa)
#
#
# Indices 1 2 3 4 5 6 
#
# 1 0.007776 -0.001497 -0.002853 0.000000 0.000062 0.000000
# 2 -0.001497 0.008478 -0.003442 0.000000 0.001328 0.000000
# 3 -0.002853 -0.003442 0.024575 0.000000 -0.001794 0.000000
# 4 0.000000 0.000000 0.000000 0.065241 0.000000 -0.061861
# 5 0.000062 0.001328 -0.001794 0.000000 0.023228 0.000000
# 6 0.000000 0.000000 0.000000 -0.061861 0.000000 0.200371
#
#
# Mechanical properties :
#
#
# Convention : Reuss Voigt Hill
#
# Bulk Modulus (GPa) = 39.61325 53.17325 46.39325
# Shear Modulus (GPa) = 14.13749 30.84539 22.49144
#
# Velocity S-wave (km/s) = 2.37528 3.50852 2.99597
# Velocity P-wave (km/s) = 4.83025 6.13459 5.52107
#
# Compressibility (1/GPa) = 0.02524408
#
# Stress axis : x y z
#
# Youngs Moduli (GPa) = 128.60731 117.94863 40.69111
#
# Poissons Ratio (x) = 0.17660 0.11609
# Poissons Ratio (y) = 0.19255 0.14007
# Poissons Ratio (z) = 0.36692 0.40602
#
# Static dielectric constant tensor:
#      x y z
#    x 1.995470 0.000000 -0.002760 
#    y 0.000000 2.023070 0.000000 
#    z -0.002760 0.000000 2.022650 
# 
# From -- ./inp_files/633.got.cif
#   From: 2010.05.17/outbox.cif.g08.bks.cpg/sg6_1_cif.got.tgz:633.got - 2010.06.03 19:42:10.
