data_PCOD9131659
_publ_section_title
;
Structure prediction by ZEFSAII (Michael W. Deem and Ramdas Pophale) SiO2 
 PCOD9131659
Probable space group: C M
;
_chemical_formula_sum "Si O2"
_cell_formula_units_Z 24
_cell_length_a 9.308649
_cell_length_b 16.460892
_cell_length_c 15.859877
_cell_angle_alpha 90.000000
_cell_angle_beta 148.221362
_cell_angle_gamma 90.000000
_cell_volume 1279.831395
_symmetry_space_group_name_H-M "C M"
_symmetry_group_IT_number 8
_symmetry_cell_setting 'monoclinic'
loop_
_space_group_symop_operation_xyz
x,y,z
x,-y,z
1/2+x,1/2+y,z
1/2+x,1/2-y,z
loop_
_atom_site_type_symbol
_atom_site_label
_atom_site_fract_x
_atom_site_fract_y
_atom_site_fract_z
Si Si1 0.967820 0.598045 0.348820
Si Si2 0.370983 0.322982 0.062229
Si Si3 0.342127 0.401309 0.691892
Si Si4 0.447678 0.137493 0.155477
Si Si5 0.320415 0.594475 0.865968
Si Si6 0.970672 0.407651 0.990478
O O1 0.956927 0.500000 0.340131
O O2 0.664692 0.632768 0.212652
O O3 0.074670 0.629780 0.311431
O O4 0.159411 0.623214 0.521919
O O5 0.414236 0.229413 0.106831
O O6 0.258586 0.346408 0.913100
O O7 0.161505 0.356568 0.025883
O O8 0.346785 0.500000 0.697462
O O9 0.227065 0.377038 0.726485
O O10 0.657855 0.376606 0.837593
O O11 0.578886 0.094142 0.140624
O O12 0.149492 0.097429 0.019995
O O13 0.241496 0.500000 0.843001
O O14 0.965858 0.500000 0.957202
#
# Coordination Sequence:
#
# PCOD9131659 Si02
#       6
#     4   4   4   4   4   4
#     4  10  19  36  55  72  98 139 172 198 243 305
#     4  11  20  31  51  79 103 126 164 213 250 285
#     4   8  17  33  55  75  97 130 172 206 242 297
#     4  10  19  32  50  74 103 135 165 200 247 303
#     4   9  17  34  55  74  96 134 173 202 242 304
#     4  10  18  32  52  76  98 126 168 213 245 284
#
# _framework density 18.752469000000001
#
# number of rings (size 3 to 8) (size 9 to 14) (size 15 to 20)
#    0.000    2.333    0.000    7.000    0.000    0.000 
#    0.000    8.333    0.000    4.000    0.000    0.000 
#    0.000    0.000    0.000    0.000    0.000    0.000 
#
# Total GULP energy -66866.830529 kJ/mol
# GULP energy per Si atom -5572.235877 kJ/mol
# Density = 1.870979 g / cm^3
# Si number density = 18.752469 Si / 1000 Ang^3
#
#
#
# Elastic Constant Matrix: (Units=GPa)
#
#
# Indices 1 2 3 4 5 6 
#
# 1 108.0281 26.7975 48.3664 -0.0017 -26.8816 -0.0002
# 2 26.7975 95.1468 21.6148 -0.0017 -10.0810 0.0012
# 3 48.3664 21.6148 107.1935 -0.0074 -40.0466 0.0081
# 4 -0.0017 -0.0017 -0.0074 18.4723 -0.0050 -11.3409
# 5 -26.8816 -10.0810 -40.0466 -0.0050 33.7538 0.0011
# 6 -0.0002 0.0012 0.0081 -11.3409 0.0011 18.8675
#
#
#
# Elastic Compliance Matrix: (Units=1/GPa)
#
#
# Indices 1 2 3 4 5 6 
#
# 1 0.012625 -0.002245 -0.003122 0.000003 0.005680 0.000003
# 2 -0.002245 0.011440 -0.001231 0.000000 0.000168 0.000000
# 3 -0.003122 -0.001231 0.017817 0.000010 0.018284 -0.000002
# 4 0.000003 0.000000 0.000010 0.085797 0.000026 0.051571
# 5 0.005680 0.000168 0.018284 0.000026 0.055894 0.000005
# 6 0.000003 0.000000 -0.000002 0.051571 0.000005 0.083999
#
#
# Mechanical properties :
#
#
# Convention : Reuss Voigt Hill
#
# Bulk Modulus (GPa) = 34.85956 55.99174 45.42565
# Shear Modulus (GPa) = 17.22193 28.45802 22.83998
#
# Velocity S-wave (km/s) = 3.03377 3.89982 3.49373
# Velocity P-wave (km/s) = 5.55890 7.08528 6.36799
#
# Compressibility (1/GPa) = 0.02868653
#
# Stress axis : x y z
#
# Youngs Moduli (GPa) = 79.20924 87.41424 56.12764
#
# Poissons Ratio (x) = 0.19622 0.17521
# Poissons Ratio (y) = 0.17780 0.06909
# Poissons Ratio (z) = 0.24726 0.10761
#
# Static dielectric constant tensor:
#      x y z
#    x 1.647860 0.000000 -0.052180 
#    y 0.000000 1.655160 -0.000010 
#    z -0.052180 -0.000010 1.689900 
# 
# From -- ./inp_files/7819.got.cif
#   From: 2010.05.17/outbox.cif.g08.bks.cpg/sg8_4_cif.got.tgz:7819.got - 2010.06.03 19:46:02.
