data_PCOD9131937
_publ_section_title
;
Structure prediction by ZEFSAII (Michael W. Deem and Ramdas Pophale) SiO2 
 PCOD9131937
Probable space group: C M
;
_chemical_formula_sum "Si O2"
_cell_formula_units_Z 28
_cell_length_a 14.257163
_cell_length_b 9.585852
_cell_length_c 19.401294
_cell_angle_alpha 90.000000
_cell_angle_beta 29.141697
_cell_angle_gamma 90.000000
_cell_volume 1291.212597
_symmetry_space_group_name_H-M "C M"
_symmetry_group_IT_number 8
_symmetry_cell_setting 'monoclinic'
loop_
_space_group_symop_operation_xyz
x,y,z
x,-y,z
1/2+x,1/2+y,z
1/2+x,1/2-y,z
loop_
_atom_site_type_symbol
_atom_site_label
_atom_site_fract_x
_atom_site_fract_y
_atom_site_fract_z
Si Si1 0.760070 0.843089 0.744060
Si Si2 0.204272 0.835369 0.580756
Si Si3 0.531543 0.166618 0.469153
Si Si4 0.616156 0.664879 0.960754
Si Si5 0.908365 0.266355 0.885393
Si Si6 0.326852 0.168903 0.353870
Si Si7 0.243179 0.344025 0.124635
O O1 0.882921 0.738125 0.618185
O O2 0.729390 0.767344 0.836340
O O3 0.551531 0.856717 0.840868
O O4 0.841608 0.000000 0.697018
O O5 0.420923 0.806180 0.468751
O O6 0.199670 0.799749 0.503683
O O7 0.047719 0.771756 0.732271
O O8 0.179160 0.000000 0.603429
O O9 0.729605 0.247725 0.354224
O O10 0.550759 0.000000 0.466777
O O11 0.633066 0.500000 0.930682
O O12 0.714067 0.680784 0.972727
O O13 0.394320 0.705565 0.085506
O O14 0.849186 0.154712 0.981830
O O15 0.539059 0.223082 0.237418
O O16 0.329323 0.000000 0.340467
O O17 0.192571 0.500000 0.179589
#
# Coordination Sequence:
#
# PCOD9131937 Si02
#       7
#     4   4   4   4   4   4   4
#     4  10  20  34  53  83 116 144 178 226 277 329
#     4   9  19  34  55  80 107 140 182 224 272 332
#     4  10  20  35  55  80 109 144 183 228 277 328
#     4  10  20  35  55  80 110 147 185 225 272 326
#     4  10  19  33  55  82 111 143 181 227 275 323
#     4  10  20  37  57  79 108 146 187 230 275 325
#     4   9  20  36  54  78 112 148 185 226 275 331
#
# _framework density 21.685043
#
# number of rings (size 3 to 8) (size 9 to 14) (size 15 to 20)
#    0.000    2.286    0.000    2.571    0.000    6.857 
#    0.000    8.571    0.000    0.000    0.000    0.000 
#    0.000    0.000    0.000    0.000    0.000    0.000 
#
# Total GULP energy -77946.367647 kJ/mol
# GULP energy per Si atom -5567.597689 kJ/mol
# Density = 2.163569 g / cm^3
# Si number density = 21.685043 Si / 1000 Ang^3
#
#
#
# Elastic Constant Matrix: (Units=GPa)
#
#
# Indices 1 2 3 4 5 6 
#
# 1 167.8609 45.9348 30.0156 -0.0004 -36.7055 -0.0001
# 2 45.9348 62.0289 14.4857 -0.0007 -5.0567 -0.0001
# 3 30.0156 14.4857 54.0726 -0.0014 -17.8504 0.0001
# 4 -0.0004 -0.0007 -0.0014 15.9976 0.0000 -5.4815
# 5 -36.7055 -5.0567 -17.8504 0.0000 46.0110 0.0001
# 6 -0.0001 -0.0001 0.0001 -5.4815 0.0001 14.0797
#
#
#
# Elastic Compliance Matrix: (Units=1/GPa)
#
#
# Indices 1 2 3 4 5 6 
#
# 1 0.009187 -0.005958 -0.001491 0.000000 0.006096 0.000000
# 2 -0.005958 0.021062 -0.003601 0.000001 -0.003836 0.000000
# 3 -0.001491 -0.003601 0.022666 0.000002 0.007208 0.000000
# 4 0.000000 0.000001 0.000002 0.072132 0.000001 0.028083
# 5 0.006096 -0.003836 0.007208 0.000001 0.028972 0.000000
# 6 0.000000 0.000000 0.000000 0.028083 0.000000 0.081957
#
#
# Mechanical properties :
#
#
# Convention : Reuss Voigt Hill
#
# Bulk Modulus (GPa) = 32.45330 51.64831 42.05080
# Shear Modulus (GPa) = 18.63242 28.11941 23.37592
#
# Velocity S-wave (km/s) = 2.93444 3.60491 3.28681
# Velocity P-wave (km/s) = 5.14582 6.41844 5.81704
#
# Compressibility (1/GPa) = 0.03081351
#
# Stress axis : x y z
#
# Youngs Moduli (GPa) = 108.84381 47.47823 44.11958
#
# Poissons Ratio (x) = 0.28290 0.06580
# Poissons Ratio (y) = 0.64854 0.15888
# Poissons Ratio (z) = 0.16232 0.17098
#
# Static dielectric constant tensor:
#      x y z
#    x 1.833210 0.000000 -0.054180 
#    y 0.000000 1.780360 0.000000 
#    z -0.054180 0.000000 1.878810 
# 
# From -- ./inp_files/21396.got.cif
#   From: 2010.05.17/outbox.cif.g08.bks.cpg/sg8_11_cif.got.tgz:21396.got - 2010.06.03 19:46:02.
