data_PCOD9131539
_publ_section_title
;
Structure prediction by ZEFSAII (Michael W. Deem and Ramdas Pophale) SiO2 
 PCOD9131539
Probable space group: C M
;
_chemical_formula_sum "Si O2"
_cell_formula_units_Z 28
_cell_length_a 5.513742
_cell_length_b 19.491703
_cell_length_c 11.151902
_cell_angle_alpha 90.000000
_cell_angle_beta 77.928247
_cell_angle_gamma 90.000000
_cell_volume 1172.016169
_symmetry_space_group_name_H-M "C M"
_symmetry_group_IT_number 8
_symmetry_cell_setting 'monoclinic'
loop_
_space_group_symop_operation_xyz
x,y,z
x,-y,z
1/2+x,1/2+y,z
1/2+x,1/2-y,z
loop_
_atom_site_type_symbol
_atom_site_label
_atom_site_fract_x
_atom_site_fract_y
_atom_site_fract_z
Si Si1 0.978670 0.353392 0.218420
Si Si2 0.972599 0.500000 0.283191
Si Si3 0.232807 0.215971 0.441336
Si Si4 0.603744 0.922069 0.724003
Si Si5 0.538136 0.576943 0.878491
Si Si6 0.626914 0.768291 0.706790
Si Si7 0.515218 0.641972 0.130529
Si Si8 0.972173 0.000000 0.285165
O O1 0.012643 0.434271 0.194899
O O2 0.852716 0.348159 0.362558
O O3 0.774975 0.326578 0.147138
O O4 0.253084 0.323314 0.188916
O O5 0.692553 0.500000 0.357340
O O6 0.190210 0.500000 0.357113
O O7 0.468676 0.267877 0.407645
O O8 0.176841 0.218075 0.587978
O O9 0.314953 0.918420 0.794481
O O10 0.641543 0.847199 0.658966
O O11 0.810834 0.917320 0.808528
O O12 0.636875 0.000000 0.669207
O O13 0.520690 0.500000 0.931755
O O14 0.516206 0.628834 0.989762
O O15 0.348901 0.749344 0.774031
O O16 0.507825 0.568989 0.203658
#
# Coordination Sequence:
#
# PCOD9131539 Si02
#       8
#     4   2   4   4   4   4   4   2
#     4  10  19  31  53  80 111 153 194 239 274 343
#     4   8  16  26  44  72 106 131 174 231 270 308
#     4  10  21  38  61  79 106 147 210 242 291 366
#     4  10  21  36  60  93 123 154 200 262 308 356
#     4  10  19  32  54  88 128 160 197 245 306 363
#     4  10  21  40  67  87 113 159 204 249 320 386
#     4  10  17  29  49  79 119 155 192 227 288 341
#     4   8  14  24  40  68 102 147 180 211 264 330
#
# _framework density 23.890456
#
# number of rings (size 3 to 8) (size 9 to 14) (size 15 to 20)
#    0.000    2.286    0.714    2.571    0.000    0.000 
#    0.000    0.000   12.571   17.143    0.000    0.000 
#    0.000    0.000    0.000    0.000    0.000    0.000 
#
# Total GULP energy -77937.610154 kJ/mol
# GULP energy per Si atom -5566.972154 kJ/mol
# Density = 2.383608 g / cm^3
# Si number density = 23.890456 Si / 1000 Ang^3
#
#
#
# Elastic Constant Matrix: (Units=GPa)
#
#
# Indices 1 2 3 4 5 6 
#
# 1 250.8468 8.4173 19.8431 0.0000 -10.0036 0.0000
# 2 8.4173 111.0448 4.3133 0.0000 2.6475 0.0000
# 3 19.8431 4.3133 34.4215 0.0000 2.5879 0.0000
# 4 0.0000 0.0000 0.0000 22.6434 0.0000 -8.3406
# 5 -10.0036 2.6475 2.5879 0.0000 20.3069 0.0000
# 6 0.0000 0.0000 0.0000 -8.3406 0.0000 22.8440
#
#
#
# Elastic Compliance Matrix: (Units=1/GPa)
#
#
# Indices 1 2 3 4 5 6 
#
# 1 0.004304 -0.000283 -0.002633 0.000000 0.002493 0.000000
# 2 -0.000283 0.009090 -0.000885 0.000000 -0.001212 0.000000
# 3 -0.002633 -0.000885 0.031067 0.000000 -0.005141 0.000000
# 4 0.000000 0.000000 0.000000 0.051025 0.000000 0.018630
# 5 0.002493 -0.001212 -0.005141 0.000000 0.051285 0.000000
# 6 0.000000 0.000000 0.000000 0.018630 0.000000 0.050577
#
#
# Mechanical properties :
#
#
# Convention : Reuss Voigt Hill
#
# Bulk Modulus (GPa) = 27.13052 51.27341 39.20196
# Shear Modulus (GPa) = 23.01643 37.40815 30.21229
#
# Velocity S-wave (km/s) = 3.10726 3.96134 3.56000
# Velocity P-wave (km/s) = 4.92486 6.51394 5.77433
#
# Compressibility (1/GPa) = 0.03685886
#
# Stress axis : x y z
#
# Youngs Moduli (GPa) = 232.35951 110.00966 32.18882
#
# Poissons Ratio (x) = 0.03117 0.08475
# Poissons Ratio (y) = 0.06585 0.02847
# Poissons Ratio (z) = 0.61176 0.09731
#
# Static dielectric constant tensor:
#      x y z
#    x 2.028340 0.000000 -0.007910 
#    y 0.000000 1.954940 0.000000 
#    z -0.007910 0.000000 1.845170 
# 
# From -- ./inp_files/18098.got.cif
#   From: 2010.05.17/outbox.cif.g08.bks.cpg/sg8_10_cif.got.tgz:18098.got - 2010.06.03 19:46:02.
