data_PCOD9131514
_publ_section_title
;
Structure prediction by ZEFSAII (Michael W. Deem and Ramdas Pophale) SiO2 
 PCOD9131514
Probable space group: C M
;
_chemical_formula_sum "Si O2"
_cell_formula_units_Z 32
_cell_length_a 23.081638
_cell_length_b 9.214477
_cell_length_c 7.381858
_cell_angle_alpha 90.000000
_cell_angle_beta 107.014295
_cell_angle_gamma 90.000000
_cell_volume 1501.295477
_symmetry_space_group_name_H-M "C M"
_symmetry_group_IT_number 8
_symmetry_cell_setting 'monoclinic'
loop_
_space_group_symop_operation_xyz
x,y,z
x,-y,z
1/2+x,1/2+y,z
1/2+x,1/2-y,z
loop_
_atom_site_type_symbol
_atom_site_label
_atom_site_fract_x
_atom_site_fract_y
_atom_site_fract_z
Si Si1 0.058600 0.666999 0.579920
Si Si2 0.308048 0.335086 0.255115
Si Si3 0.930217 0.163112 0.865247
Si Si4 0.940451 0.166072 0.444281
Si Si5 0.678535 0.326963 0.724300
Si Si6 0.797548 0.166913 0.811285
Si Si7 0.046202 0.665560 0.011657
Si Si8 0.678377 0.177660 0.118769
O O1 0.066528 0.500000 0.534295
O O2 0.117535 0.760202 0.586011
O O3 0.052596 0.668607 0.796038
O O4 0.997671 0.736803 0.445025
O O5 0.315680 0.500000 0.331465
O O6 0.374107 0.267190 0.343663
O O7 0.298467 0.339369 0.030545
O O8 0.242855 0.282922 0.268930
O O9 0.943146 0.155078 0.664095
O O10 0.863243 0.229260 0.820591
O O11 0.987488 0.241279 0.004659
O O12 0.924698 0.000000 0.933803
O O13 0.944646 0.000000 0.376907
O O14 0.678148 0.500000 0.720798
O O15 0.740244 0.260790 0.700709
O O16 0.677821 0.265754 0.930003
O O17 0.791687 0.000000 0.740492
O O18 0.034991 0.500000 0.053550
O O19 0.112735 0.709425 0.144579
O O20 0.679563 0.000000 0.088854
#
# Coordination Sequence:
#
# PCOD9131514 Si02
#       8
#     4   4   4   4   4   4   4   4
#     4   9  16  27  42  61  86 115 140 170 214 261
#     4   8  14  26  45  63  83 112 145 173 206 253
#     4   9  17  27  42  63  86 110 141 176 210 246
#     4   9  16  27  44  67  87 108 142 182 210 239
#     4  10  17  25  41  65  86 107 140 184 216 241
#     4   9  17  30  44  60  85 119 145 166 208 264
#     4   8  14  24  40  60  82 108 140 173 208 247
#     4   8  14  26  42  61  85 115 143 170 210 259
#
# _framework density 21.314924000000001
#
# number of rings (size 3 to 8) (size 9 to 14) (size 15 to 20)
#    0.000    3.250    0.000    3.000    0.000    3.500 
#    0.000    2.500    0.000    1.500    0.000    1.750 
#    0.000    0.000    0.000    0.000    0.000    0.000 
#
# Total GULP energy -89134.637793 kJ/mol
# GULP energy per Si atom -5570.914862 kJ/mol
# Density = 2.126641 g / cm^3
# Si number density = 21.314924 Si / 1000 Ang^3
#
#
#
# Elastic Constant Matrix: (Units=GPa)
#
#
# Indices 1 2 3 4 5 6 
#
# 1 144.4359 75.1868 48.4969 0.0000 74.4552 0.0000
# 2 75.1868 85.6691 33.7698 0.0000 36.9980 0.0000
# 3 48.4969 33.7698 76.3175 0.0000 25.4477 0.0000
# 4 0.0000 0.0000 0.0000 2.8583 0.0000 17.3335
# 5 74.4552 36.9980 25.4477 0.0000 70.3223 0.0000
# 6 0.0000 0.0000 0.0000 17.3335 0.0000 29.6081
#
#
#
# Elastic Compliance Matrix: (Units=1/GPa)
#
#
# Indices 1 2 3 4 5 6 
#
# 1 0.022618 -0.011106 -0.003891 0.000000 -0.016696 0.000000
# 2 -0.011106 0.022116 -0.003150 0.000000 0.001263 0.000000
# 3 -0.003891 -0.003150 0.017108 0.000000 -0.000414 0.000000
# 4 0.000000 0.000000 0.000000 -0.137187 0.000000 0.080314
# 5 -0.016696 0.001263 -0.000414 0.000000 0.031383 0.000000
# 6 0.000000 0.000000 0.000000 0.080314 0.000000 -0.013244
#
#
# Mechanical properties :
#
#
# Convention : Reuss Voigt Hill
#
# Bulk Modulus (GPa) = 39.14300 69.03662 54.08981
# Shear Modulus (GPa) = -403.35376 30.48901 -186.43237
#
# Velocity S-wave (km/s) = -13.77121 3.78617 -9.36245
# Velocity P-wave (km/s) = 15.31201 7.18141 9.56256
#
# Compressibility (1/GPa) = 0.02554735
#
# Stress axis : x y z
#
# Youngs Moduli (GPa) = 44.21255 45.21567 58.45349
#
# Poissons Ratio (x) = 0.50217 0.22746
# Poissons Ratio (y) = 0.49103 0.18412
# Poissons Ratio (z) = 0.17205 0.14242
#
# Static dielectric constant tensor:
#      x y z
#    x 1.846950 0.000000 -0.011750 
#    y 0.000000 1.725030 0.000000 
#    z -0.011750 0.000000 1.834270 
# 
# From -- ./inp_files/16727.got.cif
#   From: 2010.05.17/outbox.cif.g08.bks.cpg/sg8_9_cif.got.tgz:16727.got - 2010.06.03 19:46:02.
