data_PCOD9131133
_publ_section_title
;
Structure prediction by ZEFSAII (Michael W. Deem and Ramdas Pophale) SiO2 
 PCOD9131133
Probable space group: P M
;
_chemical_formula_sum "Si O2"
_cell_formula_units_Z 16
_cell_length_a 9.909696
_cell_length_b 8.513685
_cell_length_c 19.961538
_cell_angle_alpha 90.000000
_cell_angle_beta 28.675420
_cell_angle_gamma 90.000000
_cell_volume 808.118100
_symmetry_space_group_name_H-M "P M"
_symmetry_group_IT_number 6
_symmetry_cell_setting 'monoclinic'
loop_
_space_group_symop_operation_xyz
x,y,z
x,-y,z
loop_
_atom_site_type_symbol
_atom_site_label
_atom_site_fract_x
_atom_site_fract_y
_atom_site_fract_z
Si Si1 0.359030 0.184742 0.304930
Si Si2 0.342735 0.186463 0.960457
Si Si3 0.426684 0.680809 0.416221
Si Si4 0.860460 0.686011 0.433410
Si Si5 0.956183 0.817563 0.246894
Si Si6 0.933237 0.314617 0.738517
Si Si7 0.971079 0.688172 0.000343
Si Si8 0.227138 0.308616 0.745835
O O1 0.304378 0.278195 0.397376
O O2 0.664886 0.236835 0.144801
O O3 0.111148 0.227243 0.362086
O O4 0.362535 0.000000 0.316650
O O5 0.213610 0.236103 0.088516
O O6 0.176108 0.266896 0.972327
O O7 0.297994 0.000000 0.973872
O O8 0.669692 0.226930 0.821534
O O9 0.526700 0.500000 0.373160
O O10 0.685115 0.795086 0.318032
O O11 0.198500 0.699151 0.573716
O O12 0.880564 0.500000 0.437654
O O13 0.899359 0.718404 0.337820
O O14 0.549653 0.740380 0.591944
O O15 0.992923 0.000000 0.249305
O O16 0.862515 0.500000 0.774171
O O17 0.030722 0.257246 0.769400
O O18 0.937945 0.500000 0.013503
O O19 0.107890 0.738938 0.869968
O O20 0.228951 0.500000 0.743008
#
# Coordination Sequence:
#
# PCOD9131133 Si02
#       8
#     2   2   2   2   2   2   2   2
#     4  12  26  43  62  94 133 166 206 263 321 379
#     4  11  25  42  61  93 131 168 208 258 317 376
#     4  11  22  41  69  94 120 164 216 263 311 375
#     4  11  23  43  68  94 124 165 214 262 311 379
#     4  11  23  41  64  93 129 164 205 264 321 373
#     4  10  22  42  66  94 124 162 211 263 312 371
#     4  11  23  42  67  93 123 168 216 260 310 375
#     4   9  21  42  65  93 124 157 208 265 311 362
#
# _framework density 19.799085999999999
#
# number of rings (size 3 to 8) (size 9 to 14) (size 15 to 20)
#    0.000    1.250    2.500    3.000    3.500    2.500 
#    0.000    2.500    0.000    0.000    0.000    0.000 
#    0.000    0.000    0.000    0.000    0.000    0.000 
#
# Total GULP energy -89439.148739 kJ/mol
# GULP energy per Si atom -5589.946796 kJ/mol
# Density = 1.975402 g / cm^3
# Si number density = 19.799086 Si / 1000 Ang^3
#
#
#
# Elastic Constant Matrix: (Units=GPa)
#
#
# Indices 1 2 3 4 5 6 
#
# 1 91.1574 3.2902 25.5405 0.0000 1.0832 0.0000
# 2 3.2902 26.1717 12.0756 0.0000 9.0832 0.0000
# 3 25.5405 12.0756 38.4665 0.0000 12.2967 0.0000
# 4 0.0000 0.0000 0.0000 98.0462 0.0000 -32.6748
# 5 1.0832 9.0832 12.2967 0.0000 37.3424 0.0000
# 6 0.0000 0.0000 0.0000 -32.6748 0.0000 37.0669
#
#
#
# Elastic Compliance Matrix: (Units=1/GPa)
#
#
# Indices 1 2 3 4 5 6 
#
# 1 0.013871 0.002329 -0.010765 0.000000 0.002576 0.000000
# 2 0.002329 0.046764 -0.014048 0.000000 -0.006817 0.000000
# 3 -0.010765 -0.014048 0.040640 0.000000 -0.009653 0.000000
# 4 0.000000 0.000000 0.000000 0.014442 0.000000 0.012731
# 5 0.002576 -0.006817 -0.009653 0.000000 0.031541 0.000000
# 6 0.000000 0.000000 0.000000 0.012731 0.000000 0.038200
#
#
# Mechanical properties :
#
#
# Convention : Reuss Voigt Hill
#
# Bulk Modulus (GPa) = 17.75936 26.40091 22.08013
# Shear Modulus (GPa) = 20.06463 42.15038 31.10750
#
# Velocity S-wave (km/s) = 3.18687 4.61901 3.96808
# Velocity P-wave (km/s) = 4.74666 6.46609 5.67191
#
# Compressibility (1/GPa) = 0.05630833
#
# Stress axis : x y z
#
# Youngs Moduli (GPa) = 72.09063 21.38411 24.60640
#
# Poissons Ratio (x) = -0.04980 0.26488
# Poissons Ratio (y) = -0.16790 0.34566
# Poissons Ratio (z) = 0.77604 0.30039
#
# Static dielectric constant tensor:
#      x y z
#    x 1.668760 0.000000 0.011620 
#    y 0.000000 1.672030 0.000000 
#    z 0.011620 0.000000 1.674440 
# 
# From -- ./inp_files/2718.got.cif
#   From: 2010.05.17/outbox.cif.g08.bks.cpg/sg6_2_cif.got.tgz:2718.got - 2010.06.03 19:42:10.
