data_PCOD9131440
_publ_section_title
;
Structure prediction by ZEFSAII (Michael W. Deem and Ramdas Pophale) SiO2 
 PCOD9131440
Probable space group: P C
;
_chemical_formula_sum "Si O2"
_cell_formula_units_Z 16
_cell_length_a 7.874138
_cell_length_b 18.605003
_cell_length_c 5.222214
_cell_angle_alpha 90.000000
_cell_angle_beta 60.356520
_cell_angle_gamma 90.000000
_cell_volume 664.916478
_symmetry_space_group_name_H-M "P C"
_symmetry_group_IT_number 7
_symmetry_cell_setting 'monoclinic'
loop_
_space_group_symop_operation_xyz
x,y,z
x,-y,1/2+z
loop_
_atom_site_type_symbol
_atom_site_label
_atom_site_fract_x
_atom_site_fract_y
_atom_site_fract_z
Si Si1 0.474090 0.459385 0.155770
Si Si2 0.948256 0.463064 0.785656
Si Si3 0.627658 0.025436 0.784806
Si Si4 0.347578 0.154064 0.088107
Si Si5 0.198621 0.038112 0.554604
Si Si6 0.486498 0.694618 0.426662
Si Si7 0.950931 0.308730 0.548150
Si Si8 0.158781 0.254739 0.879090
O O1 0.407054 0.486956 0.480819
O O2 0.711195 0.463388 0.977914
O O3 0.428799 0.377921 0.113385
O O4 0.008659 0.523255 0.532840
O O5 0.001794 0.388324 0.612770
O O6 0.737822 0.003470 0.448426
O O7 0.432751 0.975936 0.916846
O O8 0.535643 0.104754 0.877705
O O9 0.208241 0.112490 0.390022
O O10 0.226152 0.175950 0.924993
O O11 0.425198 0.232033 0.118917
O O12 0.129674 0.019384 0.890579
O O13 0.716822 0.695403 0.211342
O O14 0.362274 0.700855 0.255863
O O15 0.032780 0.287571 0.209774
O O16 0.041905 0.259847 0.705366
#
# Coordination Sequence:
#
# PCOD9131440 Si02
#       8
#     2   2   2   2   2   2   2   2
#     4   9  18  34  54  78 107 145 188 235 286 334
#     4   9  17  32  56  76 101 144 187 228 287 345
#     4   8  14  26  47  78 107 139 185 222 265 331
#     4   8  17  35  52  86 111 147 188 232 275 340
#     4   8  14  26  47  78 107 139 185 222 265 331
#     4   9  22  41  60  86 115 155 192 240 288 347
#     4  11  22  41  57  84 117 149 186 246 290 337
#     4  10  24  37  59  86 119 144 195 233 286 343
#
# _framework density 24.063175000000001
#
# number of rings (size 3 to 8) (size 9 to 14) (size 15 to 20)
#    0.750    2.500    0.000    0.750    0.000    9.000 
#    0.000    3.750    0.000    0.000    0.000   47.250 
#    0.000    0.000    0.000    0.000    0.000    0.000 
#
# Total GULP energy -89231.594904 kJ/mol
# GULP energy per Si atom -5576.974682 kJ/mol
# Density = 2.400841 g / cm^3
# Si number density = 24.063175 Si / 1000 Ang^3
#
#
#
# Elastic Constant Matrix: (Units=GPa)
#
#
# Indices 1 2 3 4 5 6 
#
# 1 98.5752 -13.8486 26.9567 0.0000 -10.3284 0.0000
# 2 -13.8486 114.8233 5.1140 0.0000 -0.4659 0.0000
# 3 26.9567 5.1140 94.0482 0.0000 12.9811 0.0000
# 4 0.0000 0.0000 0.0000 8.9139 0.0000 14.5610
# 5 -10.3284 -0.4659 12.9811 0.0000 40.7945 0.0000
# 6 0.0000 0.0000 0.0000 14.5610 0.0000 42.1602
#
#
#
# Elastic Compliance Matrix: (Units=1/GPa)
#
#
# Indices 1 2 3 4 5 6 
#
# 1 0.011958 0.001643 -0.004118 0.000000 0.004357 0.000000
# 2 0.001643 0.008959 -0.001077 0.000000 0.000861 0.000000
# 3 -0.004118 -0.001077 0.012569 0.000000 -0.005055 0.000000
# 4 0.000000 0.000000 0.000000 0.257402 0.000000 -0.088900
# 5 0.004357 0.000861 -0.005055 0.000000 0.027234 0.000000
# 6 0.000000 0.000000 0.000000 -0.088900 0.000000 0.054423
#
#
# Mechanical properties :
#
#
# Convention : Reuss Voigt Hill
#
# Bulk Modulus (GPa) = 37.90397 38.21009 38.05703
# Shear Modulus (GPa) = 12.87188 37.65537 25.26363
#
# Velocity S-wave (km/s) = 2.31534 3.96012 3.24371
# Velocity P-wave (km/s) = 4.78893 6.06824 5.46614
#
# Compressibility (1/GPa) = 0.02638246
#
# Stress axis : x y z
#
# Youngs Moduli (GPa) = 83.62553 111.62342 79.55788
#
# Poissons Ratio (x) = -0.18343 0.32764
# Poissons Ratio (y) = -0.13742 0.08568
# Poissons Ratio (z) = 0.34439 0.12022
#
# Static dielectric constant tensor:
#      x y z
#    x 1.978310 0.000000 0.033300 
#    y 0.000000 1.969070 0.000000 
#    z 0.033300 0.000000 2.015850 
# 
# From -- ./inp_files/951.got.cif
#   From: 2010.05.17/outbox.cif.g08.bks.cpg/sg7_cif.got.tgz:951.got - 2010.06.03 19:44:50.
