data_PCOD9131494
_publ_section_title
;
Structure prediction by ZEFSAII (Michael W. Deem and Ramdas Pophale) SiO2 
 PCOD9131494
Probable space group: C M
;
_chemical_formula_sum "Si O2"
_cell_formula_units_Z 32
_cell_length_a 12.940880
_cell_length_b 22.784863
_cell_length_c 7.311402
_cell_angle_alpha 90.000000
_cell_angle_beta 143.167283
_cell_angle_gamma 90.000000
_cell_volume 1292.367789
_symmetry_space_group_name_H-M "C M"
_symmetry_group_IT_number 8
_symmetry_cell_setting 'monoclinic'
loop_
_space_group_symop_operation_xyz
x,y,z
x,-y,z
1/2+x,1/2+y,z
1/2+x,1/2-y,z
loop_
_atom_site_type_symbol
_atom_site_label
_atom_site_fract_x
_atom_site_fract_y
_atom_site_fract_z
Si Si1 0.094000 0.154697 0.730850
Si Si2 0.923010 0.602012 0.583811
Si Si3 0.865872 0.561720 0.135218
Si Si4 0.573166 0.350445 0.151668
Si Si5 0.657804 0.224781 0.288680
Si Si6 0.735136 0.103105 0.580947
Si Si7 0.524613 0.222768 0.703366
Si Si8 0.794961 0.066259 0.261533
O O1 0.111885 0.224229 0.717292
O O2 0.930557 0.119573 0.414839
O O3 0.258352 0.116375 0.909395
O O4 0.080911 0.154480 0.937354
O O5 0.836151 0.561071 0.310616
O O6 0.758976 0.623282 0.471848
O O7 0.984233 0.660598 0.558050
O O8 0.096668 0.576666 0.917037
O O9 0.811588 0.500000 -0.026791
O O10 0.069917 0.568929 0.413744
O O11 0.553474 0.283467 0.194458
O O12 0.402399 0.388275 0.944633
O O13 0.671568 0.168743 0.435450
O O14 0.846266 0.249414 0.515563
O O15 0.606386 0.205066 0.012355
O O16 0.791657 0.070318 0.476692
O O17 0.847483 0.000000 0.279253
#
# Coordination Sequence:
#
# PCOD9131494 Si02
#       8
#     4   4   4   4   4   4   4   4
#     4   9  18  36  58  83 110 148 190 227 280 338
#     4  10  20  36  62  85 112 142 186 241 284 333
#     4  11  24  40  53  76 119 161 190 227 279 337
#     4   8  18  33  59  84 109 146 186 227 286 345
#     4  10  15  30  57  85 111 135 176 230 288 330
#     4  11  20  37  55  82 115 153 189 227 281 339
#     4  10  16  32  60  88 108 136 180 240 283 330
#     4  11  20  34  60  87 106 143 200 239 269 324
#
# _framework density 24.760755
#
# number of rings (size 3 to 8) (size 9 to 14) (size 15 to 20)
#    0.000    2.000    5.000    1.875    0.000    0.000 
#    2.250    3.125    0.000    0.000    0.000    0.000 
#    0.000    0.000    0.000    0.000    0.000    0.000 
#
# Total GULP energy -89252.245512 kJ/mol
# GULP energy per Si atom -5578.265345 kJ/mol
# Density = 2.470440 g / cm^3
# Si number density = 24.760755 Si / 1000 Ang^3
#
#
#
# Elastic Constant Matrix: (Units=GPa)
#
#
# Indices 1 2 3 4 5 6 
#
# 1 30.0323 15.7865 13.4841 0.0000 -6.3991 0.0000
# 2 15.7865 173.8298 30.0184 0.0000 22.9729 0.0000
# 3 13.4841 30.0184 125.2546 0.0000 17.7418 0.0000
# 4 0.0000 0.0000 0.0000 15.8418 0.0000 1.4454
# 5 -6.3991 22.9729 17.7418 0.0000 33.3648 0.0000
# 6 0.0000 0.0000 0.0000 1.4454 0.0000 5.7472
#
#
#
# Elastic Compliance Matrix: (Units=1/GPa)
#
#
# Indices 1 2 3 4 5 6 
#
# 1 0.041070 -0.004654 -0.005273 0.000000 0.013885 0.000000
# 2 -0.004654 0.006968 -0.000392 0.000000 -0.005481 0.000000
# 3 -0.005273 -0.000392 0.009463 0.000000 -0.005773 0.000000
# 4 0.000000 0.000000 0.000000 0.064607 0.000000 -0.016249
# 5 0.013885 -0.005481 -0.005773 0.000000 0.039479 0.000000
# 6 0.000000 0.000000 0.000000 -0.016249 0.000000 0.178086
#
#
# Mechanical properties :
#
#
# Convention : Reuss Voigt Hill
#
# Bulk Modulus (GPa) = 27.12822 49.74387 38.43605
# Shear Modulus (GPa) = 13.41928 28.97926 21.19927
#
# Velocity S-wave (km/s) = 2.33052 3.42478 2.92920
# Velocity P-wave (km/s) = 4.26869 5.98099 5.19586
#
# Compressibility (1/GPa) = 0.03686198
#
# Stress axis : x y z
#
# Youngs Moduli (GPa) = 24.34869 143.52115 105.67322
#
# Poissons Ratio (x) = 0.66799 0.55718
# Poissons Ratio (y) = 0.11333 0.04146
# Poissons Ratio (z) = 0.12838 0.05631
#
# Static dielectric constant tensor:
#      x y z
#    x 1.976690 0.000000 0.073810 
#    y 0.000000 2.082450 0.000000 
#    z 0.073810 0.000000 1.823330 
# 
# From -- ./inp_files/13837.got.cif
#   From: 2010.05.17/outbox.cif.g08.bks.cpg/sg8_7_cif.got.tgz:13837.got - 2010.06.03 19:46:02.
