data_PCOD9131876
_publ_section_title
;
Structure prediction by ZEFSAII (Michael W. Deem and Ramdas Pophale) SiO2 
 PCOD9131876
Probable space group: C M
;
_chemical_formula_sum "Si O2"
_cell_formula_units_Z 32
_cell_length_a 25.656259
_cell_length_b 7.682554
_cell_length_c 10.447604
_cell_angle_alpha 90.000000
_cell_angle_beta 51.227271
_cell_angle_gamma 90.000000
_cell_volume 1605.490010
_symmetry_space_group_name_H-M "C M"
_symmetry_group_IT_number 8
_symmetry_cell_setting 'monoclinic'
loop_
_space_group_symop_operation_xyz
x,y,z
x,-y,z
1/2+x,1/2+y,z
1/2+x,1/2-y,z
loop_
_atom_site_type_symbol
_atom_site_label
_atom_site_fract_x
_atom_site_fract_y
_atom_site_fract_z
Si Si1 0.630530 0.211510 0.864450
Si Si2 0.773914 0.794477 0.247212
Si Si3 0.921977 0.210633 0.012936
Si Si4 0.137368 0.199120 0.336850
Si Si5 0.919125 0.212398 0.315709
Si Si6 0.051348 0.203400 0.239307
Si Si7 0.269229 0.712424 0.545411
Si Si8 0.562648 0.798080 0.704163
O O1 0.707457 0.266377 0.727761
O O2 0.592126 0.266395 0.794035
O O3 0.627147 0.000000 0.876982
O O4 0.595308 0.284400 0.043548
O O5 0.846990 0.729642 0.091960
O O6 0.710811 0.770800 0.253604
O O7 0.758173 0.728210 0.415153
O O8 0.783590 0.000000 0.248927
O O9 0.931089 0.261215 0.148622
O O10 0.925912 0.000000 0.999498
O O11 0.982960 0.281981 0.836764
O O12 0.093239 0.282345 0.291899
O O13 0.094928 0.207735 0.532620
O O14 0.149013 0.000000 0.282259
O O15 0.844066 0.266542 0.467648
O O16 0.978816 0.277652 0.313215
O O17 0.920238 0.000000 0.315196
O O18 0.039534 0.000000 0.289171
O O19 0.268106 0.500000 0.547104
O O20 0.582720 0.000000 0.662181
#
# Coordination Sequence:
#
# PCOD9131876 Si02
#       8
#     4   4   4   4   4   4   4   4
#     4  10  19  32  53  80 106 133 173 221 264 314
#     4   9  17  33  55  79 107 138 177 222 267 317
#     4   9  17  31  56  83 105 135 176 222 270 318
#     4  11  23  36  52  76 110 149 184 218 262 320
#     4   8  14  28  52  76 100 132 168 213 262 305
#     4  10  21  36  53  76 107 141 176 215 262 317
#     4   8  14  28  51  78 102 126 167 218 262 305
#     4  11  21  34  54  80 111 142 177 223 267 314
#
# _framework density 19.931609000000002
#
# number of rings (size 3 to 8) (size 9 to 14) (size 15 to 20)
#    0.000    2.500    2.500    2.250    0.000    2.000 
#    0.000    1.250    0.000    3.750    0.000    0.000 
#    0.000    0.000    0.000    0.000    0.000    0.000 
#
# Total GULP energy -89238.005657 kJ/mol
# GULP energy per Si atom -5577.375354 kJ/mol
# Density = 1.988624 g / cm^3
# Si number density = 19.931609 Si / 1000 Ang^3
#
#
#
# Elastic Constant Matrix: (Units=GPa)
#
#
# Indices 1 2 3 4 5 6 
#
# 1 171.0037 -3.8938 53.8895 0.0000 -11.4609 0.0000
# 2 -3.8938 29.6691 -12.0187 0.0000 2.8834 0.0000
# 3 53.8895 -12.0187 52.9448 0.0000 -9.8468 0.0000
# 4 0.0000 0.0000 0.0000 21.0904 0.0000 -9.9118
# 5 -11.4609 2.8834 -9.8468 0.0000 34.4342 0.0000
# 6 0.0000 0.0000 0.0000 -9.9118 0.0000 25.8467
#
#
#
# Elastic Compliance Matrix: (Units=1/GPa)
#
#
# Indices 1 2 3 4 5 6 
#
# 1 0.008811 -0.002738 -0.009508 0.000000 0.000443 0.000000
# 2 -0.002738 0.037987 0.011247 0.000000 -0.000876 0.000000
# 3 -0.009508 0.011247 0.032060 0.000000 0.005061 0.000000
# 4 0.000000 0.000000 0.000000 0.057839 0.000000 0.022180
# 5 0.000443 -0.000876 0.005061 0.000000 0.030709 0.000000
# 6 0.000000 0.000000 0.000000 0.022180 0.000000 0.047195
#
#
# Mechanical properties :
#
#
# Convention : Reuss Voigt Hill
#
# Bulk Modulus (GPa) = 13.01051 36.61906 24.81479
# Shear Modulus (GPa) = 20.64247 30.65031 25.64639
#
# Velocity S-wave (km/s) = 3.22167 3.92570 3.59098
# Velocity P-wave (km/s) = 4.51449 6.24183 5.44706
#
# Compressibility (1/GPa) = 0.07686092
#
# Stress axis : x y z
#
# Youngs Moduli (GPa) = 113.48878 26.32474 31.19187
#
# Poissons Ratio (x) = 0.07208 0.29657
# Poissons Ratio (y) = 0.31076 -0.35083
# Poissons Ratio (z) = 1.07903 -0.29609
#
# Static dielectric constant tensor:
#      x y z
#    x 1.747640 0.000000 -0.011480 
#    y 0.000000 1.750700 0.000000 
#    z -0.011480 0.000000 1.663210 
# 
# From -- ./inp_files/15797.got.cif
#   From: 2010.05.17/outbox.cif.g08.bks.cpg/sg8_8_cif.got.tgz:15797.got - 2010.06.03 19:46:02.
