data_PCOD9131098
_publ_section_title
;
Structure prediction by ZEFSAII (Michael W. Deem and Ramdas Pophale) SiO2 
 PCOD9131098
Probable space group: P M
;
_chemical_formula_sum "Si O2"
_cell_formula_units_Z 15
_cell_length_a 11.659786
_cell_length_b 11.910018
_cell_length_c 7.839146
_cell_angle_alpha 90.000000
_cell_angle_beta 40.746295
_cell_angle_gamma 90.000000
_cell_volume 710.546533
_symmetry_space_group_name_H-M "P M"
_symmetry_group_IT_number 6
_symmetry_cell_setting 'monoclinic'
loop_
_space_group_symop_operation_xyz
x,y,z
x,-y,z
loop_
_atom_site_type_symbol
_atom_site_label
_atom_site_fract_x
_atom_site_fract_y
_atom_site_fract_z
Si Si1 0.949060 0.376075 0.074230
Si Si2 0.289858 0.732101 0.534426
Si Si3 0.776938 0.870991 0.801671
Si Si4 0.671068 0.338004 0.102108
Si Si5 0.685936 0.728749 0.583509
Si Si6 0.673478 0.500000 0.782129
Si Si7 0.400767 0.131565 0.727231
Si Si8 0.198829 0.129064 0.307950
O O1 0.978860 0.500000 0.115942
O O2 0.785306 0.380122 0.129446
O O3 0.884089 0.291597 0.292912
O O4 0.116430 0.335424 0.781363
O O5 0.461313 0.653300 0.350498
O O6 0.313071 0.828485 0.650681
O O7 0.273263 0.786378 0.366095
O O8 0.688967 0.817086 0.734175
O O9 0.987552 0.862461 0.548095
O O10 0.727680 0.000000 0.877961
O O11 0.715090 0.792944 0.025269
O O12 0.724107 0.403298 0.870370
O O13 0.624205 0.603493 0.705291
O O14 0.564786 0.787077 0.579103
O O15 0.447418 0.000000 0.668389
O O16 0.274655 0.149320 0.033789
O O17 0.244652 0.000000 0.302344
#
# Coordination Sequence:
#
# PCOD9131098 Si02
#       8
#     2   2   2   2   2   1   2   2
#     4  12  25  45  67  95 136 180 228 291 340 403
#     4  12  25  43  69 103 135 184 230 278 351 412
#     4  10  21  40  68  98 133 181 229 281 348 415
#     4  11  23  43  68  95 137 172 227 286 344 408
#     4  11  22  43  68  96 135 183 225 284 350 400
#     4  10  22  40  72  94 128 180 226 290 340 402
#     4  11  24  43  70 106 146 183 226 285 346 417
#     4  10  21  40  65  99 142 178 225 285 339 412
#
# _framework density 21.110510999999999
#
# number of rings (size 3 to 8) (size 9 to 14) (size 15 to 20)
#    0.000    1.067    4.000    3.200    0.933    2.133 
#    1.200    2.000    0.000    0.000    0.000    0.000 
#    0.000    0.000    0.000    0.000    0.000    0.000 
#
# Total GULP energy -83564.130436 kJ/mol
# GULP energy per Si atom -5570.942029 kJ/mol
# Density = 2.106246 g / cm^3
# Si number density = 21.110511 Si / 1000 Ang^3
#
#
#
# Elastic Constant Matrix: (Units=GPa)
#
#
# Indices 1 2 3 4 5 6 
#
# 1 57.0882 26.6187 -6.5758 0.0000 3.8209 0.0000
# 2 26.6187 123.7450 19.1573 0.0000 -2.3055 0.0000
# 3 -6.5758 19.1573 59.5454 0.0000 -10.4957 0.0000
# 4 0.0000 0.0000 0.0000 31.2022 0.0000 8.4764
# 5 3.8209 -2.3055 -10.4957 0.0000 32.0683 0.0000
# 6 0.0000 0.0000 0.0000 8.4764 0.0000 17.3876
#
#
#
# Elastic Compliance Matrix: (Units=1/GPa)
#
#
# Indices 1 2 3 4 5 6 
#
# 1 0.020346 -0.004957 0.003557 0.000000 -0.001616 0.000000
# 2 -0.004957 0.009715 -0.003657 0.000000 0.000092 0.000000
# 3 0.003557 -0.003657 0.019359 0.000000 0.005649 0.000000
# 4 0.000000 0.000000 0.000000 0.036941 0.000000 -0.018009
# 5 -0.001616 0.000092 0.005649 0.000000 0.033232 0.000000
# 6 0.000000 0.000000 0.000000 -0.018009 0.000000 0.066291
#
#
# Mechanical properties :
#
#
# Convention : Reuss Voigt Hill
#
# Bulk Modulus (GPa) = 25.44156 35.41988 30.43072
# Shear Modulus (GPa) = 23.91179 29.54350 26.72764
#
# Velocity S-wave (km/s) = 3.36921 3.74501 3.56207
# Velocity P-wave (km/s) = 5.21662 5.95943 5.60036
#
# Compressibility (1/GPa) = 0.03930576
#
# Stress axis : x y z
#
# Youngs Moduli (GPa) = 49.14927 102.92959 51.65549
#
# Poissons Ratio (x) = 0.51027 -0.18373
# Poissons Ratio (y) = 0.24365 0.18890
# Poissons Ratio (z) = -0.17482 0.37640
#
# Static dielectric constant tensor:
#      x y z
#    x 1.750330 0.000000 0.012900 
#    y 0.000000 1.739520 0.000000 
#    z 0.012900 0.000000 1.818560 
# 
# From -- ./inp_files/3998.got.cif
#   From: 2010.05.17/outbox.cif.g08.bks.cpg/sg6_2_cif.got.tgz:3998.got - 2010.06.03 19:42:10.
