data_PCOD9131044
_publ_section_title
;
Structure prediction by ZEFSAII (Michael W. Deem and Ramdas Pophale) SiO2 
 PCOD9131044
Probable space group: P M
;
_chemical_formula_sum "Si O2"
_cell_formula_units_Z 14
_cell_length_a 6.641021
_cell_length_b 16.643634
_cell_length_c 5.807720
_cell_angle_alpha 90.000000
_cell_angle_beta 73.030915
_cell_angle_gamma 90.000000
_cell_volume 613.983315
_symmetry_space_group_name_H-M "P M"
_symmetry_group_IT_number 6
_symmetry_cell_setting 'monoclinic'
loop_
_space_group_symop_operation_xyz
x,y,z
x,-y,z
loop_
_atom_site_type_symbol
_atom_site_label
_atom_site_fract_x
_atom_site_fract_y
_atom_site_fract_z
Si Si1 0.405210 0.403079 0.675420
Si Si2 0.724022 0.790130 0.792577
Si Si3 0.005702 0.091416 0.990929
Si Si4 0.339648 0.831333 0.204993
Si Si5 0.610117 0.913964 0.461449
Si Si6 0.087106 0.690033 0.522921
Si Si7 0.408159 0.595517 0.179937
O O1 0.369789 0.500000 0.684669
O O2 0.192498 0.350902 0.711790
O O3 0.515664 0.382503 0.391465
O O4 0.489227 0.382476 0.899975
O O5 0.613011 0.837927 0.624326
O O6 0.850554 0.714465 0.653645
O O7 0.544448 0.783130 0.045754
O O8 0.899388 0.851427 0.837474
O O9 0.207066 0.132659 0.039024
O O10 0.829818 0.086647 0.250710
O O11 0.045363 0.000000 0.897205
O O12 0.428010 0.902066 0.335031
O O13 0.200537 0.771342 0.401588
O O14 0.589479 0.000000 0.590819
O O15 0.169342 0.628374 0.299357
O O16 0.403575 0.500000 0.180217
#
# Coordination Sequence:
#
# PCOD9131044 Si02
#       7
#     2   2   2   2   2   2   2
#     4   8  16  31  58  90 121 165 206 245 314 380
#     4  11  24  38  60  89 119 158 209 259 314 376
#     4  10  22  41  61  83 117 159 207 262 321 376
#     4  11  24  38  60  89 119 160 207 256 320 374
#     4  10  22  41  58  82 118 157 209 259 309 380
#     4  10  21  36  59  88 125 160 202 264 311 370
#     4   8  16  31  57  89 121 165 206 245 314 380
#
# _framework density 22.801919999999999
#
# number of rings (size 3 to 8) (size 9 to 14) (size 15 to 20)
#    0.857    1.429    1.429    0.857    4.000    1.714 
#    0.000    0.000    0.000    3.429    0.000    8.000 
#    0.000    0.000    0.000    0.000    0.000    0.000 
#
# Total GULP energy -78001.040406 kJ/mol
# GULP energy per Si atom -5571.502886 kJ/mol
# Density = 2.275002 g / cm^3
# Si number density = 22.801920 Si / 1000 Ang^3
#
#
#
# Elastic Constant Matrix: (Units=GPa)
#
#
# Indices 1 2 3 4 5 6 
#
# 1 88.7266 31.6847 36.9422 0.0000 1.6377 0.0000
# 2 31.6847 61.0176 24.6932 0.0000 0.8399 0.0000
# 3 36.9422 24.6932 143.1899 0.0000 5.0156 0.0000
# 4 0.0000 0.0000 0.0000 30.4167 0.0000 9.2208
# 5 1.6377 0.8399 5.0156 0.0000 33.2702 0.0000
# 6 0.0000 0.0000 0.0000 9.2208 0.0000 16.5360
#
#
#
# Elastic Compliance Matrix: (Units=1/GPa)
#
#
# Indices 1 2 3 4 5 6 
#
# 1 0.014727 -0.006568 -0.002661 0.000000 -0.000158 0.000000
# 2 -0.006568 0.020548 -0.001852 0.000000 0.000084 0.000000
# 3 -0.002661 -0.001852 0.008026 0.000000 -0.001032 0.000000
# 4 0.000000 0.000000 0.000000 0.039565 0.000000 -0.022062
# 5 -0.000158 0.000084 -0.001032 0.000000 0.030218 0.000000
# 6 0.000000 0.000000 0.000000 -0.022062 0.000000 0.072776
#
#
# Mechanical properties :
#
#
# Convention : Reuss Voigt Hill
#
# Bulk Modulus (GPa) = 47.30826 53.28603 50.29714
# Shear Modulus (GPa) = 23.24840 29.35216 26.30028
#
# Velocity S-wave (km/s) = 3.19655 3.59174 3.39989
# Velocity P-wave (km/s) = 5.86655 6.37343 6.12524
#
# Compressibility (1/GPa) = 0.02113796
#
# Stress axis : x y z
#
# Youngs Moduli (GPa) = 67.90221 48.66740 124.59757
#
# Poissons Ratio (x) = 0.31966 0.33159
# Poissons Ratio (y) = 0.44599 0.23073
# Poissons Ratio (z) = 0.18071 0.09012
#
# Static dielectric constant tensor:
#      x y z
#    x 1.813650 0.000000 0.004570 
#    y 0.000000 1.853780 0.000000 
#    z 0.004570 0.000000 1.868850 
# 
# From -- ./inp_files/599.got.cif
#   From: 2010.05.17/outbox.cif.g08.bks.cpg/sg6_1_cif.got.tgz:599.got - 2010.06.03 19:42:10.
