data_PCOD9131777
_publ_section_title
;
Structure prediction by ZEFSAII (Michael W. Deem and Ramdas Pophale) SiO2 
 PCOD9131777
Probable space group: C M
;
_chemical_formula_sum "Si O2"
_cell_formula_units_Z 30
_cell_length_a 12.735954
_cell_length_b 19.720306
_cell_length_c 6.801357
_cell_angle_alpha 90.000000
_cell_angle_beta 137.899847
_cell_angle_gamma 90.000000
_cell_volume 1145.231370
_symmetry_space_group_name_H-M "C M"
_symmetry_group_IT_number 8
_symmetry_cell_setting 'monoclinic'
loop_
_space_group_symop_operation_xyz
x,y,z
x,-y,z
1/2+x,1/2+y,z
1/2+x,1/2-y,z
loop_
_atom_site_type_symbol
_atom_site_label
_atom_site_fract_x
_atom_site_fract_y
_atom_site_fract_z
Si Si1 0.744750 0.078863 0.943200
Si Si2 0.639894 0.572892 0.075755
Si Si3 0.300240 0.610567 0.560325
Si Si4 0.440239 0.704611 0.268667
Si Si5 0.287501 0.238707 0.668699
Si Si6 0.726627 0.500000 0.557206
Si Si7 0.973250 0.615112 0.010187
Si Si8 0.940437 0.655714 0.422451
O O1 0.778424 0.084212 0.754205
O O2 0.568246 0.109602 0.711331
O O3 0.757789 0.000000 0.016487
O O4 0.866885 0.131551 0.211860
O O5 0.705418 0.500000 0.089266
O O6 0.628743 0.557493 0.291875
O O7 0.765652 0.630418 0.218016
O O8 0.473856 0.586884 0.750878
O O9 0.292441 0.692337 0.553061
O O10 0.149488 0.588151 0.227397
O O11 0.616076 0.705314 0.426579
O O12 0.449777 0.763150 0.446263
O O13 0.323639 0.733551 0.938853
O O14 0.418359 0.181754 0.814350
O O15 0.843100 0.558774 0.802853
O O16 0.971928 0.639190 0.235672
#
# Coordination Sequence:
#
# PCOD9131777 Si02
#       8
#     4   4   4   4   4   2   4   4
#     4  10  20  33  66  99 126 165 227 259 319 382
#     4  10  24  40  61  91 134 168 213 263 339 385
#     4  10  20  37  64  91 123 181 210 256 324 405
#     4  10  18  36  63  94 125 162 225 273 301 381
#     4  10  18  36  61  94 125 157 220 273 304 367
#     4  10  26  36  60 100 126 162 206 294 298 392
#     4  10  22  38  69  92 122 160 230 262 314 372
#     4  10  20  41  67  89 127 187 211 258 325 411
#
# _framework density 26.195578000000001
#
# number of rings (size 3 to 8) (size 9 to 14) (size 15 to 20)
#    0.400    1.600    5.333    0.800    9.333    0.000 
#    0.000    2.667    5.867    3.200    0.000    0.000 
#    0.000    0.000    0.000    0.000    0.000    0.000 
#
# Total GULP energy -83678.517507 kJ/mol
# GULP energy per Si atom -5578.567834 kJ/mol
# Density = 2.613596 g / cm^3
# Si number density = 26.195578 Si / 1000 Ang^3
#
#
#
# Elastic Constant Matrix: (Units=GPa)
#
#
# Indices 1 2 3 4 5 6 
#
# 1 53.5034 30.4206 26.1602 0.0000 12.6632 0.0000
# 2 30.4206 206.2555 54.2439 0.0000 8.2361 0.0000
# 3 26.1602 54.2439 160.3738 0.0000 13.9131 0.0000
# 4 0.0000 0.0000 0.0000 47.4170 0.0000 1.1548
# 5 12.6632 8.2361 13.9131 0.0000 35.5049 0.0000
# 6 0.0000 0.0000 0.0000 1.1548 0.0000 27.9153
#
#
#
# Elastic Compliance Matrix: (Units=1/GPa)
#
#
# Indices 1 2 3 4 5 6 
#
# 1 0.022808 -0.002493 -0.002300 0.000000 -0.006655 0.000000
# 2 -0.002493 0.005605 -0.001504 0.000000 0.000179 0.000000
# 3 -0.002300 -0.001504 0.007265 0.000000 -0.001678 0.000000
# 4 0.000000 0.000000 0.000000 0.021111 0.000000 -0.000873
# 5 -0.006655 0.000179 -0.001678 0.000000 0.031155 0.000000
# 6 0.000000 0.000000 0.000000 -0.000873 0.000000 0.035859
#
#
# Mechanical properties :
#
#
# Convention : Reuss Voigt Hill
#
# Bulk Modulus (GPa) = 43.32348 71.30913 57.31630
# Shear Modulus (GPa) = 34.70043 42.78797 38.74420
#
# Velocity S-wave (km/s) = 3.64355 4.04592 3.85000
# Velocity P-wave (km/s) = 5.85448 7.00763 6.45685
#
# Compressibility (1/GPa) = 0.02308217
#
# Stress axis : x y z
#
# Youngs Moduli (GPa) = 43.84509 178.42406 137.64686
#
# Poissons Ratio (x) = 0.44487 0.31655
# Poissons Ratio (y) = 0.10932 0.20709
# Poissons Ratio (z) = 0.10083 0.26843
#
# Static dielectric constant tensor:
#      x y z
#    x 2.243890 0.000000 -0.061090 
#    y 0.000000 2.006480 0.000000 
#    z -0.061090 0.000000 2.000470 
# 
# From -- ./inp_files/15328.got.cif
#   From: 2010.05.17/outbox.cif.g08.bks.cpg/sg8_8_cif.got.tgz:15328.got - 2010.06.03 19:46:02.
