data_PCOD9131552
_publ_section_title
;
Structure prediction by ZEFSAII (Michael W. Deem and Ramdas Pophale) SiO2 
 PCOD9131552
Probable space group: C M
;
_chemical_formula_sum "Si O2"
_cell_formula_units_Z 26
_cell_length_a 12.378121
_cell_length_b 16.750330
_cell_length_c 7.011841
_cell_angle_alpha 90.000000
_cell_angle_beta 40.453536
_cell_angle_gamma 90.000000
_cell_volume 943.282691
_symmetry_space_group_name_H-M "C M"
_symmetry_group_IT_number 8
_symmetry_cell_setting 'monoclinic'
loop_
_space_group_symop_operation_xyz
x,y,z
x,-y,z
1/2+x,1/2+y,z
1/2+x,1/2-y,z
loop_
_atom_site_type_symbol
_atom_site_label
_atom_site_fract_x
_atom_site_fract_y
_atom_site_fract_z
Si Si1 0.793890 0.000000 0.909560
Si Si2 0.033902 0.870157 0.485696
Si Si3 0.995337 0.309743 0.587037
Si Si4 0.351284 0.340533 0.193494
Si Si5 0.701478 0.000000 0.575227
Si Si6 0.392250 0.834933 0.156458
Si Si7 0.673437 0.592136 0.891647
Si Si8 0.513126 0.000000 0.125998
O O1 0.908457 0.924942 0.772708
O O2 0.729195 0.000000 0.771617
O O3 0.605722 0.000000 0.225359
O O4 0.961496 0.781832 0.579268
O O5 0.213802 0.866441 0.334047
O O6 0.066426 0.905832 0.232765
O O7 0.190558 0.322540 0.271718
O O8 0.989437 0.317808 0.826987
O O9 0.843419 0.362305 0.713130
O O10 0.279480 0.422122 0.382785
O O11 0.368077 0.253830 0.274792
O O12 0.548172 0.362879 0.915378
O O13 0.506282 0.000000 0.878294
O O14 0.465781 0.905222 0.186523
O O15 0.700730 0.500000 0.794621
#
# Coordination Sequence:
#
# PCOD9131552 Si02
#       8
#     2   4   4   4   2   4   4   2
#     4  10  17  31  57  79 105 139 187 221 265 314
#     4  10  19  35  52  83 111 138 180 227 269 315
#     4  10  23  34  53  85 113 141 175 229 273 319
#     4  11  20  36  55  86 113 139 183 231 271 317
#     4  10  18  32  59  80 107 147 177 230 271 306
#     4  10  22  34  55  84 109 144 184 222 277 326
#     4  11  21  34  61  85 101 147 187 222 268 318
#     4  10  19  33  60  79 102 144 188 229 262 312
#
# _framework density 27.563314999999999
#
# number of rings (size 3 to 8) (size 9 to 14) (size 15 to 20)
#    0.462    1.231    4.615    0.462    6.462    0.000 
#    0.000    0.769    0.000    0.000    2.000    0.000 
#    0.000    0.000    0.000    0.000    0.000    0.000 
#
# Total GULP energy -72508.039633 kJ/mol
# GULP energy per Si atom -5577.541510 kJ/mol
# Density = 2.750058 g / cm^3
# Si number density = 27.563315 Si / 1000 Ang^3
#
#
#
# Elastic Constant Matrix: (Units=GPa)
#
#
# Indices 1 2 3 4 5 6 
#
# 1 101.6847 63.4541 40.9198 0.0000 -33.4798 0.0000
# 2 63.4541 248.2962 49.0611 0.0000 -54.3656 0.0000
# 3 40.9198 49.0611 105.8229 0.0000 -12.8917 0.0000
# 4 0.0000 0.0000 0.0000 43.0914 0.0000 -18.1350
# 5 -33.4798 -54.3656 -12.8917 0.0000 64.1578 0.0000
# 6 0.0000 0.0000 0.0000 -18.1350 0.0000 24.7950
#
#
#
# Elastic Compliance Matrix: (Units=1/GPa)
#
#
# Indices 1 2 3 4 5 6 
#
# 1 0.014243 -0.001700 -0.004090 0.000000 0.005170 0.000000
# 2 -0.001700 0.005518 -0.001476 0.000000 0.003492 0.000000
# 3 -0.004090 -0.001476 0.011587 0.000000 -0.001056 0.000000
# 4 0.000000 0.000000 0.000000 0.033526 0.000000 0.024521
# 5 0.005170 0.003492 -0.001056 0.000000 0.021032 0.000000
# 6 0.000000 0.000000 0.000000 0.024521 0.000000 0.058265
#
#
# Mechanical properties :
#
#
# Convention : Reuss Voigt Hill
#
# Bulk Modulus (GPa) = 59.46063 84.74154 72.10109
# Shear Modulus (GPa) = 30.43086 46.56676 38.49881
#
# Velocity S-wave (km/s) = 3.32631 4.11475 3.74135
# Velocity P-wave (km/s) = 6.03089 7.30657 6.69916
#
# Compressibility (1/GPa) = 0.01681785
#
# Stress axis : x y z
#
# Youngs Moduli (GPa) = 70.20909 181.22320 86.30701
#
# Poissons Ratio (x) = 0.30804 0.35297
# Poissons Ratio (y) = 0.11934 0.12735
# Poissons Ratio (z) = 0.28713 0.26740
#
# Static dielectric constant tensor:
#      x y z
#    x 2.267960 0.000000 0.130330 
#    y 0.000000 2.143110 0.000000 
#    z 0.130330 0.000000 2.220920 
# 
# From -- ./inp_files/23256.got.cif
#   From: 2010.05.17/outbox.cif.g08.bks.cpg/sg8_12_cif.got.tgz:23256.got - 2010.06.03 19:46:02.
