data_PCOD9131255
_publ_section_title
;
Structure prediction by ZEFSAII (Michael W. Deem and Ramdas Pophale) SiO2 
 PCOD9131255
Probable space group: P C
;
_chemical_formula_sum "Si O2"
_cell_formula_units_Z 14
_cell_length_a 7.645479
_cell_length_b 16.891459
_cell_length_c 5.471274
_cell_angle_alpha 90.000000
_cell_angle_beta 61.373779
_cell_angle_gamma 90.000000
_cell_volume 620.208909
_symmetry_space_group_name_H-M "P C"
_symmetry_group_IT_number 7
_symmetry_cell_setting 'monoclinic'
loop_
_space_group_symop_operation_xyz
x,y,z
x,-y,1/2+z
loop_
_atom_site_type_symbol
_atom_site_label
_atom_site_fract_x
_atom_site_fract_y
_atom_site_fract_z
Si Si1 0.570440 0.047065 0.662630
Si Si2 0.080640 0.744005 0.524408
Si Si3 0.138068 0.989763 0.969788
Si Si4 0.291005 0.482202 0.292329
Si Si5 0.258427 0.189214 0.413676
Si Si6 0.636501 0.775787 0.971831
Si Si7 0.414640 0.365036 0.872903
O O1 0.646278 0.137340 0.592225
O O2 0.618386 0.998536 0.382221
O O3 0.325995 0.049232 0.833367
O O4 0.124341 0.785977 0.236806
O O5 0.194701 0.660914 0.429254
O O6 0.849193 0.749066 0.732862
O O7 0.187575 0.778188 0.699315
O O8 0.236799 0.904265 0.904999
O O9 0.021939 0.002178 0.296798
O O10 0.179068 0.491997 0.620941
O O11 0.382944 0.396220 0.171665
O O12 0.458896 0.551318 0.210202
O O13 0.478655 0.213290 0.355815
O O14 0.553965 0.707443 0.207973
#
# Coordination Sequence:
#
# PCOD9131255 Si02
#       7
#     2   2   2   2   2   2   2
#     4  10  21  37  63  89 124 180 222 265 339 371
#     4  11  27  41  65 107 124 176 229 265 339 398
#     4  10  18  35  63  85 114 176 220 263 341 373
#     4   8  18  38  66  96 129 172 208 256 338 396
#     4  11  24  43  65  87 138 172 222 282 325 387
#     4  11  24  45  70  97 138 178 221 285 328 393
#     4   9  22  41  72  93 139 170 210 278 326 400
#
# _framework density 22.573039999999999
#
# number of rings (size 3 to 8) (size 9 to 14) (size 15 to 20)
#    0.857    1.143    2.857    0.857   10.000    3.429 
#    0.000    5.714    0.000    0.000    0.000    0.000 
#    0.000    0.000    0.000    0.000    0.000    0.000 
#
# Total GULP energy -77997.115396 kJ/mol
# GULP energy per Si atom -5571.222528 kJ/mol
# Density = 2.252166 g / cm^3
# Si number density = 22.573040 Si / 1000 Ang^3
#
#
#
# Elastic Constant Matrix: (Units=GPa)
#
#
# Indices 1 2 3 4 5 6 
#
# 1 77.8790 4.6679 50.1790 0.0000 -0.5114 0.0000
# 2 4.6679 112.8581 32.1838 0.0000 -5.8174 0.0000
# 3 50.1790 32.1838 145.0644 0.0000 26.0192 0.0000
# 4 0.0000 0.0000 0.0000 30.3145 0.0000 15.7213
# 5 -0.5114 -5.8174 26.0192 0.0000 46.0168 0.0000
# 6 0.0000 0.0000 0.0000 15.7213 0.0000 10.3028
#
#
#
# Elastic Compliance Matrix: (Units=1/GPa)
#
#
# Indices 1 2 3 4 5 6 
#
# 1 0.017385 0.001549 -0.007153 0.000000 0.004433 0.000000
# 2 0.001549 0.009897 -0.003293 0.000000 0.003130 0.000000
# 3 -0.007153 -0.003293 0.011337 0.000000 -0.006906 0.000000
# 4 0.000000 0.000000 0.000000 0.158101 0.000000 -0.241249
# 5 0.004433 0.003130 -0.006906 0.000000 0.026081 0.000000
# 6 0.000000 0.000000 0.000000 -0.241249 0.000000 0.465186
#
#
# Mechanical properties :
#
#
# Convention : Reuss Voigt Hill
#
# Bulk Modulus (GPa) = 48.01643 56.65142 52.33393
# Shear Modulus (GPa) = 7.01536 33.91154 20.46345
#
# Velocity S-wave (km/s) = 1.76482 3.88016 3.01415
# Velocity P-wave (km/s) = 5.04684 6.72500 5.94543
#
# Compressibility (1/GPa) = 0.02082620
#
# Stress axis : x y z
#
# Youngs Moduli (GPa) = 57.52003 101.04004 88.20740
#
# Poissons Ratio (x) = -0.15653 0.63091
# Poissons Ratio (y) = -0.08911 0.29048
# Poissons Ratio (z) = 0.41142 0.33273
#
# Static dielectric constant tensor:
#      x y z
#    x 1.847790 0.000000 0.074810 
#    y 0.000000 1.910690 0.000000 
#    z 0.074810 0.000000 1.923180 
# 
# From -- ./inp_files/1156.got.cif
#   From: 2010.05.17/outbox.cif.g08.bks.cpg/sg7_cif.got.tgz:1156.got - 2010.06.03 19:44:50.
