data_PCOD9131415
_publ_section_title
;
Structure prediction by ZEFSAII (Michael W. Deem and Ramdas Pophale) SiO2 
 PCOD9131415
Probable space group: P C
;
_chemical_formula_sum "Si O2"
_cell_formula_units_Z 16
_cell_length_a 6.689056
_cell_length_b 20.810467
_cell_length_c 5.276357
_cell_angle_alpha 90.000000
_cell_angle_beta 107.438988
_cell_angle_gamma 90.000000
_cell_volume 700.722197
_symmetry_space_group_name_H-M "P C"
_symmetry_group_IT_number 7
_symmetry_cell_setting 'monoclinic'
loop_
_space_group_symop_operation_xyz
x,y,z
x,-y,1/2+z
loop_
_atom_site_type_symbol
_atom_site_label
_atom_site_fract_x
_atom_site_fract_y
_atom_site_fract_z
Si Si1 0.222210 0.959163 0.339190
Si Si2 0.596285 0.131170 0.025440
Si Si3 0.848429 0.541239 0.535516
Si Si4 0.611913 0.638433 0.156922
Si Si5 0.218705 0.361926 0.202082
Si Si6 0.904737 0.710693 0.946634
Si Si7 0.474314 0.732895 0.470941
Si Si8 0.874814 0.851033 0.130152
O O1 0.457886 0.931293 0.422450
O O2 0.061838 0.901419 0.226269
O O3 0.189279 0.989324 0.603819
O O4 0.437754 0.191995 0.982956
O O5 0.727839 0.128953 0.335524
O O6 0.745145 0.146226 0.842913
O O7 0.832929 0.489292 0.305776
O O8 0.664487 0.592609 0.410218
O O9 0.066069 0.579367 0.586531
O O10 0.830089 0.654111 0.104565
O O11 0.526952 0.708032 0.211453
O O12 0.429120 0.611550 0.914042
O O13 0.299631 0.314979 0.011578
O O14 0.086593 0.315940 0.339737
O O15 0.949689 0.778181 0.099773
O O16 0.693491 0.722520 0.703187
#
# Coordination Sequence:
#
# PCOD9131415 Si02
#       8
#     2   2   2   2   2   2   2   2
#     4  12  28  46  69 103 145 195 249 292 346 425
#     4  11  25  46  72 106 144 187 236 300 364 423
#     4  12  29  50  70 100 145 194 243 288 347 436
#     4  11  24  45  73 103 139 180 233 297 358 428
#     4  11  26  43  75 104 142 187 229 298 369 425
#     4  10  22  44  70 108 144 175 230 299 372 426
#     4  10  23  42  72 109 138 176 236 298 369 426
#     4  11  25  44  73 105 141 188 236 294 359 433
#
# _framework density 22.833587999999999
#
# number of rings (size 3 to 8) (size 9 to 14) (size 15 to 20)
#    0.000    1.000    2.500    2.250    7.000    7.000 
#    0.000    0.000    0.000    0.000    0.000    0.000 
#    0.000    0.000    0.000    0.000    0.000    0.000 
#
# Total GULP energy -89554.633226 kJ/mol
# GULP energy per Si atom -5597.164577 kJ/mol
# Density = 2.278162 g / cm^3
# Si number density = 22.833588 Si / 1000 Ang^3
#
#
#
# Elastic Constant Matrix: (Units=GPa)
#
#
# Indices 1 2 3 4 5 6 
#
# 1 77.2294 23.7182 18.1783 0.0000 -3.5844 0.0000
# 2 23.7182 79.4904 23.6533 0.0000 18.2927 0.0000
# 3 18.1783 23.6533 97.9572 0.0000 5.6633 0.0000
# 4 0.0000 0.0000 0.0000 48.0290 0.0000 3.1801
# 5 -3.5844 18.2927 5.6633 0.0000 40.8128 0.0000
# 6 0.0000 0.0000 0.0000 3.1801 0.0000 38.5229
#
#
#
# Elastic Compliance Matrix: (Units=1/GPa)
#
#
# Indices 1 2 3 4 5 6 
#
# 1 0.015027 -0.004791 -0.001847 0.000000 0.003724 0.000000
# 2 -0.004791 0.016519 -0.002669 0.000000 -0.007455 0.000000
# 3 -0.001847 -0.002669 0.011226 0.000000 -0.000524 0.000000
# 4 0.000000 0.000000 0.000000 0.020935 0.000000 -0.001728
# 5 0.003724 -0.007455 -0.000524 0.000000 0.028243 0.000000
# 6 0.000000 0.000000 0.000000 -0.001728 0.000000 0.026101
#
#
# Mechanical properties :
#
#
# Convention : Reuss Voigt Hill
#
# Bulk Modulus (GPa) = 41.39272 42.86406 42.12839
# Shear Modulus (GPa) = 34.54970 38.08142 36.31556
#
# Velocity S-wave (km/s) = 3.89409 4.08828 3.99236
# Velocity P-wave (km/s) = 6.19564 6.41081 6.30414
#
# Compressibility (1/GPa) = 0.02415884
#
# Stress axis : x y z
#
# Youngs Moduli (GPa) = 66.54496 60.53526 89.07886
#
# Poissons Ratio (x) = 0.29003 0.16454
# Poissons Ratio (y) = 0.31882 0.23773
# Poissons Ratio (z) = 0.12291 0.16155
#
# Static dielectric constant tensor:
#      x y z
#    x 1.817820 0.000000 0.011670 
#    y 0.000000 1.847140 0.000000 
#    z 0.011670 0.000000 1.887810 
# 
# From -- ./inp_files/357.got.cif
#   From: 2010.05.17/outbox.cif.g08.bks.cpg/sg7_cif.got.tgz:357.got - 2010.06.03 19:44:50.
