data_PCOD9131076
_publ_section_title
;
Structure prediction by ZEFSAII (Michael W. Deem and Ramdas Pophale) SiO2 
 PCOD9131076
Probable space group: P M
;
_chemical_formula_sum "Si O2"
_cell_formula_units_Z 13
_cell_length_a 6.113738
_cell_length_b 13.973099
_cell_length_c 7.360748
_cell_angle_alpha 90.000000
_cell_angle_beta 127.008666
_cell_angle_gamma 90.000000
_cell_volume 502.135145
_symmetry_space_group_name_H-M "P M"
_symmetry_group_IT_number 6
_symmetry_cell_setting 'monoclinic'
loop_
_space_group_symop_operation_xyz
x,y,z
x,-y,z
loop_
_atom_site_type_symbol
_atom_site_label
_atom_site_fract_x
_atom_site_fract_y
_atom_site_fract_z
Si Si1 0.182180 0.893364 0.751950
Si Si2 0.690537 0.774332 0.513676
Si Si3 0.316043 0.604822 0.748599
Si Si4 0.690536 0.774329 0.937209
Si Si5 0.316045 0.604824 0.327813
Si Si6 0.182167 0.106638 0.190585
Si Si7 0.003942 0.500000 0.882174
O O1 0.487422 0.864732 0.852110
O O2 0.977797 0.810632 0.581076
O O3 0.110974 0.000000 0.653848
O O4 0.164363 0.892963 0.962363
O O5 0.725916 0.753015 0.743132
O O6 0.516794 0.685420 0.352470
O O7 0.487400 0.864727 0.395651
O O8 0.466258 0.500000 0.821023
O O9 0.516768 0.685423 0.924669
O O10 0.243352 0.623295 0.501864
O O11 0.062112 0.582684 0.751948
O O12 0.977780 0.810625 0.157067
O O13 0.466241 0.500000 0.405570
O O14 0.062105 0.582688 0.070555
O O15 0.110965 0.000000 0.217488
#
# Coordination Sequence:
#
# PCOD9131076 Si02
#       7
#     2   2   2   2   2   2   1
#     4  10  22  38  59  85 115 152 198 242 292 352
#     4  10  21  39  59  84 118 154 191 243 294 346
#     4   8  16  31  54  83 117 151 193 238 291 350
#     4  10  21  39  59  84 118 154 191 243 294 346
#     4   8  16  31  54  83 117 151 193 238 291 350
#     4  10  22  38  59  85 115 152 198 242 292 352
#     4   8  14  28  56  82 118 146 194 240 288 344
#
# _framework density 25.889444000000001
#
# number of rings (size 3 to 8) (size 9 to 14) (size 15 to 20)
#    0.923    1.846    0.000    0.923    2.154    3.077 
#    0.000    1.538    0.000    1.846    0.000    0.000 
#    0.000    0.000    0.000    0.000    0.000    0.000 
#
# Total GULP energy -72386.126589 kJ/mol
# GULP energy per Si atom -5568.163584 kJ/mol
# Density = 2.583052 g / cm^3
# Si number density = 25.889444 Si / 1000 Ang^3
#
#
#
# Elastic Constant Matrix: (Units=GPa)
#
#
# Indices 1 2 3 4 5 6 
#
# 1 61.7595 15.1661 56.1463 0.0000 -8.9597 0.0000
# 2 15.1661 118.6135 15.4360 0.0000 -2.5389 0.0000
# 3 56.1463 15.4360 64.2958 0.0000 -14.4044 0.0000
# 4 0.0000 0.0000 0.0000 31.8972 0.0000 11.5940
# 5 -8.9597 -2.5389 -14.4044 0.0000 54.6912 0.0000
# 6 0.0000 0.0000 0.0000 11.5940 0.0000 33.1236
#
#
#
# Elastic Compliance Matrix: (Units=1/GPa)
#
#
# Indices 1 2 3 4 5 6 
#
# 1 0.080306 -0.001134 -0.071116 0.000000 -0.005627 0.000000
# 2 -0.001134 0.008720 -0.001120 0.000000 -0.000076 0.000000
# 3 -0.071116 -0.001120 0.080024 0.000000 0.009374 0.000000
# 4 0.000000 0.000000 0.000000 0.035921 0.000000 -0.012573
# 5 -0.005627 -0.000076 0.009374 0.000000 0.019828 0.000000
# 6 0.000000 0.000000 0.000000 -0.012573 0.000000 0.034591
#
#
# Mechanical properties :
#
#
# Convention : Reuss Voigt Hill
#
# Bulk Modulus (GPa) = 44.82258 46.46286 45.64272
# Shear Modulus (GPa) = 12.08994 34.47043 23.28018
#
# Velocity S-wave (km/s) = 2.16332 3.65286 3.00194
# Velocity P-wave (km/s) = 4.85702 5.98137 5.44827
#
# Compressibility (1/GPa) = 0.02231018
#
# Stress axis : x y z
#
# Youngs Moduli (GPa) = 12.45233 114.68039 12.49621
#
# Poissons Ratio (x) = 0.13002 0.88868
# Poissons Ratio (y) = 0.01412 0.01400
# Poissons Ratio (z) = 0.88556 0.12849
#
# Static dielectric constant tensor:
#      x y z
#    x 2.011000 0.000000 0.052230 
#    y 0.000000 2.100500 0.000000 
#    z 0.052230 0.000000 2.005420 
# 
# From -- ./inp_files/2239.got.cif
#   From: 2010.05.17/outbox.cif.g08.bks.cpg/sg6_2_cif.got.tgz:2239.got - 2010.06.03 19:42:10.
