data_PCOD9131636
_publ_section_title
;
Structure prediction by ZEFSAII (Michael W. Deem and Ramdas Pophale) SiO2 
 PCOD9131636
Probable space group: C M
;
_chemical_formula_sum "Si O2"
_cell_formula_units_Z 32
_cell_length_a 20.891635
_cell_length_b 7.682614
_cell_length_c 12.701466
_cell_angle_alpha 90.000000
_cell_angle_beta 54.064684
_cell_angle_gamma 90.000000
_cell_volume 1650.626207
_symmetry_space_group_name_H-M "C M"
_symmetry_group_IT_number 8
_symmetry_cell_setting 'monoclinic'
loop_
_space_group_symop_operation_xyz
x,y,z
x,-y,z
1/2+x,1/2+y,z
1/2+x,1/2-y,z
loop_
_atom_site_type_symbol
_atom_site_label
_atom_site_fract_x
_atom_site_fract_y
_atom_site_fract_z
Si Si1 0.065750 0.788353 0.215660
Si Si2 0.180303 0.209449 0.283262
Si Si3 0.734434 0.794747 0.458538
Si Si4 0.650303 0.292234 0.756412
Si Si5 0.707463 0.287942 0.921798
Si Si6 0.911535 0.213801 0.248673
Si Si7 0.473683 0.292669 0.961365
Si Si8 0.819345 0.709728 0.994486
O O1 0.105137 0.729639 0.287203
O O2 0.978428 0.731149 0.267629
O O3 0.064159 0.000000 0.219331
O O4 0.128195 0.741212 0.063450
O O5 0.185829 0.258017 0.399185
O O6 0.259114 0.270580 0.144855
O O7 0.180499 0.000000 0.277652
O O8 0.691164 0.736761 0.605708
O O9 0.823399 0.722630 0.358524
O O10 0.743124 0.000000 0.458649
O O11 0.645422 0.500000 0.774699
O O12 0.699208 0.225815 0.810397
O O13 0.560472 0.223333 0.850001
O O14 0.710407 0.500000 0.918444
O O15 0.781513 0.229288 0.920914
O O16 0.910403 0.000000 0.248608
O O17 0.940057 0.272944 0.105523
O O18 0.481353 0.500000 0.966888
O O19 0.407685 0.261866 0.936947
O O20 0.816652 0.500000 0.997371
#
# Coordination Sequence:
#
# PCOD9131636 Si02
#       8
#     4   4   4   4   4   4   4   4
#     4   8  13  26  51  78  98 121 165 215 247 284
#     4   9  17  30  51  77 102 131 169 207 244 294
#     4  11  22  34  50  73 107 140 163 201 259 308
#     4  10  20  35  55  74  98 134 176 211 241 294
#     4   8  14  28  50  75  99 128 164 205 251 292
#     4   9  16  29  50  76 100 126 165 209 251 292
#     4  10  18  31  53  78 100 129 170 211 249 292
#     4   9  17  29  50  79 106 129 160 207 256 298
#
# _framework density 19.386581
#
# number of rings (size 3 to 8) (size 9 to 14) (size 15 to 20)
#    0.000    2.750    2.500    1.875    0.000    0.500 
#    0.000    1.875    0.000    7.500    0.000    0.000 
#    0.000    0.000    0.000    0.000    0.000    0.000 
#
# Total GULP energy -89215.197187 kJ/mol
# GULP energy per Si atom -5575.949824 kJ/mol
# Density = 1.934246 g / cm^3
# Si number density = 19.386581 Si / 1000 Ang^3
#
#
#
# Elastic Constant Matrix: (Units=GPa)
#
#
# Indices 1 2 3 4 5 6 
#
# 1 181.5545 1.8751 101.5914 0.0000 15.5579 0.0000
# 2 1.8751 30.0463 4.5934 0.0000 -1.9298 0.0000
# 3 101.5914 4.5934 133.8547 0.0000 13.8083 0.0000
# 4 0.0000 0.0000 0.0000 3.6041 0.0000 -4.3437
# 5 15.5579 -1.9298 13.8083 0.0000 28.1394 0.0000
# 6 0.0000 0.0000 0.0000 -4.3437 0.0000 14.9329
#
#
#
# Elastic Compliance Matrix: (Units=1/GPa)
#
#
# Indices 1 2 3 4 5 6 
#
# 1 0.009667 0.000376 -0.007164 0.000000 -0.001804 0.000000
# 2 0.000376 0.033716 -0.001748 0.000000 0.002962 0.000000
# 3 -0.007164 -0.001748 0.013242 0.000000 -0.002657 0.000000
# 4 0.000000 0.000000 0.000000 0.427246 0.000000 0.124279
# 5 -0.001804 0.002962 -0.002657 0.000000 0.038042 0.000000
# 6 0.000000 0.000000 0.000000 0.124279 0.000000 0.103117
#
#
# Mechanical properties :
#
#
# Convention : Reuss Voigt Hill
#
# Bulk Modulus (GPa) = 25.28217 62.39725 43.83971
# Shear Modulus (GPa) = 7.63024 25.16164 16.39594
#
# Velocity S-wave (km/s) = 1.98605 3.60653 2.91131
# Velocity P-wave (km/s) = 4.28119 7.04262 5.82782
#
# Compressibility (1/GPa) = 0.03955357
#
# Stress axis : x y z
#
# Youngs Moduli (GPa) = 103.43984 29.65950 75.51606
#
# Poissons Ratio (x) = -0.01115 0.54101
# Poissons Ratio (y) = -0.03890 0.13200
# Poissons Ratio (z) = 0.74106 0.05184
#
# Static dielectric constant tensor:
#      x y z
#    x 1.706150 0.000000 0.011570 
#    y 0.000000 1.731920 0.000000 
#    z 0.011570 0.000000 1.670020 
# 
# From -- ./inp_files/23053.got.cif
#   From: 2010.05.17/outbox.cif.g08.bks.cpg/sg8_12_cif.got.tgz:23053.got - 2010.06.03 19:46:02.
