data_PCOD9131537
_publ_section_title
;
Structure prediction by ZEFSAII (Michael W. Deem and Ramdas Pophale) SiO2 
 PCOD9131537
Probable space group: C M
;
_chemical_formula_sum "Si O2"
_cell_formula_units_Z 20
_cell_length_a 15.716342
_cell_length_b 9.636034
_cell_length_c 5.570251
_cell_angle_alpha 90.000000
_cell_angle_beta 90.718137
_cell_angle_gamma 90.000000
_cell_volume 843.510408
_symmetry_space_group_name_H-M "C M"
_symmetry_group_IT_number 8
_symmetry_cell_setting 'monoclinic'
loop_
_space_group_symop_operation_xyz
x,y,z
x,-y,z
1/2+x,1/2+y,z
1/2+x,1/2-y,z
loop_
_atom_site_type_symbol
_atom_site_label
_atom_site_fract_x
_atom_site_fract_y
_atom_site_fract_z
Si Si1 0.421920 0.341805 0.143570
Si Si2 0.799424 0.500000 0.310036
Si Si3 0.228247 0.700373 0.271221
Si Si4 0.674570 0.244784 0.770926
Si Si5 0.807263 0.500000 0.809645
Si Si6 0.486277 0.664326 0.645583
O O1 0.455818 0.500000 0.123252
O O2 0.323020 0.346978 0.208411
O O3 0.465550 0.276197 0.380627
O O4 0.435047 0.280835 0.877186
O O5 0.738401 0.366919 0.301842
O O6 0.852546 0.500000 0.555687
O O7 0.852384 0.500000 0.067190
O O8 0.199186 0.656716 0.535357
O O9 0.172918 0.672332 0.032229
O O10 0.746067 0.364850 0.802527
O O11 0.584253 0.313084 0.711727
O O12 0.465811 0.500000 0.624049
#
# Coordination Sequence:
#
# PCOD9131537 Si02
#       6
#     4   2   4   4   2   4
#     4  10  21  34  49  74 107 137 163 197 251 309
#     4   8  16  26  44  68  94 118 150 200 240 280
#     4  10  19  31  49  76 100 130 166 202 251 293
#     4  10  17  29  49  74 100 123 163 208 251 295
#     4   8  14  24  40  68  98 112 138 194 252 288
#     4  10  19  32  51  76 105 129 160 212 263 297
#
# _framework density 23.710436000000001
#
# number of rings (size 3 to 8) (size 9 to 14) (size 15 to 20)
#    0.000    2.400    1.000    2.400    0.000    0.000 
#    0.000    0.000    0.000    0.000   15.600    0.000 
#    0.000    0.000    0.000    0.000    0.000    0.000 
#
# Total GULP energy -55758.572841 kJ/mol
# GULP energy per Si atom -5575.857284 kJ/mol
# Density = 2.365647 g / cm^3
# Si number density = 23.710436 Si / 1000 Ang^3
#
#
#
# Elastic Constant Matrix: (Units=GPa)
#
#
# Indices 1 2 3 4 5 6 
#
# 1 35.2453 -4.7695 12.1720 0.0000 5.4381 0.0000
# 2 -4.7695 72.0134 4.8966 0.0000 -4.0992 0.0000
# 3 12.1720 4.8966 253.7211 0.0000 19.8314 0.0000
# 4 0.0000 0.0000 0.0000 -5.1703 0.0000 -5.0898
# 5 5.4381 -4.0992 19.8314 0.0000 43.0036 0.0000
# 6 0.0000 0.0000 0.0000 -5.0898 0.0000 -19.9504
#
#
#
# Elastic Compliance Matrix: (Units=1/GPa)
#
#
# Indices 1 2 3 4 5 6 
#
# 1 0.029507 0.001867 -0.001218 0.000000 -0.002992 0.000000
# 2 0.001867 0.014117 -0.000466 0.000000 0.001324 0.000000
# 3 -0.001218 -0.000466 0.004150 0.000000 -0.001804 0.000000
# 4 0.000000 0.000000 0.000000 -0.258283 0.000000 0.065894
# 5 -0.002992 0.001324 -0.001804 0.000000 0.024590 0.000000
# 6 0.000000 0.000000 0.000000 0.065894 0.000000 -0.066935
#
#
# Mechanical properties :
#
#
# Convention : Reuss Voigt Hill
#
# Bulk Modulus (GPa) = 20.77228 42.84200 31.80714
# Shear Modulus (GPa) = -21.08155 26.82196 2.87021
#
# Velocity S-wave (km/s) = -2.98506 3.36703 1.10143
# Velocity P-wave (km/s) = 1.76094 5.76402 3.88091
#
# Compressibility (1/GPa) = 0.04814109
#
# Stress axis : x y z
#
# Youngs Moduli (GPa) = 33.88987 70.83670 240.97837
#
# Poissons Ratio (x) = -0.13224 0.29345
# Poissons Ratio (y) = -0.06326 0.11218
# Poissons Ratio (z) = 0.04127 0.03298
#
# Static dielectric constant tensor:
#      x y z
#    x 1.810960 0.000000 0.009020 
#    y 0.000000 1.952190 0.000000 
#    z 0.009020 0.000000 2.046710 
# 
# From -- ./inp_files/2415.got.cif
#   From: 2010.05.17/outbox.cif.g08.bks.cpg/sg8_2_cif.got.tgz:2415.got - 2010.06.03 19:46:02.
