data_PCOD9131916
_publ_section_title
;
Structure prediction by ZEFSAII (Michael W. Deem and Ramdas Pophale) SiO2 
 PCOD9131916
Probable space group: C M
;
_chemical_formula_sum "Si O2"
_cell_formula_units_Z 32
_cell_length_a 9.552478
_cell_length_b 20.846342
_cell_length_c 10.982069
_cell_angle_alpha 90.000000
_cell_angle_beta 139.671433
_cell_angle_gamma 90.000000
_cell_volume 1415.299719
_symmetry_space_group_name_H-M "C M"
_symmetry_group_IT_number 8
_symmetry_cell_setting 'monoclinic'
loop_
_space_group_symop_operation_xyz
x,y,z
x,-y,z
1/2+x,1/2+y,z
1/2+x,1/2-y,z
loop_
_atom_site_type_symbol
_atom_site_label
_atom_site_fract_x
_atom_site_fract_y
_atom_site_fract_z
Si Si1 0.457960 0.689560 0.590060
Si Si2 0.090061 0.071863 0.991226
Si Si3 0.389300 0.071980 0.525415
Si Si4 0.309282 0.808389 0.628839
Si Si5 0.394277 0.427019 0.112179
Si Si6 0.731786 0.928237 0.545062
Si Si7 0.164064 0.695018 0.067811
Si Si8 0.834294 0.313751 0.052961
O O1 0.335144 0.755084 0.542091
O O2 0.575467 0.688047 0.537325
O O3 0.301647 0.628730 0.503326
O O4 0.647429 0.686926 0.821688
O O5 0.936552 0.067750 0.772648
O O6 0.280682 0.121026 0.089467
O O7 0.167522 0.000000 0.073650
O O8 0.933318 0.092824 0.997533
O O9 0.398993 0.125001 0.635462
O O10 0.531931 0.087897 0.501559
O O11 0.138021 0.070933 0.324084
O O12 0.456176 0.000000 0.607689
O O13 0.465865 0.791345 0.843905
O O14 0.306726 0.500000 0.061253
O O15 0.265290 0.372912 0.097738
O O16 0.701224 0.000000 0.472115
O O17 0.314235 0.754846 0.133173
O O18 0.057943 0.691811 0.129380
#
# Coordination Sequence:
#
# PCOD9131916 Si02
#       8
#     4   4   4   4   4   4   4   4
#     4   9  18  32  53  81 107 131 165 211 255 296
#     4   9  17  32  55  80 105 134 168 205 248 301
#     4  10  21  36  52  73 103 136 171 212 255 299
#     4  10  19  33  54  77 103 135 170 208 252 302
#     4  10  21  36  52  73 103 136 171 212 255 299
#     4   9  17  32  55  80 105 134 168 205 248 301
#     4  10  19  33  54  77 103 135 170 208 252 302
#     4   9  18  32  53  81 107 131 165 211 255 296
#
# _framework density 22.610053000000001
#
# number of rings (size 3 to 8) (size 9 to 14) (size 15 to 20)
#    0.000    2.500    0.000    2.250    0.000    6.500 
#    0.000    8.750    0.000    3.000    0.000    0.000 
#    0.000    0.000    0.000    0.000    0.000    0.000 
#
# Total GULP energy -89419.196045 kJ/mol
# GULP energy per Si atom -5588.699753 kJ/mol
# Density = 2.255859 g / cm^3
# Si number density = 22.610053 Si / 1000 Ang^3
#
#
#
# Elastic Constant Matrix: (Units=GPa)
#
#
# Indices 1 2 3 4 5 6 
#
# 1 218.1888 138.3071 4.8807 0.0000 15.3335 0.0000
# 2 138.3071 134.5857 0.1230 0.0000 0.1311 0.0000
# 3 4.8807 0.1230 44.8867 0.0000 1.0679 0.0000
# 4 0.0000 0.0000 0.0000 13.2284 0.0000 2.2864
# 5 15.3335 0.1311 1.0679 0.0000 28.5517 0.0000
# 6 0.0000 0.0000 0.0000 2.2864 0.0000 41.8270
#
#
#
# Elastic Compliance Matrix: (Units=1/GPa)
#
#
# Indices 1 2 3 4 5 6 
#
# 1 0.014798 -0.015198 -0.001381 0.000000 -0.007826 0.000000
# 2 -0.015198 0.023040 0.001399 0.000000 0.008004 0.000000
# 3 -0.001381 0.001399 0.022427 0.000000 -0.000104 0.000000
# 4 0.000000 0.000000 0.000000 0.076316 0.000000 -0.004172
# 5 -0.007826 0.008004 -0.000104 0.000000 0.039194 0.000000
# 6 0.000000 0.000000 0.000000 -0.004172 0.000000 0.024136
#
#
# Mechanical properties :
#
#
# Convention : Reuss Voigt Hill
#
# Bulk Modulus (GPa) = 33.44054 76.03141 54.73597
# Shear Modulus (GPa) = 20.81251 33.67811 27.24531
#
# Velocity S-wave (km/s) = 3.03726 3.86362 3.47509
# Velocity P-wave (km/s) = 5.20790 7.32145 6.35318
#
# Compressibility (1/GPa) = 0.02990383
#
# Stress axis : x y z
#
# Youngs Moduli (GPa) = 67.57607 43.40311 44.58882
#
# Poissons Ratio (x) = 0.65966 0.06159
# Poissons Ratio (y) = 1.02705 -0.06238
# Poissons Ratio (z) = 0.09334 -0.06072
#
# Static dielectric constant tensor:
#      x y z
#    x 1.788470 0.000000 0.008470 
#    y 0.000000 1.831020 0.000000 
#    z 0.008470 0.000000 1.955080 
# 
# From -- ./inp_files/19282.got.cif
#   From: 2010.05.17/outbox.cif.g08.bks.cpg/sg8_10_cif.got.tgz:19282.got - 2010.06.03 19:46:02.
