data_PCOD9131535
_publ_section_title
;
Structure prediction by ZEFSAII (Michael W. Deem and Ramdas Pophale) SiO2 
 PCOD9131535
Probable space group: C M
;
_chemical_formula_sum "Si O2"
_cell_formula_units_Z 28
_cell_length_a 19.129273
_cell_length_b 15.887253
_cell_length_c 21.057181
_cell_angle_alpha 90.000000
_cell_angle_beta 13.364542
_cell_angle_gamma 90.000000
_cell_volume 1479.222840
_symmetry_space_group_name_H-M "C M"
_symmetry_group_IT_number 8
_symmetry_cell_setting 'monoclinic'
loop_
_space_group_symop_operation_xyz
x,y,z
x,-y,z
1/2+x,1/2+y,z
1/2+x,1/2-y,z
loop_
_atom_site_type_symbol
_atom_site_label
_atom_site_fract_x
_atom_site_fract_y
_atom_site_fract_z
Si Si1 0.303950 0.744109 0.438070
Si Si2 0.703180 0.500000 0.655520
Si Si3 0.390636 0.500000 0.061271
Si Si4 0.482561 0.097342 0.116657
Si Si5 0.669975 0.360513 0.896438
Si Si6 0.849420 0.838873 0.916796
Si Si7 0.932989 0.190157 0.641989
Si Si8 0.865126 0.903013 0.296457
O O1 0.395466 0.651026 0.334337
O O2 0.071207 0.763170 0.699701
O O3 0.121712 0.778898 0.537243
O O4 0.599258 0.801530 0.184924
O O5 0.541671 0.416833 0.771765
O O6 0.056852 0.500000 0.327395
O O7 0.644036 0.500000 0.783040
O O8 0.442206 0.419113 0.059635
O O9 0.188969 0.156500 0.369072
O O10 0.400846 0.000000 0.195088
O O11 0.662167 0.126758 0.021298
O O12 0.716929 0.114481 0.853372
O O13 0.724206 0.271053 0.814632
O O14 0.004808 0.401283 0.601226
O O15 0.543186 0.357224 0.080949
O O16 0.965997 0.000000 0.210706
#
# Coordination Sequence:
#
# PCOD9131535 Si02
#       8
#     4   2   2   4   4   4   4   4
#     4   9  18  29  49  70  97 133 166 196 256 318
#     4  12  24  36  52  72 100 142 192 216 242 286
#     4  12  24  36  52  74  98 142 190 218 242 290
#     4  10  17  29  47  72  98 128 162 195 249 313
#     4  11  20  35  48  69 105 136 170 214 255 290
#     4  10  19  34  46  67 102 136 168 213 248 287
#     4   9  18  28  46  68  95 132 161 195 249 314
#     4  11  18  31  52  77 102 133 164 200 259 324
#
# _framework density 18.928858000000002
#
# number of rings (size 3 to 8) (size 9 to 14) (size 15 to 20)
#    0.000    1.714    2.143    6.429    0.000    0.000 
#    0.000    0.000    0.000    0.000    0.000    0.000 
#    0.000   22.857    0.000    0.000    0.000    0.000 
#
# Total GULP energy -78028.282454 kJ/mol
# GULP energy per Si atom -5573.448747 kJ/mol
# Density = 1.888578 g / cm^3
# Si number density = 18.928858 Si / 1000 Ang^3
#
#
#
# Elastic Constant Matrix: (Units=GPa)
#
#
# Indices 1 2 3 4 5 6 
#
# 1 15.9325 7.8926 4.0635 -0.0812 3.7635 -0.0201
# 2 7.8926 110.1514 26.8725 -0.6234 -3.9799 0.1292
# 3 4.0635 26.8725 91.0617 -0.5414 7.3700 0.0290
# 4 -0.0812 -0.6234 -0.5414 25.0159 -0.0266 7.9991
# 5 3.7635 -3.9799 7.3700 -0.0266 22.2759 0.0038
# 6 -0.0201 0.1292 0.0290 7.9991 0.0038 10.1737
#
#
#
# Elastic Compliance Matrix: (Units=1/GPa)
#
#
# Indices 1 2 3 4 5 6 
#
# 1 0.068392 -0.005220 -0.000515 0.000002 -0.012317 0.000206
# 2 -0.005220 0.010353 -0.003125 0.000294 0.003766 -0.000366
# 3 -0.000515 -0.003125 0.012296 0.000241 -0.004539 -0.000184
# 4 0.000002 0.000294 0.000241 0.053419 0.000044 -0.042005
# 5 -0.012317 0.003766 -0.004539 0.000044 0.049147 -0.000112
# 6 0.000206 -0.000366 -0.000184 -0.042005 -0.000112 0.131325
#
#
# Mechanical properties :
#
#
# Convention : Reuss Voigt Hill
#
# Bulk Modulus (GPa) = 13.63878 32.75589 23.19733
# Shear Modulus (GPa) = 13.62061 23.38092 18.50076
#
# Velocity S-wave (km/s) = 2.68539 3.51835 3.12971
# Velocity P-wave (km/s) = 4.10317 5.81785 5.03405
#
# Compressibility (1/GPa) = 0.07332032
#
# Stress axis : x y z
#
# Youngs Moduli (GPa) = 14.62169 96.59010 81.32974
#
# Poissons Ratio (x) = 0.50421 0.04185
# Poissons Ratio (y) = 0.07633 0.25417
# Poissons Ratio (z) = 0.00752 0.30186
#
# Static dielectric constant tensor:
#      x y z
#    x 1.647500 -0.000100 0.010070 
#    y -0.000100 1.708780 0.000150 
#    z 0.010070 0.000150 1.660140 
# 
# From -- ./inp_files/33123.got.cif
#   From: 2010.05.17/outbox.cif.g08.bks.cpg/sg8_17_cif.got.tgz:33123.got - 2010.06.03 19:46:02.
