data_PCOD9131173
_publ_section_title
;
Structure prediction by ZEFSAII (Michael W. Deem and Ramdas Pophale) SiO2 
 PCOD9131173
Probable space group: P M
;
_chemical_formula_sum "Si O2"
_cell_formula_units_Z 12
_cell_length_a 7.498394
_cell_length_b 7.710470
_cell_length_c 9.126171
_cell_angle_alpha 90.000000
_cell_angle_beta 111.487996
_cell_angle_gamma 90.000000
_cell_volume 490.966028
_symmetry_space_group_name_H-M "P M"
_symmetry_group_IT_number 6
_symmetry_cell_setting 'monoclinic'
loop_
_space_group_symop_operation_xyz
x,y,z
x,-y,z
loop_
_atom_site_type_symbol
_atom_site_label
_atom_site_fract_x
_atom_site_fract_y
_atom_site_fract_z
Si Si1 0.225130 0.695006 0.625000
Si Si2 0.032981 0.287497 0.290951
Si Si3 0.866455 0.301357 0.953465
Si Si4 0.836606 0.806669 0.619280
Si Si5 0.444593 0.700042 0.965402
Si Si6 0.617798 0.291180 0.300818
O O1 0.308428 0.500000 0.633459
O O2 0.196896 0.770957 0.453358
O O3 0.330879 0.781949 0.794873
O O4 0.006043 0.683863 0.614967
O O5 0.041485 0.500000 0.291019
O O6 0.826891 0.239739 0.298988
O O7 0.018623 0.231348 0.117814
O O8 0.919190 0.500000 0.934056
O O9 0.832665 0.206446 0.791952
O O10 0.663145 0.306483 0.975047
O O11 0.639434 0.764623 0.475608
O O12 0.894339 0.000000 0.595071
O O13 0.373589 0.500000 0.957534
O O14 0.462381 0.773515 0.135611
O O15 0.603758 0.500000 0.294098
#
# Coordination Sequence:
#
# PCOD9131173 Si02
#       6
#     2   2   2   2   2   2
#     4   9  16  31  53  75  95 118 150 195 240 280
#     4   7  12  24  46  69  89 115 150 186 227 274
#     4   9  16  30  49  69  93 123 156 196 236 273
#     4  11  21  31  44  68  98 131 163 189 222 274
#     4   8  15  29  54  79  93 111 152 200 241 280
#     4   8  14  29  50  70  90 118 155 196 234 275
#
# _framework density 24.441607999999999
#
# number of rings (size 3 to 8) (size 9 to 14) (size 15 to 20)
#    0.000    3.333    0.000    4.500    0.000    0.000 
#    0.000   10.833    0.000    6.000    0.000    0.000 
#    0.000    0.000    0.000    0.000    0.000    0.000 
#
# Total GULP energy -66827.439840 kJ/mol
# GULP energy per Si atom -5568.953320 kJ/mol
# Density = 2.438598 g / cm^3
# Si number density = 24.441608 Si / 1000 Ang^3
#
#
#
# Elastic Constant Matrix: (Units=GPa)
#
#
# Indices 1 2 3 4 5 6 
#
# 1 53.0557 -3.7675 16.2863 0.0000 11.3460 0.0000
# 2 -3.7675 64.2866 23.8997 0.0000 -0.0134 0.0000
# 3 16.2863 23.8997 329.4713 0.0000 45.1314 0.0000
# 4 0.0000 0.0000 0.0000 423.2316 0.0000 -167.7275
# 5 11.3460 -0.0134 45.1314 0.0000 29.7788 0.0000
# 6 0.0000 0.0000 0.0000 -167.7275 0.0000 53.1236
#
#
#
# Elastic Compliance Matrix: (Units=1/GPa)
#
#
# Indices 1 2 3 4 5 6 
#
# 1 0.020614 0.001221 -0.000040 0.000000 -0.007793 0.000000
# 2 0.001221 0.016177 -0.001478 0.000000 0.001782 0.000000
# 3 -0.000040 -0.001478 0.003966 0.000000 -0.005995 0.000000
# 4 0.000000 0.000000 0.000000 -0.009404 0.000000 -0.029692
# 5 -0.007793 0.001782 -0.005995 0.000000 0.045637 0.000000
# 6 0.000000 0.000000 0.000000 -0.029692 0.000000 -0.074923
#
#
# Mechanical properties :
#
#
# Convention : Reuss Voigt Hill
#
# Bulk Modulus (GPa) = 24.89878 57.73896 41.31887
# Shear Modulus (GPa) = 311.58191 128.58649 220.08420
#
# Velocity S-wave (km/s) = 11.30296 7.26112 9.49949
# Velocity P-wave (km/s) = 13.43695 9.69397 11.71590
#
# Compressibility (1/GPa) = 0.04016261
#
# Stress axis : x y z
#
# Youngs Moduli (GPa) = 48.51162 61.81721 252.16710
#
# Poissons Ratio (x) = -0.07550 0.01012
# Poissons Ratio (y) = -0.05925 0.37268
# Poissons Ratio (z) = 0.00195 0.09136
#
# Static dielectric constant tensor:
#      x y z
#    x 1.942540 0.000000 0.003270 
#    y 0.000000 1.633100 0.000000 
#    z 0.003270 0.000000 2.099160 
# 
# From -- ./inp_files/2419.got.cif
#   From: 2010.05.17/outbox.cif.g08.bks.cpg/sg6_2_cif.got.tgz:2419.got - 2010.06.03 19:42:10.
