data_PCOD9131634
_publ_section_title
;
Structure prediction by ZEFSAII (Michael W. Deem and Ramdas Pophale) SiO2 
 PCOD9131634
Probable space group: C M
;
_chemical_formula_sum "Si O2"
_cell_formula_units_Z 32
_cell_length_a 20.737383
_cell_length_b 8.445786
_cell_length_c 25.796646
_cell_angle_alpha 90.000000
_cell_angle_beta 23.384000
_cell_angle_gamma 90.000000
_cell_volume 1793.201783
_symmetry_space_group_name_H-M "C M"
_symmetry_group_IT_number 8
_symmetry_cell_setting 'monoclinic'
loop_
_space_group_symop_operation_xyz
x,y,z
x,-y,z
1/2+x,1/2+y,z
1/2+x,1/2-y,z
loop_
_atom_site_type_symbol
_atom_site_label
_atom_site_fract_x
_atom_site_fract_y
_atom_site_fract_z
Si Si1 0.351280 0.309244 0.224260
Si Si2 0.647588 0.310545 0.930931
Si Si3 0.135465 0.308567 0.290449
Si Si4 0.824344 0.191418 0.972626
Si Si5 0.952520 0.808491 0.765573
Si Si6 0.429563 0.811988 0.002661
Si Si7 0.814832 0.306449 0.470779
Si Si8 0.950514 0.309435 0.259816
O O1 0.351021 0.500000 0.227149
O O2 0.202518 0.258199 0.297100
O O3 0.356223 0.242301 0.278041
O O4 0.514834 0.260044 0.072524
O O5 0.646235 0.500000 0.930194
O O6 0.821834 0.249787 0.820233
O O7 0.579952 0.246914 0.926445
O O8 0.138068 0.500000 0.287625
O O9 0.267895 0.253309 0.150627
O O10 0.956721 0.255901 0.405615
O O11 0.894097 0.243799 0.865785
O O12 0.824051 0.000000 0.973561
O O13 0.925903 0.250390 0.946784
O O14 0.637502 0.246236 0.117181
O O15 0.134818 0.754095 0.618654
O O16 0.951114 0.000000 0.766285
O O17 0.425005 0.000000 0.006643
O O18 0.813728 0.500000 0.471766
O O19 0.868898 0.254921 0.373422
O O20 0.955280 0.500000 0.257830
#
# Coordination Sequence:
#
# PCOD9131634 Si02
#       8
#     4   4   4   4   4   4   4   4
#     4   9  18  30  50  77 104 133 171 220 262 303
#     4  10  20  35  54  77 109 143 173 217 271 317
#     4   9  17  34  54  75 106 143 176 212 266 317
#     4  10  19  33  53  78 107 140 178 218 262 314
#     4  10  20  35  56  80 106 141 181 217 257 316
#     4  11  21  32  53  82 108 136 177 226 265 309
#     4   9  18  34  55  76 104 142 178 212 259 315
#     4  10  18  31  53  77 104 138 174 214 258 309
#
# _framework density 17.845175999999999
#
# number of rings (size 3 to 8) (size 9 to 14) (size 15 to 20)
#    0.000    2.250    2.500    2.250    0.000    3.000 
#    0.000    2.500    0.000    1.500    0.000    0.000 
#    0.000    0.000    0.000    0.000    0.000    0.000 
#
# Total GULP energy -89266.727117 kJ/mol
# GULP energy per Si atom -5579.170445 kJ/mol
# Density = 1.780456 g / cm^3
# Si number density = 17.845176 Si / 1000 Ang^3
#
#
#
# Elastic Constant Matrix: (Units=GPa)
#
#
# Indices 1 2 3 4 5 6 
#
# 1 163.9740 18.1391 89.6393 0.0004 -19.3893 -0.0002
# 2 18.1391 8.8001 19.7326 0.0003 -2.6734 -0.0006
# 3 89.6393 19.7326 132.9944 0.0002 -16.5273 0.0001
# 4 0.0004 0.0003 0.0002 10.9945 -0.0001 -4.3465
# 5 -19.3893 -2.6734 -16.5273 -0.0001 28.1198 0.0001
# 6 -0.0002 -0.0006 0.0001 -4.3465 0.0001 30.1563
#
#
#
# Elastic Compliance Matrix: (Units=1/GPa)
#
#
# Indices 1 2 3 4 5 6 
#
# 1 0.010302 -0.008369 -0.005305 0.000000 0.003189 0.000000
# 2 -0.008369 0.177143 -0.020785 -0.000003 -0.001145 0.000003
# 3 -0.005305 -0.020785 0.014541 0.000000 0.002912 0.000000
# 4 0.000000 -0.000003 0.000000 0.096451 0.000000 0.013902
# 5 0.003189 -0.001145 0.002912 0.000000 0.039364 0.000000
# 6 0.000000 0.000003 0.000000 0.013902 0.000000 0.035164
#
#
# Mechanical properties :
#
#
# Convention : Reuss Voigt Hill
#
# Bulk Modulus (GPa) = 7.51497 62.31008 34.91252
# Shear Modulus (GPa) = 10.28301 25.73795 18.01048
#
# Velocity S-wave (km/s) = 2.40309 3.80187 3.18034
# Velocity P-wave (km/s) = 3.45256 7.36649 5.75262
#
# Compressibility (1/GPa) = 0.13306768
#
# Stress axis : x y z
#
# Youngs Moduli (GPa) = 97.07098 5.64515 68.77245
#
# Poissons Ratio (x) = 0.04724 0.36486
# Poissons Ratio (y) = 0.81240 1.42941
# Poissons Ratio (z) = 0.51500 0.11733
#
# Static dielectric constant tensor:
#      x y z
#    x 1.607110 0.000000 -0.008500 
#    y 0.000000 1.610790 0.000000 
#    z -0.008500 0.000000 1.597810 
# 
# From -- ./inp_files/24297.got.cif
#   From: 2010.05.17/outbox.cif.g08.bks.cpg/sg8_13_cif.got.tgz:24297.got - 2010.06.03 19:46:02.
