data_PCOD9131273
_publ_section_title
;
Structure prediction by ZEFSAII (Michael W. Deem and Ramdas Pophale) SiO2 
 PCOD9131273
Probable space group: P C
;
_chemical_formula_sum "Si O2"
_cell_formula_units_Z 14
_cell_length_a 14.620500
_cell_length_b 7.532619
_cell_length_c 5.394529
_cell_angle_alpha 90.000000
_cell_angle_beta 73.751326
_cell_angle_gamma 90.000000
_cell_volume 570.372363
_symmetry_space_group_name_H-M "P C"
_symmetry_group_IT_number 7
_symmetry_cell_setting 'monoclinic'
loop_
_space_group_symop_operation_xyz
x,y,z
x,-y,1/2+z
loop_
_atom_site_type_symbol
_atom_site_label
_atom_site_fract_x
_atom_site_fract_y
_atom_site_fract_z
Si Si1 0.004330 0.933308 0.777010
Si Si2 0.939675 0.465701 0.303575
Si Si3 0.142305 0.598469 0.147006
Si Si4 0.335117 0.620903 0.139148
Si Si5 0.690358 0.610853 0.831372
Si Si6 0.785320 0.941664 0.929020
Si Si7 0.513199 0.882286 0.980413
O O1 0.988644 0.725387 0.753300
O O2 0.894711 0.003918 0.881634
O O3 0.051621 0.017338 0.500207
O O4 0.886409 0.473718 0.601188
O O5 0.027564 0.609243 0.252996
O O6 0.157618 0.443428 0.345600
O O7 0.230827 0.713949 0.174564
O O8 0.342849 0.482955 0.898200
O O9 0.417362 0.765426 0.060437
O O10 0.687527 0.472561 0.060365
O O11 0.599857 0.742300 0.923117
O O12 0.777140 0.747087 0.821206
O O13 0.742393 0.057233 0.737259
O O14 0.517518 0.006547 0.221162
#
# Coordination Sequence:
#
# PCOD9131273 Si02
#       7
#     2   2   2   2   2   2   2
#     4  10  21  36  56  82 116 151 186 230 284 334
#     4  10  19  33  56  81 107 144 190 230 276 332
#     4   8  16  30  53  76 101 137 179 223 273 323
#     4  10  19  36  60  81 108 144 187 230 276 332
#     4  12  24  39  60  87 115 148 191 236 275 328
#     4  10  21  39  58  80 115 156 187 227 284 334
#     4  12  24  39  59  85 116 150 186 230 284 339
#
# _framework density 24.545366999999999
#
# number of rings (size 3 to 8) (size 9 to 14) (size 15 to 20)
#    0.000    1.714    0.000    5.143    0.000    1.143 
#    0.000    0.000    0.000   46.286    0.000    0.000 
#    0.000    0.000    0.000    0.000    0.000    0.000 
#
# Total GULP energy -78115.894951 kJ/mol
# GULP energy per Si atom -5579.706782 kJ/mol
# Density = 2.448950 g / cm^3
# Si number density = 24.545367 Si / 1000 Ang^3
#
#
#
# Elastic Constant Matrix: (Units=GPa)
#
#
# Indices 1 2 3 4 5 6 
#
# 1 92.9953 14.3658 11.0832 0.0000 4.8388 0.0000
# 2 14.3658 82.3857 56.4615 0.0000 7.7770 0.0000
# 3 11.0832 56.4615 213.8793 0.0000 36.6135 0.0000
# 4 0.0000 0.0000 0.0000 54.3794 0.0000 6.0185
# 5 4.8388 7.7770 36.6135 0.0000 32.2991 0.0000
# 6 0.0000 0.0000 0.0000 6.0185 0.0000 29.9806
#
#
#
# Elastic Compliance Matrix: (Units=1/GPa)
#
#
# Indices 1 2 3 4 5 6 
#
# 1 0.011102 -0.001921 0.000170 0.000000 -0.001394 0.000000
# 2 -0.001921 0.015182 -0.004134 0.000000 0.001318 0.000000
# 3 0.000170 -0.004134 0.006938 0.000000 -0.006895 0.000000
# 4 0.000000 0.000000 0.000000 0.018807 0.000000 -0.003775
# 5 -0.001394 0.001318 -0.006895 0.000000 0.038668 0.000000
# 6 0.000000 0.000000 0.000000 -0.003775 0.000000 0.034113
#
#
# Mechanical properties :
#
#
# Convention : Reuss Voigt Hill
#
# Bulk Modulus (GPa) = 46.61341 61.45348 54.03344
# Shear Modulus (GPa) = 34.78724 43.82183 39.30454
#
# Velocity S-wave (km/s) = 3.76874 4.22991 4.00597
# Velocity P-wave (km/s) = 6.16196 6.99623 6.59231
#
# Compressibility (1/GPa) = 0.02145306
#
# Stress axis : x y z
#
# Youngs Moduli (GPa) = 90.07202 65.86893 144.12524
#
# Poissons Ratio (x) = 0.12654 -0.02457
# Poissons Ratio (y) = 0.17304 0.59580
# Poissons Ratio (z) = -0.01535 0.27230
#
# Static dielectric constant tensor:
#      x y z
#    x 2.066330 0.000000 -0.017580 
#    y 0.000000 2.033010 0.000000 
#    z -0.017580 0.000000 2.018370 
# 
# From -- ./inp_files/1333.got.cif
#   From: 2010.05.17/outbox.cif.g08.bks.cpg/sg7_cif.got.tgz:1333.got - 2010.06.03 19:44:50.
