data_PCOD9131374
_publ_section_title
;
Structure prediction by ZEFSAII (Michael W. Deem and Ramdas Pophale) SiO2 
 PCOD9131374
Probable space group: P C
;
_chemical_formula_sum "Si O2"
_cell_formula_units_Z 16
_cell_length_a 6.926534
_cell_length_b 18.040541
_cell_length_c 5.180586
_cell_angle_alpha 90.000000
_cell_angle_beta 103.246327
_cell_angle_gamma 90.000000
_cell_volume 630.134209
_symmetry_space_group_name_H-M "P C"
_symmetry_group_IT_number 7
_symmetry_cell_setting 'monoclinic'
loop_
_space_group_symop_operation_xyz
x,y,z
x,-y,1/2+z
loop_
_atom_site_type_symbol
_atom_site_label
_atom_site_fract_x
_atom_site_fract_y
_atom_site_fract_z
Si Si1 0.588220 0.138355 0.781860
Si Si2 0.878744 0.219993 0.179910
Si Si3 0.966607 0.381481 0.255618
Si Si4 0.220490 0.645128 0.321197
Si Si5 0.290807 0.044805 0.454359
Si Si6 0.916207 0.090518 0.574790
Si Si7 0.558692 0.543144 0.612944
Si Si8 0.235606 0.812304 0.459161
O O1 0.407182 0.121947 0.529672
O O2 0.741391 0.074183 0.726834
O O3 0.452065 0.152756 0.993447
O O4 0.745633 0.204647 0.883950
O O5 0.857605 0.302569 0.273924
O O6 0.829819 0.156855 0.371226
O O7 0.110313 0.209384 0.174280
O O8 0.124701 0.389299 0.534373
O O9 0.792944 0.440902 0.183604
O O10 0.075198 0.374022 0.014897
O O11 0.431606 0.611906 0.468365
O O12 0.236989 0.734239 0.305951
O O13 0.049866 0.045824 0.407062
O O14 0.353047 0.005582 0.213789
O O15 0.093484 0.125015 0.797525
O O16 0.509051 0.520783 0.890008
#
# Coordination Sequence:
#
# PCOD9131374 Si02
#       8
#     2   2   2   2   2   2   2   2
#     4  10  23  40  67  97 129 172 216 275 335 402
#     4  10  21  40  68 100 131 165 218 277 346 401
#     4  11  24  44  71 100 138 178 226 284 348 403
#     4  11  23  44  69  99 134 182 223 281 341 411
#     4  11  28  46  65  92 134 179 223 270 325 398
#     4  10  22  41  67  95 129 168 216 276 332 396
#     4  12  27  45  65  99 136 183 238 280 331 404
#     4   9  20  40  62  98 133 165 210 273 342 401
#
# _framework density 25.391418000000002
#
# number of rings (size 3 to 8) (size 9 to 14) (size 15 to 20)
#    0.000    1.500    1.250    2.250    7.000    5.000 
#    4.500    0.000    0.000    0.000    0.000    0.000 
#    0.000    0.000    0.000    0.000    0.000    0.000 
#
# Total GULP energy -89204.816981 kJ/mol
# GULP energy per Si atom -5575.301061 kJ/mol
# Density = 2.533363 g / cm^3
# Si number density = 25.391418 Si / 1000 Ang^3
#
#
#
# Elastic Constant Matrix: (Units=GPa)
#
#
# Indices 1 2 3 4 5 6 
#
# 1 161.1757 25.3873 29.0387 0.0000 3.1559 0.0000
# 2 25.3873 47.5930 34.3498 0.0000 8.4191 0.0000
# 3 29.0387 34.3498 123.3231 0.0000 2.0375 0.0000
# 4 0.0000 0.0000 0.0000 32.9099 0.0000 3.4325
# 5 3.1559 8.4191 2.0375 0.0000 33.4196 0.0000
# 6 0.0000 0.0000 0.0000 3.4325 0.0000 35.6203
#
#
#
# Elastic Compliance Matrix: (Units=1/GPa)
#
#
# Indices 1 2 3 4 5 6 
#
# 1 0.006829 -0.003146 -0.000735 0.000000 0.000193 0.000000
# 2 -0.003146 0.029090 -0.007253 0.000000 -0.006589 0.000000
# 3 -0.000735 -0.007253 0.010281 0.000000 0.001270 0.000000
# 4 0.000000 0.000000 0.000000 0.030695 0.000000 -0.002958
# 5 0.000193 -0.006589 0.001270 0.000000 0.031487 0.000000
# 6 0.000000 0.000000 0.000000 -0.002958 0.000000 0.028359
#
#
# Mechanical properties :
#
#
# Convention : Reuss Voigt Hill
#
# Bulk Modulus (GPa) = 41.78535 56.62703 49.20619
# Shear Modulus (GPa) = 29.94276 36.61103 33.27689
#
# Velocity S-wave (km/s) = 3.43774 3.80131 3.62409
# Velocity P-wave (km/s) = 5.67888 6.45110 6.07727
#
# Compressibility (1/GPa) = 0.02393183
#
# Stress axis : x y z
#
# Youngs Moduli (GPa) = 146.44281 34.37588 97.26686
#
# Poissons Ratio (x) = 0.10816 0.07147
# Poissons Ratio (y) = 0.46076 0.70547
# Poissons Ratio (z) = 0.10760 0.24932
#
# Static dielectric constant tensor:
#      x y z
#    x 2.036980 0.000000 -0.041000 
#    y 0.000000 2.091490 0.000000 
#    z -0.041000 0.000000 2.025090 
# 
# From -- ./inp_files/275.got.cif
#   From: 2010.05.17/outbox.cif.g08.bks.cpg/sg7_cif.got.tgz:275.got - 2010.06.03 19:44:50.
