data_PCOD9131457
_publ_section_title
;
Structure prediction by ZEFSAII (Michael W. Deem and Ramdas Pophale) SiO2 
 PCOD9131457
Probable space group: P C
;
_chemical_formula_sum "Si O2"
_cell_formula_units_Z 16
_cell_length_a 8.779861
_cell_length_b 15.928690
_cell_length_c 5.143513
_cell_angle_alpha 90.000000
_cell_angle_beta 120.848100
_cell_angle_gamma 90.000000
_cell_volume 617.565296
_symmetry_space_group_name_H-M "P C"
_symmetry_group_IT_number 7
_symmetry_cell_setting 'monoclinic'
loop_
_space_group_symop_operation_xyz
x,y,z
x,-y,1/2+z
loop_
_atom_site_type_symbol
_atom_site_label
_atom_site_fract_x
_atom_site_fract_y
_atom_site_fract_z
Si Si1 0.862510 0.159954 0.750000
Si Si2 0.358520 0.807508 0.264109
Si Si3 0.669240 0.451625 0.586345
Si Si4 0.101042 0.542917 0.429527
Si Si5 0.045753 0.707569 0.109759
Si Si6 0.657121 0.713888 0.771841
Si Si7 0.624567 0.059321 0.841385
Si Si8 0.178528 0.055363 0.904619
O O1 0.695156 0.196997 0.447644
O O2 0.794388 0.121196 0.957295
O O3 0.988727 0.240050 0.819382
O O4 0.975989 0.087336 0.715248
O O5 0.171716 0.763249 0.038744
O O6 0.498700 0.734353 0.442708
O O7 0.459656 0.876705 0.185806
O O8 0.301902 0.864300 0.463655
O O9 0.609891 0.480845 0.817412
O O10 0.615634 0.359822 0.438622
O O11 0.885237 0.454526 0.765078
O O12 0.160065 0.471064 0.276336
O O13 0.142931 0.627199 0.309389
O O14 0.850236 0.689509 0.817985
O O15 0.624491 0.995510 0.600382
O O16 0.205759 0.990443 0.697542
#
# Coordination Sequence:
#
# PCOD9131457 Si02
#       8
#     2   2   2   2   2   2   2   2
#     4   9  21  42  66  99 132 174 228 280 342 409
#     4  11  23  43  70  97 137 177 230 286 349 410
#     4   9  18  35  61  95 135 176 221 270 333 404
#     4   9  17  36  63  96 134 177 223 273 335 405
#     4   8  20  43  65 104 136 181 229 284 341 413
#     4   9  20  41  69 100 137 180 227 281 342 407
#     4  12  25  43  68  96 132 178 227 285 350 413
#     4  11  24  45  68  95 133 175 225 287 348 413
#
# _framework density 25.908189
#
# number of rings (size 3 to 8) (size 9 to 14) (size 15 to 20)
#    0.750    1.500    0.000    2.250    0.000    3.000 
#    4.500    6.250    0.000    0.000    0.000    0.000 
#    0.000    0.000    0.000    0.000    0.000    0.000 
#
# Total GULP energy -89371.694346 kJ/mol
# GULP energy per Si atom -5585.730897 kJ/mol
# Density = 2.584922 g / cm^3
# Si number density = 25.908189 Si / 1000 Ang^3
#
#
#
# Elastic Constant Matrix: (Units=GPa)
#
#
# Indices 1 2 3 4 5 6 
#
# 1 85.0705 28.6301 25.4071 0.0000 1.1547 0.0000
# 2 28.6301 56.3367 3.4434 0.0000 1.7652 0.0000
# 3 25.4071 3.4434 75.2571 0.0000 -12.5843 0.0000
# 4 0.0000 0.0000 0.0000 28.0632 0.0000 1.3229
# 5 1.1547 1.7652 -12.5843 0.0000 32.4908 0.0000
# 6 0.0000 0.0000 0.0000 1.3229 0.0000 18.1614
#
#
#
# Elastic Compliance Matrix: (Units=1/GPa)
#
#
# Indices 1 2 3 4 5 6 
#
# 1 0.016009 -0.007734 -0.005427 0.000000 -0.002251 0.000000
# 2 -0.007734 0.021593 0.001575 0.000000 -0.000288 0.000000
# 3 -0.005427 0.001575 0.016109 0.000000 0.006347 0.000000
# 4 0.000000 0.000000 0.000000 0.035757 0.000000 -0.002605
# 5 -0.002251 -0.000288 0.006347 0.000000 0.033332 0.000000
# 6 0.000000 0.000000 0.000000 -0.002605 0.000000 0.055252
#
#
# Mechanical properties :
#
#
# Convention : Reuss Voigt Hill
#
# Bulk Modulus (GPa) = 32.74456 36.84728 34.79592
# Shear Modulus (GPa) = 23.65139 26.35531 25.00335
#
# Velocity S-wave (km/s) = 3.02469 3.19291 3.10994
# Velocity P-wave (km/s) = 4.98643 5.27693 5.13373
#
# Compressibility (1/GPa) = 0.03053942
#
# Stress axis : x y z
#
# Youngs Moduli (GPa) = 62.46445 46.31054 62.07592
#
# Poissons Ratio (x) = 0.35814 0.33690
# Poissons Ratio (y) = 0.48307 -0.09775
# Poissons Ratio (z) = 0.33901 -0.07292
#
# Static dielectric constant tensor:
#      x y z
#    x 2.080390 0.000000 0.060740 
#    y 0.000000 2.060290 0.000000 
#    z 0.060740 0.000000 2.037190 
# 
# From -- ./inp_files/812.got.cif
#   From: 2010.05.17/outbox.cif.g08.bks.cpg/sg7_cif.got.tgz:812.got - 2010.06.03 19:44:50.
