data_PCOD9131697
_publ_section_title
;
Structure prediction by ZEFSAII (Michael W. Deem and Ramdas Pophale) SiO2 
 PCOD9131697
Probable space group: C M
;
_chemical_formula_sum "Si O2"
_cell_formula_units_Z 32
_cell_length_a 20.869573
_cell_length_b 7.808498
_cell_length_c 12.624962
_cell_angle_alpha 90.000000
_cell_angle_beta 125.850173
_cell_angle_gamma 90.000000
_cell_volume 1667.599042
_symmetry_space_group_name_H-M "C M"
_symmetry_group_IT_number 8
_symmetry_cell_setting 'monoclinic'
loop_
_space_group_symop_operation_xyz
x,y,z
x,-y,z
1/2+x,1/2+y,z
1/2+x,1/2-y,z
loop_
_atom_site_type_symbol
_atom_site_label
_atom_site_fract_x
_atom_site_fract_y
_atom_site_fract_z
Si Si1 0.787080 0.709295 0.401620
Si Si2 0.724989 0.706139 0.563217
Si Si3 0.648655 0.293404 0.105522
Si Si4 0.549597 0.701148 0.348196
Si Si5 0.269576 0.702430 0.053671
Si Si6 0.990852 0.789929 0.062255
Si Si7 0.905920 0.301729 0.346364
Si Si8 0.312217 0.294113 0.863028
O O1 0.789473 0.500000 0.402046
O O2 0.775617 0.766486 0.510725
O O3 0.709776 0.758663 0.258043
O O4 0.863960 0.769725 0.411391
O O5 0.722600 0.500000 0.554068
O O6 0.635214 0.772142 0.462481
O O7 0.763471 0.748173 0.712211
O O8 0.648964 0.500000 0.103717
O O9 0.687020 0.231623 0.033457
O O10 0.560883 0.236429 0.051087
O O11 0.561881 0.500000 0.339896
O O12 0.514527 0.769410 0.203548
O O13 0.484401 0.718617 0.376156
O O14 0.287476 0.500000 0.072545
O O15 0.337588 0.788286 0.190750
O O16 0.274079 0.764148 0.937362
O O17 0.989604 0.000000 0.061644
O O18 0.903019 0.732088 0.947804
O O19 0.924496 0.500000 0.382301
O O20 0.314783 0.500000 0.869857
#
# Coordination Sequence:
#
# PCOD9131697 Si02
#       8
#     4   4   4   4   4   4   4   4
#     4   8  15  30  51  75 101 132 167 207 261 309
#     4  10  20  35  56  77 102 139 179 216 256 312
#     4   9  16  30  55  80 101 128 173 223 261 309
#     4  10  18  33  56  79 104 137 177 217 262 309
#     4  10  19  33  52  75 107 142 173 212 265 314
#     4   9  16  32  56  77 100 137 176 212 259 314
#     4  10  19  31  53  81 107 134 172 220 262 308
#     4  10  21  36  53  74 106 145 175 209 264 317
#
# _framework density 19.189264999999999
#
# number of rings (size 3 to 8) (size 9 to 14) (size 15 to 20)
#    0.000    2.500    2.500    1.500    0.000    1.500 
#    0.000    5.625    0.000    6.000    0.000    0.000 
#    0.000    0.000    0.000    0.000    0.000    0.000 
#
# Total GULP energy -89231.911512 kJ/mol
# GULP energy per Si atom -5576.994470 kJ/mol
# Density = 1.914559 g / cm^3
# Si number density = 19.189265 Si / 1000 Ang^3
#
#
#
# Elastic Constant Matrix: (Units=GPa)
#
#
# Indices 1 2 3 4 5 6 
#
# 1 160.0723 -5.0113 75.1620 0.0000 -11.8156 0.0000
# 2 -5.0113 19.9110 -3.3626 0.0000 1.7559 0.0000
# 3 75.1620 -3.3626 107.3983 0.0000 -6.0682 0.0000
# 4 0.0000 0.0000 0.0000 17.2568 0.0000 -0.8110
# 5 -11.8156 1.7559 -6.0682 0.0000 27.9442 0.0000
# 6 0.0000 0.0000 0.0000 -0.8110 0.0000 23.1594
#
#
#
# Elastic Compliance Matrix: (Units=1/GPa)
#
#
# Indices 1 2 3 4 5 6 
#
# 1 0.009511 0.001075 -0.006479 0.000000 0.002547 0.000000
# 2 0.001075 0.050839 0.000693 0.000000 -0.002590 0.000000
# 3 -0.006479 0.000693 0.013880 0.000000 0.000231 0.000000
# 4 0.000000 0.000000 0.000000 0.058044 0.000000 0.002033
# 5 0.002547 -0.002590 0.000231 0.000000 0.037075 0.000000
# 6 0.000000 0.000000 0.000000 0.002033 0.000000 0.043250
#
#
# Mechanical properties :
#
#
# Convention : Reuss Voigt Hill
#
# Bulk Modulus (GPa) = 15.42990 46.77310 31.10150
# Shear Modulus (GPa) = 20.52350 28.37833 24.45091
#
# Velocity S-wave (km/s) = 3.27392 3.84977 3.57346
# Velocity P-wave (km/s) = 4.72755 6.64745 5.76794
#
# Compressibility (1/GPa) = 0.06480925
#
# Stress axis : x y z
#
# Youngs Moduli (GPa) = 105.14322 19.66979 72.04689
#
# Poissons Ratio (x) = -0.02115 0.46676
# Poissons Ratio (y) = -0.11303 -0.04994
# Poissons Ratio (z) = 0.68117 -0.01363
#
# Static dielectric constant tensor:
#      x y z
#    x 1.692470 0.000000 -0.009370 
#    y 0.000000 1.714940 0.000000 
#    z -0.009370 0.000000 1.632260 
# 
# From -- ./inp_files/23726.got.cif
#   From: 2010.05.17/outbox.cif.g08.bks.cpg/sg8_12_cif.got.tgz:23726.got - 2010.06.03 19:46:02.
