data_PCOD9131344
_publ_section_title
;
Structure prediction by ZEFSAII (Michael W. Deem and Ramdas Pophale) SiO2 
 PCOD9131344
Probable space group: P C
;
_chemical_formula_sum "Si O2"
_cell_formula_units_Z 14
_cell_length_a 9.258585
_cell_length_b 13.812655
_cell_length_c 5.060407
_cell_angle_alpha 90.000000
_cell_angle_beta 69.946591
_cell_angle_gamma 90.000000
_cell_volume 607.918676
_symmetry_space_group_name_H-M "P C"
_symmetry_group_IT_number 7
_symmetry_cell_setting 'monoclinic'
loop_
_space_group_symop_operation_xyz
x,y,z
x,-y,1/2+z
loop_
_atom_site_type_symbol
_atom_site_label
_atom_site_fract_x
_atom_site_fract_y
_atom_site_fract_z
Si Si1 0.520560 0.559716 0.289030
Si Si2 0.146704 0.446805 0.050339
Si Si3 0.058538 0.139118 0.877801
Si Si4 0.385026 0.060333 0.606383
Si Si5 0.717862 0.065029 0.042531
Si Si6 0.148922 0.753560 0.825522
Si Si7 0.497794 0.778796 0.427867
O O1 0.574149 0.486662 0.482834
O O2 0.333367 0.555688 0.412938
O O3 0.557295 0.672161 0.314088
O O4 0.096131 0.530686 0.285621
O O5 0.105108 0.347915 0.221317
O O6 0.201635 0.070745 0.725515
O O7 0.092931 0.228715 0.656972
O O8 0.896289 0.093851 0.916335
O O9 0.074819 0.168571 0.173118
O O10 0.450885 0.157886 0.698238
O O11 0.422212 0.025576 0.289001
O O12 0.624188 0.160078 0.008093
O O13 0.693210 0.976437 0.852797
O O14 0.335291 0.764820 0.686629
#
# Coordination Sequence:
#
# PCOD9131344 Si02
#       7
#     2   2   2   2   2   2   2
#     4   9  19  34  56  84 116 152 192 238 297 355
#     4   9  16  29  52  85 117 144 186 247 296 341
#     4  11  22  39  59  82 119 163 198 236 290 364
#     4  11  21  35  56  85 116 151 190 235 285 342
#     4  12  26  43  61  88 122 162 201 245 301 358
#     4  10  21  37  61  88 115 157 203 241 295 352
#     4  10  23  39  63  92 121 153 200 256 296 342
#
# _framework density 23.029395999999998
#
# number of rings (size 3 to 8) (size 9 to 14) (size 15 to 20)
#    0.000    1.714    0.000    5.143    0.000   11.429 
#    0.000    0.000    0.000    5.143    0.000    0.000 
#    0.000    0.000    0.000    0.000    0.000    0.000 
#
# Total GULP energy -78308.629742 kJ/mol
# GULP energy per Si atom -5593.473553 kJ/mol
# Density = 2.297698 g / cm^3
# Si number density = 23.029396 Si / 1000 Ang^3
#
#
#
# Elastic Constant Matrix: (Units=GPa)
#
#
# Indices 1 2 3 4 5 6 
#
# 1 85.1804 15.2635 5.8794 0.0000 -1.5434 0.0000
# 2 15.2635 96.2728 0.4895 0.0000 -7.6513 0.0000
# 3 5.8794 0.4895 75.3580 0.0000 13.3867 0.0000
# 4 0.0000 0.0000 0.0000 32.2088 0.0000 5.1256
# 5 -1.5434 -7.6513 13.3867 0.0000 22.0289 0.0000
# 6 0.0000 0.0000 0.0000 5.1256 0.0000 14.6834
#
#
#
# Elastic Compliance Matrix: (Units=1/GPa)
#
#
# Indices 1 2 3 4 5 6 
#
# 1 0.012163 -0.001854 -0.001092 0.000000 0.000872 0.000000
# 2 -0.001854 0.011009 -0.000654 0.000000 0.004091 0.000000
# 3 -0.001092 -0.000654 0.015037 0.000000 -0.009441 0.000000
# 4 0.000000 0.000000 0.000000 0.032874 0.000000 -0.011475
# 5 0.000872 0.004091 -0.009441 0.000000 0.052614 0.000000
# 6 0.000000 0.000000 0.000000 -0.011475 0.000000 0.072110
#
#
# Mechanical properties :
#
#
# Convention : Reuss Voigt Hill
#
# Bulk Modulus (GPa) = 32.24656 33.34178 32.79417
# Shear Modulus (GPa) = 23.43657 29.46281 26.44969
#
# Velocity S-wave (km/s) = 3.19357 3.58069 3.39266
# Velocity P-wave (km/s) = 5.25655 5.62179 5.44223
#
# Compressibility (1/GPa) = 0.03101106
#
# Stress axis : x y z
#
# Youngs Moduli (GPa) = 82.21596 90.83067 66.50467
#
# Poissons Ratio (x) = 0.16836 0.07261
# Poissons Ratio (y) = 0.15239 0.04347
# Poissons Ratio (z) = 0.08976 0.05937
#
# Static dielectric constant tensor:
#      x y z
#    x 1.886060 0.000000 -0.025170 
#    y 0.000000 1.881110 0.000000 
#    z -0.025170 0.000000 1.857730 
# 
# From -- ./inp_files/752.got.cif
#   From: 2010.05.17/outbox.cif.g08.bks.cpg/sg7_cif.got.tgz:752.got - 2010.06.03 19:44:50.
