data_PCOD9131508
_publ_section_title
;
Structure prediction by ZEFSAII (Michael W. Deem and Ramdas Pophale) SiO2 
 PCOD9131508
Probable space group: C M
;
_chemical_formula_sum "Si O2"
_cell_formula_units_Z 30
_cell_length_a 13.389697
_cell_length_b 12.743918
_cell_length_c 8.225462
_cell_angle_alpha 90.000000
_cell_angle_beta 114.733434
_cell_angle_gamma 90.000000
_cell_volume 1274.812187
_symmetry_space_group_name_H-M "C M"
_symmetry_group_IT_number 8
_symmetry_cell_setting 'monoclinic'
loop_
_space_group_symop_operation_xyz
x,y,z
x,-y,z
1/2+x,1/2+y,z
1/2+x,1/2-y,z
loop_
_atom_site_type_symbol
_atom_site_label
_atom_site_fract_x
_atom_site_fract_y
_atom_site_fract_z
Si Si1 0.488490 0.888403 0.945400
Si Si2 0.333835 0.883623 0.406433
Si Si3 0.589698 0.155276 0.519084
Si Si4 0.763271 0.884823 0.888038
Si Si5 0.278399 0.836997 0.018719
Si Si6 0.398372 0.294606 0.682292
Si Si7 0.641084 0.000000 0.274773
Si Si8 0.591731 0.616124 0.622952
O O1 0.392795 0.877411 0.017700
O O2 0.478690 0.785793 0.832272
O O3 0.464213 0.000000 0.842358
O O4 0.601801 0.909945 0.114094
O O5 0.461665 0.875512 0.434546
O O6 0.326199 0.787237 0.527034
O O7 0.312881 0.000000 0.459091
O O8 0.265109 0.872899 0.193697
O O9 0.642299 0.122312 0.727600
O O10 0.600616 0.281112 0.516557
O O11 0.650367 0.091036 0.421394
O O12 0.783698 0.789028 0.021036
O O13 0.836092 0.857733 0.778602
O O14 0.786337 0.000000 0.968601
O O15 0.183347 0.871125 0.827761
O O16 0.471441 0.369067 0.620798
O O17 0.601994 0.500000 0.558238
#
# Coordination Sequence:
#
# PCOD9131508 Si02
#       8
#     4   4   4   4   4   4   2   4
#     4   9  17  32  56  81 102 131 172 229 267 302
#     4  11  18  34  57  82 107 130 176 233 269 304
#     4  10  18  33  61  82  97 139 181 227 270 303
#     4  10  20  37  55  75 108 142 179 215 263 319
#     4  10  19  34  58  80  98 140 183 224 264 308
#     4  10  22  34  51  78 112 149 172 202 273 331
#     4  10  16  32  60  86 104 126 178 240 272 296
#     4  10  21  35  53  76 113 147 177 211 264 325
#
# _framework density 23.532879000000001
#
# number of rings (size 3 to 8) (size 9 to 14) (size 15 to 20)
#    0.400    1.600    2.667    2.000    0.000    0.000 
#    2.400    4.000    0.000    0.000    0.000    0.000 
#    0.000    0.000    0.000    0.000    0.000    0.000 
#
# Total GULP energy -83546.768019 kJ/mol
# GULP energy per Si atom -5569.784535 kJ/mol
# Density = 2.347932 g / cm^3
# Si number density = 23.532879 Si / 1000 Ang^3
#
#
#
# Elastic Constant Matrix: (Units=GPa)
#
#
# Indices 1 2 3 4 5 6 
#
# 1 73.8126 12.8695 -7.8373 0.0000 -2.5770 0.0000
# 2 12.8695 208.6885 18.3596 0.0000 -4.2918 0.0000
# 3 -7.8373 18.3596 50.5572 0.0000 -9.1632 0.0000
# 4 0.0000 0.0000 0.0000 47.3729 0.0000 -4.6792
# 5 -2.5770 -4.2918 -9.1632 0.0000 10.1566 0.0000
# 6 0.0000 0.0000 0.0000 -4.6792 0.0000 10.2343
#
#
#
# Elastic Compliance Matrix: (Units=1/GPa)
#
#
# Indices 1 2 3 4 5 6 
#
# 1 0.014375 -0.001087 0.003827 0.000000 0.006641 0.000000
# 2 -0.001087 0.005035 -0.001986 0.000000 0.000060 0.000000
# 3 0.003827 -0.001986 0.025246 0.000000 0.022908 0.000000
# 4 0.000000 0.000000 0.000000 0.022107 0.000000 0.010108
# 5 0.006641 0.000060 0.022908 0.000000 0.120836 0.000000
# 6 0.000000 0.000000 0.000000 0.010108 0.000000 0.102332
#
#
# Mechanical properties :
#
#
# Convention : Reuss Voigt Hill
#
# Bulk Modulus (GPa) = 21.66175 42.20468 31.93322
# Shear Modulus (GPa) = 16.45762 34.19721 25.32742
#
# Velocity S-wave (km/s) = 2.64738 3.81618 3.28419
# Velocity P-wave (km/s) = 4.30926 6.11481 5.28964
#
# Compressibility (1/GPa) = 0.04616432
#
# Stress axis : x y z
#
# Youngs Moduli (GPa) = 69.56322 198.61811 39.61037
#
# Poissons Ratio (x) = 0.21582 -0.15157
# Poissons Ratio (y) = 0.07559 0.07866
# Poissons Ratio (z) = -0.26619 0.39444
#
# Static dielectric constant tensor:
#      x y z
#    x 1.960880 0.000000 0.010990 
#    y 0.000000 1.915130 0.000000 
#    z 0.010990 0.000000 1.864460 
# 
# From -- ./inp_files/14933.got.cif
#   From: 2010.05.17/outbox.cif.g08.bks.cpg/sg8_8_cif.got.tgz:14933.got - 2010.06.03 19:46:02.
