data_PCOD9131110
_publ_section_title
;
Structure prediction by ZEFSAII (Michael W. Deem and Ramdas Pophale) SiO2 
 PCOD9131110
Probable space group: P M
;
_chemical_formula_sum "Si O2"
_cell_formula_units_Z 16
_cell_length_a 7.229040
_cell_length_b 18.976344
_cell_length_c 9.329264
_cell_angle_alpha 90.000000
_cell_angle_beta 34.628656
_cell_angle_gamma 90.000000
_cell_volume 727.250612
_symmetry_space_group_name_H-M "P M"
_symmetry_group_IT_number 6
_symmetry_cell_setting 'monoclinic'
loop_
_space_group_symop_operation_xyz
x,y,z
x,-y,z
loop_
_atom_site_type_symbol
_atom_site_label
_atom_site_fract_x
_atom_site_fract_y
_atom_site_fract_z
Si Si1 0.157110 0.918174 0.502740
Si Si2 0.455729 0.644277 0.852749
Si Si3 0.383571 0.916196 0.037877
Si Si4 0.188100 0.680352 0.469335
Si Si5 0.315869 0.200214 0.598842
Si Si6 0.063677 0.213787 0.078899
Si Si7 0.499944 0.575609 0.101795
Si Si8 0.267343 0.578203 0.671299
O O1 0.299700 0.896694 0.256662
O O2 0.304952 0.877993 0.543589
O O3 0.231894 0.000000 0.468722
O O4 0.766994 0.909246 0.759735
O O5 0.373378 0.616858 0.747260
O O6 0.834556 0.660819 0.637088
O O7 0.256852 0.716325 0.001934
O O8 0.400010 0.580725 0.999482
O O9 0.201599 0.859082 0.055772
O O10 0.297170 0.000000 0.072837
O O11 0.176809 0.753893 0.555539
O O12 0.417075 0.657004 0.195110
O O13 0.341436 0.626761 0.488796
O O14 0.693453 0.221412 0.368521
O O15 0.115896 0.209907 0.872579
O O16 0.354207 0.500000 0.250066
O O17 0.877452 0.571781 0.902350
O O18 0.410688 0.500000 0.572919
#
# Coordination Sequence:
#
# PCOD9131110 Si02
#       8
#     2   2   2   2   2   2   2   2
#     4  10  22  42  68  97 133 177 221 270 330 391
#     4  11  24  40  64  92 128 171 220 272 332 395
#     4  10  22  42  68  98 133 174 222 272 327 392
#     4  11  24  40  64  91 128 172 219 273 329 396
#     4  12  26  42  66  97 135 175 223 275 327 391
#     4  12  26  42  66  98 134 175 222 276 330 387
#     4  10  23  40  63  92 123 169 218 273 336 398
#     4  10  21  42  63  89 128 163 213 275 331 396
#
# _framework density 22.000668000000001
#
# number of rings (size 3 to 8) (size 9 to 14) (size 15 to 20)
#    0.000    1.250    1.250    3.750    5.250    3.500 
#    0.000    0.000    0.000    0.000    0.000    0.000 
#    0.000    0.000    0.000    0.000    0.000    0.000 
#
# Total GULP energy -89250.789142 kJ/mol
# GULP energy per Si atom -5578.174321 kJ/mol
# Density = 2.195059 g / cm^3
# Si number density = 22.000668 Si / 1000 Ang^3
#
#
#
# Elastic Constant Matrix: (Units=GPa)
#
#
# Indices 1 2 3 4 5 6 
#
# 1 95.9249 32.5517 -6.0904 0.0000 7.1674 0.0000
# 2 32.5517 65.9973 -4.0461 0.0000 -3.0505 0.0000
# 3 -6.0904 -4.0461 34.4474 0.0000 13.2796 0.0000
# 4 0.0000 0.0000 0.0000 29.2486 0.0000 322.2563
# 5 7.1674 -3.0505 13.2796 0.0000 11.7460 0.0000
# 6 0.0000 0.0000 0.0000 322.2563 0.000016445.3395
#
#
#
# Elastic Compliance Matrix: (Units=1/GPa)
#
#
# Indices 1 2 3 4 5 6 
#
# 1 0.015754 -0.008211 0.011254 0.000000 -0.024469 0.000000
# 2 -0.008211 0.019621 -0.005394 0.000000 0.016205 0.000000
# 3 0.011254 -0.005394 0.059510 0.000000 -0.075548 0.000000
# 4 0.000000 0.000000 0.000000 0.043604 0.000000 -0.000854
# 5 -0.024469 0.016205 -0.075548 0.000000 0.189686 0.000000
# 6 0.000000 0.000000 0.000000 -0.000854 0.000000 0.000078
#
#
# Mechanical properties :
#
#
# Convention : Reuss Voigt Hill
#
# Bulk Modulus (GPa) = 11.08887 26.79999 18.94443
# Shear Modulus (GPa) = 13.77349 3308.86376 1661.31863
#
# Velocity S-wave (km/s) = 2.50481 38.82330 27.50929
# Velocity P-wave (km/s) = 3.66287 44.96523 31.90054
#
# Compressibility (1/GPa) = 0.09018049
#
# Stress axis : x y z
#
# Youngs Moduli (GPa) = 63.47543 50.96701 16.80400
#
# Poissons Ratio (x) = 0.41851 -0.18911
# Poissons Ratio (y) = 0.52122 0.09064
# Poissons Ratio (z) = -0.71433 0.27492
#
# Static dielectric constant tensor:
#      x y z
#    x 1.777550 0.000000 0.032790 
#    y 0.000000 -4.892210 0.000000 
#    z 0.032790 0.000000 1.845750 
# 
# From -- ./inp_files/1284.got.cif
#   From: 2010.05.17/outbox.cif.g08.bks.cpg/sg6_1_cif.got.tgz:1284.got - 2010.06.03 19:42:10.
