data_PCOD9131387
_publ_section_title
;
Structure prediction by ZEFSAII (Michael W. Deem and Ramdas Pophale) SiO2 
 PCOD9131387
Probable space group: P C
;
_chemical_formula_sum "Si O2"
_cell_formula_units_Z 16
_cell_length_a 5.651427
_cell_length_b 20.549049
_cell_length_c 5.781370
_cell_angle_alpha 90.000000
_cell_angle_beta 72.611437
_cell_angle_gamma 90.000000
_cell_volume 640.715955
_symmetry_space_group_name_H-M "P C"
_symmetry_group_IT_number 7
_symmetry_cell_setting 'monoclinic'
loop_
_space_group_symop_operation_xyz
x,y,z
x,-y,1/2+z
loop_
_atom_site_type_symbol
_atom_site_label
_atom_site_fract_x
_atom_site_fract_y
_atom_site_fract_z
Si Si1 0.253790 0.035377 0.540210
Si Si2 0.542409 0.146580 0.280663
Si Si3 0.686962 0.382477 0.759483
Si Si4 0.693796 0.753597 0.088700
Si Si5 0.908269 0.137091 0.804194
Si Si6 0.098393 0.643158 0.528789
Si Si7 0.216222 0.213202 0.043360
Si Si8 0.999489 0.490380 0.183267
O O1 0.474228 0.088445 0.467507
O O2 0.006993 0.080175 0.617847
O O3 0.260063 0.000664 0.286770
O O4 0.700555 0.201703 0.360587
O O5 0.658726 0.119388 0.011220
O O6 0.311012 0.187838 0.259950
O O7 0.696240 0.323916 0.568686
O O8 0.396155 0.376021 0.925919
O O9 0.917643 0.358918 0.856731
O O10 0.768112 0.459228 0.717067
O O11 0.882609 0.791254 0.201863
O O12 0.436569 0.768482 0.299645
O O13 0.092404 0.151124 0.961126
O O14 0.092645 0.716654 0.617729
O O15 0.967095 0.586656 0.716107
O O16 0.125992 0.506750 0.391408
#
# Coordination Sequence:
#
# PCOD9131387 Si02
#       8
#     2   2   2   2   2   2   2   2
#     4  12  29  51  74 110 157 205 252 317 394 487
#     4  11  26  44  76 112 149 199 259 329 384 474
#     4  10  22  44  73 109 149 207 261 327 401 471
#     4  10  22  43  72 109 141 192 252 328 385 459
#     4  11  24  45  77 103 148 195 257 313 394 463
#     4  10  22  44  73 107 152 206 261 325 402 473
#     4  10  21  45  70 108 148 192 252 327 385 460
#     4  10  24  46  69 102 152 200 258 318 389 475
#
# _framework density 24.972062000000001
#
# number of rings (size 3 to 8) (size 9 to 14) (size 15 to 20)
#    0.000    1.500    2.500    0.750    5.250    6.000 
#   13.500    0.000    0.000    0.000    0.000    0.000 
#    0.000    0.000    0.000    0.000    0.000    0.000 
#
# Total GULP energy -89081.308120 kJ/mol
# GULP energy per Si atom -5567.581758 kJ/mol
# Density = 2.491522 g / cm^3
# Si number density = 24.972062 Si / 1000 Ang^3
#
#
#
# Elastic Constant Matrix: (Units=GPa)
#
#
# Indices 1 2 3 4 5 6 
#
# 1 85.9729 43.1171 26.2720 0.0000 -7.6471 0.0000
# 2 43.1171 186.8538 72.5748 0.0000 -15.5506 0.0000
# 3 26.2720 72.5748 117.9940 0.0000 -3.9953 0.0000
# 4 0.0000 0.0000 0.0000 59.4954 0.0000 -8.3625
# 5 -7.6471 -15.5506 -3.9953 0.0000 30.0630 0.0000
# 6 0.0000 0.0000 0.0000 -8.3625 0.0000 21.5426
#
#
#
# Elastic Compliance Matrix: (Units=1/GPa)
#
#
# Indices 1 2 3 4 5 6 
#
# 1 0.013445 -0.002364 -0.001472 0.000000 0.002001 0.000000
# 2 -0.002364 0.007742 -0.004139 0.000000 0.002853 0.000000
# 3 -0.001472 -0.004139 0.011314 0.000000 -0.001012 0.000000
# 4 0.000000 0.000000 0.000000 0.017778 0.000000 0.006901
# 5 0.002001 0.002853 -0.001012 0.000000 0.035114 0.000000
# 6 0.000000 0.000000 0.000000 0.006901 0.000000 0.049099
#
#
# Mechanical properties :
#
#
# Convention : Reuss Voigt Hill
#
# Bulk Modulus (GPa) = 60.41689 74.97204 67.69447
# Shear Modulus (GPa) = 32.05950 38.81064 35.43507
#
# Velocity S-wave (km/s) = 3.58692 3.94656 3.77103
# Velocity P-wave (km/s) = 6.43436 7.13125 6.79175
#
# Compressibility (1/GPa) = 0.01655166
#
# Stress axis : x y z
#
# Youngs Moduli (GPa) = 74.37673 129.15743 88.38397
#
# Poissons Ratio (x) = 0.30537 0.13007
# Poissons Ratio (y) = 0.17585 0.36583
# Poissons Ratio (z) = 0.10945 0.53460
#
# Static dielectric constant tensor:
#      x y z
#    x 2.051710 0.000000 -0.063110 
#    y 0.000000 1.984010 0.000000 
#    z -0.063110 0.000000 2.059960 
# 
# From -- ./inp_files/383.got.cif
#   From: 2010.05.17/outbox.cif.g08.bks.cpg/sg7_cif.got.tgz:383.got - 2010.06.03 19:44:50.
