data_PCOD9131914
_publ_section_title
;
Structure prediction by ZEFSAII (Michael W. Deem and Ramdas Pophale) SiO2 
 PCOD9131914
Probable space group: C M
;
_chemical_formula_sum "Si O2"
_cell_formula_units_Z 32
_cell_length_a 25.193848
_cell_length_b 8.712012
_cell_length_c 20.852727
_cell_angle_alpha 90.000000
_cell_angle_beta 156.327338
_cell_angle_gamma 90.000000
_cell_volume 1837.693567
_symmetry_space_group_name_H-M "C M"
_symmetry_group_IT_number 8
_symmetry_cell_setting 'monoclinic'
loop_
_space_group_symop_operation_xyz
x,y,z
x,-y,z
1/2+x,1/2+y,z
1/2+x,1/2-y,z
loop_
_atom_site_type_symbol
_atom_site_label
_atom_site_fract_x
_atom_site_fract_y
_atom_site_fract_z
Si Si1 0.102380 0.314212 0.837020
Si Si2 0.165592 0.316136 0.673021
Si Si3 0.914831 0.684933 0.884997
Si Si4 0.560239 0.815971 0.178676
Si Si5 0.790488 0.315851 0.941151
Si Si6 0.340508 0.184710 0.471278
Si Si7 0.116498 0.685364 0.000245
Si Si8 0.866423 0.685256 0.351454
O O1 0.106901 0.500000 0.839801
O O2 0.224720 0.249667 0.932007
O O3 0.104052 0.265507 0.912842
O O4 0.967838 0.263897 0.652433
O O5 0.171783 0.500000 0.684576
O O6 0.271975 0.257509 0.739337
O O7 0.210179 0.247403 0.790858
O O8 0.014031 0.271863 0.492343
O O9 0.901106 0.500000 0.870054
O O10 0.992917 0.733795 0.907945
O O11 0.004878 0.726074 0.046581
O O12 0.701966 0.741895 0.345800
O O13 0.573674 0.000000 0.194947
O O14 0.443363 0.771481 0.098181
O O15 0.783242 0.500000 0.932422
O O16 0.351341 0.235217 0.409047
O O17 0.341260 0.000000 0.472110
O O18 0.118970 0.500000 0.004446
O O19 0.250243 0.745517 0.180522
O O20 0.856621 0.500000 0.339107
#
# Coordination Sequence:
#
# PCOD9131914 Si02
#       8
#     4   4   4   4   4   4   4   4
#     4  10  21  38  56  78 109 144 181 218 266 321
#     4  10  19  33  54  80 108 140 177 222 268 313
#     4   9  18  33  51  78 109 137 175 222 268 314
#     4   9  18  32  51  78 107 134 172 220 265 310
#     4  10  20  34  53  79 110 142 175 220 270 315
#     4  10  19  33  53  79 107 138 176 220 264 312
#     4  10  21  37  57  78 108 146 179 220 266 317
#     4  10  20  34  53  80 110 139 177 224 267 312
#
# _framework density 17.413132000000001
#
# number of rings (size 3 to 8) (size 9 to 14) (size 15 to 20)
#    0.000    2.250    2.500    1.500    0.000    5.000 
#    0.000    1.250    0.000    4.500    0.000    0.000 
#    0.000    0.000    0.000    0.000    0.000    0.000 
#
# Total GULP energy -89261.664552 kJ/mol
# GULP energy per Si atom -5578.854034 kJ/mol
# Density = 1.737350 g / cm^3
# Si number density = 17.413132 Si / 1000 Ang^3
#
#
#
# Elastic Constant Matrix: (Units=GPa)
#
#
# Indices 1 2 3 4 5 6 
#
# 1 169.1507 31.9366 88.1187 0.0000 15.8957 0.0000
# 2 31.9366 12.5167 23.5903 0.0000 3.6289 0.0000
# 3 88.1187 23.5903 114.9626 0.0000 12.4347 0.0000
# 4 0.0000 0.0000 0.0000 36.4341 0.0000 7.3543
# 5 15.8957 3.6289 12.4347 0.0000 30.8404 0.0000
# 6 0.0000 0.0000 0.0000 7.3543 0.0000 27.9225
#
#
#
# Elastic Compliance Matrix: (Units=1/GPa)
#
#
# Indices 1 2 3 4 5 6 
#
# 1 0.013169 -0.023491 -0.005059 0.000000 -0.001984 0.000000
# 2 -0.023491 0.172850 -0.017328 0.000000 -0.001244 0.000000
# 3 -0.005059 -0.017328 0.016342 0.000000 -0.001943 0.000000
# 4 0.000000 0.000000 0.000000 0.028988 0.000000 -0.007635
# 5 -0.001984 -0.001244 -0.001943 0.000000 0.034377 0.000000
# 6 0.000000 0.000000 0.000000 -0.007635 0.000000 0.037824
#
#
# Mechanical properties :
#
#
# Convention : Reuss Voigt Hill
#
# Bulk Modulus (GPa) = 9.04123 64.88014 36.96069
# Shear Modulus (GPa) = 11.56935 29.23837 20.40386
#
# Velocity S-wave (km/s) = 2.58040 4.10213 3.42680
# Velocity P-wave (km/s) = 3.75252 7.73154 6.07693
#
# Compressibility (1/GPa) = 0.11060439
#
# Stress axis : x y z
#
# Youngs Moduli (GPa) = 75.93528 5.78535 61.19105
#
# Poissons Ratio (x) = 0.13590 0.30958
# Poissons Ratio (y) = 1.78379 1.06035
# Poissons Ratio (z) = 0.38417 0.10025
#
# Static dielectric constant tensor:
#      x y z
#    x 1.595760 0.000000 0.012900 
#    y 0.000000 1.591830 0.000000 
#    z 0.012900 0.000000 1.569590 
# 
# From -- ./inp_files/15799.got.cif
#   From: 2010.05.17/outbox.cif.g08.bks.cpg/sg8_8_cif.got.tgz:15799.got - 2010.06.03 19:46:02.
