data_PCOD9131732
_publ_section_title
;
Structure prediction by ZEFSAII (Michael W. Deem and Ramdas Pophale) SiO2 
 PCOD9131732
Probable space group: C M
;
_chemical_formula_sum "Si O2"
_cell_formula_units_Z 28
_cell_length_a 24.648263
_cell_length_b 13.689077
_cell_length_c 5.069395
_cell_angle_alpha 90.000000
_cell_angle_beta 46.302917
_cell_angle_gamma 90.000000
_cell_volume 1236.677069
_symmetry_space_group_name_H-M "C M"
_symmetry_group_IT_number 8
_symmetry_cell_setting 'monoclinic'
loop_
_space_group_symop_operation_xyz
x,y,z
x,-y,z
1/2+x,1/2+y,z
1/2+x,1/2-y,z
loop_
_atom_site_type_symbol
_atom_site_label
_atom_site_fract_x
_atom_site_fract_y
_atom_site_fract_z
Si Si1 0.671440 0.802430 0.223900
Si Si2 0.009599 0.310137 0.649609
Si Si3 0.377023 0.615266 0.628800
Si Si4 0.165229 0.500000 0.359778
Si Si5 0.196079 0.811780 0.629010
Si Si6 0.350817 0.749393 0.235797
Si Si7 0.060086 0.500000 0.209930
Si Si8 0.537134 0.392718 0.266923
O O1 0.582915 0.818585 0.586132
O O2 0.709524 0.899380 0.210331
O O3 0.698266 0.714903 0.314345
O O4 0.676104 0.778477 0.898701
O O5 0.015630 0.400319 0.424116
O O6 0.021902 0.202280 0.491542
O O7 0.926808 0.308200 0.042419
O O8 0.358921 0.500000 0.716691
O O9 0.341208 0.671882 0.503097
O O10 0.469224 0.615300 0.283747
O O11 0.360635 0.682197 0.941156
O O12 0.126852 0.500000 0.201309
O O13 0.101935 0.500000 0.794100
O O14 0.281935 0.824455 0.428978
O O15 0.124790 0.882864 0.895257
O O16 0.526788 0.500000 0.427486
#
# Coordination Sequence:
#
# PCOD9131732 Si02
#       8
#     4   4   4   2   4   4   2   4
#     4  10  20  37  58  82 117 156 201 244 298 358
#     4   9  20  38  63  89 119 160 205 257 294 370
#     4  10  21  40  63  89 118 162 213 257 303 365
#     4  10  18  34  56  84 110 144 197 244 291 356
#     4  11  22  38  54  87 122 158 195 250 312 368
#     4  11  22  38  58  87 125 161 198 254 316 364
#     4  10  20  34  60  90 116 148 197 248 305 346
#     4   9  19  38  66  91 118 160 209 257 301 358
#
# _framework density 22.64132
#
# number of rings (size 3 to 8) (size 9 to 14) (size 15 to 20)
#    0.000    2.000    0.000    4.714    0.000    4.000 
#    9.000    5.714    0.000    0.000    0.000    0.000 
#    0.000    0.000    0.000    0.000    0.000    0.000 
#
# Total GULP energy -77989.898294 kJ/mol
# GULP energy per Si atom -5570.707021 kJ/mol
# Density = 2.258979 g / cm^3
# Si number density = 22.641320 Si / 1000 Ang^3
#
#
#
# Elastic Constant Matrix: (Units=GPa)
#
#
# Indices 1 2 3 4 5 6 
#
# 1 82.0615 2.0663 22.5747 0.0000 -11.9495 0.0000
# 2 2.0663 94.4847 12.8226 0.0000 4.2672 0.0000
# 3 22.5747 12.8226 74.8976 0.0000 -14.9359 0.0000
# 4 0.0000 0.0000 0.0000 26.1290 0.0000 -2.4791
# 5 -11.9495 4.2672 -14.9359 0.0000 52.7188 0.0000
# 6 0.0000 0.0000 0.0000 -2.4791 0.0000 22.7798
#
#
#
# Elastic Compliance Matrix: (Units=1/GPa)
#
#
# Indices 1 2 3 4 5 6 
#
# 1 0.013489 0.000115 -0.003686 0.000000 0.002004 0.000000
# 2 0.000115 0.010947 -0.002205 0.000000 -0.001485 0.000000
# 3 -0.003686 -0.002205 0.015590 0.000000 0.003760 0.000000
# 4 0.000000 0.000000 0.000000 0.038671 0.000000 0.004209
# 5 0.002004 -0.001485 0.003760 0.000000 0.020608 0.000000
# 6 0.000000 0.000000 0.000000 0.004209 0.000000 0.044357
#
#
# Mechanical properties :
#
#
# Convention : Reuss Voigt Hill
#
# Bulk Modulus (GPa) = 35.11936 36.26344 35.69140
# Shear Modulus (GPa) = 30.35734 34.59088 32.47411
#
# Velocity S-wave (km/s) = 3.66566 3.91292 3.79130
# Velocity P-wave (km/s) = 5.78454 6.03869 5.91298
#
# Compressibility (1/GPa) = 0.02847432
#
# Stress axis : x y z
#
# Youngs Moduli (GPa) = 74.13559 91.34509 64.14494
#
# Poissons Ratio (x) = -0.01048 0.23641
# Poissons Ratio (y) = -0.00850 0.14143
# Poissons Ratio (z) = 0.27324 0.20141
#
# Static dielectric constant tensor:
#      x y z
#    x 1.854890 0.000000 -0.091380 
#    y 0.000000 1.899580 0.000000 
#    z -0.091380 0.000000 1.943240 
# 
# From -- ./inp_files/6273.got.cif
#   From: 2010.05.17/outbox.cif.g08.bks.cpg/sg8_4_cif.got.tgz:6273.got - 2010.06.03 19:46:02.
