data_PCOD9131888
_publ_section_title
;
Structure prediction by ZEFSAII (Michael W. Deem and Ramdas Pophale) SiO2 
 PCOD9131888
Probable space group: C M
;
_chemical_formula_sum "Si O2"
_cell_formula_units_Z 32
_cell_length_a 20.693941
_cell_length_b 8.649598
_cell_length_c 25.693060
_cell_angle_alpha 90.000000
_cell_angle_beta 23.315499
_cell_angle_gamma 90.000000
_cell_volume 1820.220901
_symmetry_space_group_name_H-M "C M"
_symmetry_group_IT_number 8
_symmetry_cell_setting 'monoclinic'
loop_
_space_group_symop_operation_xyz
x,y,z
x,-y,z
1/2+x,1/2+y,z
1/2+x,1/2-y,z
loop_
_atom_site_type_symbol
_atom_site_label
_atom_site_fract_x
_atom_site_fract_y
_atom_site_fract_z
Si Si1 0.923550 0.186189 0.474690
Si Si2 0.701201 0.814330 0.545967
Si Si3 0.992240 0.685501 0.259597
Si Si4 0.392277 0.314941 0.227082
Si Si5 0.034975 0.813252 0.008950
Si Si6 0.026718 0.186831 0.509644
Si Si7 0.213511 0.686313 0.189921
Si Si8 0.390826 0.685259 0.722146
O O1 0.772259 0.232439 0.549925
O O2 0.926136 0.235935 0.532744
O O3 0.085666 0.248886 0.326565
O O4 0.930468 0.000000 0.468609
O O5 0.523221 0.752105 0.664353
O O6 0.829691 0.746521 0.409032
O O7 0.703222 0.000000 0.540692
O O8 0.983555 0.500000 0.263192
O O9 0.142950 0.730645 0.185635
O O10 0.995209 0.754771 0.199995
O O11 0.382998 0.500000 0.235504
O O12 0.469329 0.269225 0.114799
O O13 0.210208 0.248291 0.367854
O O14 0.895251 0.765034 0.071046
O O15 0.048025 0.000000 0.997909
O O16 0.209618 0.741779 0.868097
O O17 0.947813 0.237489 0.622303
O O18 0.033733 0.000000 0.505169
O O19 0.207359 0.500000 0.197666
O O20 0.397385 0.500000 0.718869
#
# Coordination Sequence:
#
# PCOD9131888 Si02
#       8
#     4   4   4   4   4   4   4   4
#     4   9  18  32  54  82 109 139 177 224 274 319
#     4  10  19  33  54  80 111 145 181 223 271 322
#     4  10  19  32  54  82 112 142 177 226 274 321
#     4  11  21  34  56  83 109 141 184 228 273 322
#     4  10  22  39  56  78 109 146 185 225 272 327
#     4  10  20  35  55  81 111 140 179 228 273 320
#     4   9  18  34  54  78 109 143 179 221 271 322
#     4  11  23  37  55  80 110 148 186 223 274 329
#
# _framework density 17.580283999999999
#
# number of rings (size 3 to 8) (size 9 to 14) (size 15 to 20)
#    0.000    2.000    2.500    1.500    0.000    3.000 
#    0.000    1.250    0.000    4.500    0.000    0.000 
#    0.000    0.000    0.000    0.000    0.000    0.000 
#
# Total GULP energy -89285.801599 kJ/mol
# GULP energy per Si atom -5580.362600 kJ/mol
# Density = 1.754027 g / cm^3
# Si number density = 17.580284 Si / 1000 Ang^3
#
#
#
# Elastic Constant Matrix: (Units=GPa)
#
#
# Indices 1 2 3 4 5 6 
#
# 1 147.8517 28.4251 76.1799 0.0022 -18.3103 -0.0004
# 2 28.4251 17.3149 24.6210 0.0040 -1.4579 -0.0006
# 3 76.1799 24.6210 122.3551 0.0034 -15.6107 -0.0009
# 4 0.0022 0.0040 0.0034 27.8925 -0.0001 -1.3718
# 5 -18.3103 -1.4579 -15.6107 -0.0001 29.1961 -0.0001
# 6 -0.0004 -0.0006 -0.0009 -1.3718 -0.0001 22.0281
#
#
#
# Elastic Compliance Matrix: (Units=1/GPa)
#
#
# Indices 1 2 3 4 5 6 
#
# 1 0.012113 -0.013468 -0.004237 0.000001 0.004658 0.000000
# 2 -0.013468 0.096565 -0.012351 -0.000011 -0.010228 0.000001
# 3 -0.004237 -0.012351 0.013822 0.000000 0.004116 0.000000
# 4 0.000001 -0.000011 0.000000 0.035962 0.000001 0.002239
# 5 0.004658 -0.010228 0.004116 0.000001 0.038863 0.000000
# 6 0.000000 0.000001 0.000000 0.002239 0.000000 0.045536
#
#
# Mechanical properties :
#
#
# Convention : Reuss Voigt Hill
#
# Bulk Modulus (GPa) = 16.02894 60.66375 38.34635
# Shear Modulus (GPa) = 15.44314 26.37638 20.90976
#
# Velocity S-wave (km/s) = 2.96706 3.87762 3.45249
# Velocity P-wave (km/s) = 4.56895 7.39118 6.14430
#
# Compressibility (1/GPa) = 0.06238714
#
# Stress axis : x y z
#
# Youngs Moduli (GPa) = 82.55649 10.35573 72.35058
#
# Poissons Ratio (x) = 0.13947 0.30657
# Poissons Ratio (y) = 1.11186 0.89360
# Poissons Ratio (z) = 0.34981 0.12790
#
# Static dielectric constant tensor:
#      x y z
#    x 1.634390 0.000000 -0.013940 
#    y 0.000000 1.593500 0.000000 
#    z -0.013940 0.000000 1.553370 
# 
# From -- ./inp_files/15780.got.cif
#   From: 2010.05.17/outbox.cif.g08.bks.cpg/sg8_8_cif.got.tgz:15780.got - 2010.06.03 19:46:02.
