data_PCOD9131226
_publ_section_title
;
Structure prediction by ZEFSAII (Michael W. Deem and Ramdas Pophale) SiO2 
 PCOD9131226
Probable space group: P C
;
_chemical_formula_sum "Si O2"
_cell_formula_units_Z 16
_cell_length_a 10.233274
_cell_length_b 14.696987
_cell_length_c 5.491405
_cell_angle_alpha 90.000000
_cell_angle_beta 119.693839
_cell_angle_gamma 90.000000
_cell_volume 717.444983
_symmetry_space_group_name_H-M "P C"
_symmetry_group_IT_number 7
_symmetry_cell_setting 'monoclinic'
loop_
_space_group_symop_operation_xyz
x,y,z
x,-y,1/2+z
loop_
_atom_site_type_symbol
_atom_site_label
_atom_site_fract_x
_atom_site_fract_y
_atom_site_fract_z
Si Si1 0.728620 0.637963 0.967300
Si Si2 0.354339 0.051938 0.144257
Si Si3 0.289667 0.254530 0.083058
Si Si4 0.802854 0.323870 0.036605
Si Si5 0.110427 0.224947 0.419386
Si Si6 0.432615 0.548479 0.773653
Si Si7 0.022482 0.017448 0.346506
Si Si8 0.997545 0.507220 0.173512
O O1 0.691985 0.675372 0.665031
O O2 0.614088 0.558468 0.929593
O O3 0.733975 0.700866 0.210956
O O4 0.896963 0.597495 0.087616
O O5 0.384960 0.160060 0.163761
O O6 0.401280 0.001520 0.439868
O O7 0.170295 0.046962 0.979105
O O8 0.196416 0.251126 0.250503
O O9 0.378368 0.348750 0.177775
O O10 0.190226 0.256320 0.742972
O O11 0.877697 0.424284 0.068125
O O12 0.942475 0.261778 0.236158
O O13 0.093213 0.116966 0.414638
O O14 0.392001 0.487005 0.503875
O O15 0.936787 0.998946 0.516782
O O16 0.085772 0.500220 0.505092
#
# Coordination Sequence:
#
# PCOD9131226 Si02
#       8
#     2   2   2   2   2   2   2   2
#     4  10  19  38  60  77 100 140 211 258 274 322
#     4  10  16  32  56  84 113 145 202 245 275 347
#     4  12  23  37  58  88 127 159 195 240 309 366
#     4  10  20  32  54  85 105 141 181 243 295 325
#     4  12  21  35  55  89 131 148 184 244 300 379
#     4  12  25  43  62  83 115 163 211 254 293 346
#     4  10  16  30  53  81 114 149 193 230 278 347
#     4   8  14  27  46  67  87 117 171 224 260 292
#
# _framework density 22.301359000000001
#
# number of rings (size 3 to 8) (size 9 to 14) (size 15 to 20)
#    0.000    1.500    5.000    4.500    0.000    0.000 
#    0.000   11.250    0.000    0.000    0.000    5.250 
#    0.000    0.000    0.000    0.000    0.000    0.000 
#
# Total GULP energy -89279.437593 kJ/mol
# GULP energy per Si atom -5579.964850 kJ/mol
# Density = 2.225060 g / cm^3
# Si number density = 22.301359 Si / 1000 Ang^3
#
#
#
# Elastic Constant Matrix: (Units=GPa)
#
#
# Indices 1 2 3 4 5 6 
#
# 1 60.2354 13.7276 54.1257 0.0000 -41.2903 0.0000
# 2 13.7276 97.0749 29.2732 0.0000 -9.2173 0.0000
# 3 54.1257 29.2732 148.9767 0.0000 -65.1328 0.0000
# 4 0.0000 0.0000 0.0000 20.7147 0.0000 -12.2649
# 5 -41.2903 -9.2173 -65.1328 0.0000 56.5453 0.0000
# 6 0.0000 0.0000 0.0000 -12.2649 0.0000 7.0515
#
#
#
# Elastic Compliance Matrix: (Units=1/GPa)
#
#
# Indices 1 2 3 4 5 6 
#
# 1 0.034261 -0.002014 -0.002533 0.000000 0.021771 0.000000
# 2 -0.002014 0.011124 -0.002627 0.000000 -0.002684 0.000000
# 3 -0.002533 -0.002627 0.014410 0.000000 0.014320 0.000000
# 4 0.000000 0.000000 0.000000 -1.618429 0.000000 -2.814967
# 5 0.021771 -0.002684 0.014320 0.000000 0.049640 0.000000
# 6 0.000000 0.000000 0.000000 -2.814967 0.000000 -4.754318
#
#
# Mechanical properties :
#
#
# Convention : Reuss Voigt Hill
#
# Bulk Modulus (GPa) = 22.00444 55.61558 38.81001
# Shear Modulus (GPa) = -0.80208 30.80634 15.00213
#
# Velocity S-wave (km/s) = -0.60036 3.72071 2.59646
# Velocity P-wave (km/s) = 3.06720 6.59170 5.14093
#
# Compressibility (1/GPa) = 0.04544537
#
# Stress axis : x y z
#
# Youngs Moduli (GPa) = 29.18794 89.89910 69.39640
#
# Poissons Ratio (x) = 0.18104 0.17580
# Poissons Ratio (y) = 0.05878 0.18233
# Poissons Ratio (z) = 0.07394 0.23620
#
# Static dielectric constant tensor:
#      x y z
#    x 1.834670 0.000000 -0.071350 
#    y 0.000000 1.793950 0.000000 
#    z -0.071350 0.000000 1.924140 
# 
# From -- ./inp_files/675.got.cif
#   From: 2010.05.17/outbox.cif.g08.bks.cpg/sg7_cif.got.tgz:675.got - 2010.06.03 19:44:50.
