data_PCOD9131169
_publ_section_title
;
Structure prediction by ZEFSAII (Michael W. Deem and Ramdas Pophale) SiO2 
 PCOD9131169
Probable space group: P M
;
_chemical_formula_sum "Si O2"
_cell_formula_units_Z 12
_cell_length_a 5.044726
_cell_length_b 17.560414
_cell_length_c 5.134639
_cell_angle_alpha 90.000000
_cell_angle_beta 89.573544
_cell_angle_gamma 90.000000
_cell_volume 454.852115
_symmetry_space_group_name_H-M "P M"
_symmetry_group_IT_number 6
_symmetry_cell_setting 'monoclinic'
loop_
_space_group_symop_operation_xyz
x,y,z
x,-y,z
loop_
_atom_site_type_symbol
_atom_site_label
_atom_site_fract_x
_atom_site_fract_y
_atom_site_fract_z
Si Si1 0.438260 0.126338 0.029230
Si Si2 0.695068 0.745117 0.761928
Si Si3 0.080934 0.000000 0.838914
Si Si4 0.198849 0.719068 0.072391
Si Si5 0.596368 0.371875 0.394213
Si Si6 0.963705 0.500000 0.199862
Si Si7 0.340559 0.500000 0.698565
Si Si8 0.725864 0.000000 0.340455
O O1 0.266066 0.194223 0.161493
O O2 0.558617 0.073714 0.253178
O O3 0.663846 0.167034 0.848088
O O4 0.264908 0.074485 0.838279
O O5 0.749336 0.704913 0.487801
O O6 0.396687 0.718067 0.821980
O O7 0.910409 0.713037 0.957950
O O8 0.855134 0.000000 0.622677
O O9 0.961360 0.000000 0.128620
O O10 0.328486 0.657461 0.259169
O O11 0.770347 0.427122 0.212648
O O12 0.522797 0.426908 0.636825
O O13 0.128120 0.500000 0.466008
O O14 0.173081 0.500000 0.963178
#
# Coordination Sequence:
#
# PCOD9131169 Si02
#       8
#     2   2   1   2   2   1   1   1
#     4   9  24  42  72 113 150 204 266 325 390 476
#     4  10  25  45  75 111 153 201 265 327 396 464
#     4  11  24  45  74 108 159 206 257 320 395 469
#     4  10  25  45  75 111 153 201 265 327 396 464
#     4  11  28  48  80 113 160 206 272 331 404 482
#     4  11  30  49  81 114 162 210 266 328 408 486
#     4  11  30  49  81 114 162 210 266 328 408 486
#     4  11  24  45  74 108 159 206 257 320 395 469
#
# _framework density 26.382197999999999
#
# number of rings (size 3 to 8) (size 9 to 14) (size 15 to 20)
#    1.000    0.667    0.000    1.000    9.333    9.333 
#    0.000    2.500    0.000    0.000    0.000    0.000 
#    0.000    0.000    0.000    0.000    0.000    0.000 
#
# Total GULP energy -67115.446713 kJ/mol
# GULP energy per Si atom -5592.953893 kJ/mol
# Density = 2.632215 g / cm^3
# Si number density = 26.382198 Si / 1000 Ang^3
#
#
#
# Elastic Constant Matrix: (Units=GPa)
#
#
# Indices 1 2 3 4 5 6 
#
# 1 77.4139 28.7035 33.8474 0.0000 -5.0920 0.0000
# 2 28.7035 145.5578 26.6489 0.0000 13.0038 0.0000
# 3 33.8474 26.6489 97.4780 0.0000 7.3977 0.0000
# 4 0.0000 0.0000 0.0000 16.2156 0.0000 6.0932
# 5 -5.0920 13.0038 7.3977 0.0000 45.2256 0.0000
# 6 0.0000 0.0000 0.0000 6.0932 0.0000 42.1475
#
#
#
# Elastic Compliance Matrix: (Units=1/GPa)
#
#
# Indices 1 2 3 4 5 6 
#
# 1 0.016396 -0.002580 -0.005249 0.000000 0.003447 0.000000
# 2 -0.002580 0.007782 -0.001053 0.000000 -0.002356 0.000000
# 3 -0.005249 -0.001053 0.012547 0.000000 -0.002341 0.000000
# 4 0.000000 0.000000 0.000000 0.065212 0.000000 -0.009428
# 5 0.003447 -0.002356 -0.002341 0.000000 0.023560 0.000000
# 6 0.000000 0.000000 0.000000 -0.009428 0.000000 0.025089
#
#
# Mechanical properties :
#
#
# Convention : Reuss Voigt Hill
#
# Bulk Modulus (GPa) = 52.74130 55.42769 54.08449
# Shear Modulus (GPa) = 28.62533 36.13441 32.37987
#
# Velocity S-wave (km/s) = 3.29754 3.70489 3.50714
# Velocity P-wave (km/s) = 5.87648 6.27350 6.07823
#
# Compressibility (1/GPa) = 0.01896047
#
# Stress axis : x y z
#
# Youngs Moduli (GPa) = 60.99002 128.49957 79.70053
#
# Poissons Ratio (x) = 0.33154 0.41838
# Poissons Ratio (y) = 0.15736 0.08391
# Poissons Ratio (z) = 0.32016 0.13529
#
# Static dielectric constant tensor:
#      x y z
#    x 2.115310 0.000000 -0.065840 
#    y 0.000000 2.166900 0.000000 
#    z -0.065840 0.000000 2.039340 
# 
# From -- ./inp_files/497.got.cif
#   From: 2010.05.17/outbox.cif.g08.bks.cpg/sg6_1_cif.got.tgz:497.got - 2010.06.03 19:42:10.
