data_PCOD9131784
_publ_section_title
;
Structure prediction by ZEFSAII (Michael W. Deem and Ramdas Pophale) SiO2 
 PCOD9131784
Probable space group: C M
;
_chemical_formula_sum "Si O2"
_cell_formula_units_Z 32
_cell_length_a 16.069259
_cell_length_b 17.693194
_cell_length_c 12.071669
_cell_angle_alpha 90.000000
_cell_angle_beta 152.354003
_cell_angle_gamma 90.000000
_cell_volume 1592.554301
_symmetry_space_group_name_H-M "C M"
_symmetry_group_IT_number 8
_symmetry_cell_setting 'monoclinic'
loop_
_space_group_symop_operation_xyz
x,y,z
x,-y,z
1/2+x,1/2+y,z
1/2+x,1/2-y,z
loop_
_atom_site_type_symbol
_atom_site_label
_atom_site_fract_x
_atom_site_fract_y
_atom_site_fract_z
Si Si1 0.919850 0.835199 0.985770
Si Si2 0.319596 0.172234 0.522342
Si Si3 0.926263 0.329974 0.900392
Si Si4 0.663867 0.589389 0.743101
Si Si5 0.821817 0.910048 0.646121
Si Si6 0.336493 0.334835 0.431768
Si Si7 0.555042 0.089948 0.633204
Si Si8 0.920189 0.591126 0.240015
O O1 0.897714 0.745953 0.938927
O O2 0.925701 0.872968 0.870575
O O3 0.746717 0.869371 0.843358
O O4 0.110093 0.849142 0.267947
O O5 0.372228 0.186115 0.710835
O O6 0.345832 0.248040 0.480394
O O7 0.449782 0.111393 0.619371
O O8 0.802619 0.393950 0.808564
O O9 0.135354 0.350381 0.154607
O O10 0.624866 0.500000 0.704351
O O11 0.485253 0.638710 0.520569
O O12 0.764240 0.616454 0.974473
O O13 0.875040 0.882888 0.588201
O O14 0.613073 0.887417 0.416574
O O15 0.836301 0.000000 0.671843
O O16 0.431189 0.113892 0.381287
O O17 0.584118 0.000000 0.658796
O O18 0.910863 0.500000 0.227277
#
# Coordination Sequence:
#
# PCOD9131784 Si02
#       8
#     4   4   4   4   4   4   4   4
#     4  10  22  41  64  93 123 167 215 257 317 372
#     4  11  25  42  63  93 129 173 211 250 314 391
#     4  11  24  43  62  90 133 171 208 257 314 384
#     4  11  23  38  62  93 124 167 213 260 315 372
#     4  10  18  36  65  93 124 153 204 271 314 355
#     4  11  23  40  62  94 124 166 216 258 314 370
#     4  10  22  40  63  93 126 163 209 266 316 365
#     4   8  17  34  59  91 122 152 200 265 315 349
#
# _framework density 20.093506999999999
#
# number of rings (size 3 to 8) (size 9 to 14) (size 15 to 20)
#    0.000    1.750    2.500    2.250    1.750    3.000 
#    0.000    1.250    0.000    0.000    0.000    0.000 
#    0.000    0.000    0.000    0.000    0.000    0.000 
#
# Total GULP energy -89376.761207 kJ/mol
# GULP energy per Si atom -5586.047575 kJ/mol
# Density = 2.004777 g / cm^3
# Si number density = 20.093507 Si / 1000 Ang^3
#
#
#
# Elastic Constant Matrix: (Units=GPa)
#
#
# Indices 1 2 3 4 5 6 
#
# 1 54.6500 9.1766 48.8568 0.0000 10.3407 0.0000
# 2 9.1766 45.8040 26.1854 0.0000 11.3347 0.0000
# 3 48.8568 26.1854 98.3179 0.0000 13.5959 0.0000
# 4 0.0000 0.0000 0.0000 18.8542 0.0000 0.8649
# 5 10.3407 11.3347 13.5959 0.0000 17.8322 0.0000
# 6 0.0000 0.0000 0.0000 0.8649 0.0000 32.1629
#
#
#
# Elastic Compliance Matrix: (Units=1/GPa)
#
#
# Indices 1 2 3 4 5 6 
#
# 1 0.034864 0.005531 -0.017345 0.000000 -0.010509 0.000000
# 2 0.005531 0.029368 -0.008435 0.000000 -0.015444 0.000000
# 3 -0.017345 -0.008435 0.021133 0.000000 -0.000693 0.000000
# 4 0.000000 0.000000 0.000000 0.053104 0.000000 -0.001428
# 5 -0.010509 -0.015444 -0.000693 0.000000 0.072517 0.000000
# 6 0.000000 0.000000 0.000000 -0.001428 0.000000 0.031130
#
#
# Mechanical properties :
#
#
# Convention : Reuss Voigt Hill
#
# Bulk Modulus (GPa) = 22.28764 40.80107 31.54435
# Shear Modulus (GPa) = 16.80291 21.40675 19.10483
#
# Velocity S-wave (km/s) = 2.89491 3.26752 3.08684
# Velocity P-wave (km/s) = 4.72123 5.88092 5.33270
#
# Compressibility (1/GPa) = 0.04486793
#
# Stress axis : x y z
#
# Youngs Moduli (GPa) = 28.68273 34.05111 47.32045
#
# Poissons Ratio (x) = -0.18835 0.82077
# Poissons Ratio (y) = -0.15866 0.39913
# Poissons Ratio (z) = 0.49750 0.28721
#
# Static dielectric constant tensor:
#      x y z
#    x 1.713760 0.000000 0.009690 
#    y 0.000000 1.708260 0.000000 
#    z 0.009690 0.000000 1.706410 
# 
# From -- ./inp_files/22403.got.cif
#   From: 2010.05.17/outbox.cif.g08.bks.cpg/sg8_12_cif.got.tgz:22403.got - 2010.06.03 19:46:02.
