data_PCOD9131837
_publ_section_title
;
Structure prediction by ZEFSAII (Michael W. Deem and Ramdas Pophale) SiO2 
 PCOD9131837
Probable space group: C M
;
_chemical_formula_sum "Si O2"
_cell_formula_units_Z 32
_cell_length_a 20.809218
_cell_length_b 8.486277
_cell_length_c 12.619265
_cell_angle_alpha 90.000000
_cell_angle_beta 53.878576
_cell_angle_gamma 90.000000
_cell_volume 1800.091094
_symmetry_space_group_name_H-M "C M"
_symmetry_group_IT_number 8
_symmetry_cell_setting 'monoclinic'
loop_
_space_group_symop_operation_xyz
x,y,z
x,-y,z
1/2+x,1/2+y,z
1/2+x,1/2-y,z
loop_
_atom_site_type_symbol
_atom_site_label
_atom_site_fract_x
_atom_site_fract_y
_atom_site_fract_z
Si Si1 0.368990 0.688561 0.403620
Si Si2 0.891261 0.690481 0.942238
Si Si3 0.634013 0.809624 0.440206
Si Si4 0.341066 0.311030 0.768100
Si Si5 0.312182 0.188469 0.238044
Si Si6 0.476907 0.188858 0.478112
Si Si7 0.572019 0.192204 0.733651
Si Si8 0.226457 0.308426 0.699443
O O1 0.371522 0.500000 0.402347
O O2 0.359382 0.747870 0.294077
O O3 0.443129 0.752730 0.398911
O O4 0.289882 0.737728 0.546785
O O5 0.892021 0.500000 0.941378
O O6 0.846085 0.745960 0.881071
O O7 0.982832 0.745734 0.844057
O O8 0.850556 0.744263 0.090397
O O9 0.720723 0.741436 0.335465
O O10 0.566565 0.763533 0.420826
O O11 0.601286 0.762148 0.587911
O O12 0.640478 0.000000 0.434331
O O13 0.341926 0.500000 0.769772
O O14 0.417425 0.254485 0.626143
O O15 0.264428 0.258266 0.773952
O O16 0.315651 0.000000 0.236959
O O17 0.472828 0.000000 0.486025
O O18 0.638936 0.245606 0.752008
O O19 0.570749 0.000000 0.736239
O O20 0.225039 0.500000 0.701198
#
# Coordination Sequence:
#
# PCOD9131837 Si02
#       8
#     4   4   4   4   4   4   4   4
#     4  10  19  34  55  80 110 144 183 224 275 331
#     4  10  21  37  55  76 108 149 182 220 276 331
#     4  10  19  34  58  81 105 144 187 227 273 327
#     4  10  19  31  51  81 111 141 179 224 275 327
#     4  11  23  36  53  80 114 148 185 229 279 329
#     4  10  19  33  55  83 111 141 183 230 277 325
#     4   9  15  31  56  78 100 134 182 224 265 319
#     4   8  15  28  51  79 101 127 171 222 264 309
#
# _framework density 17.776876999999999
#
# number of rings (size 3 to 8) (size 9 to 14) (size 15 to 20)
#    0.000    2.250    2.500    2.250    0.000    2.000 
#    0.000    1.250    0.000    3.000    0.000    0.000 
#    0.000    0.000    0.000    0.000    0.000    0.000 
#
# Total GULP energy -89253.918403 kJ/mol
# GULP energy per Si atom -5578.369900 kJ/mol
# Density = 1.773642 g / cm^3
# Si number density = 17.776877 Si / 1000 Ang^3
#
#
#
# Elastic Constant Matrix: (Units=GPa)
#
#
# Indices 1 2 3 4 5 6 
#
# 1 174.7297 27.6095 86.4431 0.0000 20.6712 0.0000
# 2 27.6095 23.1508 22.6086 0.0000 3.4634 0.0000
# 3 86.4431 22.6086 123.5340 0.0000 15.7258 0.0000
# 4 0.0000 0.0000 0.0000 19.7595 0.0000 3.1866
# 5 20.6712 3.4634 15.7258 0.0000 28.1105 0.0000
# 6 0.0000 0.0000 0.0000 3.1866 0.0000 28.5018
#
#
#
# Elastic Compliance Matrix: (Units=1/GPa)
#
#
# Indices 1 2 3 4 5 6 
#
# 1 0.009651 -0.005878 -0.005240 0.000000 -0.003442 0.000000
# 2 -0.005878 0.056212 -0.006291 0.000000 0.000916 0.000000
# 3 -0.005240 -0.006291 0.013268 0.000000 -0.002795 0.000000
# 4 0.000000 0.000000 0.000000 0.051538 0.000000 -0.005762
# 5 -0.003442 0.000916 -0.002795 0.000000 0.039555 0.000000
# 6 0.000000 0.000000 0.000000 -0.005762 0.000000 0.035730
#
#
# Mechanical properties :
#
#
# Convention : Reuss Voigt Hill
#
# Bulk Modulus (GPa) = 22.56618 66.08189 44.32404
# Shear Modulus (GPa) = 19.56612 27.59124 23.57868
#
# Velocity S-wave (km/s) = 3.32120 3.94393 3.64588
# Velocity P-wave (km/s) = 5.23726 7.61532 6.53536
#
# Compressibility (1/GPa) = 0.04431410
#
# Stress axis : x y z
#
# Youngs Moduli (GPa) = 103.61326 17.78978 75.36691
#
# Poissons Ratio (x) = 0.10457 0.39489
# Poissons Ratio (y) = 0.60907 0.47413
# Poissons Ratio (z) = 0.54289 0.11191
#
# Static dielectric constant tensor:
#      x y z
#    x 1.622590 0.000000 0.004490 
#    y 0.000000 1.613600 0.000000 
#    z 0.004490 0.000000 1.580660 
# 
# From -- ./inp_files/23736.got.cif
#   From: 2010.05.17/outbox.cif.g08.bks.cpg/sg8_12_cif.got.tgz:23736.got - 2010.06.03 19:46:02.
