data_PCOD9131919
_publ_section_title
;
Structure prediction by ZEFSAII (Michael W. Deem and Ramdas Pophale) SiO2 
 PCOD9131919
Probable space group: C M
;
_chemical_formula_sum "Si O2"
_cell_formula_units_Z 24
_cell_length_a 8.522120
_cell_length_b 19.667586
_cell_length_c 12.681925
_cell_angle_alpha 90.000000
_cell_angle_beta 146.417253
_cell_angle_gamma 90.000000
_cell_volume 1175.762242
_symmetry_space_group_name_H-M "C M"
_symmetry_group_IT_number 8
_symmetry_cell_setting 'monoclinic'
loop_
_space_group_symop_operation_xyz
x,y,z
x,-y,z
1/2+x,1/2+y,z
1/2+x,1/2-y,z
loop_
_atom_site_type_symbol
_atom_site_label
_atom_site_fract_x
_atom_site_fract_y
_atom_site_fract_z
Si Si1 0.740940 0.835613 0.177010
Si Si2 0.168202 0.073675 0.501271
Si Si3 0.035184 0.335501 0.836088
Si Si4 0.291519 0.421787 0.805355
Si Si5 0.833411 0.806603 0.671973
Si Si6 0.242475 0.732312 0.395644
O O1 0.647861 0.806310 0.237173
O O2 0.889913 0.907450 0.282983
O O3 0.995340 0.785242 0.285226
O O4 0.541759 0.840220 0.964904
O O5 0.245917 0.132398 0.627613
O O6 0.452980 0.073601 0.589994
O O7 0.151828 0.000000 0.543458
O O8 0.044560 0.257181 0.807064
O O9 0.273153 0.380727 0.907354
O O10 0.395143 0.500000 0.870852
O O11 0.417405 0.371948 0.787705
O O12 0.530161 0.776396 0.542523
O O13 0.788328 0.815767 0.522488
#
# Coordination Sequence:
#
# PCOD9131919 Si02
#       6
#     4   4   4   4   4   4
#     4  11  21  33  54  87 108 144 186 236 276 334
#     4   9  18  35  54  77 110 149 185 222 278 336
#     4  10  20  32  59  82 112 143 194 229 276 325
#     4   9  18  35  56  81 110 148 184 222 280 338
#     4  11  17  36  57  80 112 147 187 235 273 336
#     4  10  19  33  54  79 113 141 182 232 284 321
#
# _framework density 20.412289999999999
#
# number of rings (size 3 to 8) (size 9 to 14) (size 15 to 20)
#    1.000    1.000    6.667    0.000    2.333    1.333 
#    0.000    0.833    0.000    0.000    0.000    0.000 
#    0.000    0.000    0.000    0.000    0.000    0.000 
#
# Total GULP energy -66815.546384 kJ/mol
# GULP energy per Si atom -5567.962199 kJ/mol
# Density = 2.036583 g / cm^3
# Si number density = 20.412290 Si / 1000 Ang^3
#
#
#
# Elastic Constant Matrix: (Units=GPa)
#
#
# Indices 1 2 3 4 5 6 
#
# 1 71.9939 32.3285 15.4451 0.0005 -34.0676 0.0005
# 2 32.3285 144.7205 26.0923 0.0000 -24.4679 -0.0001
# 3 15.4451 26.0923 78.0087 0.0005 -34.7300 0.0009
# 4 0.0005 0.0000 0.0005 9.5547 0.0006 -5.6827
# 5 -34.0676 -24.4679 -34.7300 0.0006 35.2160 0.0008
# 6 0.0005 -0.0001 0.0009 -5.6827 0.0008 23.6284
#
#
#
# Elastic Compliance Matrix: (Units=1/GPa)
#
#
# Indices 1 2 3 4 5 6 
#
# 1 0.032463 -0.002409 0.013575 -0.000008 0.043118 -0.000004
# 2 -0.002409 0.008014 -0.001359 0.000000 0.001897 0.000000
# 3 0.013575 -0.001359 0.028545 -0.000007 0.040339 -0.000004
# 4 -0.000008 0.000000 -0.000007 0.122131 -0.000018 0.029373
# 5 0.043118 0.001897 0.040339 -0.000018 0.111209 -0.000010
# 6 -0.000004 0.000000 -0.000004 0.029373 -0.000010 0.049386
#
#
# Mechanical properties :
#
#
# Convention : Reuss Voigt Hill
#
# Bulk Modulus (GPa) = 11.28211 49.16168 30.22189
# Shear Modulus (GPa) = 13.82436 28.40363 21.11399
#
# Velocity S-wave (km/s) = 2.60524 3.73432 3.21966
# Velocity P-wave (km/s) = 3.81953 6.53683 5.35346
#
# Compressibility (1/GPa) = 0.08863592
#
# Stress axis : x y z
#
# Youngs Moduli (GPa) = 30.80404 124.78448 35.03210
#
# Poissons Ratio (x) = 0.30065 -0.47556
# Poissons Ratio (y) = 0.07422 0.04760
# Poissons Ratio (z) = -0.41816 0.16956
#
# Static dielectric constant tensor:
#      x y z
#    x 1.779710 0.000000 0.025500 
#    y 0.000000 1.746370 0.000000 
#    z 0.025500 0.000000 1.734810 
# 
# From -- ./inp_files/8427.got.cif
#   From: 2010.05.17/outbox.cif.g08.bks.cpg/sg8_5_cif.got.tgz:8427.got - 2010.06.03 19:46:02.
