data_PCOD9131778
_publ_section_title
;
Structure prediction by ZEFSAII (Michael W. Deem and Ramdas Pophale) SiO2 
 PCOD9131778
Probable space group: C M
;
_chemical_formula_sum "Si O2"
_cell_formula_units_Z 32
_cell_length_a 16.659711
_cell_length_b 16.775423
_cell_length_c 10.430131
_cell_angle_alpha 90.000000
_cell_angle_beta 143.206241
_cell_angle_gamma 90.000000
_cell_volume 1745.867963
_symmetry_space_group_name_H-M "C M"
_symmetry_group_IT_number 8
_symmetry_cell_setting 'monoclinic'
loop_
_space_group_symop_operation_xyz
x,y,z
x,-y,z
1/2+x,1/2+y,z
1/2+x,1/2-y,z
loop_
_atom_site_type_symbol
_atom_site_label
_atom_site_fract_x
_atom_site_fract_y
_atom_site_fract_z
Si Si1 0.442550 0.595737 0.974810
Si Si2 0.371273 0.096930 0.860614
Si Si3 0.214685 0.838864 0.414520
Si Si4 0.146520 0.596123 0.609511
Si Si5 0.870744 0.596390 0.369592
Si Si6 0.438100 0.595464 0.674496
Si Si7 0.148923 0.346944 0.320977
Si Si8 0.207011 0.096341 0.900969
O O1 0.437684 0.500000 0.963638
O O2 0.296601 0.624125 0.835394
O O3 0.459571 0.624407 0.848937
O O4 0.569684 0.619621 0.219643
O O5 0.299357 0.130793 0.643291
O O6 0.282409 0.122836 0.869861
O O7 0.378046 0.000000 0.864618
O O8 0.519903 0.131597 0.071974
O O9 0.298005 0.862225 0.394503
O O10 0.181617 0.745828 0.374936
O O11 0.145259 0.500000 0.611937
O O12 0.123127 0.619351 0.431347
O O13 0.024239 0.622231 0.542422
O O14 0.865382 0.500000 0.381949
O O15 0.792021 0.614014 0.137209
O O16 0.451161 0.500000 0.695962
O O17 0.286258 0.614785 0.444311
O O18 0.555893 0.625900 0.733157
O O19 0.202302 0.000000 0.885277
#
# Coordination Sequence:
#
# PCOD9131778 Si02
#       8
#     4   4   4   4   4   4   4   4
#     4   9  17  33  58  84 111 148 196 247 293 347
#     4  11  23  41  62  88 122 164 204 250 305 368
#     4  12  25  36  57  90 130 158 189 248 317 366
#     4   9  18  36  66  88 107 151 214 259 284 348
#     4  10  18  36  62  90 114 154 212 254 287 355
#     4   9  17  34  61  84 106 147 203 252 282 343
#     4  11  23  37  57  87 126 157 196 242 311 367
#     4   9  17  33  61  87 109 147 208 254 284 342
#
# _framework density 18.328992
#
# number of rings (size 3 to 8) (size 9 to 14) (size 15 to 20)
#    0.000    2.000    2.500    3.000    3.500    0.000 
#    2.250    1.250    0.000    3.000    0.000    0.000 
#    0.000    0.000    0.000    0.000    0.000    0.000 
#
# Total GULP energy -89248.214593 kJ/mol
# GULP energy per Si atom -5578.013412 kJ/mol
# Density = 1.828727 g / cm^3
# Si number density = 18.328992 Si / 1000 Ang^3
#
#
#
# Elastic Constant Matrix: (Units=GPa)
#
#
# Indices 1 2 3 4 5 6 
#
# 1 99.9899 20.7413 63.3519 0.0000 14.9123 0.0000
# 2 20.7413 26.7366 21.5665 0.0000 5.7554 0.0000
# 3 63.3519 21.5665 156.1593 0.0000 15.8637 0.0000
# 4 0.0000 0.0000 0.0000 15.8754 0.0000 -0.8064
# 5 14.9123 5.7554 15.8637 0.0000 32.9760 0.0000
# 6 0.0000 0.0000 0.0000 -0.8064 0.0000 8.0505
#
#
#
# Elastic Compliance Matrix: (Units=1/GPa)
#
#
# Indices 1 2 3 4 5 6 
#
# 1 0.014972 -0.007071 -0.004768 0.000000 -0.003243 0.000000
# 2 -0.007071 0.046160 -0.003168 0.000000 -0.003335 0.000000
# 3 -0.004768 -0.003168 0.008937 0.000000 -0.001590 0.000000
# 4 0.000000 0.000000 0.000000 0.063313 0.000000 0.006342
# 5 -0.003243 -0.003335 -0.001590 0.000000 0.033139 0.000000
# 6 0.000000 0.000000 0.000000 0.006342 0.000000 0.124852
#
#
# Mechanical properties :
#
#
# Convention : Reuss Voigt Hill
#
# Bulk Modulus (GPa) = 24.96470 54.91170 39.93820
# Shear Modulus (GPa) = 14.93703 23.19545 19.06624
#
# Velocity S-wave (km/s) = 2.85781 3.56125 3.22875
# Velocity P-wave (km/s) = 4.95372 6.85084 5.97802
#
# Compressibility (1/GPa) = 0.04005655
#
# Stress axis : x y z
#
# Youngs Moduli (GPa) = 66.78958 21.66361 111.89279
#
# Poissons Ratio (x) = 0.15318 0.53352
# Poissons Ratio (y) = 0.47226 0.35444
# Poissons Ratio (z) = 0.31846 0.06862
#
# Static dielectric constant tensor:
#      x y z
#    x 1.625550 0.000000 0.029650 
#    y 0.000000 1.624920 0.000000 
#    z 0.029650 0.000000 1.652220 
# 
# From -- ./inp_files/23405.got.cif
#   From: 2010.05.17/outbox.cif.g08.bks.cpg/sg8_12_cif.got.tgz:23405.got - 2010.06.03 19:46:02.
