data_PCOD9131657
_publ_section_title
;
Structure prediction by ZEFSAII (Michael W. Deem and Ramdas Pophale) SiO2 
 PCOD9131657
Probable space group: C M
;
_chemical_formula_sum "Si O2"
_cell_formula_units_Z 32
_cell_length_a 25.738525
_cell_length_b 7.346669
_cell_length_c 24.069023
_cell_angle_alpha 90.000000
_cell_angle_beta 17.816790
_cell_angle_gamma 90.000000
_cell_volume 1392.571641
_symmetry_space_group_name_H-M "C M"
_symmetry_group_IT_number 8
_symmetry_cell_setting 'monoclinic'
loop_
_space_group_symop_operation_xyz
x,y,z
x,-y,z
1/2+x,1/2+y,z
1/2+x,1/2-y,z
loop_
_atom_site_type_symbol
_atom_site_label
_atom_site_fract_x
_atom_site_fract_y
_atom_site_fract_z
Si Si1 0.143930 0.281330 0.389430
Si Si2 0.808389 0.705879 0.875124
Si Si3 0.688180 0.222383 0.467776
Si Si4 0.466689 0.722612 0.273364
Si Si5 0.649006 0.776489 0.796855
Si Si6 0.799605 0.293459 0.113309
Si Si7 0.249008 0.289214 0.812091
Si Si8 0.961686 0.222298 0.403626
O O1 0.151374 0.500000 0.378057
O O2 0.220716 0.224169 0.370730
O O3 0.231499 0.203474 0.245950
O O4 0.946341 0.225892 0.592997
O O5 0.832451 0.500000 0.871298
O O6 0.738848 0.699589 0.882554
O O7 0.997893 0.785335 0.678259
O O8 0.656548 0.787413 0.065482
O O9 0.830678 0.281093 0.365880
O O10 0.683412 0.000000 0.472368
O O11 0.470001 0.500000 0.267702
O O12 0.418802 0.774135 0.384553
O O13 0.645791 0.716843 0.864384
O O14 0.820622 0.720113 0.591440
O O15 0.646743 0.000000 0.800660
O O16 0.486238 0.712595 0.928231
O O17 0.822371 0.500000 0.069630
O O18 0.648096 0.212022 0.231576
O O19 0.205952 0.500000 0.864238
O O20 0.965032 0.000000 0.402621
#
# Coordination Sequence:
#
# PCOD9131657 Si02
#       8
#     4   4   4   4   4   4   4   4
#     4  10  19  32  51  76 106 136 168 208 257 305
#     4   9  18  31  48  74 103 130 167 210 254 301
#     4   8  16  29  43  67 101 128 158 203 249 299
#     4   9  17  29  49  73 101 135 167 207 255 297
#     4   9  18  30  47  74 103 132 168 209 252 300
#     4  10  19  32  51  75 104 134 169 212 254 302
#     4  10  18  32  52  74 106 139 168 207 254 302
#     4   9  17  31  49  73 102 132 171 214 253 296
#
# _framework density 22.979068000000002
#
# number of rings (size 3 to 8) (size 9 to 14) (size 15 to 20)
#    0.000    2.750    1.250    1.500    1.750    1.000 
#    0.000    5.625    0.000    0.750    0.000    0.000 
#    0.000    0.000    0.000    0.000    0.000    0.000 
#
# Total GULP energy -89356.699401 kJ/mol
# GULP energy per Si atom -5584.793713 kJ/mol
# Density = 2.292677 g / cm^3
# Si number density = 22.979068 Si / 1000 Ang^3
#
#
#
# Elastic Constant Matrix: (Units=GPa)
#
#
# Indices 1 2 3 4 5 6 
#
# 1 90.7295 -9.7594 12.8030 -0.0010 -19.9794 -0.0006
# 2 -9.7594 92.3189 -7.8542 -0.0078 -2.9435 0.0012
# 3 12.8030 -7.8542 43.4836 -0.0058 -12.5388 0.0018
# 4 -0.0010 -0.0078 -0.0058 -4.6093 0.0010 3.3665
# 5 -19.9794 -2.9435 -12.5388 0.0010 37.4494 0.0000
# 6 -0.0006 0.0012 0.0018 3.3665 0.0000 6.8668
#
#
#
# Elastic Compliance Matrix: (Units=1/GPa)
#
#
# Indices 1 2 3 4 5 6 
#
# 1 0.012817 0.001416 -0.001676 -0.000001 0.006388 0.000001
# 2 0.001416 0.011255 0.002312 -0.000017 0.002414 0.000006
# 3 -0.001676 0.002312 0.026236 -0.000030 0.008072 0.000007
# 4 -0.000001 -0.000017 -0.000030 -0.159752 -0.000007 0.078320
# 5 0.006388 0.002414 0.008072 -0.000007 0.033003 0.000001
# 6 0.000001 0.000006 0.000007 0.078320 0.000001 0.107232
#
#
# Mechanical properties :
#
#
# Convention : Reuss Voigt Hill
#
# Bulk Modulus (GPa) = 18.37784 24.10119 21.23952
# Shear Modulus (GPa) = 111.54350 23.36422 67.45386
#
# Velocity S-wave (km/s) = 6.97472 3.19213 5.42386
# Velocity P-wave (km/s) = 8.53682 4.90890 6.96328
#
# Compressibility (1/GPa) = 0.05441336
#
# Stress axis : x y z
#
# Youngs Moduli (GPa) = 78.01927 88.84612 38.11572
#
# Poissons Ratio (x) = -0.12581 0.06388
# Poissons Ratio (y) = -0.11048 -0.08813
# Poissons Ratio (z) = 0.13076 -0.20543
#
# Static dielectric constant tensor:
#      x y z
#    x 1.807970 0.000000 -0.022630 
#    y 0.000000 1.920310 0.000000 
#    z -0.022630 0.000000 1.835950 
# 
# From -- ./inp_files/32333.got.cif
#   From: 2010.05.17/outbox.cif.g08.bks.cpg/sg8_17_cif.got.tgz:32333.got - 2010.06.03 19:46:02.
