data_PCOD9131293
_publ_section_title
;
Structure prediction by ZEFSAII (Michael W. Deem and Ramdas Pophale) SiO2 
 PCOD9131293
Probable space group: P C
;
_chemical_formula_sum "Si O2"
_cell_formula_units_Z 16
_cell_length_a 10.240423
_cell_length_b 16.387355
_cell_length_c 5.383489
_cell_angle_alpha 90.000000
_cell_angle_beta 122.305457
_cell_angle_gamma 90.000000
_cell_volume 763.582025
_symmetry_space_group_name_H-M "P C"
_symmetry_group_IT_number 7
_symmetry_cell_setting 'monoclinic'
loop_
_space_group_symop_operation_xyz
x,y,z
x,-y,1/2+z
loop_
_atom_site_type_symbol
_atom_site_label
_atom_site_fract_x
_atom_site_fract_y
_atom_site_fract_z
Si Si1 0.937250 0.414120 0.501670
Si Si2 0.432644 0.030128 0.063208
Si Si3 0.021937 0.775607 0.751319
Si Si4 0.657724 0.741809 0.362330
Si Si5 0.480611 0.782139 0.686149
Si Si6 0.082798 0.963525 0.707768
Si Si7 0.816326 0.402019 0.874507
Si Si8 0.162589 0.301723 0.894032
O O1 0.838155 0.369841 0.616118
O O2 0.855603 0.502109 0.386545
O O3 0.106280 0.395554 0.785641
O O4 0.934036 0.381907 0.218797
O O5 0.512937 0.008708 0.885200
O O6 0.264187 0.987815 0.872322
O O7 0.415518 0.126591 0.081498
O O8 0.068711 0.869712 0.762301
O O9 0.102793 0.729661 0.599525
O O10 0.835876 0.770415 0.540025
O O11 0.082173 0.747637 0.084735
O O12 0.583085 0.762314 0.549338
O O13 0.665410 0.642828 0.323914
O O14 0.569474 0.779215 0.038049
O O15 0.342162 0.717110 0.558576
O O16 0.015621 0.984555 0.369189
#
# Coordination Sequence:
#
# PCOD9131293 Si02
#       8
#     2   2   2   2   2   2   2   2
#     4  10  19  36  67  98 117 167 225 264 307 380
#     4  10  19  38  59  83 119 174 216 256 323 396
#     4  12  23  40  69  96 124 170 232 272 313 382
#     4  12  24  43  61 101 137 174 213 270 336 404
#     4  12  26  39  65  98 142 171 215 270 350 395
#     4  10  20  36  59  87 120 156 218 278 314 362
#     4  10  20  38  64  94 128 168 217 262 320 383
#     4  12  21  40  66 103 123 170 224 276 307 394
#
# _framework density 20.953870999999999
#
# number of rings (size 3 to 8) (size 9 to 14) (size 15 to 20)
#    0.000    1.000    2.500    6.750    0.000    0.000 
#    0.000    3.750    0.000   18.000    0.000    0.000 
#    0.000    0.000    0.000    0.000    0.000    0.000 
#
# Total GULP energy -89082.638535 kJ/mol
# GULP energy per Si atom -5567.664908 kJ/mol
# Density = 2.090618 g / cm^3
# Si number density = 20.953871 Si / 1000 Ang^3
#
#
#
# Elastic Constant Matrix: (Units=GPa)
#
#
# Indices 1 2 3 4 5 6 
#
# 1 105.1317 15.1345 51.8860 0.0000 -25.1799 0.0000
# 2 15.1345 79.7508 -2.9306 0.0000 2.8340 0.0000
# 3 51.8860 -2.9306 108.0976 0.0000 -36.0653 0.0000
# 4 0.0000 0.0000 0.0000 18.6675 0.0000 8.9741
# 5 -25.1799 2.8340 -36.0653 0.0000 57.7344 0.0000
# 6 0.0000 0.0000 0.0000 8.9741 0.0000 17.1269
#
#
#
# Elastic Compliance Matrix: (Units=1/GPa)
#
#
# Indices 1 2 3 4 5 6 
#
# 1 0.013280 -0.002813 -0.005650 0.000000 0.002401 0.000000
# 2 -0.002813 0.013159 0.001367 0.000000 -0.001019 0.000000
# 3 -0.005650 0.001367 0.014092 0.000000 0.006272 0.000000
# 4 0.000000 0.000000 0.000000 0.071606 0.000000 -0.037520
# 5 0.002401 -0.001019 0.006272 0.000000 0.022336 0.000000
# 6 0.000000 0.000000 0.000000 -0.037520 0.000000 0.078047
#
#
# Mechanical properties :
#
#
# Convention : Reuss Voigt Hill
#
# Bulk Modulus (GPa) = 37.96433 46.79556 42.37994
# Shear Modulus (GPa) = 21.23215 33.96510 27.59863
#
# Velocity S-wave (km/s) = 3.18666 4.03047 3.63314
# Velocity P-wave (km/s) = 5.63002 6.63631 6.15377
#
# Compressibility (1/GPa) = 0.02634052
#
# Stress axis : x y z
#
# Youngs Moduli (GPa) = 75.30036 75.99157 70.96056
#
# Poissons Ratio (x) = 0.21377 0.40090
# Poissons Ratio (y) = 0.21183 -0.09701
# Poissons Ratio (z) = 0.42542 -0.10389
#
# Static dielectric constant tensor:
#      x y z
#    x 1.761340 0.000000 -0.069520 
#    y 0.000000 2.177290 0.000000 
#    z -0.069520 0.000000 1.771000 
# 
# From -- ./inp_files/827.got.cif
#   From: 2010.05.17/outbox.cif.g08.bks.cpg/sg7_cif.got.tgz:827.got - 2010.06.03 19:44:50.
