data_PCOD9131361
_publ_section_title
;
Structure prediction by ZEFSAII (Michael W. Deem and Ramdas Pophale) SiO2 
 PCOD9131361
Probable space group: P C
;
_chemical_formula_sum "Si O2"
_cell_formula_units_Z 10
_cell_length_a 7.466695
_cell_length_b 12.486294
_cell_length_c 5.112264
_cell_angle_alpha 90.000000
_cell_angle_beta 111.749009
_cell_angle_gamma 90.000000
_cell_volume 442.695300
_symmetry_space_group_name_H-M "P C"
_symmetry_group_IT_number 7
_symmetry_cell_setting 'monoclinic'
loop_
_space_group_symop_operation_xyz
x,y,z
x,-y,1/2+z
loop_
_atom_site_type_symbol
_atom_site_label
_atom_site_fract_x
_atom_site_fract_y
_atom_site_fract_z
Si Si1 0.789060 0.570818 0.152130
Si Si2 0.400373 0.195480 0.954004
Si Si3 0.635757 0.809054 0.083421
Si Si4 0.250100 0.430984 0.943091
Si Si5 0.025425 0.066900 0.926206
O O1 0.682899 0.682829 0.129088
O O2 0.291148 0.522140 0.751113
O O3 0.020116 0.591597 0.294649
O O4 0.745033 0.514658 0.853867
O O5 0.564670 0.167114 0.253242
O O6 0.362175 0.322516 0.946417
O O7 0.470118 0.164446 0.703698
O O8 0.206014 0.138907 0.941386
O O9 0.827512 0.872362 0.259316
O O10 0.033017 0.966093 0.732981
#
# Coordination Sequence:
#
# PCOD9131361 Si02
#       5
#     2   2   2   2   2
#     4  10  21  39  65  97 138 180 217 262 323 396
#     4  12  26  44  71 103 135 175 226 273 334 404
#     4  12  26  44  71 103 135 175 226 273 334 404
#     4  10  21  39  65  97 138 180 217 262 323 396
#     4  12  28  50  72  96 134 174 224 290 344 388
#
# _framework density 22.588902000000001
#
# number of rings (size 3 to 8) (size 9 to 14) (size 15 to 20)
#    0.000    0.800    2.000    4.800    0.000    9.600 
#    0.000    0.000    0.000    0.000    0.000    0.000 
#    0.000    0.000    0.000    0.000    0.000    0.000 
#
# Total GULP energy -56079.822233 kJ/mol
# GULP energy per Si atom -5607.982223 kJ/mol
# Density = 2.253749 g / cm^3
# Si number density = 22.588902 Si / 1000 Ang^3
#
#
#
# Elastic Constant Matrix: (Units=GPa)
#
#
# Indices 1 2 3 4 5 6 
#
# 1 87.9037 9.0502 0.7646 0.0000 3.0996 0.0000
# 2 9.0502 38.3965 -4.3383 0.0000 8.7881 0.0000
# 3 0.7646 -4.3383 54.0901 0.0000 -8.9274 0.0000
# 4 0.0000 0.0000 0.0000 21.5356 0.0000 -11.7722
# 5 3.0996 8.7881 -8.9274 0.0000 40.9878 0.0000
# 6 0.0000 0.0000 0.0000 -11.7722 0.0000 -76.2929
#
#
#
# Elastic Compliance Matrix: (Units=1/GPa)
#
#
# Indices 1 2 3 4 5 6 
#
# 1 0.011673 -0.002711 -0.000448 0.000000 -0.000399 0.000000
# 2 -0.002711 0.028102 0.001381 0.000000 -0.005519 0.000000
# 3 -0.000448 0.001381 0.019254 0.000000 0.003931 0.000000
# 4 0.000000 0.000000 0.000000 0.042823 0.000000 -0.006608
# 5 -0.000399 -0.005519 0.003931 0.000000 0.026467 0.000000
# 6 0.000000 0.000000 0.000000 -0.006608 0.000000 -0.012088
#
#
# Mechanical properties :
#
#
# Convention : Reuss Voigt Hill
#
# Bulk Modulus (GPa) = 18.02656 21.26037 19.64346
# Shear Modulus (GPa) = 36.15901 8.90702 22.53301
#
# Velocity S-wave (km/s) = 4.00527 1.98788 3.16179
# Velocity P-wave (km/s) = 5.42099 3.83421 4.69512
#
# Compressibility (1/GPa) = 0.05547371
#
# Stress axis : x y z
#
# Youngs Moduli (GPa) = 85.66668 35.58421 51.93820
#
# Poissons Ratio (x) = 0.09646 0.02328
# Poissons Ratio (y) = 0.23222 -0.07174
# Poissons Ratio (z) = 0.03841 -0.04915
#
# Static dielectric constant tensor:
#      x y z
#    x 1.822690 0.000000 0.028590 
#    y 0.000000 1.784220 0.000000 
#    z 0.028590 0.000000 1.783570 
# 
# From -- ./inp_files/107.got.cif
#   From: 2010.05.17/outbox.cif.g08.bks.cpg/sg7_cif.got.tgz:107.got - 2010.06.03 19:44:50.
