data_PCOD9131404
_publ_section_title
;
Structure prediction by ZEFSAII (Michael W. Deem and Ramdas Pophale) SiO2 
 PCOD9131404
Probable space group: P C
;
_chemical_formula_sum "Si O2"
_cell_formula_units_Z 14
_cell_length_a 8.670516
_cell_length_b 16.037650
_cell_length_c 5.065812
_cell_angle_alpha 90.000000
_cell_angle_beta 60.843735
_cell_angle_gamma 90.000000
_cell_volume 615.170254
_symmetry_space_group_name_H-M "P C"
_symmetry_group_IT_number 7
_symmetry_cell_setting 'monoclinic'
loop_
_space_group_symop_operation_xyz
x,y,z
x,-y,1/2+z
loop_
_atom_site_type_symbol
_atom_site_label
_atom_site_fract_x
_atom_site_fract_y
_atom_site_fract_z
Si Si1 0.671590 0.824862 0.746870
Si Si2 0.372773 0.946003 0.173744
Si Si3 0.054395 0.169507 0.732989
Si Si4 0.481191 0.447380 0.481324
Si Si5 0.113725 0.724206 0.673830
Si Si6 0.763201 0.651652 0.978025
Si Si7 0.475106 0.693267 0.615320
O O1 0.541719 0.783990 0.640109
O O2 0.853030 0.857252 0.465365
O O3 0.553079 0.893919 0.984840
O O4 0.720000 0.743581 0.886567
O O5 0.203190 0.893334 0.215436
O O6 0.368479 0.975358 0.478995
O O7 0.075498 0.199819 0.413814
O O8 0.084126 0.248706 0.898690
O O9 0.430565 0.485851 0.802168
O O10 0.687451 0.421579 0.357699
O O11 0.413949 0.360447 0.417413
O O12 0.313155 0.699477 0.555672
O O13 0.969677 0.653740 0.857977
O O14 0.643465 0.649967 0.339139
#
# Coordination Sequence:
#
# PCOD9131404 Si02
#       7
#     2   2   2   2   2   2   2
#     4  10  23  40  68  94 124 169 221 266 316 381
#     4  12  27  42  63  93 133 172 211 263 335 388
#     4  11  23  42  63  92 129 161 212 275 318 374
#     4  11  23  41  64  94 137 176 207 260 325 384
#     4  11  23  38  68  99 122 157 222 273 312 370
#     4  10  22  41  69  98 123 171 222 265 317 379
#     4  11  21  40  71  94 126 168 221 264 319 372
#
# _framework density 22.757929000000001
#
# number of rings (size 3 to 8) (size 9 to 14) (size 15 to 20)
#    0.000    1.143    4.286    1.714    4.000    1.143 
#    0.000    1.429    0.000    0.000    0.000    0.000 
#    0.000    0.000    0.000    0.000    0.000    0.000 
#
# Total GULP energy -78171.466226 kJ/mol
# GULP energy per Si atom -5583.676159 kJ/mol
# Density = 2.270613 g / cm^3
# Si number density = 22.757929 Si / 1000 Ang^3
#
#
#
# Elastic Constant Matrix: (Units=GPa)
#
#
# Indices 1 2 3 4 5 6 
#
# 1 63.7037 -5.8845 3.0724 0.0000 -8.2225 0.0000
# 2 -5.8845 27.7835 15.0661 0.0000 -8.7065 0.0000
# 3 3.0724 15.0661 71.4959 0.0000 4.4213 0.0000
# 4 0.0000 0.0000 0.0000 28.6438 0.0000 9.3589
# 5 -8.2225 -8.7065 4.4213 0.0000 38.9345 0.0000
# 6 0.0000 0.0000 0.0000 9.3589 0.0000 29.4241
#
#
#
# Elastic Compliance Matrix: (Units=1/GPa)
#
#
# Indices 1 2 3 4 5 6 
#
# 1 0.017127 0.006656 -0.002472 0.000000 0.005386 0.000000
# 2 0.006656 0.047620 -0.011144 0.000000 0.013320 0.000000
# 3 -0.002472 -0.011144 0.016745 0.000000 -0.004916 0.000000
# 4 0.000000 0.000000 0.000000 0.038961 0.000000 -0.012392
# 5 0.005386 0.013320 -0.004916 0.000000 0.030358 0.000000
# 6 0.000000 0.000000 0.000000 -0.012392 0.000000 0.037927
#
#
# Mechanical properties :
#
#
# Convention : Reuss Voigt Hill
#
# Bulk Modulus (GPa) = 14.79929 20.83235 17.81582
# Shear Modulus (GPa) = 22.20419 29.44909 25.82664
#
# Velocity S-wave (km/s) = 3.12696 3.60114 3.37240
# Velocity P-wave (km/s) = 4.42201 5.14439 4.79682
#
# Compressibility (1/GPa) = 0.06757082
#
# Stress axis : x y z
#
# Youngs Moduli (GPa) = 58.38781 20.99980 59.71768
#
# Poissons Ratio (x) = -0.13976 0.14760
# Poissons Ratio (y) = -0.38860 0.66552
# Poissons Ratio (z) = 0.14431 0.23403
#
# Static dielectric constant tensor:
#      x y z
#    x 1.851610 0.000000 0.009550 
#    y 0.000000 1.881090 0.000000 
#    z 0.009550 0.000000 1.894500 
# 
# From -- ./inp_files/729.got.cif
#   From: 2010.05.17/outbox.cif.g08.bks.cpg/sg7_cif.got.tgz:729.got - 2010.06.03 19:44:50.
