data_PCOD9131386
_publ_section_title
;
Structure prediction by ZEFSAII (Michael W. Deem and Ramdas Pophale) SiO2 
 PCOD9131386
Probable space group: P C
;
_chemical_formula_sum "Si O2"
_cell_formula_units_Z 16
_cell_length_a 9.040910
_cell_length_b 16.850199
_cell_length_c 5.390304
_cell_angle_alpha 90.000000
_cell_angle_beta 121.266146
_cell_angle_gamma 90.000000
_cell_volume 701.903646
_symmetry_space_group_name_H-M "P C"
_symmetry_group_IT_number 7
_symmetry_cell_setting 'monoclinic'
loop_
_space_group_symop_operation_xyz
x,y,z
x,-y,1/2+z
loop_
_atom_site_type_symbol
_atom_site_label
_atom_site_fract_x
_atom_site_fract_y
_atom_site_fract_z
Si Si1 0.917280 0.247478 0.507400
Si Si2 0.421518 0.444822 0.016186
Si Si3 0.112205 0.176655 0.281399
Si Si4 0.917231 0.545520 0.446436
Si Si5 0.714036 0.180267 0.727159
Si Si6 0.414938 0.051753 0.497619
Si Si7 0.683697 0.338770 0.967037
Si Si8 0.162889 0.334456 0.062702
O O1 0.754706 0.200054 0.474614
O O2 0.069677 0.193006 0.533482
O O3 0.857135 0.305772 0.242600
O O4 0.990241 0.302620 0.782041
O O5 0.415391 0.499269 0.758896
O O6 0.579461 0.385262 0.086231
O O7 0.279839 0.376582 0.959087
O O8 0.239969 0.104446 0.348845
O O9 0.208381 0.255472 0.255128
O O10 0.913232 0.165393 0.001989
O O11 0.918353 0.481767 0.665474
O O12 0.741137 0.594610 0.325686
O O13 0.091974 0.593750 0.663148
O O14 0.583764 0.108475 0.647664
O O15 0.626897 0.258512 0.777582
O O16 0.417809 0.001189 0.247783
#
# Coordination Sequence:
#
# PCOD9131386 Si02
#       8
#     2   2   2   2   2   2   2   2
#     4  10  21  44  76 105 132 188 260 304 359 430
#     4  12  30  44  62 102 152 196 246 320 390 430
#     4  10  25  48  80 110 149 200 257 307 371 463
#     4  12  23  38  64  97 140 184 242 308 365 420
#     4  10  25  48  80 110 149 200 257 307 371 463
#     4  12  32  52  80 122 158 194 242 312 396 462
#     4  11  24  43  69 100 140 198 254 304 368 448
#     4  11  24  43  69 100 140 198 254 304 368 448
#
# _framework density 22.795152999999999
#
# number of rings (size 3 to 8) (size 9 to 14) (size 15 to 20)
#    0.000    1.000    3.750    2.250   14.000    1.000 
#    0.000    0.000    0.000    0.000    0.000    0.000 
#    0.000    0.000    0.000    0.000    0.000    0.000 
#
# Total GULP energy -89192.047319 kJ/mol
# GULP energy per Si atom -5574.502957 kJ/mol
# Density = 2.274327 g / cm^3
# Si number density = 22.795153 Si / 1000 Ang^3
#
#
#
# Elastic Constant Matrix: (Units=GPa)
#
#
# Indices 1 2 3 4 5 6 
#
# 1 185.5063 100.8019 46.9892 0.0000 -8.6411 0.0000
# 2 100.8019 156.7140 49.8481 0.0000 -3.6175 0.0000
# 3 46.9892 49.8481 61.8537 0.0000 -10.5934 0.0000
# 4 0.0000 0.0000 0.0000 25.3395 0.0000 0.3935
# 5 -8.6411 -3.6175 -10.5934 0.0000 38.8226 0.0000
# 6 0.0000 0.0000 0.0000 0.3935 0.0000 72.9586
#
#
#
# Elastic Compliance Matrix: (Units=1/GPa)
#
#
# Indices 1 2 3 4 5 6 
#
# 1 0.008655 -0.004706 -0.002652 0.000000 0.000764 0.000000
# 2 -0.004706 0.011188 -0.005709 0.000000 -0.001563 0.000000
# 3 -0.002652 -0.005709 0.023698 0.000000 0.005344 0.000000
# 4 0.000000 0.000000 0.000000 0.039467 0.000000 -0.000213
# 5 0.000764 -0.001563 0.005344 0.000000 0.027241 0.000000
# 6 0.000000 0.000000 0.000000 -0.000213 0.000000 0.013708
#
#
# Mechanical properties :
#
#
# Convention : Reuss Voigt Hill
#
# Bulk Modulus (GPa) = 57.44633 88.81693 73.13163
# Shear Modulus (GPa) = 32.07340 41.18645 36.62992
#
# Velocity S-wave (km/s) = 3.75511 4.25527 4.01299
# Velocity P-wave (km/s) = 6.63754 7.94926 7.32283
#
# Compressibility (1/GPa) = 0.01740755
#
# Stress axis : x y z
#
# Youngs Moduli (GPa) = 115.53796 89.38170 42.19831
#
# Poissons Ratio (x) = 0.42064 0.11189
# Poissons Ratio (y) = 0.54374 0.24091
# Poissons Ratio (z) = 0.30636 0.51027
#
# Static dielectric constant tensor:
#      x y z
#    x 1.789030 0.000000 -0.171380 
#    y 0.000000 1.907250 0.000000 
#    z -0.171380 0.000000 1.940250 
# 
# From -- ./inp_files/789.got.cif
#   From: 2010.05.17/outbox.cif.g08.bks.cpg/sg7_cif.got.tgz:789.got - 2010.06.03 19:44:50.
