data_PCOD9131696
_publ_section_title
;
Structure prediction by ZEFSAII (Michael W. Deem and Ramdas Pophale) SiO2 
 PCOD9131696
Probable space group: C M
;
_chemical_formula_sum "Si O2"
_cell_formula_units_Z 32
_cell_length_a 21.294420
_cell_length_b 8.162423
_cell_length_c 12.640459
_cell_angle_alpha 90.000000
_cell_angle_beta 127.449665
_cell_angle_gamma 90.000000
_cell_volume 1744.242668
_symmetry_space_group_name_H-M "C M"
_symmetry_group_IT_number 8
_symmetry_cell_setting 'monoclinic'
loop_
_space_group_symop_operation_xyz
x,y,z
x,-y,z
1/2+x,1/2+y,z
1/2+x,1/2-y,z
loop_
_atom_site_type_symbol
_atom_site_label
_atom_site_fract_x
_atom_site_fract_y
_atom_site_fract_z
Si Si1 0.834630 0.304968 0.310710
Si Si2 0.859811 0.196946 0.999424
Si Si3 0.806865 0.799105 0.716421
Si Si4 0.626586 0.200294 0.563904
Si Si5 0.392737 0.694595 0.592956
Si Si6 0.971662 0.697405 0.289513
Si Si7 0.221840 0.698010 0.020011
Si Si8 0.072013 0.302788 0.741638
O O1 0.840985 0.500000 0.322946
O O2 0.844117 0.237594 0.437710
O O3 0.908123 0.244339 0.312887
O O4 0.755772 0.258786 0.166044
O O5 0.849005 0.254058 0.868402
O O6 0.857202 0.000000 0.995394
O O7 0.937999 0.249394 0.142080
O O8 0.785213 0.251721 0.995091
O O9 0.715179 0.747457 0.627401
O O10 0.850992 0.741249 0.656417
O O11 0.807053 0.000000 0.716022
O O12 0.558675 0.253145 0.412549
O O13 0.600586 0.253659 0.654859
O O14 0.626996 0.000000 0.565342
O O15 0.396267 0.500000 0.605298
O O16 0.482151 0.756270 0.671296
O O17 0.971013 0.500000 0.291820
O O18 0.222566 0.500000 0.022934
O O19 0.135449 0.753946 0.894113
O O20 0.076057 0.500000 0.743397
#
# Coordination Sequence:
#
# PCOD9131696 Si02
#       8
#     4   4   4   4   4   4   4   4
#     4  10  19  33  52  75 106 140 172 211 264 310
#     4   9  16  30  52  75 100 129 165 208 255 303
#     4   9  18  33  53  75 101 137 172 209 255 305
#     4   9  15  30  54  76  98 129 174 214 250 300
#     4  11  22  34  51  77 109 141 176 212 255 312
#     4   9  17  29  50  77 101 126 163 212 259 301
#     4   9  17  30  54  82 102 127 171 221 261 305
#     4  10  18  33  56  79 103 135 175 217 261 306
#
# _framework density 18.346070000000001
#
# number of rings (size 3 to 8) (size 9 to 14) (size 15 to 20)
#    0.000    2.500    2.500    0.750    0.000    1.000 
#    0.000    2.500    0.000    8.250    0.000    0.000 
#    0.000    0.000    0.000    0.000    0.000    0.000 
#
# Total GULP energy -89228.029292 kJ/mol
# GULP energy per Si atom -5576.751831 kJ/mol
# Density = 1.830431 g / cm^3
# Si number density = 18.346070 Si / 1000 Ang^3
#
#
#
# Elastic Constant Matrix: (Units=GPa)
#
#
# Indices 1 2 3 4 5 6 
#
# 1 112.2922 4.6047 79.8158 0.0000 -2.7172 0.0000
# 2 4.6047 3.2521 1.9287 0.0000 1.6455 0.0000
# 3 79.8158 1.9287 175.5729 0.0000 2.9046 0.0000
# 4 0.0000 0.0000 0.0000 26.8836 0.0000 3.9989
# 5 -2.7172 1.6455 2.9046 0.0000 25.1725 0.0000
# 6 0.0000 0.0000 0.0000 3.9989 0.0000 14.0739
#
#
#
# Elastic Compliance Matrix: (Units=1/GPa)
#
#
# Indices 1 2 3 4 5 6 
#
# 1 0.014230 -0.018142 -0.006327 0.000000 0.003452 0.000000
# 2 -0.018142 0.342893 0.004893 0.000000 -0.024937 0.000000
# 3 -0.006327 0.004893 0.008551 0.000000 -0.001989 0.000000
# 4 0.000000 0.000000 0.000000 0.038839 0.000000 -0.011035
# 5 0.003452 -0.024937 -0.001989 0.000000 0.041958 0.000000
# 6 0.000000 0.000000 0.000000 -0.011035 0.000000 0.074189
#
#
# Mechanical properties :
#
#
# Convention : Reuss Voigt Hill
#
# Bulk Modulus (GPa) = 3.06258 51.53506 27.29882
# Shear Modulus (GPa) = 7.47773 26.87720 17.17747
#
# Velocity S-wave (km/s) = 2.02108 3.83170 3.06323
# Velocity P-wave (km/s) = 2.66821 6.90850 5.23673
#
# Compressibility (1/GPa) = 0.32652241
#
# Stress axis : x y z
#
# Youngs Moduli (GPa) = 70.27552 2.91636 116.94659
#
# Poissons Ratio (x) = 0.05291 0.73988
# Poissons Ratio (y) = 1.27495 -0.57225
# Poissons Ratio (z) = 0.44461 -0.01427
#
# Static dielectric constant tensor:
#      x y z
#    x 1.614140 0.000000 0.003470 
#    y 0.000000 1.653690 0.000000 
#    z 0.003470 0.000000 1.639780 
# 
# From -- ./inp_files/23703.got.cif
#   From: 2010.05.17/outbox.cif.g08.bks.cpg/sg8_12_cif.got.tgz:23703.got - 2010.06.03 19:46:02.
