data_PCOD9131753
_publ_section_title
;
Structure prediction by ZEFSAII (Michael W. Deem and Ramdas Pophale) SiO2 
 PCOD9131753
Probable space group: C M
;
_chemical_formula_sum "Si O2"
_cell_formula_units_Z 30
_cell_length_a 18.817859
_cell_length_b 15.868617
_cell_length_c 12.061447
_cell_angle_alpha 90.000000
_cell_angle_beta 156.848961
_cell_angle_gamma 90.000000
_cell_volume 1416.034977
_symmetry_space_group_name_H-M "C M"
_symmetry_group_IT_number 8
_symmetry_cell_setting 'monoclinic'
loop_
_space_group_symop_operation_xyz
x,y,z
x,-y,z
1/2+x,1/2+y,z
1/2+x,1/2-y,z
loop_
_atom_site_type_symbol
_atom_site_label
_atom_site_fract_x
_atom_site_fract_y
_atom_site_fract_z
Si Si1 0.380240 0.222170 0.225020
Si Si2 0.285426 0.098477 0.287093
Si Si3 0.366394 0.592903 0.456426
Si Si4 0.884228 0.500000 0.951540
Si Si5 0.675626 0.344151 0.738768
Si Si6 0.958908 0.216289 0.897054
Si Si7 0.075830 0.346177 0.880602
Si Si8 0.139669 0.335516 0.319195
O O1 0.357205 0.146961 0.280931
O O2 0.562008 0.274106 0.510522
O O3 0.349063 0.188560 0.056639
O O4 0.212928 0.285392 0.010868
O O5 0.436272 0.111003 0.598317
O O6 0.255179 0.000000 0.223027
O O7 0.106309 0.146311 0.073431
O O8 0.399634 0.500000 0.548495
O O9 0.541330 0.625795 0.644303
O O10 0.299057 0.655630 0.454012
O O11 0.206077 0.592518 0.136166
O O12 0.038481 0.424640 0.167834
O O13 0.730652 0.424778 0.746390
O O14 0.975082 0.291800 0.830214
O O15 0.757204 0.180636 0.597423
O O16 0.017526 0.259596 0.096109
#
# Coordination Sequence:
#
# PCOD9131753 Si02
#       8
#     4   4   4   2   4   4   4   4
#     4  10  21  38  61  88 131 169 195 256 319 373
#     4  11  20  31  59 103 135 156 206 254 321 369
#     4  10  18  34  64  95 127 153 203 264 311 357
#     4  12  28  42  68  94 114 170 228 262 288 386
#     4  11  23  42  65  93 126 162 213 253 323 369
#     4  10  21  38  61  88 131 169 195 256 319 373
#     4   9  17  33  56  95 129 166 188 247 318 385
#     4  11  23  42  65  93 126 162 213 253 323 369
#
# _framework density 21.185918000000001
#
# number of rings (size 3 to 8) (size 9 to 14) (size 15 to 20)
#    0.000    1.600    4.000    2.800    1.867    2.133 
#    0.000    0.000    0.000    1.600    0.000    0.000 
#    0.000    0.000    0.000    0.000    0.000    0.000 
#
# Total GULP energy -83566.905307 kJ/mol
# GULP energy per Si atom -5571.127020 kJ/mol
# Density = 2.113770 g / cm^3
# Si number density = 21.185918 Si / 1000 Ang^3
#
#
#
# Elastic Constant Matrix: (Units=GPa)
#
#
# Indices 1 2 3 4 5 6 
#
# 1 44.3131 22.5805 22.7130 0.0000 5.3250 0.0000
# 2 22.5805 147.5793 60.0397 0.0000 -1.2144 0.0000
# 3 22.7130 60.0397 155.6312 0.0000 -10.2579 0.0000
# 4 0.0000 0.0000 0.0000 14.1089 0.0000 10.3777
# 5 5.3250 -1.2144 -10.2579 0.0000 30.4358 0.0000
# 6 0.0000 0.0000 0.0000 10.3777 0.0000 23.0169
#
#
#
# Elastic Compliance Matrix: (Units=1/GPa)
#
#
# Indices 1 2 3 4 5 6 
#
# 1 0.026293 -0.002793 -0.003140 0.000000 -0.005770 0.000000
# 2 -0.002793 0.008351 -0.002822 0.000000 -0.000129 0.000000
# 3 -0.003140 -0.002822 0.008183 0.000000 0.003195 0.000000
# 4 0.000000 0.000000 0.000000 0.106045 0.000000 -0.047813
# 5 -0.005770 -0.000129 0.003195 0.000000 0.034937 0.000000
# 6 0.000000 0.000000 0.000000 -0.047813 0.000000 0.065004
#
#
# Mechanical properties :
#
#
# Convention : Reuss Voigt Hill
#
# Bulk Modulus (GPa) = 39.50142 62.02111 50.76127
# Shear Modulus (GPa) = 18.19760 29.65837 23.92799
#
# Velocity S-wave (km/s) = 2.93396 3.74560 3.36434
# Velocity P-wave (km/s) = 5.49210 6.93139 6.25329
#
# Compressibility (1/GPa) = 0.02531555
#
# Stress axis : x y z
#
# Youngs Moduli (GPa) = 38.03344 119.75289 122.20298
#
# Poissons Ratio (x) = 0.33446 0.38372
# Poissons Ratio (y) = 0.10623 0.34491
# Poissons Ratio (z) = 0.11943 0.33799
#
# Static dielectric constant tensor:
#      x y z
#    x 1.826090 0.000000 0.027050 
#    y 0.000000 1.719130 0.000000 
#    z 0.027050 0.000000 1.811770 
# 
# From -- ./inp_files/28262.got.cif
#   From: 2010.05.17/outbox.cif.g08.bks.cpg/sg8_15_cif.got.tgz:28262.got - 2010.06.03 19:46:02.
