data_PCOD9131604
_publ_section_title
;
Structure prediction by ZEFSAII (Michael W. Deem and Ramdas Pophale) SiO2 
 PCOD9131604
Probable space group: C M
;
_chemical_formula_sum "Si O2"
_cell_formula_units_Z 32
_cell_length_a 5.469391
_cell_length_b 30.176665
_cell_length_c 8.691198
_cell_angle_alpha 90.000000
_cell_angle_beta 87.859775
_cell_angle_gamma 90.000000
_cell_volume 1433.464022
_symmetry_space_group_name_H-M "C M"
_symmetry_group_IT_number 8
_symmetry_cell_setting 'monoclinic'
loop_
_space_group_symop_operation_xyz
x,y,z
x,-y,z
1/2+x,1/2+y,z
1/2+x,1/2-y,z
loop_
_atom_site_type_symbol
_atom_site_label
_atom_site_fract_x
_atom_site_fract_y
_atom_site_fract_z
Si Si1 0.548800 0.050483 0.229190
Si Si2 0.945197 0.050427 0.758938
Si Si3 0.688409 0.581386 0.464251
Si Si4 0.994071 0.643926 0.649392
Si Si5 0.706447 0.269160 0.588445
Si Si6 0.819142 0.862195 0.356676
Si Si7 0.936909 0.583775 0.893678
Si Si8 0.230167 0.733769 0.234644
O O1 0.316004 0.048273 0.347185
O O2 0.708307 0.091517 0.294395
O O3 0.653261 0.000000 0.214241
O O4 0.459968 0.069441 0.068764
O O5 0.976704 0.063003 0.578648
O O6 0.152110 0.076532 0.852114
O O7 0.665327 0.056290 0.814898
O O8 0.020347 0.000000 0.775763
O O9 0.600219 0.624215 0.370612
O O10 0.884981 0.598846 0.580962
O O11 0.221862 0.651041 0.530282
O O12 0.014968 0.632695 0.828588
O O13 0.800565 0.682105 0.621860
O O14 0.432431 0.259658 0.650488
O O15 0.703585 0.257558 0.405215
O O16 0.761814 0.818868 0.258962
O O17 0.477428 0.753796 0.159044
#
# Coordination Sequence:
#
# PCOD9131604 Si02
#       8
#     4   4   4   4   4   4   4   4
#     4  11  26  43  60  89 132 183 228 270 327 392
#     4  11  22  40  64  88 117 158 215 273 323 374
#     4  10  22  38  61  92 125 166 212 282 325 376
#     4  10  20  37  61  93 125 160 214 266 321 381
#     4  10  18  29  56  93 125 155 195 256 314 384
#     4  11  21  38  64  94 130 167 217 273 323 388
#     4  11  25  43  63  88 124 172 214 270 321 387
#     4  10  19  32  59  95 129 161 201 260 321 392
#
# _framework density 22.323549
#
# number of rings (size 3 to 8) (size 9 to 14) (size 15 to 20)
#    0.000    1.500    3.750    3.000    3.500    1.000 
#    0.000    0.000    0.000    1.500    0.000    0.000 
#    0.000    0.000    0.000    0.000    0.000    0.000 
#
# Total GULP energy -89093.439011 kJ/mol
# GULP energy per Si atom -5568.339938 kJ/mol
# Density = 2.227274 g / cm^3
# Si number density = 22.323549 Si / 1000 Ang^3
#
#
#
# Elastic Constant Matrix: (Units=GPa)
#
#
# Indices 1 2 3 4 5 6 
#
# 1 88.6985 17.3801 6.6329 0.0000 7.1074 0.0000
# 2 17.3801 94.7847 30.3253 0.0000 13.5783 0.0000
# 3 6.6329 30.3253 61.9283 0.0000 4.8922 0.0000
# 4 0.0000 0.0000 0.0000 15.1843 0.0000 3.1763
# 5 7.1074 13.5783 4.8922 0.0000 13.5915 0.0000
# 6 0.0000 0.0000 0.0000 3.1763 0.0000 27.2706
#
#
#
# Elastic Compliance Matrix: (Units=1/GPa)
#
#
# Indices 1 2 3 4 5 6 
#
# 1 0.011952 -0.001451 -0.000196 0.000000 -0.004730 0.000000
# 2 -0.001451 0.014368 -0.005976 0.000000 -0.011444 0.000000
# 3 -0.000196 -0.005976 0.019160 0.000000 -0.000824 0.000000
# 4 0.000000 0.000000 0.000000 0.067502 0.000000 -0.007862
# 5 -0.004730 -0.011444 -0.000824 0.000000 0.087778 0.000000
# 6 0.000000 0.000000 0.000000 -0.007862 0.000000 0.037585
#
#
# Mechanical properties :
#
#
# Convention : Reuss Voigt Hill
#
# Bulk Modulus (GPa) = 33.07607 39.34315 36.20961
# Shear Modulus (GPa) = 18.96311 23.94748 21.45530
#
# Velocity S-wave (km/s) = 2.91772 3.27883 3.10353
# Velocity P-wave (km/s) = 5.11856 5.65656 5.39427
#
# Compressibility (1/GPa) = 0.03023334
#
# Stress axis : x y z
#
# Youngs Moduli (GPa) = 83.66678 69.60053 52.19160
#
# Poissons Ratio (x) = 0.10102 0.01022
# Poissons Ratio (y) = 0.12144 0.31190
# Poissons Ratio (z) = 0.01638 0.41594
#
# Static dielectric constant tensor:
#      x y z
#    x 1.924030 0.000000 0.022520 
#    y 0.000000 1.868360 0.000000 
#    z 0.022520 0.000000 1.900100 
# 
# From -- ./inp_files/7201.got.cif
#   From: 2010.05.17/outbox.cif.g08.bks.cpg/sg8_4_cif.got.tgz:7201.got - 2010.06.03 19:46:02.
