data_PCOD9131165
_publ_section_title
;
Structure prediction by ZEFSAII (Michael W. Deem and Ramdas Pophale) SiO2 
 PCOD9131165
Probable space group: P M
;
_chemical_formula_sum "Si O2"
_cell_formula_units_Z 16
_cell_length_a 9.707068
_cell_length_b 8.661426
_cell_length_c 19.575397
_cell_angle_alpha 90.000000
_cell_angle_beta 29.463686
_cell_angle_gamma 90.000000
_cell_volume 809.543148
_symmetry_space_group_name_H-M "P M"
_symmetry_group_IT_number 6
_symmetry_cell_setting 'monoclinic'
loop_
_space_group_symop_operation_xyz
x,y,z
x,-y,z
loop_
_atom_site_type_symbol
_atom_site_label
_atom_site_fract_x
_atom_site_fract_y
_atom_site_fract_z
Si Si1 0.723660 0.681722 0.738120
Si Si2 0.200033 0.315252 0.291342
Si Si3 0.847822 0.315130 0.034031
Si Si4 0.753877 0.819612 0.579754
Si Si5 0.225003 0.184019 0.600581
Si Si6 0.875014 0.186496 0.300331
Si Si7 0.237280 0.316919 0.736948
Si Si8 0.149689 0.815371 0.036838
O O1 0.755285 0.500000 0.733685
O O2 0.671849 0.722147 0.681453
O O3 0.008293 0.767438 0.635999
O O4 0.456161 0.741470 0.895583
O O5 0.167600 0.500000 0.310284
O O6 0.527557 0.276661 0.154909
O O7 0.042757 0.235455 0.422398
O O8 0.054360 0.258635 0.284447
O O9 0.867065 0.500000 0.036327
O O10 0.965469 0.235294 0.051106
O O11 0.035202 0.277579 0.887029
O O12 0.519287 0.780646 0.624998
O O13 0.755978 0.000000 0.595151
O O14 0.546619 0.230551 0.446701
O O15 0.120954 0.269047 0.713910
O O16 0.218325 0.000000 0.612749
O O17 0.003485 0.229832 0.171255
O O18 0.888685 0.000000 0.300777
O O19 0.295975 0.500000 0.713249
O O20 0.179105 0.000000 0.023356
#
# Coordination Sequence:
#
# PCOD9131165 Si02
#       8
#     2   2   2   2   2   2   2   2
#     4  12  26  44  66  95 129 170 216 268 322 385
#     4  11  24  42  66  97 129 169 216 263 319 382
#     4  10  24  43  64  95 131 167 213 264 317 380
#     4  12  24  42  67  95 127 167 214 269 323 382
#     4  11  24  43  66  96 130 168 213 266 319 382
#     4  10  24  44  64  93 131 168 212 263 319 381
#     4  11  22  41  67  96 128 165 211 267 321 381
#     4  11  24  43  66  95 129 170 215 264 322 383
#
# _framework density 19.764233999999998
#
# number of rings (size 3 to 8) (size 9 to 14) (size 15 to 20)
#    0.000    1.000    2.500    3.750    3.500    3.000 
#    0.000    0.000    0.000    0.000    0.000    0.000 
#    0.000    0.000    0.000    0.000    0.000    0.000 
#
# Total GULP energy -89482.790166 kJ/mol
# GULP energy per Si atom -5592.674385 kJ/mol
# Density = 1.971925 g / cm^3
# Si number density = 19.764234 Si / 1000 Ang^3
#
#
#
# Elastic Constant Matrix: (Units=GPa)
#
#
# Indices 1 2 3 4 5 6 
#
# 1 42.5184 8.7039 14.0523 0.0000 -3.9197 0.0000
# 2 8.7039 58.1689 41.4162 0.0000 -1.9752 0.0000
# 3 14.0523 41.4162 110.6660 0.0000 0.5131 0.0000
# 4 0.0000 0.0000 0.0000 30.2463 0.0000 -1.3541
# 5 -3.9197 -1.9752 0.5131 0.0000 39.4744 0.0000
# 6 0.0000 0.0000 0.0000 -1.3541 0.0000 32.3410
#
#
#
# Elastic Compliance Matrix: (Units=1/GPa)
#
#
# Indices 1 2 3 4 5 6 
#
# 1 0.024946 -0.001891 -0.002471 0.000000 0.002414 0.000000
# 2 -0.001891 0.023645 -0.008614 0.000000 0.001107 0.000000
# 3 -0.002471 -0.008614 0.012578 0.000000 -0.000840 0.000000
# 4 0.000000 0.000000 0.000000 0.033124 0.000000 0.001387
# 5 0.002414 0.001107 -0.000840 0.000000 0.025639 0.000000
# 6 0.000000 0.000000 0.000000 0.001387 0.000000 0.030979
#
#
# Mechanical properties :
#
#
# Convention : Reuss Voigt Hill
#
# Bulk Modulus (GPa) = 28.39646 37.74424 33.07035
# Shear Modulus (GPa) = 26.51099 30.22441 28.36770
#
# Velocity S-wave (km/s) = 3.66643 3.91480 3.79265
# Velocity P-wave (km/s) = 5.68528 6.29070 5.99564
#
# Compressibility (1/GPa) = 0.03521566
#
# Stress axis : x y z
#
# Youngs Moduli (GPa) = 40.08720 42.29205 79.50637
#
# Poissons Ratio (x) = 0.07999 0.19646
# Poissons Ratio (y) = 0.07582 0.68487
# Poissons Ratio (z) = 0.09905 0.36431
#
# Static dielectric constant tensor:
#      x y z
#    x 1.643440 0.000000 -0.002010 
#    y 0.000000 1.659400 0.000000 
#    z -0.002010 0.000000 1.681840 
# 
# From -- ./inp_files/2701.got.cif
#   From: 2010.05.17/outbox.cif.g08.bks.cpg/sg6_2_cif.got.tgz:2701.got - 2010.06.03 19:42:10.
