data_PCOD9131910
_publ_section_title
;
Structure prediction by ZEFSAII (Michael W. Deem and Ramdas Pophale) SiO2 
 PCOD9131910
Probable space group: C M
;
_chemical_formula_sum "Si O2"
_cell_formula_units_Z 24
_cell_length_a 18.805088
_cell_length_b 8.713260
_cell_length_c 24.883853
_cell_angle_alpha 90.000000
_cell_angle_beta 160.799051
_cell_angle_gamma 90.000000
_cell_volume 1340.954853
_symmetry_space_group_name_H-M "C M"
_symmetry_group_IT_number 8
_symmetry_cell_setting 'monoclinic'
loop_
_space_group_symop_operation_xyz
x,y,z
x,-y,z
1/2+x,1/2+y,z
1/2+x,1/2-y,z
loop_
_atom_site_type_symbol
_atom_site_label
_atom_site_fract_x
_atom_site_fract_y
_atom_site_fract_z
Si Si1 0.972430 0.183583 0.022230
Si Si2 0.612731 0.185101 0.677928
Si Si3 0.045687 0.317943 0.513175
Si Si4 0.572995 0.183190 0.200518
Si Si5 0.641971 0.817692 0.367761
Si Si6 0.943768 0.181389 0.333318
O O1 0.924023 0.259366 0.045661
O O2 0.209060 0.240459 0.172869
O O3 0.976730 0.000000 0.031190
O O4 0.797926 0.224575 0.852476
O O5 0.670531 0.224094 0.657129
O O6 0.389008 0.266227 0.534063
O O7 0.579135 0.000000 0.655326
O O8 0.060189 0.500000 0.515353
O O9 0.799234 0.270294 0.351520
O O10 0.088855 0.235220 0.487695
O O11 0.516000 0.215212 0.221772
O O12 0.607281 0.000000 0.220107
O O13 0.546100 0.731973 0.350339
O O14 0.633469 0.000000 0.370869
O O15 0.916589 0.000000 0.316584
#
# Coordination Sequence:
#
# PCOD9131910 Si02
#       6
#     4   4   4   4   4   4
#     4  10  19  33  53  76 103 132 164 202 246 295
#     4   9  19  34  53  77 102 130 164 203 246 295
#     4   9  16  30  51  72  97 130 166 201 243 294
#     4   9  17  30  49  73  98 128 167 204 241 292
#     4  10  20  34  53  75 100 131 167 206 248 294
#     4  11  21  33  51  75 102 131 168 208 246 292
#
# _framework density 17.897694000000001
#
# number of rings (size 3 to 8) (size 9 to 14) (size 15 to 20)
#    0.000    2.333    0.000    5.500    0.000    4.000 
#    0.000    1.667    0.000    2.000    0.000    0.000 
#    0.000    0.000    0.000    0.000    0.000    0.000 
#
# Total GULP energy -66880.953116 kJ/mol
# GULP energy per Si atom -5573.412760 kJ/mol
# Density = 1.785696 g / cm^3
# Si number density = 17.897694 Si / 1000 Ang^3
#
#
#
# Elastic Constant Matrix: (Units=GPa)
#
#
# Indices 1 2 3 4 5 6 
#
# 1 133.0243 29.2285 40.5168 0.0013 -31.5627 0.0002
# 2 29.2285 42.5984 19.8291 0.0020 -11.5192 0.0002
# 3 40.5168 19.8291 66.8081 0.0115 -34.3920 0.0008
# 4 0.0013 0.0020 0.0115 16.1199 0.0000 -4.3554
# 5 -31.5627 -11.5192 -34.3920 0.0000 32.2639 -0.0005
# 6 0.0002 0.0002 0.0008 -4.3554 -0.0005 31.4074
#
#
#
# Elastic Compliance Matrix: (Units=1/GPa)
#
#
# Indices 1 2 3 4 5 6 
#
# 1 0.010709 -0.004752 -0.001251 0.000001 0.007446 0.000000
# 2 -0.004752 0.029435 -0.006288 0.000001 -0.000843 0.000000
# 3 -0.001251 -0.006288 0.035030 -0.000025 0.033872 -0.000004
# 4 0.000001 0.000001 -0.000025 0.064450 -0.000026 0.008938
# 5 0.007446 -0.000843 0.033872 -0.000026 0.074084 -0.000003
# 6 0.000000 0.000000 -0.000004 0.008938 -0.000003 0.033079
#
#
# Mechanical properties :
#
#
# Convention : Reuss Voigt Hill
#
# Bulk Modulus (GPa) = 19.76624 46.84216 33.30420
# Shear Modulus (GPa) = 17.34696 26.14865 21.74781
#
# Velocity S-wave (km/s) = 3.11662 3.82646 3.48964
# Velocity P-wave (km/s) = 4.90093 6.76398 5.90637
#
# Compressibility (1/GPa) = 0.05059130
#
# Stress axis : x y z
#
# Youngs Moduli (GPa) = 93.37529 33.97313 28.54677
#
# Poissons Ratio (x) = 0.16145 0.03572
# Poissons Ratio (y) = 0.44374 0.17951
# Poissons Ratio (z) = 0.11682 0.21364
#
# Static dielectric constant tensor:
#      x y z
#    x 1.644630 0.000000 -0.048470 
#    y 0.000000 1.597500 0.000000 
#    z -0.048470 0.000000 1.612330 
# 
# From -- ./inp_files/14191.got.cif
#   From: 2010.05.17/outbox.cif.g08.bks.cpg/sg8_8_cif.got.tgz:14191.got - 2010.06.03 19:46:02.
