data_PCOD9131911
_publ_section_title
;
Structure prediction by ZEFSAII (Michael W. Deem and Ramdas Pophale) SiO2 
 PCOD9131911
Probable space group: C M
;
_chemical_formula_sum "Si O2"
_cell_formula_units_Z 32
_cell_length_a 14.622296
_cell_length_b 8.395073
_cell_length_c 14.591590
_cell_angle_alpha 90.000000
_cell_angle_beta 88.200579
_cell_angle_gamma 90.000000
_cell_volume 1790.310889
_symmetry_space_group_name_H-M "C M"
_symmetry_group_IT_number 8
_symmetry_cell_setting 'monoclinic'
loop_
_space_group_symop_operation_xyz
x,y,z
x,-y,z
1/2+x,1/2+y,z
1/2+x,1/2-y,z
loop_
_atom_site_type_symbol
_atom_site_label
_atom_site_fract_x
_atom_site_fract_y
_atom_site_fract_z
Si Si1 0.604180 0.809383 0.935160
Si Si2 0.462970 0.307405 0.795340
Si Si3 0.113055 0.807584 0.642951
Si Si4 0.613890 0.690697 0.141544
Si Si5 0.604892 0.307452 0.434134
Si Si6 0.754271 0.807512 0.782632
Si Si7 0.752290 0.190962 0.285949
Si Si8 0.460791 0.305924 0.289410
O O1 0.513713 0.750977 0.885116
O O2 0.690060 0.755445 0.869535
O O3 0.604428 0.000000 0.936621
O O4 0.611005 0.746871 0.037627
O O5 0.462597 0.500000 0.796598
O O6 0.526909 0.255570 0.708145
O O7 0.358602 0.252312 0.789065
O O8 0.106688 0.750913 0.538664
O O9 0.203614 0.750579 0.692711
O O10 0.112986 0.000000 0.642158
O O11 0.616543 0.500000 0.144291
O O12 0.700451 0.754620 0.195679
O O13 0.523888 0.743306 0.201584
O O14 0.604689 0.500000 0.435037
O O15 0.856695 0.249573 0.287205
O O16 0.515587 0.256097 0.379041
O O17 0.754699 0.000000 0.781662
O O18 0.692153 0.252716 0.372822
O O19 0.752726 0.000000 0.288402
O O20 0.458873 0.500000 0.289411
#
# Coordination Sequence:
#
# PCOD9131911 Si02
#       8
#     4   4   4   4   4   4   4   4
#     4  10  20  34  51  75 103 129 160 206 251 289
#     4   9  18  34  53  73  97 133 172 202 238 293
#     4   9  18  32  52  74  99 130 168 207 242 286
#     4  10  20  36  54  72  98 133 165 199 244 298
#     4   9  18  34  51  72 102 134 163 199 248 298
#     4   9  19  34  52  73 101 132 165 204 247 291
#     4  10  19  33  53  76  98 126 165 208 245 287
#     4   8  17  33  52  71  96 129 164 199 241 290
#
# _framework density 17.873989999999999
#
# number of rings (size 3 to 8) (size 9 to 14) (size 15 to 20)
#    0.000    2.750    0.000    1.875    0.000    3.500 
#    0.000   13.750    0.000    0.000    0.000    0.000 
#    0.000    0.000    0.000    0.000    0.000    0.000 
#
# Total GULP energy -89226.663616 kJ/mol
# GULP energy per Si atom -5576.666476 kJ/mol
# Density = 1.783331 g / cm^3
# Si number density = 17.873990 Si / 1000 Ang^3
#
#
#
# Elastic Constant Matrix: (Units=GPa)
#
#
# Indices 1 2 3 4 5 6 
#
# 1 188.9343 19.5148 96.4529 0.0000 19.4397 0.0000
# 2 19.5148 13.7631 19.3679 0.0000 2.6139 0.0000
# 3 96.4529 19.3679 185.5916 0.0000 19.2985 0.0000
# 4 0.0000 0.0000 0.0000 27.2765 0.0000 5.2734
# 5 19.4397 2.6139 19.2985 0.0000 9.1260 0.0000
# 6 0.0000 0.0000 0.0000 5.2734 0.0000 15.4650
#
#
#
# Elastic Compliance Matrix: (Units=1/GPa)
#
#
# Indices 1 2 3 4 5 6 
#
# 1 0.008336 -0.006172 -0.002597 0.000000 -0.010498 0.000000
# 2 -0.006172 0.090103 -0.006254 0.000000 0.000566 0.000000
# 3 -0.002597 -0.006254 0.008497 0.000000 -0.010647 0.000000
# 4 0.000000 0.000000 0.000000 0.039249 0.000000 -0.013384
# 5 -0.010498 0.000566 -0.010647 0.000000 0.154292 0.000000
# 6 0.000000 0.000000 0.000000 -0.013384 0.000000 0.069226
#
#
# Mechanical properties :
#
#
# Convention : Reuss Voigt Hill
#
# Bulk Modulus (GPa) = 13.00538 73.21781 43.11160
# Shear Modulus (GPa) = 11.75422 27.23707 19.49564
#
# Velocity S-wave (km/s) = 2.56718 3.90787 3.30620
# Velocity P-wave (km/s) = 4.00989 7.83672 6.22468
#
# Compressibility (1/GPa) = 0.07689124
#
# Stress axis : x y z
#
# Youngs Moduli (GPa) = 119.95994 11.09838 117.68339
#
# Poissons Ratio (x) = 0.06850 0.30557
# Poissons Ratio (y) = 0.74040 0.73601
# Poissons Ratio (z) = 0.31148 0.06941
#
# Static dielectric constant tensor:
#      x y z
#    x 1.603150 0.000000 -0.009470 
#    y 0.000000 1.618440 0.000000 
#    z -0.009470 0.000000 1.591500 
# 
# From -- ./inp_files/26437.got.cif
#   From: 2010.05.17/outbox.cif.g08.bks.cpg/sg8_14_cif.got.tgz:26437.got - 2010.06.03 19:46:02.
