data_PCOD9131240
_publ_section_title
;
Structure prediction by ZEFSAII (Michael W. Deem and Ramdas Pophale) SiO2 
 PCOD9131240
Probable space group: P C
;
_chemical_formula_sum "Si O2"
_cell_formula_units_Z 14
_cell_length_a 12.076425
_cell_length_b 13.216484
_cell_length_c 5.347057
_cell_angle_alpha 90.000000
_cell_angle_beta 133.407649
_cell_angle_gamma 90.000000
_cell_volume 620.004092
_symmetry_space_group_name_H-M "P C"
_symmetry_group_IT_number 7
_symmetry_cell_setting 'monoclinic'
loop_
_space_group_symop_operation_xyz
x,y,z
x,-y,1/2+z
loop_
_atom_site_type_symbol
_atom_site_label
_atom_site_fract_x
_atom_site_fract_y
_atom_site_fract_z
Si Si1 0.269480 0.560279 0.752950
Si Si2 0.142539 0.769343 0.751462
Si Si3 0.674388 0.037022 0.658010
Si Si4 0.636610 0.555233 0.326650
Si Si5 0.250923 0.941541 0.218563
Si Si6 0.821440 0.753614 0.507224
Si Si7 0.966853 0.104226 0.582997
O O1 0.221702 0.511071 0.413743
O O2 0.212126 0.673743 0.716892
O O3 0.453489 0.564052 0.036543
O O4 0.262069 0.825818 0.126784
O O5 0.983730 0.733666 0.628818
O O6 0.084320 0.856958 0.473170
O O7 0.725899 0.153291 0.737281
O O8 0.593174 0.002535 0.785244
O O9 0.829984 0.971681 0.922552
O O10 0.680199 0.523862 0.675714
O O11 0.715960 0.658228 0.370704
O O12 0.068069 0.933036 0.003543
O O13 0.298290 0.014458 0.062721
O O14 0.874184 0.796049 0.856887
#
# Coordination Sequence:
#
# PCOD9131240 Si02
#       7
#     2   2   2   2   2   2   2
#     4  10  25  46  65  84 118 165 209 259 313 367
#     4  11  22  35  63  94 125 158 207 252 308 360
#     4  10  18  30  49  81 120 153 183 219 286 357
#     4  10  24  46  65  83 116 161 209 254 309 366
#     4  11  20  31  52  85 127 163 194 234 293 366
#     4  10  22  33  61  93 119 158 197 251 301 352
#     4  10  19  33  51  92 127 160 183 245 298 362
#
# _framework density 22.580497000000001
#
# number of rings (size 3 to 8) (size 9 to 14) (size 15 to 20)
#    0.000    1.714    2.857    2.571    6.000    1.143 
#    0.000    0.000    0.000    3.429    0.000    0.000 
#    0.000    0.000    0.000    0.000    0.000    0.000 
#
# Total GULP energy -78052.351348 kJ/mol
# GULP energy per Si atom -5575.167953 kJ/mol
# Density = 2.252910 g / cm^3
# Si number density = 22.580497 Si / 1000 Ang^3
#
#
#
# Elastic Constant Matrix: (Units=GPa)
#
#
# Indices 1 2 3 4 5 6 
#
# 1 121.1788 60.1019 29.9432 0.0000 -28.6648 0.0000
# 2 60.1019 134.5874 11.9232 0.0000 -4.3944 0.0000
# 3 29.9432 11.9232 74.4718 0.0000 -26.6280 0.0000
# 4 0.0000 0.0000 0.0000 38.1816 0.0000 22.2593
# 5 -28.6648 -4.3944 -26.6280 0.0000 26.0268 0.0000
# 6 0.0000 0.0000 0.0000 22.2593 0.0000 89.6103
#
#
#
# Elastic Compliance Matrix: (Units=1/GPa)
#
#
# Indices 1 2 3 4 5 6 
#
# 1 0.015001 -0.006237 0.000785 0.000000 0.016271 0.000000
# 2 -0.006237 0.010130 -0.001512 0.000000 -0.006705 0.000000
# 3 0.000785 -0.001512 0.021401 0.000000 0.022505 0.000000
# 4 0.000000 0.000000 0.000000 0.030626 0.000000 -0.007607
# 5 0.016271 -0.006705 0.022505 0.000000 0.078234 0.000000
# 6 0.000000 0.000000 0.000000 -0.007607 0.000000 0.013049
#
#
# Mechanical properties :
#
#
# Convention : Reuss Voigt Hill
#
# Bulk Modulus (GPa) = 30.67050 59.35274 45.01162
# Shear Modulus (GPa) = 25.87498 45.98170 35.92834
#
# Velocity S-wave (km/s) = 3.38879 4.51748 3.99322
# Velocity P-wave (km/s) = 5.37811 7.31794 6.42169
#
# Compressibility (1/GPa) = 0.03260462
#
# Stress axis : x y z
#
# Youngs Moduli (GPa) = 66.66390 98.71334 46.72675
#
# Poissons Ratio (x) = 0.61568 -0.03668
# Poissons Ratio (y) = 0.41578 0.07064
# Poissons Ratio (z) = -0.05234 0.14923
#
# Static dielectric constant tensor:
#      x y z
#    x 1.914690 0.000000 -0.091970 
#    y 0.000000 1.836350 0.000000 
#    z -0.091970 0.000000 1.936240 
# 
# From -- ./inp_files/1090.got.cif
#   From: 2010.05.17/outbox.cif.g08.bks.cpg/sg7_cif.got.tgz:1090.got - 2010.06.03 19:44:50.
