data_PCOD9131536
_publ_section_title
;
Structure prediction by ZEFSAII (Michael W. Deem and Ramdas Pophale) SiO2 
 PCOD9131536
Probable space group: C M
;
_chemical_formula_sum "Si O2"
_cell_formula_units_Z 32
_cell_length_a 7.831706
_cell_length_b 17.701129
_cell_length_c 10.857588
_cell_angle_alpha 90.000000
_cell_angle_beta 120.858001
_cell_angle_gamma 90.000000
_cell_volume 1292.115122
_symmetry_space_group_name_H-M "C M"
_symmetry_group_IT_number 8
_symmetry_cell_setting 'monoclinic'
loop_
_space_group_symop_operation_xyz
x,y,z
x,-y,z
1/2+x,1/2+y,z
1/2+x,1/2-y,z
loop_
_atom_site_type_symbol
_atom_site_label
_atom_site_fract_x
_atom_site_fract_y
_atom_site_fract_z
Si Si1 0.065810 0.845018 0.824980
Si Si2 0.058595 0.087613 0.078421
Si Si3 0.604593 0.189309 0.695127
Si Si4 0.070894 0.413354 0.897685
Si Si5 0.084776 0.591257 0.171845
Si Si6 0.040586 0.149123 0.334601
Si Si7 0.993900 0.914828 0.563495
Si Si8 0.083831 0.323536 0.407882
O O1 0.122435 0.769508 0.771231
O O2 0.098581 0.909260 0.734394
O O3 0.828496 0.838252 0.757944
O O4 0.131058 0.864057 0.987971
O O5 0.118327 0.117596 0.234700
O O6 0.116709 0.000000 0.082608
O O7 0.814643 0.089254 0.989698
O O8 0.504280 0.137004 0.759902
O O9 0.510712 0.183535 0.523307
O O10 0.016661 0.500000 0.858839
O O11 0.001133 0.386055 0.006451
O O12 0.092837 0.500000 0.175188
O O13 0.307342 0.625847 0.249803
O O14 0.998664 0.622897 0.267840
O O15 0.114678 0.109811 0.487448
O O16 0.069323 0.238501 0.352970
O O17 0.808450 0.856550 0.501455
O O18 0.919745 0.000000 0.518113
#
# Coordination Sequence:
#
# PCOD9131536 Si02
#       8
#     4   4   4   4   4   4   4   4
#     4  10  20  34  53  79 107 136 178 224 269 315
#     4   9  17  30  50  76 100 129 178 225 261 309
#     4  10  20  33  50  78 110 137 174 223 268 321
#     4   8  16  31  52  74 100 133 176 221 265 310
#     4   9  18  33  52  76 103 135 179 222 263 312
#     4  10  17  29  47  76 106 132 165 218 270 310
#     4  10  19  34  54  75 104 138 177 220 264 312
#     4  10  19  28  46  78 104 136 167 213 264 317
#
# _framework density 24.765592999999999
#
# number of rings (size 3 to 8) (size 9 to 14) (size 15 to 20)
#    0.000    2.500    1.250    3.375    1.750    3.500 
#    0.000    0.000    0.000    1.500    0.000   24.500 
#    0.000    0.000    0.000    0.000    0.000    0.000 
#
# Total GULP energy -89379.331757 kJ/mol
# GULP energy per Si atom -5586.208235 kJ/mol
# Density = 2.470923 g / cm^3
# Si number density = 24.765593 Si / 1000 Ang^3
#
#
#
# Elastic Constant Matrix: (Units=GPa)
#
#
# Indices 1 2 3 4 5 6 
#
# 1 114.7933 28.4756 48.3664 0.0000 -26.0408 0.0000
# 2 28.4756 128.6770 88.8013 0.0000 -35.2505 0.0000
# 3 48.3664 88.8013 244.2538 0.0000 -57.1669 0.0000
# 4 0.0000 0.0000 0.0000 43.0683 0.0000 -17.0776
# 5 -26.0408 -35.2505 -57.1669 0.0000 50.7497 0.0000
# 6 0.0000 0.0000 0.0000 -17.0776 0.0000 17.5021
#
#
#
# Elastic Compliance Matrix: (Units=1/GPa)
#
#
# Indices 1 2 3 4 5 6 
#
# 1 0.010089 -0.000577 -0.000910 0.000000 0.003751 0.000000
# 2 -0.000577 0.011047 -0.002954 0.000000 0.004049 0.000000
# 3 -0.000910 -0.002954 0.006463 0.000000 0.004761 0.000000
# 4 0.000000 0.000000 0.000000 0.037872 0.000000 0.036953
# 5 0.003751 0.004049 0.004761 0.000000 0.029805 0.000000
# 6 0.000000 0.000000 0.000000 0.036953 0.000000 0.093193
#
#
# Mechanical properties :
#
#
# Convention : Reuss Voigt Hill
#
# Bulk Modulus (GPa) = 53.43105 91.00120 72.21612
# Shear Modulus (GPa) = 24.55929 43.73607 34.14768
#
# Velocity S-wave (km/s) = 3.15250 4.20694 3.71730
# Velocity P-wave (km/s) = 5.90530 7.77320 6.90272
#
# Compressibility (1/GPa) = 0.01871571
#
# Stress axis : x y z
#
# Youngs Moduli (GPa) = 99.12011 90.52063 154.73521
#
# Poissons Ratio (x) = 0.05223 0.14083
# Poissons Ratio (y) = 0.05719 0.45714
# Poissons Ratio (z) = 0.09021 0.26743
#
# Static dielectric constant tensor:
#      x y z
#    x 2.065370 0.000000 0.048970 
#    y 0.000000 1.941360 0.000000 
#    z 0.048970 0.000000 2.028450 
# 
# From -- ./inp_files/20417.got.cif
#   From: 2010.05.17/outbox.cif.g08.bks.cpg/sg8_11_cif.got.tgz:20417.got - 2010.06.03 19:46:02.
