data_PCOD9131337
_publ_section_title
;
Structure prediction by ZEFSAII (Michael W. Deem and Ramdas Pophale) SiO2 
 PCOD9131337
Probable space group: P C
;
_chemical_formula_sum "Si O2"
_cell_formula_units_Z 16
_cell_length_a 8.693846
_cell_length_b 17.496513
_cell_length_c 4.994200
_cell_angle_alpha 90.000000
_cell_angle_beta 118.580560
_cell_angle_gamma 90.000000
_cell_volume 667.107432
_symmetry_space_group_name_H-M "P C"
_symmetry_group_IT_number 7
_symmetry_cell_setting 'monoclinic'
loop_
_space_group_symop_operation_xyz
x,y,z
x,-y,1/2+z
loop_
_atom_site_type_symbol
_atom_site_label
_atom_site_fract_x
_atom_site_fract_y
_atom_site_fract_z
Si Si1 0.302820 0.290392 0.060020
Si Si2 0.661255 0.355071 0.426039
Si Si3 0.962310 0.680740 0.574849
Si Si4 0.756816 0.203848 0.166452
Si Si5 0.944371 0.548962 0.947319
Si Si6 0.262344 0.956465 0.306628
Si Si7 0.390663 0.803767 0.128788
Si Si8 0.839947 0.954148 0.005277
O O1 0.452704 0.351103 0.270380
O O2 0.337154 0.217537 0.284670
O O3 0.328836 0.264277 0.777344
O O4 0.110122 0.317049 0.974743
O O5 0.778546 0.348589 0.792528
O O6 0.708042 0.276283 0.310192
O O7 0.740628 0.426149 0.326960
O O8 0.928177 0.766363 0.654793
O O9 0.014873 0.624236 0.857838
O O10 0.599827 0.193085 0.828125
O O11 0.778673 0.127977 0.355228
O O12 0.990806 0.517712 0.277429
O O13 0.051455 0.953792 0.159122
O O14 0.323054 0.024141 0.156137
O O15 0.318524 0.879800 0.205676
O O16 0.782517 0.019979 0.749873
#
# Coordination Sequence:
#
# PCOD9131337 Si02
#       8
#     2   2   2   2   2   2   2   2
#     4  11  25  40  65  99 128 163 221 265 320 379
#     4  10  23  44  67 100 131 170 216 268 319 385
#     4  11  23  42  73  95 133 174 212 271 321 379
#     4  10  23  39  64  93 128 166 223 270 327 384
#     4  11  23  43  71 100 136 175 211 258 322 384
#     4  10  21  37  54  80 120 163 212 265 328 391
#     4  11  23  40  60  91 126 163 215 279 321 386
#     4  10  23  37  56  86 122 166 216 268 324 390
#
# _framework density 23.98414
#
# number of rings (size 3 to 8) (size 9 to 14) (size 15 to 20)
#    0.000    1.500    2.500    1.500    7.000    2.000 
#    0.000    1.250    0.000    0.000    0.000    0.000 
#    0.000    0.000    0.000    0.000    0.000    0.000 
#
# Total GULP energy -89454.577115 kJ/mol
# GULP energy per Si atom -5590.911070 kJ/mol
# Density = 2.392955 g / cm^3
# Si number density = 23.984140 Si / 1000 Ang^3
#
#
#
# Elastic Constant Matrix: (Units=GPa)
#
#
# Indices 1 2 3 4 5 6 
#
# 1 63.6345 -5.0994 9.7653 0.0000 -5.5793 0.0000
# 2 -5.0994 54.9219 7.2046 0.0000 2.3466 0.0000
# 3 9.7653 7.2046 66.9671 0.0000 -15.9010 0.0000
# 4 0.0000 0.0000 0.0000 28.6674 0.0000 -6.8143
# 5 -5.5793 2.3466 -15.9010 0.0000 26.6778 0.0000
# 6 0.0000 0.0000 0.0000 -6.8143 0.0000 32.2254
#
#
#
# Elastic Compliance Matrix: (Units=1/GPa)
#
#
# Indices 1 2 3 4 5 6 
#
# 1 0.016349 0.001705 -0.002087 0.000000 0.002026 0.000000
# 2 0.001705 0.018895 -0.003019 0.000000 -0.003105 0.000000
# 3 -0.002087 -0.003019 0.018080 0.000000 0.010605 0.000000
# 4 0.000000 0.000000 0.000000 0.036729 0.000000 0.007767
# 5 0.002026 -0.003105 0.010605 0.000000 0.044502 0.000000
# 6 0.000000 0.000000 0.000000 0.007767 0.000000 0.032674
#
#
# Mechanical properties :
#
#
# Convention : Reuss Voigt Hill
#
# Bulk Modulus (GPa) = 21.49439 23.25162 22.37301
# Shear Modulus (GPa) = 26.38015 29.09099 27.73557
#
# Velocity S-wave (km/s) = 3.32007 3.48649 3.40430
# Velocity P-wave (km/s) = 4.86606 5.09147 4.98004
#
# Compressibility (1/GPa) = 0.04652376
#
# Stress axis : x y z
#
# Youngs Moduli (GPa) = 61.16514 52.92512 55.30997
#
# Poissons Ratio (x) = -0.09025 0.11541
# Poissons Ratio (y) = -0.10430 0.16696
# Poissons Ratio (z) = 0.12763 0.15976
#
# Static dielectric constant tensor:
#      x y z
#    x 1.924440 0.000000 0.017530 
#    y 0.000000 1.939320 0.000000 
#    z 0.017530 0.000000 1.935450 
# 
# From -- ./inp_files/863.got.cif
#   From: 2010.05.17/outbox.cif.g08.bks.cpg/sg7_cif.got.tgz:863.got - 2010.06.03 19:44:50.
