data_PCOD9131727
_publ_section_title
;
Structure prediction by ZEFSAII (Michael W. Deem and Ramdas Pophale) SiO2 
 PCOD9131727
Probable space group: C M
;
_chemical_formula_sum "Si O2"
_cell_formula_units_Z 26
_cell_length_a 26.192882
_cell_length_b 7.850682
_cell_length_c 9.093284
_cell_angle_alpha 90.000000
_cell_angle_beta 139.388898
_cell_angle_gamma 90.000000
_cell_volume 1217.138299
_symmetry_space_group_name_H-M "C M"
_symmetry_group_IT_number 8
_symmetry_cell_setting 'monoclinic'
loop_
_space_group_symop_operation_xyz
x,y,z
x,-y,z
1/2+x,1/2+y,z
1/2+x,1/2-y,z
loop_
_atom_site_type_symbol
_atom_site_label
_atom_site_fract_x
_atom_site_fract_y
_atom_site_fract_z
Si Si1 0.768950 0.500000 0.870260
Si Si2 0.687738 0.500000 0.369820
Si Si3 0.732247 0.500000 0.149430
Si Si4 0.471676 0.296173 0.644973
Si Si5 0.529069 0.799574 0.372288
Si Si6 0.630985 0.191484 0.842511
Si Si7 0.871275 0.808503 0.167367
Si Si8 0.062253 0.697693 0.105240
O O1 0.716981 0.500000 0.605330
O O2 0.756187 0.500000 0.023495
O O3 0.818777 0.673933 0.969313
O O4 0.630557 0.334895 0.225250
O O5 0.751341 0.500000 0.371766
O O6 0.685035 0.324248 0.038779
O O7 0.481730 0.500000 0.653593
O O8 0.545231 0.204466 0.728563
O O9 0.392941 0.254249 0.383282
O O10 0.485136 0.241041 0.840374
O O11 0.610487 0.753762 0.631114
O O12 0.456564 0.694978 0.276653
O O13 0.539071 0.782597 0.223014
O O14 0.514916 0.000000 0.375981
O O15 0.660841 0.000000 0.912020
O O16 0.839417 0.000000 0.098420
O O17 0.085538 0.500000 0.128928
#
# Coordination Sequence:
#
# PCOD9131727 Si02
#       8
#     2   2   2   4   4   4   4   4
#     4  12  28  48  64  84 134 190 219 254 308 376
#     4  12  26  44  64  96 138 164 219 266 306 402
#     4  12  24  42  64  92 124 180 218 256 314 376
#     4  10  18  35  61  92 127 149 198 271 327 379
#     4   9  19  34  59  96 128 159 201 260 335 385
#     4  10  18  33  59  90 124 155 201 261 323 379
#     4  10  23  42  64  87 120 172 222 262 307 379
#     4  11  21  35  61 101 131 158 197 269 343 378
#
# _framework density 21.361581999999999
#
# number of rings (size 3 to 8) (size 9 to 14) (size 15 to 20)
#    0.000    1.538    3.846    1.385    4.308    1.231 
#    2.769    0.000    0.000    0.000    0.000    0.000 
#    0.000    0.000    0.000    0.000    0.000    0.000 
#
# Total GULP energy -72368.899881 kJ/mol
# GULP energy per Si atom -5566.838452 kJ/mol
# Density = 2.131296 g / cm^3
# Si number density = 21.361582 Si / 1000 Ang^3
#
#
#
# Elastic Constant Matrix: (Units=GPa)
#
#
# Indices 1 2 3 4 5 6 
#
# 1 46.9747 13.5256 17.7235 0.0000 -28.9546 0.0000
# 2 13.5256 105.2647 55.2369 0.0000 -7.7487 0.0000
# 3 17.7235 55.2369 104.2526 0.0000 -31.5957 0.0000
# 4 0.0000 0.0000 0.0000 27.2109 0.0000 -7.5479
# 5 -28.9546 -7.7487 -31.5957 0.0000 33.9641 0.0000
# 6 0.0000 0.0000 0.0000 -7.5479 0.0000 17.0736
#
#
#
# Elastic Compliance Matrix: (Units=1/GPa)
#
#
# Indices 1 2 3 4 5 6 
#
# 1 0.052932 -0.009344 0.012508 0.000000 0.054629 0.000000
# 2 -0.009344 0.015408 -0.011035 0.000000 -0.014716 0.000000
# 3 0.012508 -0.011035 0.021977 0.000000 0.028591 0.000000
# 4 0.000000 0.000000 0.000000 0.041886 0.000000 0.018517
# 5 0.054629 -0.014716 0.028591 0.000000 0.099254 0.000000
# 6 0.000000 0.000000 0.000000 0.018517 0.000000 0.066756
#
#
# Mechanical properties :
#
#
# Convention : Reuss Voigt Hill
#
# Bulk Modulus (GPa) = 13.40910 47.71820 30.56365
# Shear Modulus (GPa) = 14.75739 26.98344 20.87042
#
# Velocity S-wave (km/s) = 2.63123 3.55797 3.12910
# Velocity P-wave (km/s) = 3.93980 6.26624 5.23391
#
# Compressibility (1/GPa) = 0.07457623
#
# Stress axis : x y z
#
# Youngs Moduli (GPa) = 18.89223 64.90246 45.50139
#
# Poissons Ratio (x) = 0.60642 -0.56914
# Poissons Ratio (y) = 0.17652 0.50211
# Poissons Ratio (z) = -0.23631 0.71620
#
# Static dielectric constant tensor:
#      x y z
#    x 1.857200 0.000000 -0.042330 
#    y 0.000000 1.754820 0.000000 
#    z -0.042330 0.000000 1.827680 
# 
# From -- ./inp_files/14425.got.cif
#   From: 2010.05.17/outbox.cif.g08.bks.cpg/sg8_8_cif.got.tgz:14425.got - 2010.06.03 19:46:02.
