data_PCOD9131545
_publ_section_title
;
Structure prediction by ZEFSAII (Michael W. Deem and Ramdas Pophale) SiO2 
 PCOD9131545
Probable space group: C M
;
_chemical_formula_sum "Si O2"
_cell_formula_units_Z 32
_cell_length_a 21.401690
_cell_length_b 7.712927
_cell_length_c 26.367284
_cell_angle_alpha 90.000000
_cell_angle_beta 157.719560
_cell_angle_gamma 90.000000
_cell_volume 1650.184933
_symmetry_space_group_name_H-M "C M"
_symmetry_group_IT_number 8
_symmetry_cell_setting 'monoclinic'
loop_
_space_group_symop_operation_xyz
x,y,z
x,-y,z
1/2+x,1/2+y,z
1/2+x,1/2-y,z
loop_
_atom_site_type_symbol
_atom_site_label
_atom_site_fract_x
_atom_site_fract_y
_atom_site_fract_z
Si Si1 0.540250 0.787534 0.939310
Si Si2 0.869545 0.790764 0.234705
Si Si3 0.471364 0.789909 0.493197
Si Si4 0.367734 0.797417 0.913531
Si Si5 0.198253 0.205173 0.212569
Si Si6 0.795476 0.292701 0.671455
Si Si7 0.241616 0.213402 0.516750
Si Si8 0.504035 0.796857 0.632476
O O1 0.438361 0.730018 0.912686
O O2 0.446911 0.726589 0.819204
O O3 0.538606 0.000000 0.938377
O O4 0.728226 0.732109 0.089552
O O5 0.805846 0.740763 0.242819
O O6 0.054771 0.731131 0.364491
O O7 0.871266 0.000000 0.234898
O O8 0.305112 0.728423 0.340173
O O9 0.628020 0.740873 0.576665
O O10 0.492209 0.724748 0.566357
O O11 0.467306 0.000000 0.490916
O O12 0.191386 0.716933 0.792554
O O13 0.336903 0.000000 0.883674
O O14 0.515867 0.776000 0.064724
O O15 0.180080 0.000000 0.204491
O O16 0.814187 0.500000 0.682061
O O17 0.783963 0.227183 0.605519
O O18 0.373408 0.274859 0.574498
O O19 0.243049 0.000000 0.518340
O O20 0.464592 0.000000 0.598079
#
# Coordination Sequence:
#
# PCOD9131545 Si02
#       8
#     4   4   4   4   4   4   4   4
#     4   8  15  26  46  74  98 118 158 211 251 287
#     4   9  16  30  49  72 100 131 167 208 250 297
#     4  10  20  32  49  75 106 136 169 208 255 304
#     4  10  19  33  52  76 101 133 172 213 258 303
#     4  10  19  31  49  76 104 132 167 212 260 304
#     4  10  17  30  51  75 100 128 171 217 249 290
#     4   9  18  31  51  74 101 137 172 209 253 299
#     4  10  20  35  51  74 108 141 170 206 256 310
#
# _framework density 19.391766000000001
#
# number of rings (size 3 to 8) (size 9 to 14) (size 15 to 20)
#    0.000    2.500    2.500    1.500    0.000    0.500 
#    0.000    2.500    0.000    6.000    0.000    3.500 
#    0.000    0.000    0.000    0.000    0.000    0.000 
#
# Total GULP energy -89237.454460 kJ/mol
# GULP energy per Si atom -5577.340904 kJ/mol
# Density = 1.934763 g / cm^3
# Si number density = 19.391766 Si / 1000 Ang^3
#
#
#
# Elastic Constant Matrix: (Units=GPa)
#
#
# Indices 1 2 3 4 5 6 
#
# 1 101.2112 -1.5596 56.5431 0.0002 -0.2371 0.0001
# 2 -1.5596 28.0595 -8.1122 -0.0007 -2.6194 0.0000
# 3 56.5431 -8.1122 119.8524 -0.0015 -11.4530 -0.0001
# 4 0.0002 -0.0007 -0.0015 15.5846 0.0000 3.2020
# 5 -0.2371 -2.6194 -11.4530 0.0000 27.1925 -0.0001
# 6 0.0001 0.0000 -0.0001 3.2020 -0.0001 11.1182
#
#
#
# Elastic Compliance Matrix: (Units=1/GPa)
#
#
# Indices 1 2 3 4 5 6 
#
# 1 0.013662 -0.001484 -0.006823 -0.000001 -0.002897 0.000000
# 2 -0.001484 0.037104 0.003701 0.000002 0.005120 -0.000001
# 3 -0.006823 0.003701 0.012338 0.000002 0.005493 0.000000
# 4 -0.000001 0.000002 0.000002 0.068202 0.000001 -0.019642
# 5 -0.002897 0.005120 0.005493 0.000001 0.039557 0.000000
# 6 0.000000 -0.000001 0.000000 -0.019642 0.000000 0.095600
#
#
# Mechanical properties :
#
#
# Convention : Reuss Voigt Hill
#
# Bulk Modulus (GPa) = 18.55552 38.09620 28.32586
# Shear Modulus (GPa) = 17.02778 24.26249 20.64514
#
# Velocity S-wave (km/s) = 2.96648 3.54103 3.26641
# Velocity P-wave (km/s) = 4.61767 6.03380 5.37260
#
# Compressibility (1/GPa) = 0.05389233
#
# Stress axis : x y z
#
# Youngs Moduli (GPa) = 73.19392 26.95132 81.05149
#
# Poissons Ratio (x) = 0.03999 0.55300
# Poissons Ratio (y) = 0.10859 -0.29993
# Poissons Ratio (z) = 0.49939 -0.09973
#
# Static dielectric constant tensor:
#      x y z
#    x 1.652970 0.000000 -0.023580 
#    y 0.000000 1.710990 0.000000 
#    z -0.023580 0.000000 1.697260 
# 
# From -- ./inp_files/29756.got.cif
#   From: 2010.05.17/outbox.cif.g08.bks.cpg/sg8_15_cif.got.tgz:29756.got - 2010.06.03 19:46:02.
