data_PCOD9131511
_publ_section_title
;
Structure prediction by ZEFSAII (Michael W. Deem and Ramdas Pophale) SiO2 
 PCOD9131511
Probable space group: C M
;
_chemical_formula_sum "Si O2"
_cell_formula_units_Z 22
_cell_length_a 19.432023
_cell_length_b 11.754067
_cell_length_c 15.499560
_cell_angle_alpha 90.000000
_cell_angle_beta 161.152967
_cell_angle_gamma 90.000000
_cell_volume 1143.629744
_symmetry_space_group_name_H-M "C M"
_symmetry_group_IT_number 8
_symmetry_cell_setting 'monoclinic'
loop_
_space_group_symop_operation_xyz
x,y,z
x,-y,z
1/2+x,1/2+y,z
1/2+x,1/2-y,z
loop_
_atom_site_type_symbol
_atom_site_label
_atom_site_fract_x
_atom_site_fract_y
_atom_site_fract_z
Si Si1 0.379110 0.256480 0.468450
Si Si2 0.396063 0.219328 0.855705
Si Si3 0.308665 0.500000 0.557675
Si Si4 0.702245 0.747748 0.449364
Si Si5 0.081222 0.000000 0.735625
Si Si6 0.910179 0.500000 0.986507
Si Si7 0.782654 0.865604 0.875355
O O1 0.329501 0.231084 0.510590
O O2 0.480753 0.382015 0.583138
O O3 0.550910 0.169473 0.635026
O O4 0.149543 0.258488 0.149982
O O5 0.295055 0.190020 0.644162
O O6 0.303327 0.324719 0.800575
O O7 0.354602 0.112058 0.868655
O O8 0.242160 0.381224 0.519831
O O9 0.545038 0.500000 0.796568
O O10 0.162836 0.500000 0.298269
O O11 0.464490 0.705428 0.144095
O O12 0.312069 0.000000 0.965529
O O13 0.821670 0.000000 0.929959
#
# Coordination Sequence:
#
# PCOD9131511 Si02
#       7
#     4   4   2   4   2   2   4
#     4  10  20  41  62  87 124 160 203 245 306 355
#     4  11  23  39  65  91 122 157 206 251 301 358
#     4  10  18  40  62  87 112 158 205 246 304 347
#     4  10  23  40  63  92 121 157 205 252 299 358
#     4  10  16  34  66  86 109 153 201 253 289 351
#     4  12  18  38  66  87 113 159 198 255 305 348
#     4  11  24  42  61  87 127 167 198 245 310 362
#
# _framework density 19.236995
#
# number of rings (size 3 to 8) (size 9 to 14) (size 15 to 20)
#    0.000    1.455    7.273    0.000    2.545    4.364 
#    0.000    0.000    4.000    0.000    0.000    0.000 
#    0.000    0.000    0.000    0.000    0.000    0.000 
#
# Total GULP energy -61275.346371 kJ/mol
# GULP energy per Si atom -5570.486034 kJ/mol
# Density = 1.919321 g / cm^3
# Si number density = 19.236995 Si / 1000 Ang^3
#
#
#
# Elastic Constant Matrix: (Units=GPa)
#
#
# Indices 1 2 3 4 5 6 
#
# 1 66.5180 10.8635 58.3846 -0.0006 -1.4729 -0.0001
# 2 10.8635 84.3855 2.6740 0.0008 18.2728 -0.0002
# 3 58.3846 2.6740 75.5809 0.0040 12.2994 0.0010
# 4 -0.0006 0.0008 0.0040 18.2546 0.0028 5.3331
# 5 -1.4729 18.2728 12.2994 0.0028 38.6461 0.0006
# 6 -0.0001 -0.0002 0.0010 5.3331 0.0006 23.4877
#
#
#
# Elastic Compliance Matrix: (Units=1/GPa)
#
#
# Indices 1 2 3 4 5 6 
#
# 1 0.064572 -0.012076 -0.053557 0.000010 0.025216 0.000000
# 2 -0.012076 0.015484 0.010596 -0.000002 -0.011154 0.000000
# 3 -0.053557 0.010596 0.058399 -0.000011 -0.025637 0.000000
# 4 0.000010 -0.000002 -0.000011 0.058673 0.000001 -0.013322
# 5 0.025216 -0.011154 -0.025637 0.000001 0.040270 0.000000
# 6 0.000000 0.000000 0.000000 -0.013322 0.000000 0.045600
#
#
# Mechanical properties :
#
#
# Convention : Reuss Voigt Hill
#
# Bulk Modulus (GPa) = 35.23364 41.14763 38.19063
# Shear Modulus (GPa) = 12.42132 26.38184 19.40158
#
# Velocity S-wave (km/s) = 2.54382 3.70727 3.17922
# Velocity P-wave (km/s) = 5.19455 6.30567 5.77689
#
# Compressibility (1/GPa) = 0.02838197
#
# Stress axis : x y z
#
# Youngs Moduli (GPa) = 15.48653 64.58084 17.12348
#
# Poissons Ratio (x) = 0.77987 0.91708
# Poissons Ratio (y) = 0.18701 -0.18143
# Poissons Ratio (z) = 0.82941 -0.68427
#
# Static dielectric constant tensor:
#      x y z
#    x 1.673390 0.000000 0.014340 
#    y 0.000000 1.762120 0.000000 
#    z 0.014340 0.000000 1.659690 
# 
# From -- ./inp_files/26702.got.cif
#   From: 2010.05.17/outbox.cif.g08.bks.cpg/sg8_14_cif.got.tgz:26702.got - 2010.06.03 19:46:02.
