data_PCOD9131734
_publ_section_title
;
Structure prediction by ZEFSAII (Michael W. Deem and Ramdas Pophale) SiO2 
 PCOD9131734
Probable space group: C M
;
_chemical_formula_sum "Si O2"
_cell_formula_units_Z 32
_cell_length_a 20.751324
_cell_length_b 8.530262
_cell_length_c 25.768116
_cell_angle_alpha 90.000000
_cell_angle_beta 156.746970
_cell_angle_gamma 90.000000
_cell_volume 1800.775948
_symmetry_space_group_name_H-M "C M"
_symmetry_group_IT_number 8
_symmetry_cell_setting 'monoclinic'
loop_
_space_group_symop_operation_xyz
x,y,z
x,-y,z
1/2+x,1/2+y,z
1/2+x,1/2-y,z
loop_
_atom_site_type_symbol
_atom_site_label
_atom_site_fract_x
_atom_site_fract_y
_atom_site_fract_z
Si Si1 0.837850 0.189074 0.701070
Si Si2 0.324431 0.811648 0.338710
Si Si3 0.646555 0.310149 0.864520
Si Si4 0.511636 0.189451 0.162419
Si Si5 0.648299 0.809908 0.374718
Si Si6 0.016664 0.313450 0.658854
Si Si7 0.539631 0.810084 0.404932
Si Si8 0.119656 0.813670 0.628034
O O1 0.704990 0.231766 0.558379
O O2 0.772601 0.263057 0.705829
O O3 0.014447 0.236369 0.810532
O O4 0.833020 0.000000 0.703019
O O5 0.390602 0.758987 0.331235
O O6 0.458973 0.752077 0.479592
O O7 0.148374 0.749152 0.223989
O O8 0.324983 0.000000 0.340739
O O9 0.643282 0.500000 0.859839
O O10 0.588540 0.247359 0.766141
O O11 0.829371 0.258961 0.013475
O O12 0.566351 0.241574 0.260439
O O13 0.513674 0.000000 0.163532
O O14 0.833814 0.752522 0.516138
O O15 0.552757 0.755642 0.355612
O O16 0.651392 0.000000 0.377111
O O17 0.010737 0.500000 0.654617
O O18 0.120043 0.254992 0.685994
O O19 0.534418 0.000000 0.399664
O O20 0.107268 0.000000 0.621190
#
# Coordination Sequence:
#
# PCOD9131734 Si02
#       8
#     4   4   4   4   4   4   4   4
#     4   9  17  33  55  79 110 148 186 229 278 332
#     4  10  19  33  53  80 114 149 184 229 278 327
#     4  10  21  39  58  80 115 156 191 227 278 339
#     4  10  21  35  57  84 112 151 191 225 274 340
#     4  10  18  34  57  82 110 144 185 230 277 330
#     4  12  23  35  55  85 112 143 191 240 282 330
#     4   8  15  29  52  78 105 141 183 223 270 321
#     4  11  21  34  55  82 112 146 185 235 285 333
#
# _framework density 17.770116999999999
#
# number of rings (size 3 to 8) (size 9 to 14) (size 15 to 20)
#    0.000    2.000    2.500    3.375    0.000    1.000 
#    0.000    1.875    0.000    3.000    0.000    0.000 
#    0.000    0.000    0.000    0.000    0.000    0.000 
#
# Total GULP energy -89292.107694 kJ/mol
# GULP energy per Si atom -5580.756731 kJ/mol
# Density = 1.772967 g / cm^3
# Si number density = 17.770117 Si / 1000 Ang^3
#
#
#
# Elastic Constant Matrix: (Units=GPa)
#
#
# Indices 1 2 3 4 5 6 
#
# 1 161.7015 26.3440 83.4944 -0.0001 18.5575 -0.0001
# 2 26.3440 28.5540 27.9646 0.0000 2.1809 0.0000
# 3 83.4944 27.9646 128.1447 -0.0011 13.9989 0.0000
# 4 -0.0001 0.0000 -0.0011 10.0164 -0.0001 7.7730
# 5 18.5575 2.1809 13.9989 -0.0001 28.3212 0.0000
# 6 -0.0001 0.0000 0.0000 7.7730 0.0000 26.5957
#
#
#
# Elastic Compliance Matrix: (Units=1/GPa)
#
#
# Indices 1 2 3 4 5 6 
#
# 1 0.009920 -0.003730 -0.005255 -0.000001 -0.003616 0.000000
# 2 -0.003730 0.046000 -0.007915 -0.000001 0.002814 0.000000
# 3 -0.005255 -0.007915 0.013226 0.000002 -0.002485 -0.000001
# 4 -0.000001 -0.000001 0.000002 0.129122 0.000000 -0.037738
# 5 -0.003616 0.002814 -0.002485 0.000000 0.038690 0.000000
# 6 0.000000 0.000000 -0.000001 -0.037738 0.000000 0.048630
#
#
# Mechanical properties :
#
#
# Convention : Reuss Voigt Hill
#
# Bulk Modulus (GPa) = 28.29182 66.00068 47.14625
# Shear Modulus (GPa) = 15.09802 25.02649 20.06225
#
# Velocity S-wave (km/s) = 2.91800 3.75687 3.36369
# Velocity P-wave (km/s) = 5.22576 7.48604 6.45559
#
# Compressibility (1/GPa) = 0.03534591
#
# Stress axis : x y z
#
# Youngs Moduli (GPa) = 100.80595 21.73924 75.60745
#
# Poissons Ratio (x) = 0.08109 0.39729
# Poissons Ratio (y) = 0.37600 0.59847
# Poissons Ratio (z) = 0.52969 0.17208
#
# Static dielectric constant tensor:
#      x y z
#    x 1.621990 0.000000 0.012540 
#    y 0.000000 1.605350 0.000000 
#    z 0.012540 0.000000 1.578790 
# 
# From -- ./inp_files/24308.got.cif
#   From: 2010.05.17/outbox.cif.g08.bks.cpg/sg8_13_cif.got.tgz:24308.got - 2010.06.03 19:46:02.
