data_PCOD9131249
_publ_section_title
;
Structure prediction by ZEFSAII (Michael W. Deem and Ramdas Pophale) SiO2 
 PCOD9131249
Probable space group: P C
;
_chemical_formula_sum "Si O2"
_cell_formula_units_Z 12
_cell_length_a 15.213433
_cell_length_b 6.682045
_cell_length_c 5.165746
_cell_angle_alpha 90.000000
_cell_angle_beta 80.518863
_cell_angle_gamma 90.000000
_cell_volume 517.960052
_symmetry_space_group_name_H-M "P C"
_symmetry_group_IT_number 7
_symmetry_cell_setting 'monoclinic'
loop_
_space_group_symop_operation_xyz
x,y,z
x,-y,1/2+z
loop_
_atom_site_type_symbol
_atom_site_label
_atom_site_fract_x
_atom_site_fract_y
_atom_site_fract_z
Si Si1 0.863770 0.863488 0.018930
Si Si2 0.675439 0.866078 0.995999
Si Si3 0.310931 0.745885 0.096642
Si Si4 0.238465 0.296209 0.134044
Si Si5 0.496294 0.628053 0.193144
Si Si6 0.057469 0.857588 0.873945
O O1 0.769987 0.757114 0.005792
O O2 0.862816 0.953540 0.309297
O O3 0.958770 0.760055 0.923936
O O4 0.588761 0.736454 0.092629
O O5 0.673780 0.046809 0.206819
O O6 0.282422 0.511969 0.064093
O O7 0.240480 0.803201 0.351138
O O8 0.409672 0.757623 0.161029
O O9 0.300661 0.818481 0.809425
O O10 0.139545 0.293045 0.297429
O O11 0.491402 0.555640 0.491130
O O12 0.063159 0.013834 0.633381
#
# Coordination Sequence:
#
# PCOD9131249 Si02
#       6
#     2   2   2   2   2   2
#     4   8  16  32  54  75 106 142 172 212 279 332
#     4  10  21  38  59  87 113 145 188 237 280 332
#     4  10  19  35  54  68  96 147 180 209 262 325
#     4  10  18  33  53  72  98 135 186 207 254 321
#     4  12  21  38  62  81 110 156 192 225 283 347
#     4  10  19  32  52  81 107 137 174 220 270 325
#
# _framework density 23.167811
#
# number of rings (size 3 to 8) (size 9 to 14) (size 15 to 20)
#    0.000    2.000    3.333    2.000    0.000    0.000 
#    0.000    5.000    7.333    0.000    0.000    0.000 
#    0.000    0.000    0.000    0.000    0.000    0.000 
#
# Total GULP energy -66945.105469 kJ/mol
# GULP energy per Si atom -5578.758789 kJ/mol
# Density = 2.311508 g / cm^3
# Si number density = 23.167811 Si / 1000 Ang^3
#
#
#
# Elastic Constant Matrix: (Units=GPa)
#
#
# Indices 1 2 3 4 5 6 
#
# 1 175.7044 0.9582 -10.7084 0.0000 -28.8341 0.0000
# 2 0.9582 31.1819 -19.5950 0.0000 -2.0685 0.0000
# 3 -10.7084 -19.5950 124.7501 0.0000 10.7017 0.0000
# 4 0.0000 0.0000 0.0000 -11.2609 0.0000 -9.5662
# 5 -28.8341 -2.0685 10.7017 0.0000 41.9020 0.0000
# 6 0.0000 0.0000 0.0000 -9.5662 0.0000 27.9510
#
#
#
# Elastic Compliance Matrix: (Units=1/GPa)
#
#
# Indices 1 2 3 4 5 6 
#
# 1 0.006421 0.000226 0.000211 0.000000 0.004376 0.000000
# 2 0.000226 0.035595 0.005568 0.000000 0.000490 0.000000
# 3 0.000211 0.005568 0.009071 0.000000 -0.001897 0.000000
# 4 0.000000 0.000000 0.000000 -0.068800 0.000000 -0.023547
# 5 0.004376 0.000490 -0.001897 0.000000 0.027385 0.000000
# 6 0.000000 0.000000 0.000000 -0.023547 0.000000 0.027718
#
#
# Mechanical properties :
#
#
# Convention : Reuss Voigt Hill
#
# Bulk Modulus (GPa) = 15.84841 30.32733 23.08787
# Shear Modulus (GPa) = 107.73044 35.78386 71.75715
#
# Velocity S-wave (km/s) = 6.82649 3.93434 5.57136
# Velocity P-wave (km/s) = 8.30604 5.81011 7.16755
#
# Compressibility (1/GPa) = 0.06309780
#
# Stress axis : x y z
#
# Youngs Moduli (GPa) = 155.73630 28.09414 110.23540
#
# Poissons Ratio (x) = -0.00634 -0.02329
# Poissons Ratio (y) = -0.03515 -0.61382
# Poissons Ratio (z) = -0.03290 -0.15644
#
# Static dielectric constant tensor:
#      x y z
#    x 1.915030 0.000000 0.026720 
#    y 0.000000 2.286940 0.000000 
#    z 0.026720 0.000000 1.920700 
# 
# From -- ./inp_files/1009.got.cif
#   From: 2010.05.17/outbox.cif.g08.bks.cpg/sg7_cif.got.tgz:1009.got - 2010.06.03 19:44:50.
