data_PCOD9131517
_publ_section_title
;
Structure prediction by ZEFSAII (Michael W. Deem and Ramdas Pophale) SiO2 
 PCOD9131517
Probable space group: C M
;
_chemical_formula_sum "Si O2"
_cell_formula_units_Z 32
_cell_length_a 23.926563
_cell_length_b 8.750436
_cell_length_c 9.390911
_cell_angle_alpha 90.000000
_cell_angle_beta 112.945875
_cell_angle_gamma 90.000000
_cell_volume 1810.580065
_symmetry_space_group_name_H-M "C M"
_symmetry_group_IT_number 8
_symmetry_cell_setting 'monoclinic'
loop_
_space_group_symop_operation_xyz
x,y,z
x,-y,z
1/2+x,1/2+y,z
1/2+x,1/2-y,z
loop_
_atom_site_type_symbol
_atom_site_label
_atom_site_fract_x
_atom_site_fract_y
_atom_site_fract_z
Si Si1 0.884200 0.816710 0.598980
Si Si2 0.761749 0.683412 0.476786
Si Si3 0.628166 0.683081 0.349325
Si Si4 0.260627 0.317965 0.153998
Si Si5 0.635050 0.315887 0.021059
Si Si6 0.017350 0.184138 0.728922
Si Si7 0.017019 0.317797 0.411431
Si Si8 0.383517 0.183192 0.276768
O O1 0.823026 0.749204 0.606678
O O2 0.885788 0.748018 0.440547
O O3 0.950698 0.776059 0.725548
O O4 0.878794 0.000000 0.586080
O O5 0.765666 0.500000 0.472735
O O6 0.695652 0.724442 0.473316
O O7 0.760302 0.749372 0.314376
O O8 0.622172 0.500000 0.355867
O O9 0.627191 0.721322 0.180401
O O10 0.572848 0.760030 0.374403
O O11 0.262199 0.500000 0.161507
O O12 0.197219 0.259317 0.027361
O O13 0.323133 0.255187 0.148924
O O14 0.641287 0.500000 0.017040
O O15 0.575030 0.266203 0.877816
O O16 0.021702 0.248665 0.574171
O O17 0.019016 0.000000 0.722176
O O18 0.018537 0.500000 0.424314
O O19 0.950120 0.276748 0.282975
O O20 0.376975 0.000000 0.274479
#
# Coordination Sequence:
#
# PCOD9131517 Si02
#       8
#     4   4   4   4   4   4   4   4
#     4   9  15  24  42  68  91 114 148 191 232 270
#     4   9  16  27  43  64  90 121 154 189 229 274
#     4   9  18  31  48  68  92 123 159 192 229 277
#     4  10  17  25  42  68  92 116 150 194 234 269
#     4   9  18  33  50  69  94 126 157 188 229 280
#     4   9  18  32  50  70  95 125 156 188 230 280
#     4  10  20  31  47  71  97 123 155 193 233 273
#     4   9  16  27  42  62  89 120 151 187 230 275
#
# _framework density 17.673895000000002
#
# number of rings (size 3 to 8) (size 9 to 14) (size 15 to 20)
#    0.000    2.750    0.000    4.875    0.000    5.000 
#    0.000    0.000    0.000    1.500    0.000    7.000 
#    0.000    0.000    0.000    0.000    0.000    0.000 
#
# Total GULP energy -89068.879362 kJ/mol
# GULP energy per Si atom -5566.804960 kJ/mol
# Density = 1.763367 g / cm^3
# Si number density = 17.673895 Si / 1000 Ang^3
#
#
#
# Elastic Constant Matrix: (Units=GPa)
#
#
# Indices 1 2 3 4 5 6 
#
# 1 157.6714 46.4414 57.2674 0.0000 57.0698 0.0000
# 2 46.4414 50.1991 25.7867 0.0000 22.8792 0.0000
# 3 57.2674 25.7867 61.7224 0.0000 41.6545 0.0000
# 4 0.0000 0.0000 0.0000 15.8480 0.0000 8.4221
# 5 57.0698 22.8792 41.6545 0.0000 38.3717 0.0000
# 6 0.0000 0.0000 0.0000 8.4221 0.0000 23.2362
#
#
#
# Elastic Compliance Matrix: (Units=1/GPa)
#
#
# Indices 1 2 3 4 5 6 
#
# 1 0.014913 -0.005182 0.004531 0.000000 -0.024009 0.000000
# 2 -0.005182 0.029196 -0.003152 0.000000 -0.006280 0.000000
# 3 0.004531 -0.003152 0.062058 0.000000 -0.072227 0.000000
# 4 0.000000 0.000000 0.000000 0.078153 0.000000 -0.028327
# 5 -0.024009 -0.006280 -0.072227 0.000000 0.143921 0.000000
# 6 0.000000 0.000000 0.000000 -0.028327 0.000000 0.053303
#
#
# Mechanical properties :
#
#
# Convention : Reuss Voigt Hill
#
# Bulk Modulus (GPa) = 10.14579 58.73152 34.43866
# Shear Modulus (GPa) = 11.84827 24.83101 18.33964
#
# Velocity S-wave (km/s) = 2.59198 3.75234 3.22478
# Velocity P-wave (km/s) = 3.83547 7.21638 5.77871
#
# Compressibility (1/GPa) = 0.09856302
#
# Stress axis : x y z
#
# Youngs Moduli (GPa) = 67.05560 34.25160 16.11397
#
# Poissons Ratio (x) = 0.17748 -0.07302
# Poissons Ratio (y) = 0.34746 0.05078
# Poissons Ratio (z) = -0.30386 0.10795
#
# Static dielectric constant tensor:
#      x y z
#    x 1.657300 0.000000 0.054590 
#    y 0.000000 1.589850 0.000000 
#    z 0.054590 0.000000 1.615940 
# 
# From -- ./inp_files/23743.got.cif
#   From: 2010.05.17/outbox.cif.g08.bks.cpg/sg8_12_cif.got.tgz:23743.got - 2010.06.03 19:46:02.
