data_PCOD9131630
_publ_section_title
;
Structure prediction by ZEFSAII (Michael W. Deem and Ramdas Pophale) SiO2 
 PCOD9131630
Probable space group: C M
;
_chemical_formula_sum "Si O2"
_cell_formula_units_Z 32
_cell_length_a 24.010914
_cell_length_b 8.753693
_cell_length_c 28.911384
_cell_angle_alpha 90.000000
_cell_angle_beta 18.642112
_cell_angle_gamma 90.000000
_cell_volume 1942.457432
_symmetry_space_group_name_H-M "C M"
_symmetry_group_IT_number 8
_symmetry_cell_setting 'monoclinic'
loop_
_space_group_symop_operation_xyz
x,y,z
x,-y,z
1/2+x,1/2+y,z
1/2+x,1/2-y,z
loop_
_atom_site_type_symbol
_atom_site_label
_atom_site_fract_x
_atom_site_fract_y
_atom_site_fract_z
Si Si1 0.955760 0.815357 0.904920
Si Si2 0.647424 0.316825 0.846269
Si Si3 0.056070 0.316311 0.204709
Si Si4 0.604604 0.681890 0.068584
Si Si5 0.221632 0.318615 0.511206
Si Si6 0.077649 0.675185 0.994313
Si Si7 0.946468 0.174921 0.662548
Si Si8 0.491841 0.316171 0.773182
O O1 0.060628 0.761341 0.867171
O O2 0.036965 0.777723 0.791077
O O3 0.953951 0.000000 0.909201
O O4 0.752935 0.768008 0.063283
O O5 0.657071 0.500000 0.839448
O O6 0.537457 0.260395 0.977705
O O7 0.840366 0.248143 0.703420
O O8 0.047678 0.500000 0.211683
O O9 0.023443 0.256906 0.178252
O O10 0.912679 0.246298 0.351135
O O11 0.594271 0.500000 0.079145
O O12 0.527011 0.741810 0.081240
O O13 0.806043 0.736129 0.910839
O O14 0.222396 0.500000 0.515562
O O15 0.102426 0.270644 0.561058
O O16 0.131650 0.241752 0.626452
O O17 0.018704 0.500000 0.040031
O O18 0.290208 0.672603 0.823697
O O19 0.998395 0.000000 0.612956
O O20 0.470138 0.500000 0.786701
#
# Coordination Sequence:
#
# PCOD9131630 Si02
#       8
#     4   4   4   4   4   4   4   4
#     4   8  17  32  52  75  98 128 168 204 244 295
#     4   9  15  28  49  75  99 123 162 213 249 282
#     4  10  21  36  52  71 102 140 166 197 247 308
#     4  11  19  30  48  75 102 127 163 210 250 287
#     4  12  22  33  49  76 104 131 166 209 254 296
#     4   9  17  28  45  71  98 127 160 196 243 293
#     4   9  18  30  47  72  98 129 162 198 245 296
#     4  10  18  31  50  71  97 133 169 203 244 297
#
# _framework density 16.473977999999999
#
# number of rings (size 3 to 8) (size 9 to 14) (size 15 to 20)
#    0.750    1.500    1.250    4.500    0.000    0.000 
#    0.000    7.500    0.000    1.500    0.000    7.000 
#    0.000    0.000    0.000    0.000    0.000    0.000 
#
# Total GULP energy -89074.851695 kJ/mol
# GULP energy per Si atom -5567.178231 kJ/mol
# Density = 1.643648 g / cm^3
# Si number density = 16.473978 Si / 1000 Ang^3
#
#
#
# Elastic Constant Matrix: (Units=GPa)
#
#
# Indices 1 2 3 4 5 6 
#
# 1 117.9659 24.8286 27.5858 -0.0066 6.7216 0.0027
# 2 24.8286 85.0230 14.7900 -0.0041 0.4419 0.0045
# 3 27.5858 14.7900 70.5493 0.0031 9.1634 -0.0023
# 4 -0.0066 -0.0041 0.0031 21.7992 -0.0051 3.2939
# 5 6.7216 0.4419 9.1634 -0.0051 14.5056 0.0017
# 6 0.0027 0.0045 -0.0023 3.2939 0.0017 21.5537
#
#
#
# Elastic Compliance Matrix: (Units=1/GPa)
#
#
# Indices 1 2 3 4 5 6 
#
# 1 0.009819 -0.002329 -0.003017 0.000003 -0.002573 -0.000001
# 2 -0.002329 0.012784 -0.002025 0.000003 0.001969 -0.000003
# 3 -0.003017 -0.002025 0.016983 -0.000006 -0.009268 0.000004
# 4 0.000003 0.000003 -0.000006 0.046958 0.000020 -0.007176
# 5 -0.002573 0.001969 -0.009268 0.000020 0.075926 -0.000010
# 6 -0.000001 -0.000003 0.000004 -0.007176 -0.000010 0.047492
#
#
# Mechanical properties :
#
#
# Convention : Reuss Voigt Hill
#
# Bulk Modulus (GPa) = 40.25245 45.32745 42.78995
# Shear Modulus (GPa) = 21.46054 25.32728 23.39391
#
# Velocity S-wave (km/s) = 3.61320 3.92524 3.77245
# Velocity P-wave (km/s) = 6.47255 6.93669 6.70864
#
# Compressibility (1/GPa) = 0.02484321
#
# Stress axis : x y z
#
# Youngs Moduli (GPa) = 101.83911 78.22436 58.88401
#
# Poissons Ratio (x) = 0.18221 0.17765
# Poissons Ratio (y) = 0.23721 0.11924
# Poissons Ratio (z) = 0.30725 0.15840
#
# Static dielectric constant tensor:
#      x y z
#    x 1.576170 0.000000 0.008210 
#    y 0.000000 1.551660 0.000000 
#    z 0.008210 0.000000 1.545450 
# 
# From -- ./inp_files/33102.got.cif
#   From: 2010.05.17/outbox.cif.g08.bks.cpg/sg8_17_cif.got.tgz:33102.got - 2010.06.03 19:46:02.
