data_PCOD9131942
_publ_section_title
;
Structure prediction by ZEFSAII (Michael W. Deem and Ramdas Pophale) SiO2 
 PCOD9131942
Probable space group: C M
;
_chemical_formula_sum "Si O2"
_cell_formula_units_Z 32
_cell_length_a 20.877299
_cell_length_b 8.738831
_cell_length_c 25.605153
_cell_angle_alpha 90.000000
_cell_angle_beta 157.226897
_cell_angle_gamma 90.000000
_cell_volume 1808.251700
_symmetry_space_group_name_H-M "C M"
_symmetry_group_IT_number 8
_symmetry_cell_setting 'monoclinic'
loop_
_space_group_symop_operation_xyz
x,y,z
x,-y,z
1/2+x,1/2+y,z
1/2+x,1/2-y,z
loop_
_atom_site_type_symbol
_atom_site_label
_atom_site_fract_x
_atom_site_fract_y
_atom_site_fract_z
Si Si1 0.659370 0.316632 0.708450
Si Si2 0.947281 0.316172 0.121576
Si Si3 0.139341 0.816131 0.421353
Si Si4 0.798467 0.183484 0.116501
Si Si5 0.445114 0.318527 0.851187
Si Si6 0.205059 0.682224 0.857613
Si Si7 0.890416 0.683474 0.696018
Si Si8 0.787124 0.184014 0.426522
O O1 0.671284 0.500000 0.713451
O O2 0.797925 0.241396 0.776745
O O3 0.684141 0.265571 0.786870
O O4 0.472817 0.268874 0.552030
O O5 0.934244 0.500000 0.108929
O O6 0.849330 0.257052 0.099182
O O7 0.138909 0.272744 0.275864
O O8 0.864205 0.241108 0.008859
O O9 0.227582 0.769031 0.541156
O O10 0.237977 0.749523 0.446096
O O11 0.947323 0.776488 0.268113
O O12 0.153177 0.000000 0.428989
O O13 0.793552 0.000000 0.106562
O O14 0.620188 0.244011 0.998663
O O15 0.458234 0.500000 0.864227
O O16 0.411141 0.267328 0.766169
O O17 0.213327 0.500000 0.855586
O O18 0.046772 0.713304 0.775780
O O19 0.885297 0.500000 0.701736
O O20 0.785198 0.000000 0.428941
#
# Coordination Sequence:
#
# PCOD9131942 Si02
#       8
#     4   4   4   4   4   4   4   4
#     4  11  23  40  60  82 114 152 190 233 285 340
#     4  10  19  33  55  85 116 146 186 233 280 329
#     4   9  18  33  57  85 112 144 183 231 280 331
#     4  10  19  34  56  83 113 148 188 230 284 335
#     4  12  25  39  57  82 115 153 192 233 282 339
#     4  11  21  35  58  87 117 148 189 235 278 329
#     4  10  20  36  58  85 116 147 186 233 280 331
#     4   9  19  34  55  83 113 146 184 230 281 332
#
# _framework density 17.696650999999999
#
# number of rings (size 3 to 8) (size 9 to 14) (size 15 to 20)
#    0.000    1.750    2.500    2.625    0.000    2.500 
#    0.000    1.250    0.000    3.000    0.000    0.000 
#    0.000    0.000    0.000    0.000    0.000    0.000 
#
# Total GULP energy -89336.095326 kJ/mol
# GULP energy per Si atom -5583.505958 kJ/mol
# Density = 1.765637 g / cm^3
# Si number density = 17.696651 Si / 1000 Ang^3
#
#
#
# Elastic Constant Matrix: (Units=GPa)
#
#
# Indices 1 2 3 4 5 6 
#
# 1 55.4782 23.6807 42.9456 0.0000 10.1991 -0.0001
# 2 23.6807 41.5544 32.4773 0.0006 3.7029 -0.0001
# 3 42.9456 32.4773 149.0402 0.0014 8.8940 -0.0001
# 4 0.0000 0.0006 0.0014 22.2736 0.0002 0.4570
# 5 10.1991 3.7029 8.8940 0.0002 27.7428 0.0000
# 6 -0.0001 -0.0001 -0.0001 0.4570 0.0000 30.0436
#
#
#
# Elastic Compliance Matrix: (Units=1/GPa)
#
#
# Indices 1 2 3 4 5 6 
#
# 1 0.028251 -0.011368 -0.005234 0.000001 -0.007191 0.000000
# 2 -0.011368 0.033676 -0.004123 -0.000001 0.001006 0.000000
# 3 -0.005234 -0.004123 0.009143 0.000000 -0.000457 0.000000
# 4 0.000001 -0.000001 0.000000 0.044910 0.000000 -0.000683
# 5 -0.007191 0.001006 -0.000457 0.000000 0.038701 0.000000
# 6 0.000000 0.000000 0.000000 -0.000683 0.000000 0.033295
#
#
# Mechanical properties :
#
#
# Convention : Reuss Voigt Hill
#
# Bulk Modulus (GPa) = 33.76031 49.36445 41.56238
# Shear Modulus (GPa) = 20.89429 25.80995 23.35212
#
# Velocity S-wave (km/s) = 3.43985 3.82313 3.63654
# Velocity P-wave (km/s) = 5.90723 6.88794 6.41635
#
# Compressibility (1/GPa) = 0.02962058
#
# Stress axis : x y z
#
# Youngs Moduli (GPa) = 35.39676 29.69516 109.36799
#
# Poissons Ratio (x) = 0.33757 0.57246
# Poissons Ratio (y) = 0.40239 0.45088
# Poissons Ratio (z) = 0.18527 0.12242
#
# Static dielectric constant tensor:
#      x y z
#    x 1.555500 0.000000 -0.004750 
#    y 0.000000 1.589790 0.000000 
#    z -0.004750 0.000000 1.637280 
# 
# From -- ./inp_files/31321.got.cif
#   From: 2010.05.17/outbox.cif.g08.bks.cpg/sg8_16_cif.got.tgz:31321.got - 2010.06.03 19:46:02.
