data_PCOD9131325
_publ_section_title
;
Structure prediction by ZEFSAII (Michael W. Deem and Ramdas Pophale) SiO2 
 PCOD9131325
Probable space group: P C
;
_chemical_formula_sum "Si O2"
_cell_formula_units_Z 16
_cell_length_a 6.609669
_cell_length_b 17.998705
_cell_length_c 5.617842
_cell_angle_alpha 90.000000
_cell_angle_beta 103.668884
_cell_angle_gamma 90.000000
_cell_volume 649.400593
_symmetry_space_group_name_H-M "P C"
_symmetry_group_IT_number 7
_symmetry_cell_setting 'monoclinic'
loop_
_space_group_symop_operation_xyz
x,y,z
x,-y,1/2+z
loop_
_atom_site_type_symbol
_atom_site_label
_atom_site_fract_x
_atom_site_fract_y
_atom_site_fract_z
Si Si1 0.446540 0.257147 0.408560
Si Si2 0.789490 0.704977 0.362609
Si Si3 0.323753 0.975430 0.367583
Si Si4 0.690636 0.867047 0.472886
Si Si5 0.149068 0.655951 0.162930
Si Si6 0.491627 0.614850 0.570468
Si Si7 0.662798 0.898728 0.958354
Si Si8 0.836794 0.541234 0.893874
O O1 0.659742 0.285666 0.585395
O O2 0.270388 0.281271 0.547180
O O3 0.419737 0.308361 0.172981
O O4 0.497205 0.170344 0.393971
O O5 0.735136 0.779316 0.491219
O O6 0.693544 0.635337 0.469958
O O7 0.019457 0.693026 0.339234
O O8 0.445392 0.895163 0.396094
O O9 0.217735 0.998839 0.589375
O O10 0.528262 0.027910 0.429671
O O11 0.783638 0.897243 0.744010
O O12 0.780319 0.890426 0.240511
O O13 0.310941 0.598828 0.332382
O O14 0.991657 0.611781 0.948847
O O15 0.589994 0.562063 0.797401
O O16 0.876686 0.494504 0.665047
#
# Coordination Sequence:
#
# PCOD9131325 Si02
#       8
#     2   2   2   2   2   2   2   2
#     4  10  21  38  65  97 131 173 225 283 335 402
#     4  10  20  40  63  96 137 174 224 287 338 399
#     4   8  14  24  44  79 121 161 222 268 311 393
#     4   9  16  28  52  86 122 171 220 270 325 390
#     4  11  26  43  71 101 137 180 224 288 348 413
#     4  11  24  44  71  98 134 172 228 282 338 413
#     4   9  16  30  51  85 126 166 219 275 322 387
#     4  12  29  51  73 100 136 181 224 279 347 423
#
# _framework density 24.638106000000001
#
# number of rings (size 3 to 8) (size 9 to 14) (size 15 to 20)
#    0.000    2.000    2.500    0.750    5.250    1.000 
#    0.000    0.000    0.000    0.000    0.000   35.000 
#    0.000    0.000    0.000    0.000    0.000    0.000 
#
# Total GULP energy -89215.347550 kJ/mol
# GULP energy per Si atom -5575.959222 kJ/mol
# Density = 2.458203 g / cm^3
# Si number density = 24.638106 Si / 1000 Ang^3
#
#
#
# Elastic Constant Matrix: (Units=GPa)
#
#
# Indices 1 2 3 4 5 6 
#
# 1 88.3069 31.3964 32.8131 0.0000 -2.7336 0.0000
# 2 31.3964 66.5641 15.1320 0.0000 1.1902 0.0000
# 3 32.8131 15.1320 167.8972 0.0000 -14.9178 0.0000
# 4 0.0000 0.0000 0.0000 44.5380 0.0000 -8.7108
# 5 -2.7336 1.1902 -14.9178 0.0000 34.8591 0.0000
# 6 0.0000 0.0000 0.0000 -8.7108 0.0000 13.4544
#
#
#
# Elastic Compliance Matrix: (Units=1/GPa)
#
#
# Indices 1 2 3 4 5 6 
#
# 1 0.014396 -0.006295 -0.002211 0.000000 0.000398 0.000000
# 2 -0.006295 0.018135 -0.000523 0.000000 -0.001337 0.000000
# 3 -0.002211 -0.000523 0.006675 0.000000 0.002701 0.000000
# 4 0.000000 0.000000 0.000000 0.025708 0.000000 0.016644
# 5 0.000398 -0.001337 0.002701 0.000000 0.029920 0.000000
# 6 0.000000 0.000000 0.000000 0.016644 0.000000 0.085101
#
#
# Mechanical properties :
#
#
# Convention : Reuss Voigt Hill
#
# Bulk Modulus (GPa) = 47.28333 53.49459 50.38896
# Shear Modulus (GPa) = 24.38534 34.79875 29.59205
#
# Velocity S-wave (km/s) = 3.14943 3.76226 3.46940
# Velocity P-wave (km/s) = 5.69719 6.37433 6.04525
#
# Compressibility (1/GPa) = 0.02114910
#
# Stress axis : x y z
#
# Youngs Moduli (GPa) = 69.46395 55.14214 149.80751
#
# Poissons Ratio (x) = 0.34710 0.33120
# Poissons Ratio (y) = 0.43725 0.07835
# Poissons Ratio (z) = 0.15357 0.02884
#
# Static dielectric constant tensor:
#      x y z
#    x 1.908340 0.000000 -0.049460 
#    y 0.000000 2.046680 0.000000 
#    z -0.049460 0.000000 2.057370 
# 
# From -- ./inp_files/368.got.cif
#   From: 2010.05.17/outbox.cif.g08.bks.cpg/sg7_cif.got.tgz:368.got - 2010.06.03 19:44:50.
