data_PCOD9131717
_publ_section_title
;
Structure prediction by ZEFSAII (Michael W. Deem and Ramdas Pophale) SiO2 
 PCOD9131717
Probable space group: C M
;
_chemical_formula_sum "Si O2"
_cell_formula_units_Z 32
_cell_length_a 26.103872
_cell_length_b 7.924663
_cell_length_c 17.224392
_cell_angle_alpha 90.000000
_cell_angle_beta 25.722280
_cell_angle_gamma 90.000000
_cell_volume 1546.424831
_symmetry_space_group_name_H-M "C M"
_symmetry_group_IT_number 8
_symmetry_cell_setting 'monoclinic'
loop_
_space_group_symop_operation_xyz
x,y,z
x,-y,z
1/2+x,1/2+y,z
1/2+x,1/2-y,z
loop_
_atom_site_type_symbol
_atom_site_label
_atom_site_fract_x
_atom_site_fract_y
_atom_site_fract_z
Si Si1 0.083750 0.794377 0.058490
Si Si2 0.486107 0.301551 0.712875
Si Si3 0.036997 0.194537 0.399050
Si Si4 0.197878 0.793294 0.313886
Si Si5 0.457694 0.198354 0.927455
Si Si6 0.636827 0.300038 0.814002
Si Si7 0.831375 0.302206 0.790906
Si Si8 0.907863 0.205297 0.424621
O O1 0.966994 0.741513 0.263278
O O2 0.083126 0.000000 0.057336
O O3 0.096255 0.733188 0.953560
O O4 0.199578 0.746843 0.950090
O O5 0.477866 0.500000 0.708457
O O6 0.607030 0.239365 0.505697
O O7 0.484067 0.274245 0.807194
O O8 0.375730 0.219629 0.818247
O O9 0.142193 0.266482 0.307802
O O10 0.924093 0.204132 0.610347
O O11 0.992216 0.268151 0.379306
O O12 0.068635 0.000000 0.340071
O O13 0.195711 0.000000 0.317535
O O14 0.333190 0.737657 0.132730
O O15 0.561932 0.225873 0.846003
O O16 0.443122 0.000000 0.933943
O O17 0.617269 0.500000 0.839835
O O18 0.775524 0.266356 0.616160
O O19 0.841046 0.500000 0.757225
O O20 0.905778 0.000000 0.431120
#
# Coordination Sequence:
#
# PCOD9131717 Si02
#       8
#     4   4   4   4   4   4   4   4
#     4   9  20  36  58  85 115 154 196 239 291 343
#     4  10  21  39  59  87 121 154 189 237 295 344
#     4   9  17  32  57  85 118 153 188 237 293 344
#     4   8  18  36  58  84 117 153 190 231 286 346
#     4  11  23  40  63  87 111 153 204 242 284 347
#     4  11  23  42  59  81 120 157 193 244 295 340
#     4  10  18  33  58  86 120 156 192 235 287 346
#     4  10  20  36  60  87 114 152 198 239 287 348
#
# _framework density 20.692889999999998
#
# number of rings (size 3 to 8) (size 9 to 14) (size 15 to 20)
#    0.000    2.250    1.250    2.250    1.750    1.000 
#    0.000   11.250    0.000    0.000    0.000    0.000 
#    0.000    0.000    0.000    0.000    0.000    0.000 
#
# Total GULP energy -89308.854755 kJ/mol
# GULP energy per Si atom -5581.803422 kJ/mol
# Density = 2.064579 g / cm^3
# Si number density = 20.692890 Si / 1000 Ang^3
#
#
#
# Elastic Constant Matrix: (Units=GPa)
#
#
# Indices 1 2 3 4 5 6 
#
# 1 100.2375 -6.7209 34.0694 0.0002 21.1961 -0.0002
# 2 -6.7209 27.5018 -4.2184 -0.0001 0.5242 -0.0004
# 3 34.0694 -4.2184 61.4705 0.0009 24.9760 -0.0007
# 4 0.0002 -0.0001 0.0009 15.4580 -0.0008 1.1993
# 5 21.1961 0.5242 24.9760 -0.0008 22.5560 0.0004
# 6 -0.0002 -0.0004 -0.0007 1.1993 0.0004 19.3308
#
#
#
# Elastic Compliance Matrix: (Units=1/GPa)
#
#
# Indices 1 2 3 4 5 6 
#
# 1 0.013196 0.002810 -0.003737 0.000000 -0.008327 0.000000
# 2 0.002810 0.037900 0.004498 -0.000001 -0.008502 0.000001
# 3 -0.003737 0.004498 0.031383 -0.000004 -0.031342 0.000002
# 4 0.000000 -0.000001 -0.000004 0.065005 0.000007 -0.004033
# 5 -0.008327 -0.008502 -0.031342 0.000007 0.087062 -0.000004
# 6 0.000000 0.000001 0.000002 -0.004033 -0.000004 0.051981
#
#
# Mechanical properties :
#
#
# Convention : Reuss Voigt Hill
#
# Bulk Modulus (GPa) = 11.15829 26.16334 18.66081
# Shear Modulus (GPa) = 16.16774 22.54092 19.35433
#
# Velocity S-wave (km/s) = 2.79824 3.30405 3.06161
# Velocity P-wave (km/s) = 3.98048 5.21792 4.64063
#
# Compressibility (1/GPa) = 0.08961949
#
# Stress axis : x y z
#
# Youngs Moduli (GPa) = 75.78115 26.38526 31.86482
#
# Poissons Ratio (x) = -0.07415 0.11909
# Poissons Ratio (y) = -0.21296 -0.14332
# Poissons Ratio (z) = 0.28323 -0.11867
#
# Static dielectric constant tensor:
#      x y z
#    x 1.725510 0.000000 0.011770 
#    y 0.000000 1.759490 0.000000 
#    z 0.011770 0.000000 1.734250 
# 
# From -- ./inp_files/28183.got.cif
#   From: 2010.05.17/outbox.cif.g08.bks.cpg/sg8_15_cif.got.tgz:28183.got - 2010.06.03 19:46:02.
