data_PCOD9131890
_publ_section_title
;
Structure prediction by ZEFSAII (Michael W. Deem and Ramdas Pophale) SiO2 
 PCOD9131890
Probable space group: C M
;
_chemical_formula_sum "Si O2"
_cell_formula_units_Z 32
_cell_length_a 5.049274
_cell_length_b 28.157887
_cell_length_c 11.414148
_cell_angle_alpha 90.000000
_cell_angle_beta 116.434830
_cell_angle_gamma 90.000000
_cell_volume 1453.147241
_symmetry_space_group_name_H-M "C M"
_symmetry_group_IT_number 8
_symmetry_cell_setting 'monoclinic'
loop_
_space_group_symop_operation_xyz
x,y,z
x,-y,z
1/2+x,1/2+y,z
1/2+x,1/2-y,z
loop_
_atom_site_type_symbol
_atom_site_label
_atom_site_fract_x
_atom_site_fract_y
_atom_site_fract_z
Si Si1 0.128840 0.444753 0.021790
Si Si2 0.112820 0.637049 0.678465
Si Si3 0.813313 0.392071 0.387660
Si Si4 0.218945 0.117603 0.104914
Si Si5 0.314966 0.224273 0.038580
Si Si6 0.675790 0.580508 0.735674
Si Si7 0.984998 0.230561 0.731874
Si Si8 0.372620 0.551753 0.441153
O O1 0.210894 0.500000 0.061972
O O2 0.408742 0.411563 0.041866
O O3 0.958337 0.417925 0.093927
O O4 0.887989 0.444765 0.869086
O O5 0.963557 0.637544 0.520891
O O6 0.364688 0.595975 0.730858
O O7 0.300911 0.684038 0.724536
O O8 0.868254 0.625369 0.727184
O O9 0.042982 0.435610 0.415680
O O10 0.779863 0.371063 0.253060
O O11 0.504441 0.410353 0.377541
O O12 0.240794 0.168985 0.046302
O O13 0.653878 0.240220 0.096979
O O14 0.195420 0.236799 0.885369
O O15 0.583109 0.554360 0.597522
O O16 0.716992 0.268546 0.671685
O O17 0.385766 0.500000 0.390856
#
# Coordination Sequence:
#
# PCOD9131890 Si02
#       8
#     4   4   4   4   4   4   4   4
#     4  12  25  39  60  90 124 161 198 241 297 357
#     4  10  20  37  58  82 112 147 184 235 293 342
#     4  10  23  38  56  80 111 153 195 227 276 345
#     4  12  25  42  60  85 124 164 200 244 288 345
#     4  10  21  38  61  87 113 149 197 244 295 352
#     4  10  20  36  58  83 112 146 189 240 293 342
#     4  10  19  32  54  83 110 135 175 231 290 351
#     4  10  20  36  59  82 108 145 192 244 283 328
#
# _framework density 22.021166999999998
#
# number of rings (size 3 to 8) (size 9 to 14) (size 15 to 20)
#    0.000    1.500    0.000    5.625    0.000    5.000 
#    0.000    5.000    0.000    0.000    0.000    0.000 
#    0.000    0.000    0.000    0.000    0.000    0.000 
#
# Total GULP energy -89276.240592 kJ/mol
# GULP energy per Si atom -5579.765037 kJ/mol
# Density = 2.197105 g / cm^3
# Si number density = 22.021167 Si / 1000 Ang^3
#
#
#
# Elastic Constant Matrix: (Units=GPa)
#
#
# Indices 1 2 3 4 5 6 
#
# 1 78.4478 1.5412 15.2242 0.0000 -2.3579 0.0000
# 2 1.5412 67.6319 -8.0309 0.0000 -2.2889 0.0000
# 3 15.2242 -8.0309 67.9437 0.0000 -0.4779 0.0000
# 4 0.0000 0.0000 0.0000 -4.4105 0.0000 -4.8642
# 5 -2.3579 -2.2889 -0.4779 0.0000 26.8995 0.0000
# 6 0.0000 0.0000 0.0000 -4.8642 0.0000 19.8022
#
#
#
# Elastic Compliance Matrix: (Units=1/GPa)
#
#
# Indices 1 2 3 4 5 6 
#
# 1 0.013387 -0.000633 -0.003067 0.000000 0.001065 0.000000
# 2 -0.000633 0.015072 0.001932 0.000000 0.001261 0.000000
# 3 -0.003067 0.001932 0.015635 0.000000 0.000173 0.000000
# 4 0.000000 0.000000 0.000000 -0.178402 0.000000 -0.043823
# 5 0.001065 0.001261 0.000173 0.000000 0.037379 0.000000
# 6 0.000000 0.000000 0.000000 -0.043823 0.000000 0.039735
#
#
# Mechanical properties :
#
#
# Convention : Reuss Voigt Hill
#
# Bulk Modulus (GPa) = 24.65567 25.72138 25.18853
# Shear Modulus (GPa) = -124.56892 22.14417 -51.21237
#
# Velocity S-wave (km/s) = -7.52932 3.17454 -4.82768
# Velocity P-wave (km/s) = 8.02289 5.01424 4.42856
#
# Compressibility (1/GPa) = 0.04055862
#
# Stress axis : x y z
#
# Youngs Moduli (GPa) = 74.69941 66.34604 63.95947
#
# Poissons Ratio (x) = 0.04201 0.19616
# Poissons Ratio (y) = 0.04730 -0.12359
# Poissons Ratio (z) = 0.22910 -0.12820
#
# Static dielectric constant tensor:
#      x y z
#    x 1.814830 0.000000 0.000400 
#    y 0.000000 1.854120 0.000000 
#    z 0.000400 0.000000 1.808560 
# 
# From -- ./inp_files/18201.got.cif
#   From: 2010.05.17/outbox.cif.g08.bks.cpg/sg8_10_cif.got.tgz:18201.got - 2010.06.03 19:46:02.
