data_PCOD9131567
_publ_section_title
;
Structure prediction by ZEFSAII (Michael W. Deem and Ramdas Pophale) SiO2 
 PCOD9131567
Probable space group: C M
;
_chemical_formula_sum "Si O2"
_cell_formula_units_Z 24
_cell_length_a 9.463876
_cell_length_b 19.495380
_cell_length_c 11.086047
_cell_angle_alpha 90.000000
_cell_angle_beta 41.469416
_cell_angle_gamma 90.000000
_cell_volume 1354.502667
_symmetry_space_group_name_H-M "C M"
_symmetry_group_IT_number 8
_symmetry_cell_setting 'monoclinic'
loop_
_space_group_symop_operation_xyz
x,y,z
x,-y,z
1/2+x,1/2+y,z
1/2+x,1/2-y,z
loop_
_atom_site_type_symbol
_atom_site_label
_atom_site_fract_x
_atom_site_fract_y
_atom_site_fract_z
Si Si1 0.036340 0.420441 0.385350
Si Si2 0.798373 0.333465 0.743801
Si Si3 0.133687 0.819706 0.236936
Si Si4 0.424640 0.190957 0.272624
Si Si5 0.699401 0.774527 0.612533
Si Si6 0.541344 0.420574 0.090034
O O1 0.974376 0.500000 0.417337
O O2 0.285614 0.416261 0.258840
O O3 0.908977 0.379908 0.570042
O O4 0.999657 0.379486 0.284448
O O5 0.710315 0.266795 0.730039
O O6 0.982654 0.313241 0.721241
O O7 0.621540 0.376996 0.925281
O O8 0.332804 0.814483 0.198272
O O9 0.134203 0.884241 0.149213
O O10 0.102208 0.750151 0.178131
O O11 0.913889 0.820021 0.457005
O O12 0.234486 0.220149 0.480156
O O13 0.603939 0.500000 0.039944
#
# Coordination Sequence:
#
# PCOD9131567 Si02
#       6
#     4   4   4   4   4   4
#     4  10  20  37  58  80 116 156 189 233 280 337
#     4  11  20  37  57  85 115 146 192 234 284 335
#     4  10  17  35  58  82 115 140 188 240 276 338
#     4   9  17  32  61  84 108 146 190 229 290 330
#     4   9  17  34  58  83 110 143 182 238 282 324
#     4  11  24  37  56  84 115 157 193 226 285 344
#
# _framework density 17.718681
#
# number of rings (size 3 to 8) (size 9 to 14) (size 15 to 20)
#    1.000    1.000    3.333    1.500    0.000    3.333 
#    0.000    0.000    0.000    0.000    0.000    0.000 
#    0.000    0.000    0.000    0.000    0.000    0.000 
#
# Total GULP energy -66873.726938 kJ/mol
# GULP energy per Si atom -5572.810578 kJ/mol
# Density = 1.767835 g / cm^3
# Si number density = 17.718681 Si / 1000 Ang^3
#
#
#
# Elastic Constant Matrix: (Units=GPa)
#
#
# Indices 1 2 3 4 5 6 
#
# 1 106.1548 26.7101 0.9992 0.0000 7.4276 0.0000
# 2 26.7101 70.3626 12.7459 0.0000 5.6899 0.0000
# 3 0.9992 12.7459 34.9139 0.0000 13.8084 0.0000
# 4 0.0000 0.0000 0.0000 24.1337 0.0000 -1.3582
# 5 7.4276 5.6899 13.8084 0.0000 13.7712 0.0000
# 6 0.0000 0.0000 0.0000 -1.3582 0.0000 22.6957
#
#
#
# Elastic Compliance Matrix: (Units=1/GPa)
#
#
# Indices 1 2 3 4 5 6 
#
# 1 0.011106 -0.004363 0.004858 0.000000 -0.009058 0.000000
# 2 -0.004363 0.016945 -0.006998 0.000000 0.002370 0.000000
# 3 0.004858 -0.006998 0.051290 0.000000 -0.051158 0.000000
# 4 0.000000 0.000000 0.000000 0.041576 0.000000 0.002488
# 5 -0.009058 0.002370 -0.051158 0.000000 0.127818 0.000000
# 6 0.000000 0.000000 0.000000 0.002488 0.000000 0.044210
#
#
# Mechanical properties :
#
#
# Convention : Reuss Voigt Hill
#
# Bulk Modulus (GPa) = 15.07543 32.48241 23.77892
# Shear Modulus (GPa) = 15.24093 23.51851 19.37972
#
# Velocity S-wave (km/s) = 2.93603 3.64720 3.31077
# Velocity P-wave (km/s) = 4.47442 6.00901 5.29758
#
# Compressibility (1/GPa) = 0.06633308
#
# Stress axis : x y z
#
# Youngs Moduli (GPa) = 90.03998 59.01591 19.49680
#
# Poissons Ratio (x) = 0.25751 -0.09471
# Poissons Ratio (y) = 0.39288 0.13644
# Poissons Ratio (z) = -0.43737 0.41300
#
# Static dielectric constant tensor:
#      x y z
#    x 1.588900 0.000000 0.001370 
#    y 0.000000 1.598590 0.000000 
#    z 0.001370 0.000000 1.624320 
# 
# From -- ./inp_files/19158.got.cif
#   From: 2010.05.17/outbox.cif.g08.bks.cpg/sg8_10_cif.got.tgz:19158.got - 2010.06.03 19:46:02.
