data_PCOD9131819
_publ_section_title
;
Structure prediction by ZEFSAII (Michael W. Deem and Ramdas Pophale) SiO2 
 PCOD9131819
Probable space group: C M
;
_chemical_formula_sum "Si O2"
_cell_formula_units_Z 32
_cell_length_a 17.795571
_cell_length_b 16.910416
_cell_length_c 4.959608
_cell_angle_alpha 90.000000
_cell_angle_beta 76.494674
_cell_angle_gamma 90.000000
_cell_volume 1451.227143
_symmetry_space_group_name_H-M "C M"
_symmetry_group_IT_number 8
_symmetry_cell_setting 'monoclinic'
loop_
_space_group_symop_operation_xyz
x,y,z
x,-y,z
1/2+x,1/2+y,z
1/2+x,1/2-y,z
loop_
_atom_site_type_symbol
_atom_site_label
_atom_site_fract_x
_atom_site_fract_y
_atom_site_fract_z
Si Si1 0.230870 0.755250 0.969020
Si Si2 0.411017 0.910889 0.521602
Si Si3 0.079271 0.910402 0.642955
Si Si4 0.250783 0.143251 0.442696
Si Si5 0.481329 0.830744 0.954919
Si Si6 0.235651 0.587537 0.124834
Si Si7 0.629826 0.086282 0.710497
Si Si8 0.056264 0.807742 0.171561
O O1 0.238558 0.782807 0.656106
O O2 0.264927 0.821717 0.136544
O O3 0.270180 0.671236 0.002707
O O4 0.138090 0.759440 0.113831
O O5 0.323702 0.903553 0.489764
O O6 0.425692 0.849205 0.751651
O O7 0.425592 0.000000 0.604681
O O8 0.463217 0.890097 0.217118
O O9 0.171120 0.904701 0.507223
O O10 0.041158 0.846536 0.473563
O O11 0.052357 0.000000 0.627486
O O12 0.069173 0.879916 0.954551
O O13 0.564469 0.848978 0.751148
O O14 0.490433 0.747307 0.097923
O O15 0.274206 0.500000 0.074876
O O16 0.201655 0.598195 0.451469
O O17 0.162994 0.583276 0.982628
O O18 0.596942 0.000000 0.668679
#
# Coordination Sequence:
#
# PCOD9131819 Si02
#       8
#     4   4   4   4   4   4   4   4
#     4  10  19  35  56  80 112 147 189 240 292 334
#     4  12  25  40  57  83 119 164 204 230 268 338
#     4  10  20  37  60  86 113 143 183 246 303 341
#     4  10  22  37  58  81 111 153 198 236 278 333
#     4  12  23  37  56  81 121 157 195 233 276 339
#     4  10  19  30  50  80 112 143 181 227 285 347
#     4  10  19  30  47  74 112 151 180 215 268 334
#     4  10  21  34  56  85 114 148 184 235 294 356
#
# _framework density 22.050301999999999
#
# number of rings (size 3 to 8) (size 9 to 14) (size 15 to 20)
#    0.000    1.500    1.250    4.875    3.500    1.000 
#    0.000    3.750    0.000    0.000    0.000   17.500 
#    0.000    0.000    0.000    0.000    0.000    0.000 
#
# Total GULP energy -89323.540872 kJ/mol
# GULP energy per Si atom -5582.721304 kJ/mol
# Density = 2.200011 g / cm^3
# Si number density = 22.050302 Si / 1000 Ang^3
#
#
#
# Elastic Constant Matrix: (Units=GPa)
#
#
# Indices 1 2 3 4 5 6 
#
# 1 27.3656 1.4065 4.7082 0.0000 18.5624 0.0000
# 2 1.4065 93.5430 3.2571 0.0000 5.5800 0.0000
# 3 4.7082 3.2571 73.8200 0.0000 15.0703 0.0000
# 4 0.0000 0.0000 0.0000 18.5194 0.0000 3.0240
# 5 18.5624 5.5800 15.0703 0.0000 27.8787 0.0000
# 6 0.0000 0.0000 0.0000 3.0240 0.0000 13.3845
#
#
#
# Elastic Compliance Matrix: (Units=1/GPa)
#
#
# Indices 1 2 3 4 5 6 
#
# 1 0.068882 0.001706 0.005580 0.000000 -0.049221 0.000000
# 2 0.001706 0.010862 0.000099 0.000000 -0.003363 0.000000
# 3 0.005580 0.000099 0.015679 0.000000 -0.012211 0.000000
# 4 0.000000 0.000000 0.000000 0.056066 0.000000 -0.012667
# 5 -0.049221 -0.003363 -0.012211 0.000000 0.075916 0.000000
# 6 0.000000 0.000000 0.000000 -0.012667 0.000000 0.077575
#
#
# Mechanical properties :
#
#
# Convention : Reuss Voigt Hill
#
# Bulk Modulus (GPa) = 9.07503 23.71912 16.39708
# Shear Modulus (GPa) = 15.29327 24.31366 19.80347
#
# Velocity S-wave (km/s) = 2.63641 3.32421 3.00009
# Velocity P-wave (km/s) = 3.65952 5.05114 4.41056
#
# Compressibility (1/GPa) = 0.11019244
#
# Stress axis : x y z
#
# Youngs Moduli (GPa) = 14.51756 92.06565 63.77955
#
# Poissons Ratio (x) = -0.15708 -0.35589
# Poissons Ratio (y) = -0.02477 -0.00629
# Poissons Ratio (z) = -0.08101 -0.00907
#
# Static dielectric constant tensor:
#      x y z
#    x 1.820940 0.000000 -0.009360 
#    y 0.000000 1.892830 0.000000 
#    z -0.009360 0.000000 1.775840 
# 
# From -- ./inp_files/4973.got.cif
#   From: 2010.05.17/outbox.cif.g08.bks.cpg/sg8_3_cif.got.tgz:4973.got - 2010.06.03 19:46:02.
