data_PCOD9131925
_publ_section_title
;
Structure prediction by ZEFSAII (Michael W. Deem and Ramdas Pophale) SiO2 
 PCOD9131925
Probable space group: C M
;
_chemical_formula_sum "Si O2"
_cell_formula_units_Z 32
_cell_length_a 11.610417
_cell_length_b 14.278156
_cell_length_c 18.258745
_cell_angle_alpha 90.000000
_cell_angle_beta 150.975048
_cell_angle_gamma 90.000000
_cell_volume 1468.598644
_symmetry_space_group_name_H-M "C M"
_symmetry_group_IT_number 8
_symmetry_cell_setting 'monoclinic'
loop_
_space_group_symop_operation_xyz
x,y,z
x,-y,z
1/2+x,1/2+y,z
1/2+x,1/2-y,z
loop_
_atom_site_type_symbol
_atom_site_label
_atom_site_fract_x
_atom_site_fract_y
_atom_site_fract_z
Si Si1 0.340160 0.611946 0.807870
Si Si2 0.828234 0.110175 0.204705
Si Si3 0.904298 0.103147 0.550033
Si Si4 0.807597 0.691610 0.532165
Si Si5 0.743343 0.246161 0.031416
Si Si6 0.101795 0.397651 0.238413
Si Si7 0.381905 0.397577 0.004265
Si Si8 0.320168 0.896456 0.692203
O O1 0.355427 0.500000 0.793592
O O2 0.407901 0.613048 0.932038
O O3 0.065683 0.648472 0.652151
O O4 0.520607 0.692120 0.875866
O O5 0.697540 0.170929 0.069837
O O6 0.702350 0.119235 0.213585
O O7 0.096979 0.147444 0.366771
O O8 0.831217 0.000000 0.186898
O O9 0.803917 0.196202 0.528223
O O10 0.805627 0.101744 0.412277
O O11 0.183171 0.118290 0.691378
O O12 0.858425 0.000000 0.557156
O O13 0.768805 0.668570 0.595675
O O14 0.908481 0.325568 0.157313
O O15 0.926911 0.193900 0.077111
O O16 0.987118 0.500000 0.173520
O O17 0.480409 0.500000 0.080949
O O18 0.098412 0.398242 0.860101
O O19 0.254382 0.000000 0.628442
#
# Coordination Sequence:
#
# PCOD9131925 Si02
#       8
#     4   4   4   4   4   4   4   4
#     4  10  22  38  59  83 112 150 186 225 273 337
#     4  11  22  36  58  86 113 143 186 236 278 320
#     4  10  19  33  54  82 109 141 183 224 272 329
#     4  11  19  35  60  87 108 139 189 235 277 321
#     4  12  21  36  56  84 113 149 180 230 280 329
#     4  10  21  36  53  77 109 147 189 222 265 333
#     4   9  19  35  54  80 109 143 185 221 268 327
#     4   9  17  33  58  79 105 144 182 223 263 328
#
# _framework density 21.789477999999999
#
# number of rings (size 3 to 8) (size 9 to 14) (size 15 to 20)
#    0.000    1.750    2.500    4.125    0.000    0.000 
#    0.000    0.625    0.000   13.500    0.000    0.000 
#    0.000    0.000    0.000    0.000    0.000    0.000 
#
# Total GULP energy -89151.482007 kJ/mol
# GULP energy per Si atom -5571.967625 kJ/mol
# Density = 2.173988 g / cm^3
# Si number density = 21.789478 Si / 1000 Ang^3
#
#
#
# Elastic Constant Matrix: (Units=GPa)
#
#
# Indices 1 2 3 4 5 6 
#
# 1 14.7275 25.8742 -2.5248 0.0003 -3.8087 0.0009
# 2 25.8742 175.3723 28.4096 0.0014 1.7262 0.0004
# 3 -2.5248 28.4096 51.1530 0.0048 5.4870 0.0015
# 4 0.0003 0.0014 0.0048 23.7096 0.0011 2.1760
# 5 -3.8087 1.7262 5.4870 0.0011 24.7159 0.0010
# 6 0.0009 0.0004 0.0015 2.1760 0.0010 25.6974
#
#
#
# Elastic Compliance Matrix: (Units=1/GPa)
#
#
# Indices 1 2 3 4 5 6 
#
# 1 0.105417 -0.017897 0.013590 -0.000003 0.014477 -0.000004
# 2 -0.017897 0.009307 -0.005826 0.000001 -0.002115 0.000001
# 3 0.013590 -0.005826 0.023753 -0.000004 -0.002772 -0.000001
# 4 -0.000003 0.000001 -0.000004 0.042507 -0.000001 -0.003599
# 5 0.014477 -0.002115 -0.002772 -0.000001 0.043454 -0.000002
# 6 -0.000004 0.000001 -0.000001 -0.003599 -0.000002 0.039219
#
#
# Mechanical properties :
#
#
# Convention : Reuss Voigt Hill
#
# Bulk Modulus (GPa) = 8.45943 38.30787 23.38365
# Shear Modulus (GPa) = 15.46425 27.45751 21.46088
#
# Velocity S-wave (km/s) = 2.66693 3.55368 3.14175
# Velocity P-wave (km/s) = 3.65707 5.87003 4.89037
#
# Compressibility (1/GPa) = 0.11821126
#
# Stress axis : x y z
#
# Youngs Moduli (GPa) = 9.48616 107.44367 42.10035
#
# Poissons Ratio (x) = 1.92293 -0.57214
# Poissons Ratio (y) = 0.16977 0.24526
# Poissons Ratio (z) = -0.12892 0.62592
#
# Static dielectric constant tensor:
#      x y z
#    x 1.856140 0.000000 0.019310 
#    y 0.000000 2.006130 0.000000 
#    z 0.019310 0.000000 1.821650 
# 
# From -- ./inp_files/23352.got.cif
#   From: 2010.05.17/outbox.cif.g08.bks.cpg/sg8_12_cif.got.tgz:23352.got - 2010.06.03 19:46:02.
