data_PCOD9131065
_publ_section_title
;
Structure prediction by ZEFSAII (Michael W. Deem and Ramdas Pophale) SiO2 
 PCOD9131065
Probable space group: P M
;
_chemical_formula_sum "Si O2"
_cell_formula_units_Z 16
_cell_length_a 9.904544
_cell_length_b 7.754807
_cell_length_c 12.289256
_cell_angle_alpha 90.000000
_cell_angle_beta 51.934636
_cell_angle_gamma 90.000000
_cell_volume 743.148612
_symmetry_space_group_name_H-M "P M"
_symmetry_group_IT_number 6
_symmetry_cell_setting 'monoclinic'
loop_
_space_group_symop_operation_xyz
x,y,z
x,-y,z
loop_
_atom_site_type_symbol
_atom_site_label
_atom_site_fract_x
_atom_site_fract_y
_atom_site_fract_z
Si Si1 0.263910 0.205563 0.654960
Si Si2 0.550698 0.708975 0.347320
Si Si3 0.930376 0.697435 0.179525
Si Si4 0.586173 0.208949 0.895459
Si Si5 0.392782 0.702546 0.199895
Si Si6 0.280042 0.797307 0.892331
Si Si7 0.021555 0.196523 0.365143
Si Si8 0.967704 0.211032 0.637770
O O1 0.444666 0.235486 0.505392
O O2 0.264738 0.275603 0.777584
O O3 0.113408 0.272666 0.649628
O O4 0.235066 0.000000 0.676767
O O5 0.557366 0.500000 0.344232
O O6 0.745368 0.773713 0.242258
O O7 0.447761 0.764460 0.291349
O O8 0.935259 0.500000 0.139956
O O9 0.939794 0.704459 0.305601
O O10 0.099152 0.781309 0.044430
O O11 0.436746 0.272930 0.887615
O O12 0.776778 0.261854 0.767221
O O13 0.582145 0.000000 0.898047
O O14 0.540323 0.271359 0.038598
O O15 0.350225 0.500000 0.226926
O O16 0.224950 0.800753 0.243870
O O17 0.318163 0.000000 0.860924
O O18 0.997947 0.267355 0.498384
O O19 0.956829 0.000000 0.394246
O O20 0.976476 0.000000 0.631819
#
# Coordination Sequence:
#
# PCOD9131065 Si02
#       8
#     2   2   2   2   2   2   2   2
#     4  10  21  39  61  87 118 154 197 243 292 349
#     4  10  24  42  59  85 121 159 199 243 293 348
#     4  11  24  41  60  85 121 160 198 242 292 350
#     4  10  21  38  59  86 119 153 193 243 294 347
#     4  11  22  39  61  86 118 156 199 245 292 349
#     4  10  22  38  59  87 119 153 196 243 291 347
#     4  11  21  38  64  90 116 150 196 248 299 349
#     4   9  20  37  59  88 118 149 190 243 297 345
#
# _framework density 21.530013
#
# number of rings (size 3 to 8) (size 9 to 14) (size 15 to 20)
#    0.000    1.750    2.500    1.125    3.500    2.000 
#    0.000    1.875    0.000    0.000    0.000    0.000 
#    0.000    0.000    0.000    0.000    0.000    0.000 
#
# Total GULP energy -89386.034103 kJ/mol
# GULP energy per Si atom -5586.627131 kJ/mol
# Density = 2.148101 g / cm^3
# Si number density = 21.530013 Si / 1000 Ang^3
#
#
#
# Elastic Constant Matrix: (Units=GPa)
#
#
# Indices 1 2 3 4 5 6 
#
# 1 67.3697 -1.3828 14.5510 0.0000 0.8138 0.0000
# 2 -1.3828 32.6301 -8.6672 0.0000 3.6237 0.0000
# 3 14.5510 -8.6672 103.8259 0.0000 8.8451 0.0000
# 4 0.0000 0.0000 0.0000 78.4633 0.0000 -4.3225
# 5 0.8138 3.6237 8.8451 0.0000 40.7341 0.0000
# 6 0.0000 0.0000 0.0000 -4.3225 0.0000 11.8782
#
#
#
# Elastic Compliance Matrix: (Units=1/GPa)
#
#
# Indices 1 2 3 4 5 6 
#
# 1 0.015308 0.000059 -0.002154 0.000000 0.000157 0.000000
# 2 0.000059 0.031816 0.002943 0.000000 -0.003471 0.000000
# 3 -0.002154 0.002943 0.010390 0.000000 -0.002475 0.000000
# 4 0.000000 0.000000 0.000000 0.013006 0.000000 0.004733
# 5 0.000157 -0.003471 -0.002475 0.000000 0.025392 0.000000
# 6 0.000000 0.000000 0.000000 0.004733 0.000000 0.085910
#
#
# Mechanical properties :
#
#
# Convention : Reuss Voigt Hill
#
# Bulk Modulus (GPa) = 16.88851 23.64752 20.26801
# Shear Modulus (GPa) = 25.01727 39.50342 32.26035
#
# Velocity S-wave (km/s) = 3.41247 4.28811 3.87510
# Velocity P-wave (km/s) = 4.83609 5.96025 5.42735
#
# Compressibility (1/GPa) = 0.05921185
#
# Stress axis : x y z
#
# Youngs Moduli (GPa) = 65.32535 31.43039 96.24722
#
# Poissons Ratio (x) = -0.00186 0.20730
# Poissons Ratio (y) = -0.00387 -0.28329
# Poissons Ratio (z) = 0.14070 -0.09251
#
# Static dielectric constant tensor:
#      x y z
#    x 1.768330 0.000000 0.007150 
#    y 0.000000 1.792250 0.000000 
#    z 0.007150 0.000000 1.739860 
# 
# From -- ./inp_files/3722.got.cif
#   From: 2010.05.17/outbox.cif.g08.bks.cpg/sg6_2_cif.got.tgz:3722.got - 2010.06.03 19:42:10.
