data_PCOD9131227
_publ_section_title
;
Structure prediction by ZEFSAII (Michael W. Deem and Ramdas Pophale) SiO2 
 PCOD9131227
Probable space group: P C
;
_chemical_formula_sum "Si O2"
_cell_formula_units_Z 16
_cell_length_a 8.448081
_cell_length_b 19.140388
_cell_length_c 5.335360
_cell_angle_alpha 90.000000
_cell_angle_beta 60.747352
_cell_angle_gamma 90.000000
_cell_volume 752.704898
_symmetry_space_group_name_H-M "P C"
_symmetry_group_IT_number 7
_symmetry_cell_setting 'monoclinic'
loop_
_space_group_symop_operation_xyz
x,y,z
x,-y,1/2+z
loop_
_atom_site_type_symbol
_atom_site_label
_atom_site_fract_x
_atom_site_fract_y
_atom_site_fract_z
Si Si1 0.756900 0.814845 0.395700
Si Si2 0.264324 0.685622 0.394646
Si Si3 0.491603 0.312116 0.221024
Si Si4 0.060126 0.967055 0.635401
Si Si5 0.099384 0.462154 0.877020
Si Si6 0.993169 0.189059 0.218048
Si Si7 0.644185 0.025374 0.939477
Si Si8 0.661331 0.538943 0.704461
O O1 0.613444 0.753937 0.553071
O O2 0.876525 0.818269 0.554708
O O3 0.675258 0.892030 0.418189
O O4 0.872809 0.797772 0.057779
O O5 0.376462 0.671348 0.561017
O O6 0.161149 0.615393 0.394360
O O7 0.130256 0.748212 0.567928
O O8 0.380105 0.705710 0.059122
O O9 0.602807 0.381764 0.204289
O O10 0.084654 0.886497 0.683858
O O11 0.130240 0.985915 0.307682
O O12 0.841582 0.985090 0.789927
O O13 0.162235 0.487573 0.554997
O O14 0.880361 0.463892 0.040315
O O15 0.549007 0.000598 0.762468
O O16 0.597420 0.491275 0.520780
#
# Coordination Sequence:
#
# PCOD9131227 Si02
#       8
#     2   2   2   2   2   2   2   2
#     4  12  22  38  66  93 120 163 213 268 309 361
#     4  12  27  43  60  92 137 173 204 248 315 390
#     4  12  27  43  60  92 137 173 204 248 315 390
#     4  10  16  31  56  94 114 140 202 278 304 350
#     4  10  22  42  69  95 121 157 212 268 305 353
#     4  12  22  38  66  93 120 163 213 268 309 361
#     4  10  16  31  56  94 114 140 202 278 304 350
#     4  10  22  42  69  95 121 157 212 268 305 353
#
# _framework density 21.25667
#
# number of rings (size 3 to 8) (size 9 to 14) (size 15 to 20)
#    0.000    1.000    5.000    3.750    0.000    6.000 
#    0.000    0.000    0.000    4.500    0.000    0.000 
#    0.000    0.000    0.000    0.000    0.000    0.000 
#
# Total GULP energy -89492.420175 kJ/mol
# GULP energy per Si atom -5593.276261 kJ/mol
# Density = 2.120829 g / cm^3
# Si number density = 21.256670 Si / 1000 Ang^3
#
#
#
# Elastic Constant Matrix: (Units=GPa)
#
#
# Indices 1 2 3 4 5 6 
#
# 1 53.3514 29.6044 47.7196 0.0000 24.6824 0.0000
# 2 29.6044 154.7995 34.4849 0.0000 -1.8479 0.0000
# 3 47.7196 34.4849 149.8748 0.0000 37.4796 0.0000
# 4 0.0000 0.0000 0.0000 48.0939 0.0000 14.3137
# 5 24.6824 -1.8479 37.4796 0.0000 28.9299 0.0000
# 6 0.0000 0.0000 0.0000 14.3137 0.0000 -14.1124
#
#
#
# Elastic Compliance Matrix: (Units=1/GPa)
#
#
# Indices 1 2 3 4 5 6 
#
# 1 0.039586 -0.007132 -0.003555 0.000000 -0.029625 0.000000
# 2 -0.007132 0.008364 -0.001936 0.000000 0.009128 0.000000
# 3 -0.003555 -0.001936 0.011127 0.000000 -0.011506 0.000000
# 4 0.000000 0.000000 0.000000 0.015971 0.000000 0.016199
# 5 -0.029625 0.009128 -0.011506 0.000000 0.075331 0.000000
# 6 0.000000 0.000000 0.000000 0.016199 0.000000 -0.054429
#
#
# Mechanical properties :
#
#
# Convention : Reuss Voigt Hill
#
# Bulk Modulus (GPa) = 29.55882 64.62706 47.09294
# Shear Modulus (GPa) = 37.74301 28.99672 33.36987
#
# Velocity S-wave (km/s) = 4.21834 3.69741 3.96644
# Velocity P-wave (km/s) = 6.13691 6.97832 6.57110
#
# Compressibility (1/GPa) = 0.03383085
#
# Stress axis : x y z
#
# Youngs Moduli (GPa) = 25.26117 119.55556 89.87176
#
# Poissons Ratio (x) = 0.85272 0.31947
# Poissons Ratio (y) = 0.18017 0.17402
# Poissons Ratio (z) = 0.08980 0.23150
#
# Static dielectric constant tensor:
#      x y z
#    x 1.808680 0.000000 0.029310 
#    y 0.000000 1.730280 0.000000 
#    z 0.029310 0.000000 1.831460 
# 
# From -- ./inp_files/764.got.cif
#   From: 2010.05.17/outbox.cif.g08.bks.cpg/sg7_cif.got.tgz:764.got - 2010.06.03 19:44:50.
