data_PCOD9131526
_publ_section_title
;
Structure prediction by ZEFSAII (Michael W. Deem and Ramdas Pophale) SiO2 
 PCOD9131526
Probable space group: C M
;
_chemical_formula_sum "Si O2"
_cell_formula_units_Z 32
_cell_length_a 18.327382
_cell_length_b 8.642784
_cell_length_c 11.971671
_cell_angle_alpha 90.000000
_cell_angle_beta 112.914743
_cell_angle_gamma 90.000000
_cell_volume 1746.661274
_symmetry_space_group_name_H-M "C M"
_symmetry_group_IT_number 8
_symmetry_cell_setting 'monoclinic'
loop_
_space_group_symop_operation_xyz
x,y,z
x,-y,z
1/2+x,1/2+y,z
1/2+x,1/2-y,z
loop_
_atom_site_type_symbol
_atom_site_label
_atom_site_fract_x
_atom_site_fract_y
_atom_site_fract_z
Si Si1 0.301460 0.817524 0.012050
Si Si2 0.193530 0.684240 0.262587
Si Si3 0.917773 0.815894 0.523526
Si Si4 0.250986 0.814724 0.510849
Si Si5 0.123713 0.181866 0.010763
Si Si6 0.861535 0.313538 0.272981
Si Si7 0.722494 0.688080 0.751221
Si Si8 0.559812 0.816076 0.754078
O O1 0.212541 0.801866 0.010606
O O2 0.360365 0.756623 0.143289
O O3 0.318897 0.000000 0.014397
O O4 0.291057 0.759264 0.879423
O O5 0.200730 0.500000 0.262891
O O6 0.188249 0.741186 0.386889
O O7 0.128239 0.740428 0.135028
O O8 0.275638 0.761337 0.268755
O O9 0.837219 0.746531 0.526980
O O10 0.922645 0.754650 0.398690
O O11 0.989271 0.760585 0.642997
O O12 0.912450 0.000000 0.518047
O O13 0.237217 0.774524 0.631522
O O14 0.248964 0.000000 0.497502
O O15 0.108028 0.000000 0.011411
O O16 0.066138 0.258316 0.885876
O O17 0.865505 0.500000 0.277238
O O18 0.715770 0.500000 0.757141
O O19 0.641143 0.762978 0.743793
O O20 0.552210 0.000000 0.747513
#
# Coordination Sequence:
#
# PCOD9131526 Si02
#       8
#     4   4   4   4   4   4   4   4
#     4   7  12  24  44  68  92 119 152 193 238 283
#     4  10  17  26  43  69  98 126 161 203 246 288
#     4  11  21  33  49  70 100 133 166 205 248 294
#     4  10  19  32  51  74 101 133 168 205 247 293
#     4   9  16  29  47  68  95 125 160 201 246 290
#     4   9  15  26  45  68  94 123 159 203 248 290
#     4   9  18  33  52  74 101 133 165 199 245 298
#     4  11  21  33  51  75 101 128 163 205 250 298
#
# _framework density 18.320667
#
# number of rings (size 3 to 8) (size 9 to 14) (size 15 to 20)
#    0.000    2.500    0.000    7.500    0.000    1.000 
#    0.000    0.625    0.000    1.500    0.000    1.750 
#    0.000    0.000    0.000    0.000    0.000    0.000 
#
# Total GULP energy -89123.295997 kJ/mol
# GULP energy per Si atom -5570.206000 kJ/mol
# Density = 1.827897 g / cm^3
# Si number density = 18.320667 Si / 1000 Ang^3
#
#
#
# Elastic Constant Matrix: (Units=GPa)
#
#
# Indices 1 2 3 4 5 6 
#
# 1 11.5471 6.9676 31.3310 0.0000 -2.2454 0.0000
# 2 6.9676 37.1520 39.2830 0.0000 -3.1145 0.0000
# 3 31.3310 39.2830 208.5933 0.0000 -8.2064 0.0000
# 4 0.0000 0.0000 0.0000 31.1322 0.0000 5.3369
# 5 -2.2454 -3.1145 -8.2064 0.0000 23.1152 0.0000
# 6 0.0000 0.0000 0.0000 5.3369 0.0000 10.6995
#
#
#
# Elastic Compliance Matrix: (Units=1/GPa)
#
#
# Indices 1 2 3 4 5 6 
#
# 1 0.147873 -0.004976 -0.021029 0.000000 0.006228 0.000000
# 2 -0.004976 0.033899 -0.005553 0.000000 0.002113 0.000000
# 3 -0.021029 -0.005553 0.009015 0.000000 0.000409 0.000000
# 4 0.000000 0.000000 0.000000 0.035124 0.000000 -0.017520
# 5 0.006228 0.002113 0.000409 0.000000 0.044297 0.000000
# 6 0.000000 0.000000 0.000000 -0.017520 0.000000 0.102202
#
#
# Mechanical properties :
#
#
# Convention : Reuss Voigt Hill
#
# Bulk Modulus (GPa) = 7.83264 45.82839 26.83052
# Shear Modulus (GPa) = 10.45847 24.97009 17.71428
#
# Velocity S-wave (km/s) = 2.39185 3.69582 3.11288
# Velocity P-wave (km/s) = 3.45145 6.57883 5.25326
#
# Compressibility (1/GPa) = 0.12767080
#
# Stress axis : x y z
#
# Youngs Moduli (GPa) = 6.76256 29.49963 110.93214
#
# Poissons Ratio (x) = 0.14678 2.33276
# Poissons Ratio (y) = 0.03365 0.61606
# Poissons Ratio (z) = 0.14221 0.16383
#
# Static dielectric constant tensor:
#      x y z
#    x 1.617270 0.000000 -0.009940 
#    y 0.000000 1.610690 0.000000 
#    z -0.009940 0.000000 1.714580 
# 
# From -- ./inp_files/23754.got.cif
#   From: 2010.05.17/outbox.cif.g08.bks.cpg/sg8_12_cif.got.tgz:23754.got - 2010.06.03 19:46:02.
