data_PCOD9131707
_publ_section_title
;
Structure prediction by ZEFSAII (Michael W. Deem and Ramdas Pophale) SiO2 
 PCOD9131707
Probable space group: C M
;
_chemical_formula_sum "Si O2"
_cell_formula_units_Z 32
_cell_length_a 21.194874
_cell_length_b 8.586477
_cell_length_c 26.071375
_cell_angle_alpha 90.000000
_cell_angle_beta 157.652716
_cell_angle_gamma 90.000000
_cell_volume 1804.032067
_symmetry_space_group_name_H-M "C M"
_symmetry_group_IT_number 8
_symmetry_cell_setting 'monoclinic'
loop_
_space_group_symop_operation_xyz
x,y,z
x,-y,z
1/2+x,1/2+y,z
1/2+x,1/2-y,z
loop_
_atom_site_type_symbol
_atom_site_label
_atom_site_fract_x
_atom_site_fract_y
_atom_site_fract_z
Si Si1 0.569760 0.813183 0.760200
Si Si2 0.597410 0.686963 0.055249
Si Si3 0.332693 0.310354 0.039768
Si Si4 0.901557 0.186930 0.479317
Si Si5 0.240981 0.686477 0.467367
Si Si6 0.650002 0.687424 0.212033
Si Si7 0.878313 0.813132 0.191425
Si Si8 0.236945 0.186940 0.783103
O O1 0.388552 0.741499 0.615485
O O2 0.681008 0.759747 0.795374
O O3 0.557683 0.000000 0.750302
O O4 0.667260 0.764082 0.884739
O O5 0.589397 0.500000 0.048777
O O6 0.633793 0.739321 0.141151
O O7 0.741292 0.744405 0.126114
O O8 0.418351 0.754230 0.905380
O O9 0.336454 0.500000 0.042621
O O10 0.492495 0.257229 0.127237
O O11 0.344733 0.259493 0.107560
O O12 0.799240 0.234438 0.453611
O O13 0.815187 0.258350 0.364983
O O14 0.091972 0.230591 0.633917
O O15 0.893131 0.000000 0.469569
O O16 0.230736 0.500000 0.460703
O O17 0.063118 0.759173 0.344966
O O18 0.645745 0.500000 0.208833
O O19 0.870272 0.000000 0.186567
O O20 0.235383 0.000000 0.786990
#
# Coordination Sequence:
#
# PCOD9131707 Si02
#       8
#     4   4   4   4   4   4   4   4
#     4  10  18  33  57  84 112 145 184 229 278 325
#     4  11  23  39  57  81 114 149 184 226 279 335
#     4   9  18  34  56  84 111 139 184 233 273 320
#     4   9  19  33  53  83 114 141 178 230 276 319
#     4  10  20  35  53  82 117 147 182 227 276 327
#     4  10  19  35  57  82 110 142 184 231 272 322
#     4  11  22  38  59  82 111 149 187 226 277 333
#     4  10  20  35  54  82 115 146 183 228 277 327
#
# _framework density 17.738043000000001
#
# number of rings (size 3 to 8) (size 9 to 14) (size 15 to 20)
#    0.000    2.000    2.500    2.625    0.000    3.500 
#    0.000    3.750    0.000    1.500    0.000    0.000 
#    0.000    0.000    0.000    0.000    0.000    0.000 
#
# Total GULP energy -89307.335929 kJ/mol
# GULP energy per Si atom -5581.708496 kJ/mol
# Density = 1.769767 g / cm^3
# Si number density = 17.738043 Si / 1000 Ang^3
#
#
#
# Elastic Constant Matrix: (Units=GPa)
#
#
# Indices 1 2 3 4 5 6 
#
# 1 103.0186 18.1169 68.2462 0.0012 3.5995 -0.0002
# 2 18.1169 32.5501 20.7151 0.0021 1.8804 -0.0005
# 3 68.2462 20.7151 149.3079 0.0048 2.5583 -0.0017
# 4 0.0012 0.0021 0.0048 19.7935 -0.0005 14.2938
# 5 3.5995 1.8804 2.5583 -0.0005 26.9808 0.0002
# 6 -0.0002 -0.0005 -0.0017 14.2938 0.0002 13.7337
#
#
#
# Elastic Compliance Matrix: (Units=1/GPa)
#
#
# Indices 1 2 3 4 5 6 
#
# 1 0.014460 -0.004159 -0.006014 0.000006 -0.001069 -0.000007
# 2 -0.004159 0.034992 -0.002926 -0.000014 -0.001606 0.000015
# 3 -0.006014 -0.002926 0.009851 -0.000010 0.000072 0.000011
# 4 0.000006 -0.000014 -0.000010 0.203382 0.000006 -0.211676
# 5 -0.001069 -0.001606 0.000072 0.000006 0.037311 -0.000007
# 6 -0.000007 0.000015 0.000011 -0.211676 -0.000007 0.293122
#
#
# Mechanical properties :
#
#
# Convention : Reuss Voigt Hill
#
# Bulk Modulus (GPa) = 30.20755 55.44810 42.82783
# Shear Modulus (GPa) = 7.93209 23.95483 15.94346
#
# Velocity S-wave (km/s) = 2.11696 3.67887 3.00130
# Velocity P-wave (km/s) = 4.80022 7.02657 6.01726
#
# Compressibility (1/GPa) = 0.03310430
#
# Stress axis : x y z
#
# Youngs Moduli (GPa) = 69.15722 28.57813 101.51027
#
# Poissons Ratio (x) = 0.11886 0.61048
# Poissons Ratio (y) = 0.28763 0.29704
# Poissons Ratio (z) = 0.41591 0.08363
#
# Static dielectric constant tensor:
#      x y z
#    x 1.584990 0.000000 -0.012680 
#    y 0.000000 1.602590 0.000000 
#    z -0.012680 0.000000 1.603220 
# 
# From -- ./inp_files/31330.got.cif
#   From: 2010.05.17/outbox.cif.g08.bks.cpg/sg8_16_cif.got.tgz:31330.got - 2010.06.03 19:46:02.
