data_PCOD9131901
_publ_section_title
;
Structure prediction by ZEFSAII (Michael W. Deem and Ramdas Pophale) SiO2 
 PCOD9131901
Probable space group: C M
;
_chemical_formula_sum "Si O2"
_cell_formula_units_Z 32
_cell_length_a 14.666998
_cell_length_b 8.149550
_cell_length_c 26.324311
_cell_angle_alpha 90.000000
_cell_angle_beta 33.838689
_cell_angle_gamma 90.000000
_cell_volume 1752.166023
_symmetry_space_group_name_H-M "C M"
_symmetry_group_IT_number 8
_symmetry_cell_setting 'monoclinic'
loop_
_space_group_symop_operation_xyz
x,y,z
x,-y,z
1/2+x,1/2+y,z
1/2+x,1/2-y,z
loop_
_atom_site_type_symbol
_atom_site_label
_atom_site_fract_x
_atom_site_fract_y
_atom_site_fract_z
Si Si1 0.185570 0.804959 0.146010
Si Si2 0.045419 0.195532 0.000200
Si Si3 0.301247 0.799200 0.496960
Si Si4 0.118181 0.696655 0.290212
Si Si5 0.436669 0.302540 0.643557
Si Si6 0.225425 0.802570 0.645512
Si Si7 0.860953 0.801566 0.791923
Si Si8 0.982215 0.799373 0.143314
O O1 0.120261 0.734929 0.229470
O O2 0.087050 0.741662 0.142684
O O3 0.165122 0.000000 0.157509
O O4 0.378469 0.766490 0.054011
O O5 0.205779 0.240979 0.894769
O O6 0.026754 0.000000 0.009477
O O7 0.052878 0.251295 0.055689
O O8 0.458654 0.739650 0.393219
O O9 0.299506 0.748700 0.556920
O O10 0.126459 0.747448 0.554461
O O11 0.303110 0.000000 0.495318
O O12 0.117945 0.500000 0.295718
O O13 0.292529 0.755017 0.231821
O O14 0.439415 0.500000 0.643557
O O15 0.330910 0.250219 0.644600
O O16 0.362781 0.247857 0.732025
O O17 0.035663 0.747491 0.734406
O O18 0.222551 0.000000 0.645762
O O19 0.858355 0.000000 0.793608
O O20 0.983610 0.000000 0.143530
#
# Coordination Sequence:
#
# PCOD9131901 Si02
#       8
#     4   4   4   4   4   4   4   4
#     4  10  19  33  51  73 101 129 159 200 250 294
#     4  10  20  35  53  73  96 127 167 203 240 291
#     4   8  16  32  52  71  98 135 166 198 245 294
#     4   9  17  33  53  72  97 131 169 203 239 288
#     4   9  18  33  51  72 100 133 165 199 245 294
#     4   9  18  33  52  74  99 130 168 204 240 287
#     4   9  19  35  51  70 100 133 162 198 248 296
#     4   8  17  32  49  69  95 126 158 195 241 292
#
# _framework density 18.263110999999999
#
# number of rings (size 3 to 8) (size 9 to 14) (size 15 to 20)
#    0.000    3.000    0.000    3.000    0.000    3.000 
#    0.000   14.375    0.000    0.000    0.000    0.000 
#    0.000    0.000    0.000    0.000    0.000    0.000 
#
# Total GULP energy -89187.726225 kJ/mol
# GULP energy per Si atom -5574.232889 kJ/mol
# Density = 1.822154 g / cm^3
# Si number density = 18.263111 Si / 1000 Ang^3
#
#
#
# Elastic Constant Matrix: (Units=GPa)
#
#
# Indices 1 2 3 4 5 6 
#
# 1 189.1617 0.4439 92.4201 0.0000 -8.7639 0.0000
# 2 0.4439 1.5851 -0.6040 0.0000 -1.3251 0.0000
# 3 92.4201 -0.6040 176.0095 0.0000 -4.0215 0.0000
# 4 0.0000 0.0000 0.0000 21.9215 0.0000 2.0014
# 5 -8.7639 -1.3251 -4.0215 0.0000 7.2706 0.0000
# 6 0.0000 0.0000 0.0000 2.0014 0.0000 27.9293
#
#
#
# Elastic Compliance Matrix: (Units=1/GPa)
#
#
# Indices 1 2 3 4 5 6 
#
# 1 0.007446 0.002679 -0.003732 0.000000 0.007400 0.000000
# 2 0.002679 0.750977 0.004428 0.000000 0.142549 0.000000
# 3 -0.003732 0.004428 0.007669 0.000000 0.000551 0.000000
# 4 0.000000 0.000000 0.000000 0.045918 0.000000 -0.003291
# 5 0.007400 0.142549 0.000551 0.000000 0.172745 0.000000
# 6 0.000000 0.000000 0.000000 -0.003291 0.000000 0.036041
#
#
# Mechanical properties :
#
#
# Convention : Reuss Voigt Hill
#
# Bulk Modulus (GPa) = 1.29393 61.25292 31.27342
# Shear Modulus (GPa) = 3.93187 29.72404 16.82796
#
# Velocity S-wave (km/s) = 1.46887 4.03866 3.03878
# Velocity P-wave (km/s) = 1.89388 7.44041 5.42893
#
# Compressibility (1/GPa) = 0.77284132
#
# Stress axis : x y z
#
# Youngs Moduli (GPa) = 134.29613 1.33160 130.39991
#
# Poissons Ratio (x) = -0.00357 0.48661
# Poissons Ratio (y) = -0.35977 -0.57735
# Poissons Ratio (z) = 0.50115 -0.00590
#
# Static dielectric constant tensor:
#      x y z
#    x 1.616060 0.000000 -0.002350 
#    y 0.000000 1.653110 0.000000 
#    z -0.002350 0.000000 1.616040 
# 
# From -- ./inp_files/26411.got.cif
#   From: 2010.05.17/outbox.cif.g08.bks.cpg/sg8_14_cif.got.tgz:26411.got - 2010.06.03 19:46:02.
