data_PCOD9131046
_publ_section_title
;
Structure prediction by ZEFSAII (Michael W. Deem and Ramdas Pophale) SiO2 
 PCOD9131046
Probable space group: P M
;
_chemical_formula_sum "Si O2"
_cell_formula_units_Z 16
_cell_length_a 14.824834
_cell_length_b 8.775947
_cell_length_c 19.772256
_cell_angle_alpha 90.000000
_cell_angle_beta 160.810413
_cell_angle_gamma 90.000000
_cell_volume 845.538069
_symmetry_space_group_name_H-M "P M"
_symmetry_group_IT_number 6
_symmetry_cell_setting 'monoclinic'
loop_
_space_group_symop_operation_xyz
x,y,z
x,-y,z
loop_
_atom_site_type_symbol
_atom_site_label
_atom_site_fract_x
_atom_site_fract_y
_atom_site_fract_z
Si Si1 0.383070 0.814039 0.892930
Si Si2 0.408877 0.813863 0.757453
Si Si3 0.902226 0.182463 0.652515
Si Si4 0.897397 0.318828 0.796522
Si Si5 0.311699 0.318818 0.210795
Si Si6 0.002384 0.186124 0.350991
Si Si7 0.451176 0.175403 0.569262
Si Si8 0.882143 0.175393 0.000190
O O1 0.346815 0.765800 0.789481
O O2 0.143132 0.763270 0.772960
O O3 0.380616 0.000000 0.891692
O O4 0.688083 0.765778 0.130778
O O5 0.707318 0.766791 0.940227
O O6 0.176893 0.765184 0.539854
O O7 0.415267 0.000000 0.760638
O O8 0.947775 0.241075 0.760676
O O9 0.606217 0.241057 0.419106
O O10 0.901547 0.000000 0.652190
O O11 0.901989 0.500000 0.792013
O O12 0.604934 0.268622 0.620608
O O13 0.127460 0.275068 0.015116
O O14 0.343542 0.500000 0.233519
O O15 0.137965 0.268676 0.153616
O O16 0.166575 0.233226 0.399526
O O17 0.008828 0.000000 0.354222
O O18 0.658110 0.174904 0.780451
O O19 0.419099 0.000000 0.524371
O O20 0.965525 0.000000 0.070735
#
# Coordination Sequence:
#
# PCOD9131046 Si02
#       8
#     2   2   2   2   2   2   2   2
#     4   9  18  30  45  70 100 131 170 211 254 303
#     4   8  14  26  45  70 101 132 161 203 258 309
#     4  11  23  36  53  78 106 139 182 227 262 301
#     4  10  21  37  56  77 106 143 177 215 265 316
#     4  10  21  37  56  77 106 143 177 215 265 316
#     4   8  14  26  45  70 101 132 161 203 258 309
#     4   8  14  27  50  79 106 131 164 207 256 313
#     4   8  14  27  50  79 106 131 164 207 256 313
#
# _framework density 18.922861000000001
#
# number of rings (size 3 to 8) (size 9 to 14) (size 15 to 20)
#    0.000    3.000    0.000    2.625    0.000    3.500 
#    0.000    5.000    0.000    3.000    0.000    3.500 
#    0.000    0.000    0.000    0.000    0.000    0.000 
#
# Total GULP energy -89232.634110 kJ/mol
# GULP energy per Si atom -5577.039632 kJ/mol
# Density = 1.887979 g / cm^3
# Si number density = 18.922861 Si / 1000 Ang^3
#
#
#
# Elastic Constant Matrix: (Units=GPa)
#
#
# Indices 1 2 3 4 5 6 
#
# 1 177.1130 35.8664 94.6713 0.0000 26.6653 0.0000
# 2 35.8664 24.0685 31.7107 0.0000 5.1896 0.0000
# 3 94.6713 31.7107 135.9610 0.0000 24.7802 0.0000
# 4 0.0000 0.0000 0.0000 6.4487 0.0000 -10.9819
# 5 26.6653 5.1896 24.7802 0.0000 32.9186 0.0000
# 6 0.0000 0.0000 0.0000 -10.9819 0.0000 -2.3455
#
#
#
# Elastic Compliance Matrix: (Units=1/GPa)
#
#
# Indices 1 2 3 4 5 6 
#
# 1 0.010380 -0.008711 -0.004536 0.000000 -0.003620 0.000000
# 2 -0.008711 0.067333 -0.010420 0.000000 0.004285 0.000000
# 3 -0.004536 -0.010420 0.013879 0.000000 -0.005131 0.000000
# 4 0.000000 0.000000 0.000000 0.017281 0.000000 -0.080911
# 5 -0.003620 0.004285 -0.005131 0.000000 0.036497 0.000000
# 6 0.000000 0.000000 0.000000 -0.080911 0.000000 -0.047512
#
#
# Mechanical properties :
#
#
# Convention : Reuss Voigt Hill
#
# Bulk Modulus (GPa) = 22.59456 73.51545 48.05501
# Shear Modulus (GPa) = 31.26084 19.06397 25.16241
#
# Velocity S-wave (km/s) = 4.06891 3.17749 3.65051
# Velocity P-wave (km/s) = 5.83446 7.23853 6.57409
#
# Compressibility (1/GPa) = 0.04425844
#
# Stress axis : x y z
#
# Youngs Moduli (GPa) = 96.34108 14.85147 72.05121
#
# Poissons Ratio (x) = 0.12937 0.32683
# Poissons Ratio (y) = 0.83920 0.75077
# Poissons Ratio (z) = 0.43702 0.15475
#
# Static dielectric constant tensor:
#      x y z
#    x 1.660320 0.000000 -0.014440 
#    y 0.000000 1.627380 0.000000 
#    z -0.014440 0.000000 1.671770 
# 
# From -- ./inp_files/5951.got.cif
#   From: 2010.05.17/outbox.cif.g08.bks.cpg/sg6_3_cif.got.tgz:5951.got - 2010.06.03 19:42:10.
