data_PCOD9131455
_publ_section_title
;
Structure prediction by ZEFSAII (Michael W. Deem and Ramdas Pophale) SiO2 
 PCOD9131455
Probable space group: P C
;
_chemical_formula_sum "Si O2"
_cell_formula_units_Z 16
_cell_length_a 6.758488
_cell_length_b 18.527463
_cell_length_c 5.549940
_cell_angle_alpha 90.000000
_cell_angle_beta 68.864050
_cell_angle_gamma 90.000000
_cell_volume 648.199301
_symmetry_space_group_name_H-M "P C"
_symmetry_group_IT_number 7
_symmetry_cell_setting 'monoclinic'
loop_
_space_group_symop_operation_xyz
x,y,z
x,-y,1/2+z
loop_
_atom_site_type_symbol
_atom_site_label
_atom_site_fract_x
_atom_site_fract_y
_atom_site_fract_z
Si Si1 0.601200 0.734330 0.099070
Si Si2 0.650741 0.457755 0.170089
Si Si3 0.067921 0.239308 0.175644
Si Si4 0.677129 0.923585 0.956875
Si Si5 0.290119 0.643581 0.898168
Si Si6 0.291822 0.869456 0.325462
Si Si7 0.834966 0.085532 0.879834
Si Si8 0.890373 0.331502 0.861242
O O1 0.441973 0.802663 0.181089
O O2 0.685264 0.698907 0.310849
O O3 0.460381 0.677844 0.010003
O O4 0.830582 0.753771 0.883375
O O5 0.683110 0.496687 0.411134
O O6 0.411478 0.426490 0.253270
O O7 0.809110 0.389574 0.086733
O O8 0.223286 0.296706 0.230905
O O9 0.193254 0.162969 0.118544
O O10 0.019288 0.265459 0.923934
O O11 0.444599 0.934962 0.175804
O O12 0.777418 0.884269 0.144304
O O13 0.795507 0.999970 0.878541
O O14 0.700451 0.890934 0.677190
O O15 0.063641 0.629131 0.120343
O O16 0.074108 0.892589 0.304758
#
# Coordination Sequence:
#
# PCOD9131455 Si02
#       8
#     2   2   2   2   2   2   2   2
#     4  11  24  44  70 106 147 189 244 317 374 439
#     4  12  28  47  75 109 148 199 250 296 361 454
#     4  11  25  42  72 106 143 188 246 311 369 440
#     4  10  25  47  69 101 147 191 241 307 359 437
#     4  11  25  47  76 101 150 195 242 305 383 419
#     4  12  25  41  75 106 140 195 251 296 377 454
#     4  10  25  47  70 102 145 190 246 300 363 439
#     4  11  25  47  71 103 150 187 240 310 370 422
#
# _framework density 24.683765999999999
#
# number of rings (size 3 to 8) (size 9 to 14) (size 15 to 20)
#    0.000    1.000    2.500    2.250    5.250    8.000 
#    0.000    0.000    0.000    0.000    0.000    0.000 
#    0.000    0.000    0.000    0.000    0.000    0.000 
#
# Total GULP energy -89231.898881 kJ/mol
# GULP energy per Si atom -5576.993680 kJ/mol
# Density = 2.462758 g / cm^3
# Si number density = 24.683766 Si / 1000 Ang^3
#
#
#
# Elastic Constant Matrix: (Units=GPa)
#
#
# Indices 1 2 3 4 5 6 
#
# 1 125.9306 32.1258 41.5039 0.0000 -16.4013 0.0000
# 2 32.1258 83.8358 31.3580 0.0000 -4.3589 0.0000
# 3 41.5039 31.3580 98.6583 0.0000 -13.2649 0.0000
# 4 0.0000 0.0000 0.0000 -53.8200 0.0000 52.6440
# 5 -16.4013 -4.3589 -13.2649 0.0000 57.3237 0.0000
# 6 0.0000 0.0000 0.0000 52.6440 0.0000 -0.2500
#
#
#
# Elastic Compliance Matrix: (Units=1/GPa)
#
#
# Indices 1 2 3 4 5 6 
#
# 1 0.009850 -0.002521 -0.003085 0.000000 0.001913 0.000000
# 2 -0.002521 0.014183 -0.003509 0.000000 -0.000455 0.000000
# 3 -0.003085 -0.003509 0.012793 0.000000 0.001811 0.000000
# 4 0.000000 0.000000 0.000000 0.000091 0.000000 0.019088
# 5 0.001913 -0.000455 0.001811 0.000000 0.018376 0.000000
# 6 0.000000 0.000000 0.000000 0.019088 0.000000 0.019515
#
#
# Mechanical properties :
#
#
# Convention : Reuss Voigt Hill
#
# Bulk Modulus (GPa) = 53.77592 57.60002 55.68797
# Shear Modulus (GPa) = 50.38538 14.21322 32.29930
#
# Velocity S-wave (km/s) = 4.52290 2.40221 3.62128
# Velocity P-wave (km/s) = 7.00777 5.57494 6.33201
#
# Compressibility (1/GPa) = 0.01859568
#
# Stress axis : x y z
#
# Youngs Moduli (GPa) = 101.52337 70.50778 78.17066
#
# Poissons Ratio (x) = 0.17775 0.24118
# Poissons Ratio (y) = 0.25594 0.27426
# Poissons Ratio (z) = 0.31323 0.24738
#
# Static dielectric constant tensor:
#      x y z
#    x 1.987410 0.000000 0.003290 
#    y 0.000000 2.034690 0.000000 
#    z 0.003290 0.000000 2.124000 
# 
# From -- ./inp_files/356.got.cif
#   From: 2010.05.17/outbox.cif.g08.bks.cpg/sg7_cif.got.tgz:356.got - 2010.06.03 19:44:50.
