data_PCOD9131499
_publ_section_title
;
Structure prediction by ZEFSAII (Michael W. Deem and Ramdas Pophale) SiO2 
 PCOD9131499
Probable space group: C M
;
_chemical_formula_sum "Si O2"
_cell_formula_units_Z 28
_cell_length_a 5.362434
_cell_length_b 29.680244
_cell_length_c 6.527683
_cell_angle_alpha 90.000000
_cell_angle_beta 99.282201
_cell_angle_gamma 90.000000
_cell_volume 1025.331301
_symmetry_space_group_name_H-M "C M"
_symmetry_group_IT_number 8
_symmetry_cell_setting 'monoclinic'
loop_
_space_group_symop_operation_xyz
x,y,z
x,-y,z
1/2+x,1/2+y,z
1/2+x,1/2-y,z
loop_
_atom_site_type_symbol
_atom_site_label
_atom_site_fract_x
_atom_site_fract_y
_atom_site_fract_z
Si Si1 0.090240 0.407027 0.006450
Si Si2 0.207896 0.000000 0.618525
Si Si3 0.895274 0.129608 0.514799
Si Si4 0.083873 0.131349 0.003246
Si Si5 0.256360 0.233419 0.986806
Si Si6 0.758950 0.000000 0.901879
Si Si7 0.389111 0.092190 0.509059
Si Si8 0.361049 0.269433 0.452387
O O1 0.311533 0.370846 0.079691
O O2 0.818875 0.402222 0.082061
O O3 0.244536 0.454134 0.029514
O O4 0.990099 0.401070 0.757513
O O5 0.233373 0.045286 0.489362
O O6 0.479274 0.000000 0.766607
O O7 0.978636 0.000000 0.755245
O O8 0.661510 0.096142 0.434741
O O9 0.785937 0.179781 0.494324
O O10 0.165544 0.127714 0.434554
O O11 0.989730 0.119959 0.759229
O O12 0.200996 0.181059 0.012329
O O13 0.501776 0.242212 0.885474
O O14 0.330857 0.258658 0.207403
O O15 0.657823 0.263699 0.524593
#
# Coordination Sequence:
#
# PCOD9131499 Si02
#       8
#     4   2   4   4   4   2   4   4
#     4   9  17  28  44  70 103 137 168 199 242 295
#     4  10  16  26  44  68 104 144 172 196 237 294
#     4  10  19  31  48  72 102 133 167 209 254 295
#     4  10  19  31  48  72 102 133 167 209 254 295
#     4  10  21  36  52  70  96 127 170 217 259 307
#     4  10  16  26  44  68 104 144 172 196 237 294
#     4   9  17  28  44  70 103 137 168 199 242 295
#     4  10  21  36  52  70  96 127 170 217 259 307
#
# _framework density 27.308247000000001
#
# number of rings (size 3 to 8) (size 9 to 14) (size 15 to 20)
#    0.000    2.286    0.000    6.000    0.000    1.143 
#    0.000    0.000    0.000    0.000    0.000    0.000 
#    0.000   91.429    0.000    0.000    0.000    0.000 
#
# Total GULP energy -78251.586341 kJ/mol
# GULP energy per Si atom -5589.399024 kJ/mol
# Density = 2.724609 g / cm^3
# Si number density = 27.308247 Si / 1000 Ang^3
#
#
#
# Elastic Constant Matrix: (Units=GPa)
#
#
# Indices 1 2 3 4 5 6 
#
# 1 255.8300 67.7759 39.4165 0.0000 3.3792 0.0000
# 2 67.7759 147.0325 -12.7611 0.0000 19.7735 0.0000
# 3 39.4165 -12.7611 68.4701 0.0000 17.4778 0.0000
# 4 0.0000 0.0000 0.0000 3.2656 0.0000 22.2812
# 5 3.3792 19.7735 17.4778 0.0000 67.3478 0.0000
# 6 0.0000 0.0000 0.0000 22.2812 0.0000 28.0256
#
#
#
# Elastic Compliance Matrix: (Units=1/GPa)
#
#
# Indices 1 2 3 4 5 6 
#
# 1 0.005312 -0.003025 -0.004049 0.000000 0.001672 0.000000
# 2 -0.003025 0.009064 0.004360 0.000000 -0.003641 0.000000
# 3 -0.004049 0.004360 0.019302 0.000000 -0.006086 0.000000
# 4 0.000000 0.000000 0.000000 -0.069211 0.000000 0.055024
# 5 0.001672 -0.003641 -0.006086 0.000000 0.017413 0.000000
# 6 0.000000 0.000000 0.000000 0.055024 0.000000 -0.008064
#
#
# Mechanical properties :
#
#
# Convention : Reuss Voigt Hill
#
# Bulk Modulus (GPa) = 35.39803 73.35502 54.37652
# Shear Modulus (GPa) = -440.85535 44.85455 -198.00040
#
# Velocity S-wave (km/s) = -12.71956 4.05721 -8.52427
# Velocity P-wave (km/s) = 14.23818 6.99057 8.77091
#
# Compressibility (1/GPa) = 0.02825016
#
# Stress axis : x y z
#
# Youngs Moduli (GPa) = 188.25734 110.33202 51.80903
#
# Poissons Ratio (x) = 0.33373 0.20975
# Poissons Ratio (y) = 0.56944 -0.22588
# Poissons Ratio (z) = 0.76216 -0.48103
#
# Static dielectric constant tensor:
#      x y z
#    x 2.178080 0.000000 -0.101270 
#    y 0.000000 2.152190 0.000000 
#    z -0.101270 0.000000 2.349260 
# 
# From -- ./inp_files/7105.got.cif
#   From: 2010.05.17/outbox.cif.g08.bks.cpg/sg8_4_cif.got.tgz:7105.got - 2010.06.03 19:46:02.
