data_PCOD9131980
_publ_section_title
;
Structure prediction by ZEFSAII (Michael W. Deem and Ramdas Pophale) SiO2 
 PCOD9131980
Probable space group: C M
;
_chemical_formula_sum "Si O2"
_cell_formula_units_Z 32
_cell_length_a 20.896342
_cell_length_b 8.821558
_cell_length_c 25.750249
_cell_angle_alpha 90.000000
_cell_angle_beta 22.690011
_cell_angle_gamma 90.000000
_cell_volume 1831.038708
_symmetry_space_group_name_H-M "C M"
_symmetry_group_IT_number 8
_symmetry_cell_setting 'monoclinic'
loop_
_space_group_symop_operation_xyz
x,y,z
x,-y,z
1/2+x,1/2+y,z
1/2+x,1/2-y,z
loop_
_atom_site_type_symbol
_atom_site_label
_atom_site_fract_x
_atom_site_fract_y
_atom_site_fract_z
Si Si1 0.913350 0.681931 0.552490
Si Si2 0.481571 0.817641 0.106846
Si Si3 0.676837 0.182061 0.270633
Si Si4 0.268764 0.318406 0.815884
Si Si5 0.218765 0.182295 0.125475
Si Si6 0.585853 0.181259 0.532233
Si Si7 0.443065 0.181403 0.256878
Si Si8 0.596483 0.818366 0.835430
O O1 0.902212 0.500000 0.561549
O O2 0.730738 0.749165 0.695939
O O3 0.015878 0.727518 0.425001
O O4 0.018182 0.727065 0.525472
O O5 0.336657 0.736073 0.183466
O O6 0.470290 0.779153 0.175841
O O7 0.459728 0.000000 0.117469
O O8 0.657948 0.779092 0.948626
O O9 0.680410 0.256976 0.211695
O O10 0.678717 0.000000 0.264558
O O11 0.295331 0.500000 0.795323
O O12 0.443888 0.236200 0.678042
O O13 0.159404 0.279224 0.846578
O O14 0.086105 0.246829 0.184701
O O15 0.214260 0.000000 0.129186
O O16 0.407012 0.230930 0.970569
O O17 0.763184 0.256798 0.407972
O O18 0.601107 0.000000 0.521999
O O19 0.446459 0.000000 0.259100
O O20 0.602252 0.000000 0.827017
#
# Coordination Sequence:
#
# PCOD9131980 Si02
#       8
#     4   4   4   4   4   4   4   4
#     4   9  19  33  53  83 115 143 181 231 278 324
#     4  10  20  36  58  84 114 146 188 234 281 331
#     4  11  21  35  57  86 115 145 188 235 279 330
#     4   9  17  33  55  82 111 142 185 234 279 329
#     4  11  23  40  58  81 115 152 188 232 282 337
#     4  10  19  34  54  82 115 149 186 228 279 331
#     4  11  23  38  58  84 113 152 191 229 281 338
#     4   9  18  33  55  80 108 145 187 227 277 332
#
# _framework density 17.476419
#
# number of rings (size 3 to 8) (size 9 to 14) (size 15 to 20)
#    0.000    2.000    2.500    1.500    0.000    3.500 
#    0.000    1.250    0.000    4.500    0.000    0.000 
#    0.000    0.000    0.000    0.000    0.000    0.000 
#
# Total GULP energy -89312.491472 kJ/mol
# GULP energy per Si atom -5582.030717 kJ/mol
# Density = 1.743664 g / cm^3
# Si number density = 17.476419 Si / 1000 Ang^3
#
#
#
# Elastic Constant Matrix: (Units=GPa)
#
#
# Indices 1 2 3 4 5 6 
#
# 1 89.3465 39.3603 67.9302 -0.0010 -5.5069 0.0004
# 2 39.3603 38.8040 48.5481 -0.0005 -1.6333 0.0002
# 3 67.9302 48.5481 176.9500 -0.0013 -0.6341 0.0003
# 4 -0.0010 -0.0005 -0.0013 31.5443 -0.0008 -3.2203
# 5 -5.5069 -1.6333 -0.6341 -0.0008 24.9086 0.0004
# 6 0.0004 0.0002 0.0003 -3.2203 0.0004 24.7039
#
#
#
# Elastic Compliance Matrix: (Units=1/GPa)
#
#
# Indices 1 2 3 4 5 6 
#
# 1 0.021859 -0.017569 -0.003558 0.000000 0.003590 0.000000
# 2 -0.017569 0.053493 -0.007934 0.000000 -0.000579 0.000000
# 3 -0.003558 -0.007934 0.009190 0.000000 -0.001073 0.000000
# 4 0.000000 0.000000 0.000000 0.032129 0.000001 0.004188
# 5 0.003590 -0.000579 -0.001073 0.000001 0.040875 -0.000001
# 6 0.000000 0.000000 0.000000 0.004188 -0.000001 0.041025
#
#
# Mechanical properties :
#
#
# Convention : Reuss Voigt Hill
#
# Bulk Modulus (GPa) = 37.85056 68.53085 53.19070
# Shear Modulus (GPa) = 18.83226 26.18216 22.50721
#
# Velocity S-wave (km/s) = 3.28621 3.87478 3.59257
# Velocity P-wave (km/s) = 6.00866 7.70176 6.90728
#
# Compressibility (1/GPa) = 0.02641969
#
# Stress axis : x y z
#
# Youngs Moduli (GPa) = 45.74774 18.69388 108.81132
#
# Poissons Ratio (x) = 0.32844 0.38719
# Poissons Ratio (y) = 0.80376 0.86328
# Poissons Ratio (z) = 0.16279 0.14831
#
# Static dielectric constant tensor:
#      x y z
#    x 1.568600 0.000000 0.012210 
#    y 0.000000 1.583930 0.000000 
#    z 0.012210 0.000000 1.591710 
# 
# From -- ./inp_files/31359.got.cif
#   From: 2010.05.17/outbox.cif.g08.bks.cpg/sg8_16_cif.got.tgz:31359.got - 2010.06.03 19:46:02.
