data_PCOD9131620
_publ_section_title
;
Structure prediction by ZEFSAII (Michael W. Deem and Ramdas Pophale) SiO2 
 PCOD9131620
Probable space group: C M
;
_chemical_formula_sum "Si O2"
_cell_formula_units_Z 28
_cell_length_a 15.473796
_cell_length_b 15.391354
_cell_length_c 11.671949
_cell_angle_alpha 90.000000
_cell_angle_beta 24.694501
_cell_angle_gamma 90.000000
_cell_volume 1161.353928
_symmetry_space_group_name_H-M "C M"
_symmetry_group_IT_number 8
_symmetry_cell_setting 'monoclinic'
loop_
_space_group_symop_operation_xyz
x,y,z
x,-y,z
1/2+x,1/2+y,z
1/2+x,1/2-y,z
loop_
_atom_site_type_symbol
_atom_site_label
_atom_site_fract_x
_atom_site_fract_y
_atom_site_fract_z
Si Si1 0.689790 0.134627 0.326590
Si Si2 0.877427 0.095982 0.457347
Si Si3 0.240947 0.160208 0.293846
Si Si4 0.116510 0.904941 0.943417
Si Si5 0.357002 0.665615 0.892453
Si Si6 0.187028 0.712105 0.858494
Si Si7 0.962654 0.363318 0.815089
O O1 0.673610 0.239525 0.353487
O O2 0.899376 0.102139 0.135774
O O3 0.503801 0.104934 0.635133
O O4 0.730981 0.116531 0.143512
O O5 0.059799 0.101701 0.146473
O O6 0.862338 0.163890 0.575767
O O7 0.674597 0.112367 0.623779
O O8 0.865415 0.000000 0.520266
O O9 0.062813 0.121786 0.590171
O O10 0.463501 0.175744 0.087735
O O11 0.287922 0.110342 0.117782
O O12 0.207624 0.000000 0.809064
O O13 0.219291 0.813478 0.791884
O O14 0.212111 0.691048 0.961045
O O15 0.439301 0.758392 0.842240
#
# Coordination Sequence:
#
# PCOD9131620 Si02
#       7
#     4   4   4   4   4   4   4
#     4   8  15  29  49  75 108 142 180 228 280 335
#     4   9  18  35  59  84 111 151 202 246 287 344
#     4   8  16  31  50  75 106 145 190 228 276 339
#     4   9  18  34  57  83 112 152 200 243 288 348
#     4  10  18  30  52  84 116 145 183 235 297 352
#     4  10  20  33  57  83 112 151 190 236 291 348
#     4   8  15  30  50  74 105 142 187 232 271 328
#
# _framework density 24.109791000000001
#
# number of rings (size 3 to 8) (size 9 to 14) (size 15 to 20)
#    0.000    3.143    0.000    1.714    0.000    3.429 
#    0.000    1.429    0.000   16.286    0.000    0.000 
#    0.000    0.000    0.000    0.000    0.000    0.000 
#
# Total GULP energy -78113.919055 kJ/mol
# GULP energy per Si atom -5579.565647 kJ/mol
# Density = 2.405492 g / cm^3
# Si number density = 24.109791 Si / 1000 Ang^3
#
#
#
# Elastic Constant Matrix: (Units=GPa)
#
#
# Indices 1 2 3 4 5 6 
#
# 1 86.8427 41.5999 64.2236 -0.0341 8.1000 0.0849
# 2 41.5999 113.8716 31.1426 0.0162 14.0254 -0.0365
# 3 64.2236 31.1426 161.3677 -0.0091 21.6254 0.0282
# 4 -0.0341 0.0162 -0.0091 62.6192 -0.0271 -130.5437
# 5 8.1000 14.0254 21.6254 -0.0271 48.5720 0.0728
# 6 0.0849 -0.0365 0.0282 -130.5437 0.0728 352.0862
#
#
#
# Elastic Compliance Matrix: (Units=1/GPa)
#
#
# Indices 1 2 3 4 5 6 
#
# 1 0.018815 -0.005216 -0.006660 0.000005 0.001334 -0.000003
# 2 -0.005216 0.010904 0.000295 -0.000003 -0.002410 0.000002
# 3 -0.006660 0.000295 0.009203 -0.000002 -0.003072 0.000001
# 4 0.000005 -0.000003 -0.000002 0.070337 0.000001 0.026079
# 5 0.001334 -0.002410 -0.003072 0.000001 0.022429 -0.000005
# 6 -0.000003 0.000002 0.000001 0.026079 -0.000005 0.012510
#
#
# Mechanical properties :
#
#
# Convention : Reuss Voigt Hill
#
# Bulk Modulus (GPa) = 63.46255 70.66824 67.06540
# Shear Modulus (GPa) = 28.96651 107.66321 68.31486
#
# Velocity S-wave (km/s) = 3.46994 6.68972 5.32883
# Velocity P-wave (km/s) = 6.51410 9.43634 8.10796
#
# Compressibility (1/GPa) = 0.01575732
#
# Stress axis : x y z
#
# Youngs Moduli (GPa) = 53.14903 91.71217 108.66521
#
# Poissons Ratio (x) = 0.47840 0.72375
# Poissons Ratio (y) = 0.27724 -0.03202
# Poissons Ratio (z) = 0.35399 -0.02703
#
# Static dielectric constant tensor:
#      x y z
#    x 1.972410 0.000130 -0.008890 
#    y 0.000130 0.378010 -0.000370 
#    z -0.008890 -0.000370 1.992260 
# 
# From -- ./inp_files/23373.got.cif
#   From: 2010.05.17/outbox.cif.g08.bks.cpg/sg8_12_cif.got.tgz:23373.got - 2010.06.03 19:46:02.
