data_PCOD9131927
_publ_section_title
;
Structure prediction by ZEFSAII (Michael W. Deem and Ramdas Pophale) SiO2 
 PCOD9131927
Probable space group: C M
;
_chemical_formula_sum "Si O2"
_cell_formula_units_Z 28
_cell_length_a 9.412667
_cell_length_b 15.771905
_cell_length_c 8.943525
_cell_angle_alpha 90.000000
_cell_angle_beta 63.032107
_cell_angle_gamma 90.000000
_cell_volume 1183.342254
_symmetry_space_group_name_H-M "C M"
_symmetry_group_IT_number 8
_symmetry_cell_setting 'monoclinic'
loop_
_space_group_symop_operation_xyz
x,y,z
x,-y,z
1/2+x,1/2+y,z
1/2+x,1/2-y,z
loop_
_atom_site_type_symbol
_atom_site_label
_atom_site_fract_x
_atom_site_fract_y
_atom_site_fract_z
Si Si1 0.796040 0.904092 0.000000
Si Si2 0.027781 0.764492 0.443801
Si Si3 0.459182 0.405035 0.241825
Si Si4 0.334057 0.856014 0.357587
Si Si5 0.817714 0.737859 0.829753
Si Si6 0.149490 0.090737 0.727431
Si Si7 0.342604 0.908328 0.027384
O O1 0.856296 0.888935 0.141745
O O2 0.722975 0.000000 0.028392
O O3 0.732398 0.816574 0.955313
O O4 0.960929 0.911590 0.828476
O O5 0.951266 0.838970 0.380031
O O6 0.982017 0.678837 0.379807
O O7 0.947903 0.764218 0.644210
O O8 0.214634 0.780984 0.364249
O O9 0.419663 0.500000 0.312588
O O10 0.648300 0.405310 0.110111
O O11 0.222679 0.905325 0.527220
O O12 0.380633 0.901622 0.184538
O O13 0.705482 0.674076 0.788877
O O14 0.897142 0.674620 0.912879
O O15 0.205438 0.000000 0.766502
O O16 0.401141 0.000000 0.945617
#
# Coordination Sequence:
#
# PCOD9131927 Si02
#       7
#     4   4   4   4   4   4   4
#     4  10  19  33  54  83 111 148 194 244 294 347
#     4  10  21  34  54  85 116 155 193 245 294 360
#     4   9  18  34  56  82 111 149 198 250 289 337
#     4  10  20  36  55  86 117 155 198 244 299 349
#     4  11  20  32  54  86 117 150 188 252 304 340
#     4  10  19  34  55  82 115 151 198 245 285 341
#     4  10  19  33  57  86 113 150 203 252 288 342
#
# _framework density 23.661794
#
# number of rings (size 3 to 8) (size 9 to 14) (size 15 to 20)
#    0.000    2.000    2.857    1.714    0.000    1.143 
#    0.000    0.000    0.000    6.857    0.000    6.000 
#    0.000    0.000    0.000    0.000    0.000    0.000 
#
# Total GULP energy -78164.374407 kJ/mol
# GULP energy per Si atom -5583.169601 kJ/mol
# Density = 2.360794 g / cm^3
# Si number density = 23.661794 Si / 1000 Ang^3
#
#
#
# Elastic Constant Matrix: (Units=GPa)
#
#
# Indices 1 2 3 4 5 6 
#
# 1 62.6247 28.8760 9.3471 0.0000 9.6265 0.0000
# 2 28.8760 149.2352 58.9469 0.0000 13.4692 0.0000
# 3 9.3471 58.9469 122.4805 0.0000 24.8683 0.0000
# 4 0.0000 0.0000 0.0000 31.0220 0.0000 4.1074
# 5 9.6265 13.4692 24.8683 0.0000 26.9932 0.0000
# 6 0.0000 0.0000 0.0000 4.1074 0.0000 24.1948
#
#
#
# Elastic Compliance Matrix: (Units=1/GPa)
#
#
# Indices 1 2 3 4 5 6 
#
# 1 0.018356 -0.003625 0.001606 0.000000 -0.006217 0.000000
# 2 -0.003625 0.008997 -0.004187 0.000000 0.000661 0.000000
# 3 0.001606 -0.004187 0.011993 0.000000 -0.009532 0.000000
# 4 0.000000 0.000000 0.000000 0.032976 0.000000 -0.005598
# 5 -0.006217 0.000661 -0.009532 0.000000 0.047715 0.000000
# 6 0.000000 0.000000 0.000000 -0.005598 0.000000 0.042281
#
#
# Mechanical properties :
#
#
# Convention : Reuss Voigt Hill
#
# Bulk Modulus (GPa) = 37.13044 58.74226 47.93635
# Shear Modulus (GPa) = 27.21713 32.25336 29.73524
#
# Velocity S-wave (km/s) = 3.39522 3.69602 3.54881
# Velocity P-wave (km/s) = 5.57640 6.56459 6.09057
#
# Compressibility (1/GPa) = 0.02693208
#
# Stress axis : x y z
#
# Youngs Moduli (GPa) = 54.47945 111.15352 83.38413
#
# Poissons Ratio (x) = 0.40293 -0.13392
# Poissons Ratio (y) = 0.19749 0.34917
# Poissons Ratio (z) = -0.08750 0.46545
#
# Static dielectric constant tensor:
#      x y z
#    x 1.933970 0.000000 0.023590 
#    y 0.000000 2.016030 0.000000 
#    z 0.023590 0.000000 1.879430 
# 
# From -- ./inp_files/10596.got.cif
#   From: 2010.05.17/outbox.cif.g08.bks.cpg/sg8_6_cif.got.tgz:10596.got - 2010.06.03 19:46:02.
