data_PCOD9131779
_publ_section_title
;
Structure prediction by ZEFSAII (Michael W. Deem and Ramdas Pophale) SiO2 
 PCOD9131779
Probable space group: C M
;
_chemical_formula_sum "Si O2"
_cell_formula_units_Z 24
_cell_length_a 4.977301
_cell_length_b 24.243182
_cell_length_c 9.119099
_cell_angle_alpha 90.000000
_cell_angle_beta 104.381960
_cell_angle_gamma 90.000000
_cell_volume 1065.877902
_symmetry_space_group_name_H-M "C M"
_symmetry_group_IT_number 8
_symmetry_cell_setting 'monoclinic'
loop_
_space_group_symop_operation_xyz
x,y,z
x,-y,z
1/2+x,1/2+y,z
1/2+x,1/2-y,z
loop_
_atom_site_type_symbol
_atom_site_label
_atom_site_fract_x
_atom_site_fract_y
_atom_site_fract_z
Si Si1 0.811770 0.123697 0.004130
Si Si2 0.165150 0.288433 0.228846
Si Si3 0.252754 0.000000 0.752418
Si Si4 0.479789 0.891131 0.659520
Si Si5 0.433517 0.333827 0.557121
Si Si6 0.839410 0.000000 0.962337
Si Si7 0.614786 0.714561 0.881954
O O1 0.711578 0.157763 0.131936
O O2 0.903570 0.059948 0.040623
O O3 0.586999 0.122514 0.839532
O O4 0.059036 0.159448 0.965863
O O5 0.361072 0.237589 0.204818
O O6 0.278703 0.305815 0.403340
O O7 0.316250 0.052306 0.660108
O O8 0.506824 0.000000 0.902822
O O9 0.978698 0.000000 0.817065
O O10 0.747092 0.884784 0.592960
O O11 0.247636 0.850670 0.564165
O O12 0.478524 0.295876 0.704995
O O13 0.925177 0.735869 0.915507
#
# Coordination Sequence:
#
# PCOD9131779 Si02
#       7
#     4   4   2   4   4   2   4
#     4  10  23  41  63  92 122 161 212 254 305 362
#     4  12  26  43  63  90 129 169 205 255 312 370
#     4  10  18  36  62  94 120 156 207 254 311 354
#     4  10  21  38  64  90 121 160 205 257 299 369
#     4  11  22  39  59  88 126 161 199 249 317 369
#     4  10  22  38  62  90 126 162 199 260 313 360
#     4  11  20  33  57  86 115 148 193 246 294 357
#
# _framework density 22.516648
#
# number of rings (size 3 to 8) (size 9 to 14) (size 15 to 20)
#    0.000    1.333    0.000    8.000    0.000    6.667 
#    0.000    1.667    0.000    0.000    0.000    0.000 
#    0.000    0.000    0.000    0.000    0.000    0.000 
#
# Total GULP energy -67057.235173 kJ/mol
# GULP energy per Si atom -5588.102931 kJ/mol
# Density = 2.246540 g / cm^3
# Si number density = 22.516648 Si / 1000 Ang^3
#
#
#
# Elastic Constant Matrix: (Units=GPa)
#
#
# Indices 1 2 3 4 5 6 
#
# 1 106.3134 27.7308 3.0385 0.0000 6.6983 0.0000
# 2 27.7308 153.1584 26.4338 0.0000 -3.0160 0.0000
# 3 3.0385 26.4338 77.3107 0.0000 -4.3930 0.0000
# 4 0.0000 0.0000 0.0000 24.1797 0.0000 0.1892
# 5 6.6983 -3.0160 -4.3930 0.0000 26.7877 0.0000
# 6 0.0000 0.0000 0.0000 0.1892 0.0000 25.8641
#
#
#
# Elastic Compliance Matrix: (Units=1/GPa)
#
#
# Indices 1 2 3 4 5 6 
#
# 1 0.010068 -0.001893 0.000097 0.000000 -0.002715 0.000000
# 2 -0.001893 0.007299 -0.002370 0.000000 0.000907 0.000000
# 3 0.000097 -0.002370 0.013854 0.000000 0.001981 0.000000
# 4 0.000000 0.000000 0.000000 0.041359 0.000000 -0.000303
# 5 -0.002715 0.000907 0.001981 0.000000 0.038436 0.000000
# 6 0.000000 0.000000 0.000000 -0.000303 0.000000 0.038666
#
#
# Mechanical properties :
#
#
# Convention : Reuss Voigt Hill
#
# Bulk Modulus (GPa) = 43.68763 50.13208 46.90986
# Shear Modulus (GPa) = 30.18534 34.00492 32.09513
#
# Velocity S-wave (km/s) = 3.66536 3.89036 3.77954
# Velocity P-wave (km/s) = 6.11209 6.51864 6.31864
#
# Compressibility (1/GPa) = 0.02288977
#
# Stress axis : x y z
#
# Youngs Moduli (GPa) = 99.32227 137.00868 72.18248
#
# Poissons Ratio (x) = 0.25939 -0.00703
# Poissons Ratio (y) = 0.18804 0.17105
# Poissons Ratio (z) = -0.00967 0.32466
#
# Static dielectric constant tensor:
#      x y z
#    x 1.833390 0.000000 -0.022800 
#    y 0.000000 1.895820 0.000000 
#    z -0.022800 0.000000 1.850010 
# 
# From -- ./inp_files/6934.got.cif
#   From: 2010.05.17/outbox.cif.g08.bks.cpg/sg8_4_cif.got.tgz:6934.got - 2010.06.03 19:46:02.
