data_PCOD9131225
_publ_section_title
;
Structure prediction by ZEFSAII (Michael W. Deem and Ramdas Pophale) SiO2 
 PCOD9131225
Probable space group: P C
;
_chemical_formula_sum "Si O2"
_cell_formula_units_Z 14
_cell_length_a 11.372345
_cell_length_b 11.235422
_cell_length_c 5.424063
_cell_angle_alpha 90.000000
_cell_angle_beta 89.935964
_cell_angle_gamma 90.000000
_cell_volume 693.048885
_symmetry_space_group_name_H-M "P C"
_symmetry_group_IT_number 7
_symmetry_cell_setting 'monoclinic'
loop_
_space_group_symop_operation_xyz
x,y,z
x,-y,1/2+z
loop_
_atom_site_type_symbol
_atom_site_label
_atom_site_fract_x
_atom_site_fract_y
_atom_site_fract_z
Si Si1 0.659000 0.036848 0.034540
Si Si2 0.468046 0.575204 0.543925
Si Si3 0.872260 0.664216 0.034277
Si Si4 0.124618 0.380659 0.541285
Si Si5 0.921369 0.061943 0.534213
Si Si6 0.220233 0.352044 0.041061
Si Si7 0.726127 0.314254 0.034501
O O1 0.701411 0.172692 0.034401
O O2 0.594760 0.000043 0.284717
O O3 0.779610 0.959990 0.034321
O O4 0.454953 0.495204 0.300060
O O5 0.359603 0.667289 0.536257
O O6 0.598496 0.627049 0.537234
O O7 0.929641 0.796555 0.034920
O O8 0.795647 0.652838 0.283370
O O9 0.987959 0.583438 0.036133
O O10 0.796932 0.653046 0.783892
O O11 0.160763 0.311756 0.294139
O O12 0.198137 0.503998 0.543691
O O13 0.157439 0.312548 0.791240
O O14 0.965922 0.000247 0.283845
#
# Coordination Sequence:
#
# PCOD9131225 Si02
#       7
#     2   2   2   2   2   2   2
#     4  10  16  32  54  74 117 151 179 216 258 350
#     4  12  23  43  61  77 112 154 193 246 271 329
#     4  12  21  35  52  90 122 138 184 221 292 353
#     4  10  20  35  61  77 102 146 186 236 263 325
#     4  10  16  30  53  71 116 153 170 213 260 346
#     4  10  19  42  60  72  99 144 208 227 269 308
#     4  12  23  35  55  91 120 148 182 223 299 347
#
# _framework density 20.200596000000001
#
# number of rings (size 3 to 8) (size 9 to 14) (size 15 to 20)
#    0.000    1.143    8.571    1.714    0.000    0.000 
#   15.429    0.000    0.000    0.000    0.000    6.000 
#    0.000    0.000    0.000    0.000    0.000    0.000 
#
# Total GULP energy -78128.195531 kJ/mol
# GULP energy per Si atom -5580.585395 kJ/mol
# Density = 2.015462 g / cm^3
# Si number density = 20.200596 Si / 1000 Ang^3
#
#
#
# Elastic Constant Matrix: (Units=GPa)
#
#
# Indices 1 2 3 4 5 6 
#
# 1 118.6714 3.9420 54.6899 0.0000 8.1945 0.0000
# 2 3.9420 28.7653 3.6208 0.0000 1.5112 0.0000
# 3 54.6899 3.6208 213.5745 0.0000 1.6497 0.0000
# 4 0.0000 0.0000 0.0000 9.7209 0.0000 -1.9029
# 5 8.1945 1.5112 1.6497 0.0000 22.1627 0.0000
# 6 0.0000 0.0000 0.0000 -1.9029 0.0000 -8.7767
#
#
#
# Elastic Compliance Matrix: (Units=1/GPa)
#
#
# Indices 1 2 3 4 5 6 
#
# 1 0.009831 -0.000857 -0.002477 0.000000 -0.003392 0.000000
# 2 -0.000857 0.035034 -0.000359 0.000000 -0.002045 0.000000
# 3 -0.002477 -0.000359 0.005318 0.000000 0.000544 0.000000
# 4 0.000000 0.000000 0.000000 0.098682 0.000000 -0.021396
# 5 -0.003392 -0.002045 0.000544 0.000000 0.046474 0.000000
# 6 0.000000 0.000000 0.000000 -0.021396 0.000000 -0.109299
#
#
# Mechanical properties :
#
#
# Convention : Reuss Voigt Hill
#
# Bulk Modulus (GPa) = 23.36550 53.94630 38.65590
# Shear Modulus (GPa) = 46.42903 24.53862 35.48382
#
# Velocity S-wave (km/s) = 4.79936 3.48910 4.19570
# Velocity P-wave (km/s) = 6.50413 6.55706 6.53065
#
# Compressibility (1/GPa) = 0.04279814
#
# Stress axis : x y z
#
# Youngs Moduli (GPa) = 101.72237 28.54353 188.03121
#
# Poissons Ratio (x) = 0.02447 0.46568
# Poissons Ratio (y) = 0.08720 0.06743
# Poissons Ratio (z) = 0.25193 0.01024
#
# Static dielectric constant tensor:
#      x y z
#    x 1.680880 0.000000 -0.012280 
#    y 0.000000 1.794410 0.000000 
#    z -0.012280 0.000000 1.850970 
# 
# From -- ./inp_files/546.got.cif
#   From: 2010.05.17/outbox.cif.g08.bks.cpg/sg7_cif.got.tgz:546.got - 2010.06.03 19:44:50.
