data_PCOD9131092
_publ_section_title
;
Structure prediction by ZEFSAII (Michael W. Deem and Ramdas Pophale) SiO2 
 PCOD9131092
Probable space group: P M
;
_chemical_formula_sum "Si O2"
_cell_formula_units_Z 16
_cell_length_a 9.903232
_cell_length_b 8.818488
_cell_length_c 12.201939
_cell_angle_alpha 90.000000
_cell_angle_beta 127.898234
_cell_angle_gamma 90.000000
_cell_volume 840.879250
_symmetry_space_group_name_H-M "P M"
_symmetry_group_IT_number 6
_symmetry_cell_setting 'monoclinic'
loop_
_space_group_symop_operation_xyz
x,y,z
x,-y,z
loop_
_atom_site_type_symbol
_atom_site_label
_atom_site_fract_x
_atom_site_fract_y
_atom_site_fract_z
Si Si1 0.184880 0.182733 0.076190
Si Si2 0.622986 0.677035 0.535055
Si Si3 0.778719 0.681634 0.376084
Si Si4 0.492906 0.182223 0.820050
Si Si5 0.269580 0.177991 0.368051
Si Si6 0.814786 0.322305 0.851846
Si Si7 0.499759 0.817028 0.079388
Si Si8 0.163929 0.680563 0.533223
O O1 0.234032 0.223309 0.225281
O O2 0.332527 0.234157 0.065249
O O3 0.178010 0.000000 0.066534
O O4 0.998710 0.248610 0.960774
O O5 0.564545 0.500000 0.507032
O O6 0.690977 0.714109 0.448758
O O7 0.467970 0.786324 0.487318
O O8 0.764578 0.691166 0.699129
O O9 0.776925 0.500000 0.359096
O O10 0.667740 0.756201 0.224765
O O11 0.976629 0.729409 0.480557
O O12 0.662601 0.246408 0.845973
O O13 0.322611 0.242597 0.674745
O O14 0.495049 0.000000 0.814780
O O15 0.491066 0.227588 0.947573
O O16 0.170351 0.273432 0.408982
O O17 0.232663 0.000000 0.362846
O O18 0.820616 0.500000 0.882822
O O19 0.503580 0.000000 0.085370
O O20 0.181729 0.500000 0.554149
#
# Coordination Sequence:
#
# PCOD9131092 Si02
#       8
#     2   2   2   2   2   2   2   2
#     4  10  23  42  62  90 124 159 202 251 302 359
#     4  10  21  40  63  89 121 155 200 255 303 356
#     4  10  23  41  63  91 122 159 202 250 305 360
#     4  11  24  42  63  89 123 162 203 249 302 361
#     4  11  22  39  65  90 118 159 204 251 304 358
#     4  11  24  40  63  92 122 161 203 249 304 360
#     4  10  23  43  63  88 123 160 203 252 300 358
#     4  11  24  41  62  91 125 159 201 251 302 362
#
# _framework density 19.027704
#
# number of rings (size 3 to 8) (size 9 to 14) (size 15 to 20)
#    0.000    1.500    2.500    1.500    3.500    4.000 
#    0.000    0.000    0.000    0.000    0.000    0.000 
#    0.000    0.000    0.000    0.000    0.000    0.000 
#
# Total GULP energy -89385.046548 kJ/mol
# GULP energy per Si atom -5586.565409 kJ/mol
# Density = 1.898440 g / cm^3
# Si number density = 19.027704 Si / 1000 Ang^3
#
#
#
# Elastic Constant Matrix: (Units=GPa)
#
#
# Indices 1 2 3 4 5 6 
#
# 1 68.2067 11.1771 29.7567 0.0000 0.3608 0.0000
# 2 11.1771 16.6818 22.1606 0.0000 -4.6334 0.0000
# 3 29.7567 22.1606 93.2948 0.0000 -2.5700 0.0000
# 4 0.0000 0.0000 0.0000 33.5666 0.0000 6.0053
# 5 0.3608 -4.6334 -2.5700 0.0000 37.7342 0.0000
# 6 0.0000 0.0000 0.0000 6.0053 0.0000 25.9424
#
#
#
# Elastic Compliance Matrix: (Units=1/GPa)
#
#
# Indices 1 2 3 4 5 6 
#
# 1 0.017530 -0.006756 -0.004021 0.000000 -0.001271 0.000000
# 2 -0.006756 0.093610 -0.019799 0.000000 0.010210 0.000000
# 3 -0.004021 -0.019799 0.016670 0.000000 -0.001257 0.000000
# 4 0.000000 0.000000 0.000000 0.031079 0.000000 -0.007194
# 5 -0.001271 0.010210 -0.001257 0.000000 0.027681 0.000000
# 6 0.000000 0.000000 0.000000 -0.007194 0.000000 0.040212
#
#
# Mechanical properties :
#
#
# Convention : Reuss Voigt Hill
#
# Bulk Modulus (GPa) = 15.00242 33.81911 24.41077
# Shear Modulus (GPa) = 16.12103 27.12122 21.62112
#
# Velocity S-wave (km/s) = 2.91390 3.77948 3.37456
# Velocity P-wave (km/s) = 4.38437 6.07109 5.29532
#
# Compressibility (1/GPa) = 0.06665589
#
# Stress axis : x y z
#
# Youngs Moduli (GPa) = 57.04644 10.68261 59.98911
#
# Poissons Ratio (x) = 0.07217 0.24124
# Poissons Ratio (y) = 0.38541 1.18774
# Poissons Ratio (z) = 0.22940 0.21151
#
# Static dielectric constant tensor:
#      x y z
#    x 1.659200 0.000000 -0.011800 
#    y 0.000000 1.642950 0.000000 
#    z -0.011800 0.000000 1.635980 
# 
# From -- ./inp_files/3716.got.cif
#   From: 2010.05.17/outbox.cif.g08.bks.cpg/sg6_2_cif.got.tgz:3716.got - 2010.06.03 19:42:10.
