data_PCOD9131050
_publ_section_title
;
Structure prediction by ZEFSAII (Michael W. Deem and Ramdas Pophale) SiO2 
 PCOD9131050
Probable space group: P M
;
_chemical_formula_sum "Si O2"
_cell_formula_units_Z 16
_cell_length_a 6.674995
_cell_length_b 24.517797
_cell_length_c 4.914955
_cell_angle_alpha 90.000000
_cell_angle_beta 126.204394
_cell_angle_gamma 90.000000
_cell_volume 649.052360
_symmetry_space_group_name_H-M "P M"
_symmetry_group_IT_number 6
_symmetry_cell_setting 'monoclinic'
loop_
_space_group_symop_operation_xyz
x,y,z
x,-y,z
loop_
_atom_site_type_symbol
_atom_site_label
_atom_site_fract_x
_atom_site_fract_y
_atom_site_fract_z
Si Si1 0.579560 0.307505 0.926110
Si Si2 0.045672 0.333978 0.559205
Si Si3 0.197661 0.440482 0.327111
Si Si4 0.880679 0.120414 0.846311
Si Si5 0.706274 0.936108 0.184218
Si Si6 0.322972 0.156325 0.818985
Si Si7 0.491227 0.787982 0.474364
Si Si8 0.723310 0.596299 0.701474
O O1 0.527358 0.272644 0.611861
O O2 0.635524 0.370639 0.897647
O O3 0.310158 0.308408 0.859610
O O4 0.852063 0.292026 0.261554
O O5 0.865333 0.358265 0.641477
O O6 0.131257 0.386685 0.450297
O O7 0.224801 0.500000 0.487895
O O8 0.462712 0.428850 0.392038
O O9 0.950654 0.443478 0.944991
O O10 0.921566 0.088038 0.159259
O O11 0.102663 0.139242 0.835971
O O12 0.739379 0.078979 0.526629
O O13 0.719722 0.174776 0.758258
O O14 0.477395 0.899096 0.902301
O O15 0.677643 0.000000 0.125105
O O16 0.468036 0.198784 0.137474
O O17 0.276274 0.186214 0.496318
#
# Coordination Sequence:
#
# PCOD9131050 Si02
#       8
#     2   2   2   2   2   2   2   2
#     4  10  23  38  60  90 119 162 206 259 311 379
#     4  10  22  40  59  87 123 155 208 254 314 372
#     4  10  21  37  58  87 118 155 202 252 309 377
#     4  10  21  39  59  84 123 156 202 259 306 378
#     4  10  21  37  58  87 118 155 202 252 309 377
#     4  10  22  40  59  87 123 155 208 254 314 372
#     4  10  23  38  60  90 119 162 206 259 311 379
#     4  10  21  39  59  84 123 156 202 259 306 378
#
# _framework density 24.651322
#
# number of rings (size 3 to 8) (size 9 to 14) (size 15 to 20)
#    0.000    2.000    0.000    2.250    3.500    3.000 
#    0.000    0.000    0.000    0.000    0.000    0.000 
#    0.000    0.000    0.000    0.000    0.000    0.000 
#
# Total GULP energy -89156.710834 kJ/mol
# GULP energy per Si atom -5572.294427 kJ/mol
# Density = 2.459521 g / cm^3
# Si number density = 24.651322 Si / 1000 Ang^3
#
#
#
# Elastic Constant Matrix: (Units=GPa)
#
#
# Indices 1 2 3 4 5 6 
#
# 1 131.3234 27.4957 47.1588 0.0000 28.3039 0.0000
# 2 27.4957 112.1973 24.1248 0.0000 16.1657 0.0000
# 3 47.1588 24.1248 82.8804 0.0000 17.6391 0.0000
# 4 0.0000 0.0000 0.0000 16.2039 0.0000 -20.8983
# 5 28.3039 16.1657 17.6391 0.0000 57.7899 0.0000
# 6 0.0000 0.0000 0.0000 -20.8983 0.0000 -74.6403
#
#
#
# Elastic Compliance Matrix: (Units=1/GPa)
#
#
# Indices 1 2 3 4 5 6 
#
# 1 0.010274 -0.001002 -0.004858 0.000000 -0.003269 0.000000
# 2 -0.001002 0.009814 -0.001932 0.000000 -0.001665 0.000000
# 3 -0.004858 -0.001932 0.015797 0.000000 -0.001902 0.000000
# 4 0.000000 0.000000 0.000000 0.045341 0.000000 -0.012695
# 5 -0.003269 -0.001665 -0.001902 0.000000 0.019951 0.000000
# 6 0.000000 0.000000 0.000000 -0.012695 0.000000 -0.009843
#
#
# Mechanical properties :
#
#
# Convention : Reuss Voigt Hill
#
# Bulk Modulus (GPa) = 49.26258 58.21774 53.74016
# Shear Modulus (GPa) = 43.98111 15.04547 29.51329
#
# Velocity S-wave (km/s) = 4.22848 2.47317 3.46385
# Velocity P-wave (km/s) = 6.62323 5.64120 6.15184
#
# Compressibility (1/GPa) = 0.02029938
#
# Stress axis : x y z
#
# Youngs Moduli (GPa) = 97.33535 101.89786 63.30256
#
# Poissons Ratio (x) = 0.10212 0.30755
# Poissons Ratio (y) = 0.09754 0.12231
# Poissons Ratio (z) = 0.47290 0.19687
#
# Static dielectric constant tensor:
#      x y z
#    x 2.110710 0.000000 0.004770 
#    y 0.000000 1.991790 0.000000 
#    z 0.004770 0.000000 2.130080 
# 
# From -- ./inp_files/668.got.cif
#   From: 2010.05.17/outbox.cif.g08.bks.cpg/sg6_1_cif.got.tgz:668.got - 2010.06.03 19:42:10.
