data_PCOD9131518
_publ_section_title
;
Structure prediction by ZEFSAII (Michael W. Deem and Ramdas Pophale) SiO2 
 PCOD9131518
Probable space group: C M
;
_chemical_formula_sum "Si O2"
_cell_formula_units_Z 32
_cell_length_a 23.110081
_cell_length_b 9.328841
_cell_length_c 11.297785
_cell_angle_alpha 90.000000
_cell_angle_beta 36.771941
_cell_angle_gamma 90.000000
_cell_volume 1458.082008
_symmetry_space_group_name_H-M "C M"
_symmetry_group_IT_number 8
_symmetry_cell_setting 'monoclinic'
loop_
_space_group_symop_operation_xyz
x,y,z
x,-y,z
1/2+x,1/2+y,z
1/2+x,1/2-y,z
loop_
_atom_site_type_symbol
_atom_site_label
_atom_site_fract_x
_atom_site_fract_y
_atom_site_fract_z
Si Si1 0.069110 0.326690 0.648830
Si Si2 0.978926 0.159411 0.321350
Si Si3 0.374426 0.328762 0.049308
Si Si4 0.296585 0.163638 0.964344
Si Si5 0.927070 0.335641 0.189464
Si Si6 0.156246 0.662279 0.739441
Si Si7 0.009005 0.658764 0.502238
Si Si8 0.700717 0.660016 0.884543
O O1 0.046360 0.500000 0.700851
O O2 0.152325 0.295143 0.607786
O O3 0.980160 0.224434 0.830392
O O4 0.083805 0.306545 0.484898
O O5 0.923154 0.263751 0.324182
O O6 0.995253 0.227679 0.422402
O O7 0.936754 0.000000 0.396927
O O8 0.086264 0.147651 0.091349
O O9 0.366548 0.500000 0.065802
O O10 0.301973 0.258590 0.072823
O O11 0.371545 0.258778 0.183730
O O12 0.406602 0.151526 0.737632
O O13 0.240553 0.225253 0.941888
O O14 0.261598 0.000000 0.045373
O O15 0.894464 0.500000 0.242427
O O16 0.041474 0.336892 0.964059
O O17 0.191170 0.500000 0.690790
O O18 0.211321 0.756627 0.745074
O O19 0.030522 0.500000 0.417689
O O20 0.743718 0.500000 0.805710
#
# Coordination Sequence:
#
# PCOD9131518 Si02
#       8
#     4   4   4   4   4   4   4   4
#     4   8  15  28  44  63  89 122 156 186 221 271
#     4  10  19  30  46  71  98 119 148 192 235 270
#     4  10  17  25  42  69  94 114 146 194 238 266
#     4   9  18  33  49  65  90 125 161 188 219 273
#     4   9  16  28  45  64  89 122 155 184 222 273
#     4   8  14  25  43  66  89 113 147 190 228 264
#     4   9  17  30  48  67  89 121 158 190 224 273
#     4   9  18  31  47  67  92 122 153 188 227 268
#
# _framework density 21.946639999999999
#
# number of rings (size 3 to 8) (size 9 to 14) (size 15 to 20)
#    0.000    3.000    0.000    3.375    0.000    6.000 
#    0.000    0.000    0.000    1.500    0.000    8.750 
#    0.000    0.000    0.000    0.000    0.000    0.000 
#
# Total GULP energy -89235.869010 kJ/mol
# GULP energy per Si atom -5577.241813 kJ/mol
# Density = 2.189669 g / cm^3
# Si number density = 21.946640 Si / 1000 Ang^3
#
#
#
# Elastic Constant Matrix: (Units=GPa)
#
#
# Indices 1 2 3 4 5 6 
#
# 1 178.2726 91.7981 28.4935 0.0000 52.4752 0.0000
# 2 91.7981 135.7492 23.9060 0.0000 38.5708 0.0000
# 3 28.4935 23.9060 37.5623 0.0000 0.9293 0.0000
# 4 0.0000 0.0000 0.0000 8.6187 0.0000 11.9304
# 5 52.4752 38.5708 0.9293 0.0000 45.4128 0.0000
# 6 0.0000 0.0000 0.0000 11.9304 0.0000 31.1839
#
#
#
# Elastic Compliance Matrix: (Units=1/GPa)
#
#
# Indices 1 2 3 4 5 6 
#
# 1 0.011463 -0.003919 -0.005959 0.000000 -0.009795 0.000000
# 2 -0.003919 0.012607 -0.004900 0.000000 -0.006078 0.000000
# 3 -0.005959 -0.004900 0.034005 0.000000 0.010352 0.000000
# 4 0.000000 0.000000 0.000000 0.246654 0.000000 -0.094366
# 5 -0.009795 -0.006078 0.010352 0.000000 0.038289 0.000000
# 6 0.000000 0.000000 0.000000 -0.094366 0.000000 0.068171
#
#
# Mechanical properties :
#
#
# Convention : Reuss Voigt Hill
#
# Bulk Modulus (GPa) = 35.06464 71.10879 53.08672
# Shear Modulus (GPa) = 11.10490 30.86884 20.98687
#
# Velocity S-wave (km/s) = 2.25187 3.75446 3.09571
# Velocity P-wave (km/s) = 4.77212 7.16001 6.08436
#
# Compressibility (1/GPa) = 0.02851876
#
# Stress axis : x y z
#
# Youngs Moduli (GPa) = 87.23559 79.32176 29.40731
#
# Poissons Ratio (x) = 0.31089 0.17524
# Poissons Ratio (y) = 0.34190 0.14410
# Poissons Ratio (z) = 0.51983 0.38868
#
# Static dielectric constant tensor:
#      x y z
#    x 1.841800 0.000000 -0.027150 
#    y 0.000000 1.776440 0.000000 
#    z -0.027150 0.000000 1.875020 
# 
# From -- ./inp_files/23719.got.cif
#   From: 2010.05.17/outbox.cif.g08.bks.cpg/sg8_12_cif.got.tgz:23719.got - 2010.06.03 19:46:02.
