data_PCOD9131406
_publ_section_title
;
Structure prediction by ZEFSAII (Michael W. Deem and Ramdas Pophale) SiO2 
 PCOD9131406
Probable space group: P C
;
_chemical_formula_sum "Si O2"
_cell_formula_units_Z 16
_cell_length_a 7.452436
_cell_length_b 18.678042
_cell_length_c 5.026688
_cell_angle_alpha 90.000000
_cell_angle_beta 111.379307
_cell_angle_gamma 90.000000
_cell_volume 651.551406
_symmetry_space_group_name_H-M "P C"
_symmetry_group_IT_number 7
_symmetry_cell_setting 'monoclinic'
loop_
_space_group_symop_operation_xyz
x,y,z
x,-y,1/2+z
loop_
_atom_site_type_symbol
_atom_site_label
_atom_site_fract_x
_atom_site_fract_y
_atom_site_fract_z
Si Si1 0.770630 0.951816 0.088190
Si Si2 0.567576 0.300742 0.380567
Si Si3 0.042233 0.541861 0.052538
Si Si4 0.202259 0.752763 0.901521
Si Si5 0.008892 0.694400 0.279610
Si Si6 0.445144 0.848007 0.698499
Si Si7 0.576928 0.456224 0.264043
Si Si8 0.210340 0.050020 0.729729
O O1 0.988899 0.925631 0.152667
O O2 0.749371 0.980942 0.374993
O O3 0.610169 0.894321 0.927687
O O4 0.403690 0.290183 0.514496
O O5 0.538435 0.229536 0.188692
O O6 0.524587 0.373843 0.205197
O O7 0.779148 0.304669 0.619030
O O8 0.101564 0.520913 0.787887
O O9 0.085708 0.618364 0.207982
O O10 0.809518 0.542435 0.902329
O O11 0.100558 0.752342 0.128198
O O12 0.268560 0.827174 0.801885
O O13 0.069732 0.712264 0.611818
O O14 0.359928 0.890293 0.404289
O O15 0.512039 0.490917 0.501673
O O16 0.237196 0.014937 0.457079
#
# Coordination Sequence:
#
# PCOD9131406 Si02
#       8
#     2   2   2   2   2   2   2   2
#     4  10  22  42  67  98 129 170 218 258 320 390
#     4   9  24  44  65 100 128 179 223 277 331 398
#     4   9  17  32  60  87 113 162 216 264 331 393
#     4  10  26  40  64  96 130 169 219 268 323 401
#     4  11  22  45  62  89 136 168 213 282 330 388
#     4  10  23  43  66  98 134 172 218 272 321 387
#     4   9  18  36  61  87 123 168 216 273 333 387
#     4  10  22  42  67  97 133 170 213 264 319 384
#
# _framework density 24.556774999999998
#
# number of rings (size 3 to 8) (size 9 to 14) (size 15 to 20)
#    0.750    1.500    0.000    1.500    1.750    7.000 
#    4.500    3.750    0.000    0.000    0.000    0.000 
#    0.000    0.000    0.000    0.000    0.000    0.000 
#
# Total GULP energy -89543.612317 kJ/mol
# GULP energy per Si atom -5596.475770 kJ/mol
# Density = 2.450088 g / cm^3
# Si number density = 24.556775 Si / 1000 Ang^3
#
#
#
# Elastic Constant Matrix: (Units=GPa)
#
#
# Indices 1 2 3 4 5 6 
#
# 1 95.7332 24.8996 36.1702 0.0000 10.6834 0.0000
# 2 24.8996 129.2542 32.2635 0.0000 18.5839 0.0000
# 3 36.1702 32.2635 91.6212 0.0000 7.5878 0.0000
# 4 0.0000 0.0000 0.0000 2.3348 0.0000 -5.6635
# 5 10.6834 18.5839 7.5878 0.0000 61.9680 0.0000
# 6 0.0000 0.0000 0.0000 -5.6635 0.0000 19.7233
#
#
#
# Elastic Compliance Matrix: (Units=1/GPa)
#
#
# Indices 1 2 3 4 5 6 
#
# 1 0.012566 -0.001123 -0.004459 0.000000 -0.001284 0.000000
# 2 -0.001123 0.008890 -0.002508 0.000000 -0.002165 0.000000
# 3 -0.004459 -0.002508 0.013570 0.000000 -0.000141 0.000000
# 4 0.000000 0.000000 0.000000 1.411342 0.000000 0.405265
# 5 -0.001284 -0.002165 -0.000141 0.000000 0.017025 0.000000
# 6 0.000000 0.000000 0.000000 0.405265 0.000000 0.167073
#
#
# Mechanical properties :
#
#
# Convention : Reuss Voigt Hill
#
# Bulk Modulus (GPa) = 53.06223 55.91946 54.49085
# Shear Modulus (GPa) = 3.02494 31.69023 17.35759
#
# Velocity S-wave (km/s) = 1.11107 3.59623 2.66152
# Velocity P-wave (km/s) = 4.82710 6.32968 5.62875
#
# Compressibility (1/GPa) = 0.01884580
#
# Stress axis : x y z
#
# Youngs Moduli (GPa) = 79.58145 112.48069 73.69419
#
# Poissons Ratio (x) = 0.12633 0.32860
# Poissons Ratio (y) = 0.08938 0.18482
# Poissons Ratio (z) = 0.35485 0.28209
#
# Static dielectric constant tensor:
#      x y z
#    x 1.933320 0.000000 0.007450 
#    y 0.000000 1.974130 0.000000 
#    z 0.007450 0.000000 1.884970 
# 
# From -- ./inp_files/931.got.cif
#   From: 2010.05.17/outbox.cif.g08.bks.cpg/sg7_cif.got.tgz:931.got - 2010.06.03 19:44:50.
