data_PCOD9131066
_publ_section_title
;
Structure prediction by ZEFSAII (Michael W. Deem and Ramdas Pophale) SiO2 
 PCOD9131066
Probable space group: P M
;
_chemical_formula_sum "Si O2"
_cell_formula_units_Z 16
_cell_length_a 9.392113
_cell_length_b 19.785909
_cell_length_c 8.014563
_cell_angle_alpha 90.000000
_cell_angle_beta 148.252031
_cell_angle_gamma 90.000000
_cell_volume 783.676133
_symmetry_space_group_name_H-M "P M"
_symmetry_group_IT_number 6
_symmetry_cell_setting 'monoclinic'
loop_
_space_group_symop_operation_xyz
x,y,z
x,-y,z
loop_
_atom_site_type_symbol
_atom_site_label
_atom_site_fract_x
_atom_site_fract_y
_atom_site_fract_z
Si Si1 0.490200 0.076496 0.183430
Si Si2 0.488212 0.574616 0.409451
Si Si3 0.045628 0.281592 0.657042
Si Si4 0.989616 0.574058 0.674696
Si Si5 0.992405 0.923267 0.918114
Si Si6 0.542383 0.205542 0.024798
Si Si7 0.287965 0.282992 0.273574
Si Si8 0.791619 0.206412 0.907593
O O1 0.789043 0.079311 0.558405
O O2 0.457957 0.132992 0.012371
O O3 0.436163 0.000000 0.070261
O O4 0.287193 0.089456 0.135173
O O5 0.468722 0.500000 0.470591
O O6 0.392359 0.640800 0.411903
O O7 0.786480 0.583189 0.629633
O O8 0.289177 0.572891 0.050807
O O9 0.967577 0.359252 0.542680
O O10 0.778424 0.236814 0.375407
O O11 0.281043 0.253166 0.774768
O O12 0.167769 0.279290 0.966088
O O13 0.930898 0.500000 0.542388
O O14 0.901786 0.865397 0.953518
O O15 0.980776 0.000000 0.974633
O O16 0.668436 0.201266 0.968093
O O17 0.547628 0.234921 0.551081
O O18 0.044007 0.257620 0.145836
#
# Coordination Sequence:
#
# PCOD9131066 Si02
#       8
#     2   2   2   2   2   2   2   2
#     4  10  21  38  60  83 108 142 185 229 273 327
#     4   9  17  30  52  83 110 135 180 238 281 315
#     4  11  21  37  60  83 110 148 191 231 274 328
#     4   9  17  30  52  83 110 135 180 238 281 315
#     4  10  21  38  60  83 108 142 185 229 273 327
#     4  12  24  37  56  84 118 149 182 228 278 330
#     4  11  21  37  60  83 110 148 191 231 274 328
#     4  12  24  37  56  84 118 149 182 228 278 330
#
# _framework density 20.416595999999998
#
# number of rings (size 3 to 8) (size 9 to 14) (size 15 to 20)
#    0.000    1.500    0.000    8.250    0.000    0.500 
#    0.000    0.000    0.000   12.000    0.000    0.000 
#    0.000    0.000    0.000    0.000    0.000    0.000 
#
# Total GULP energy -89386.537332 kJ/mol
# GULP energy per Si atom -5586.658583 kJ/mol
# Density = 2.037013 g / cm^3
# Si number density = 20.416596 Si / 1000 Ang^3
#
#
#
# Elastic Constant Matrix: (Units=GPa)
#
#
# Indices 1 2 3 4 5 6 
#
# 1 70.3862 69.4755 -4.9670 0.0000 8.4947 0.0000
# 2 69.4755 199.4975 17.2679 0.0000 12.9129 0.0000
# 3 -4.9670 17.2679 58.4503 0.0000 11.6912 0.0000
# 4 0.0000 0.0000 0.0000 21.9610 0.0000 19.9871
# 5 8.4947 12.9129 11.6912 0.0000 24.4116 0.0000
# 6 0.0000 0.0000 0.0000 19.9871 0.0000 8.0581
#
#
#
# Elastic Compliance Matrix: (Units=1/GPa)
#
#
# Indices 1 2 3 4 5 6 
#
# 1 0.023591 -0.008289 0.005771 0.000000 -0.006589 0.000000
# 2 -0.008289 0.008166 -0.003130 0.000000 0.000064 0.000000
# 3 0.005771 -0.003130 0.020564 0.000000 -0.010201 0.000000
# 4 0.000000 0.000000 0.000000 -0.036213 0.000000 0.089822
# 5 -0.006589 0.000064 -0.010201 0.000000 0.048109 0.000000
# 6 0.000000 0.000000 0.000000 0.089822 0.000000 -0.098692
#
#
# Mechanical properties :
#
#
# Convention : Reuss Voigt Hill
#
# Bulk Modulus (GPa) = 24.37395 54.65410 39.51403
# Shear Modulus (GPa) = -526.03967 27.32331 -249.35818
#
# Velocity S-wave (km/s) = -16.06899 3.66223 -11.06346
# Velocity P-wave (km/s) = 18.22962 6.68657 11.99185
#
# Compressibility (1/GPa) = 0.04102740
#
# Stress axis : x y z
#
# Youngs Moduli (GPa) = 42.38837 122.45949 48.62856
#
# Poissons Ratio (x) = 1.01505 -0.28065
# Poissons Ratio (y) = 0.35135 0.15219
# Poissons Ratio (z) = -0.24464 0.38324
#
# Static dielectric constant tensor:
#      x y z
#    x 1.694980 0.000000 -0.010740 
#    y 0.000000 1.780560 0.000000 
#    z -0.010740 0.000000 1.714760 
# 
# From -- ./inp_files/3266.got.cif
#   From: 2010.05.17/outbox.cif.g08.bks.cpg/sg6_2_cif.got.tgz:3266.got - 2010.06.03 19:42:10.
