data_PCOD9131270
_publ_section_title
;
Structure prediction by ZEFSAII (Michael W. Deem and Ramdas Pophale) SiO2 
 PCOD9131270
Probable space group: P C
;
_chemical_formula_sum "Si O2"
_cell_formula_units_Z 16
_cell_length_a 16.784932
_cell_length_b 8.101920
_cell_length_c 5.350040
_cell_angle_alpha 90.000000
_cell_angle_beta 101.938033
_cell_angle_gamma 90.000000
_cell_volume 711.817290
_symmetry_space_group_name_H-M "P C"
_symmetry_group_IT_number 7
_symmetry_cell_setting 'monoclinic'
loop_
_space_group_symop_operation_xyz
x,y,z
x,-y,1/2+z
loop_
_atom_site_type_symbol
_atom_site_label
_atom_site_fract_x
_atom_site_fract_y
_atom_site_fract_z
Si Si1 0.494460 0.887852 0.160030
Si Si2 0.916343 0.436889 0.801553
Si Si3 0.674489 0.896450 0.208572
Si Si4 0.243988 0.907356 0.968606
Si Si5 0.356320 0.390905 0.554665
Si Si6 0.066479 0.952861 0.369756
Si Si7 0.850745 0.895250 0.417772
Si Si8 0.105117 0.429528 0.894811
O O1 0.586774 0.816850 0.201807
O O2 0.429631 0.741907 0.104635
O O3 0.485552 0.989925 0.414099
O O4 0.879507 0.456004 0.502504
O O5 0.913204 0.250448 0.895674
O O6 0.010692 0.489965 0.828642
O O7 0.760726 0.811971 0.320904
O O8 0.675382 0.042261 0.421135
O O9 0.276635 0.724511 0.000133
O O10 0.272851 0.005195 0.233160
O O11 0.146014 0.927673 0.906862
O O12 0.359437 0.500074 0.306748
O O13 0.099707 0.767646 0.399141
O O14 0.020616 0.014704 0.583571
O O15 0.854257 0.968688 0.698624
O O16 0.143305 0.495952 0.666980
#
# Coordination Sequence:
#
# PCOD9131270 Si02
#       8
#     2   2   2   2   2   2   2   2
#     4  10  19  36  60  80 106 148 187 221 268 323
#     4  10  21  36  53  78 113 148 179 218 278 331
#     4   8  16  30  51  78 106 139 182 227 266 309
#     4  10  21  41  60  80 108 143 180 217 264 327
#     4  12  24  38  57  85 115 141 177 227 275 319
#     4  10  21  38  59  83 109 138 178 222 266 325
#     4  10  19  33  54  81 109 142 189 231 262 311
#     4  10  21  38  58  81 110 143 180 225 273 321
#
# _framework density 22.477675000000001
#
# number of rings (size 3 to 8) (size 9 to 14) (size 15 to 20)
#    0.000    2.000    0.000    3.750    0.000    1.000 
#    0.000   16.250    0.000    0.000    0.000    0.000 
#    0.000    0.000    0.000    0.000    0.000    0.000 
#
# Total GULP energy -89400.571566 kJ/mol
# GULP energy per Si atom -5587.535723 kJ/mol
# Density = 2.242651 g / cm^3
# Si number density = 22.477675 Si / 1000 Ang^3
#
#
#
# Elastic Constant Matrix: (Units=GPa)
#
#
# Indices 1 2 3 4 5 6 
#
# 1 88.1475 14.5595 19.5563 0.0000 -12.8535 0.0000
# 2 14.5595 84.4561 63.9074 0.0000 -6.4028 0.0000
# 3 19.5563 63.9074 205.0016 0.0000 -21.6086 0.0000
# 4 0.0000 0.0000 0.0000 42.9791 0.0000 -6.4683
# 5 -12.8535 -6.4028 -21.6086 0.0000 49.5859 0.0000
# 6 0.0000 0.0000 0.0000 -6.4683 0.0000 17.7559
#
#
#
# Elastic Compliance Matrix: (Units=1/GPa)
#
#
# Indices 1 2 3 4 5 6 
#
# 1 0.012093 -0.001600 -0.000363 0.000000 0.002770 0.000000
# 2 -0.001600 0.015708 -0.004794 0.000000 -0.000476 0.000000
# 3 -0.000363 -0.004794 0.006637 0.000000 0.002179 0.000000
# 4 0.000000 0.000000 0.000000 0.024617 0.000000 0.008968
# 5 0.002770 -0.000476 0.002179 0.000000 0.021773 0.000000
# 6 0.000000 0.000000 0.000000 0.008968 0.000000 0.059586
#
#
# Mechanical properties :
#
#
# Convention : Reuss Voigt Hill
#
# Bulk Modulus (GPa) = 47.79300 63.73905 55.76602
# Shear Modulus (GPa) = 31.07444 40.70298 35.88871
#
# Velocity S-wave (km/s) = 3.72218 4.25999 4.00013
# Velocity P-wave (km/s) = 6.30725 7.25361 6.79692
#
# Compressibility (1/GPa) = 0.02092357
#
# Stress axis : x y z
#
# Youngs Moduli (GPa) = 82.69006 63.66128 150.67242
#
# Poissons Ratio (x) = 0.10187 0.05467
# Poissons Ratio (y) = 0.13232 0.72238
# Poissons Ratio (z) = 0.03000 0.30522
#
# Static dielectric constant tensor:
#      x y z
#    x 1.897870 0.000000 -0.003370 
#    y 0.000000 1.793960 0.000000 
#    z -0.003370 0.000000 1.914660 
# 
# From -- ./inp_files/1438.got.cif
#   From: 2010.05.17/outbox.cif.g08.bks.cpg/sg7_cif.got.tgz:1438.got - 2010.06.03 19:44:50.
