data_PCOD9131185
_publ_section_title
;
Structure prediction by ZEFSAII (Michael W. Deem and Ramdas Pophale) SiO2 
 PCOD9131185
Probable space group: P M
;
_chemical_formula_sum "Si O2"
_cell_formula_units_Z 16
_cell_length_a 7.016573
_cell_length_b 11.471709
_cell_length_c 8.937068
_cell_angle_alpha 90.000000
_cell_angle_beta 56.842110
_cell_angle_gamma 90.000000
_cell_volume 602.226810
_symmetry_space_group_name_H-M "P M"
_symmetry_group_IT_number 6
_symmetry_cell_setting 'monoclinic'
loop_
_space_group_symop_operation_xyz
x,y,z
x,-y,z
loop_
_atom_site_type_symbol
_atom_site_label
_atom_site_fract_x
_atom_site_fract_y
_atom_site_fract_z
Si Si1 0.292240 0.625032 0.886100
Si Si2 0.051085 0.874639 0.679780
Si Si3 0.891177 0.374716 0.297960
Si Si4 0.475216 0.874212 0.261933
Si Si5 0.453651 0.374946 0.273893
Si Si6 0.815468 0.875588 0.386185
Si Si7 0.037804 0.374804 0.676645
Si Si8 0.399838 0.875396 0.796468
O O1 0.415392 0.500000 0.845291
O O2 0.192361 0.628410 0.760479
O O3 0.407395 0.748802 0.865990
O O4 0.080119 0.621021 0.089075
O O5 0.258101 0.872949 0.469374
O O6 0.921247 0.752175 0.722383
O O7 0.174264 0.875417 0.787914
O O8 0.931432 0.000000 0.712884
O O9 0.898341 0.500000 0.377130
O O10 0.647308 0.371887 0.319538
O O11 0.927471 0.250133 0.360160
O O12 0.474784 0.748802 0.182190
O O13 0.698132 0.874057 0.273316
O O14 0.475720 0.000000 0.184270
O O15 0.478389 0.500000 0.182419
O O16 0.216322 0.377029 0.463647
O O17 0.610302 0.878625 0.591648
O O18 0.942195 0.000000 0.345480
O O19 0.915847 0.500000 0.734064
O O20 0.393882 0.000000 0.881226
#
# Coordination Sequence:
#
# PCOD9131185 Si02
#       8
#     2   2   2   2   2   2   2   2
#     4   9  15  19  22  29  38  43  45  49  56  63
#     4   7   9  13  20  27  31  33  38  47  54  57
#     4   9  15  19  22  29  38  43  45  49  56  63
#     4   7   9  13  20  27  31  33  38  47  54  57
#     4   8  12  17  23  27  30  37  46  51  53  57
#     4   8  13  20  27  31  33  38  47  54  57  61
#     4   8  12  17  23  27  30  37  46  51  53  57
#     4   8  13  20  27  31  33  38  47  54  57  61
#
# _framework density 26.568061
#
# number of rings (size 3 to 8) (size 9 to 14) (size 15 to 20)
#    0.000    4.000    0.000    3.750    0.000    2.000 
#    0.000    0.000    0.000    0.000    0.000    0.000 
#    0.000    0.000    0.000    0.000    0.000    0.000 
#
# Total GULP energy -89257.703185 kJ/mol
# GULP energy per Si atom -5578.606449 kJ/mol
# Density = 2.650759 g / cm^3
# Si number density = 26.568061 Si / 1000 Ang^3
#
#
#
# Elastic Constant Matrix: (Units=GPa)
#
#
# Indices 1 2 3 4 5 6 
#
# 1 111.4890 31.1780 27.0236 0.0000 -1.2071 0.0000
# 2 31.1780 418.3404 28.2164 0.0000 3.5334 0.0000
# 3 27.0236 28.2164 36.4470 0.0000 1.9227 0.0000
# 4 0.0000 0.0000 0.0000 -261.8373 0.0000 -191.5961
# 5 -1.2071 3.5334 1.9227 0.0000 23.7231 0.0000
# 6 0.0000 0.0000 0.0000 -191.5961 0.0000 -153.8482
#
#
#
# Elastic Compliance Matrix: (Units=1/GPa)
#
#
# Indices 1 2 3 4 5 6 
#
# 1 0.011003 -0.000291 -0.007999 0.000000 0.001252 0.000000
# 2 -0.000291 0.002531 -0.001730 0.000000 -0.000252 0.000000
# 3 -0.007999 -0.001730 0.034864 0.000000 -0.002975 0.000000
# 4 0.000000 0.000000 0.000000 -0.043045 0.000000 0.053606
# 5 0.001252 -0.000252 -0.002975 0.000000 0.042495 0.000000
# 6 0.000000 0.000000 0.000000 0.053606 0.000000 -0.073259
#
#
# Mechanical properties :
#
#
# Convention : Reuss Voigt Hill
#
# Bulk Modulus (GPa) = 35.26365 82.12362 58.69363
# Shear Modulus (GPa) = 1224.18581 -46.40195 588.89193
#
# Velocity S-wave (km/s) = 21.48892 -4.18369 14.90420
# Velocity P-wave (km/s) = 25.07988 2.76408 17.84153
#
# Compressibility (1/GPa) = 0.02835782
#
# Stress axis : x y z
#
# Youngs Moduli (GPa) = 90.88149 395.11290 28.68249
#
# Poissons Ratio (x) = 0.11502 0.22943
# Poissons Ratio (y) = 0.02646 0.04963
# Poissons Ratio (z) = 0.72697 0.68365
#
# Static dielectric constant tensor:
#      x y z
#    x 2.017650 0.000000 0.004610 
#    y 0.000000 2.195910 0.000000 
#    z 0.004610 0.000000 1.954670 
# 
# From -- ./inp_files/5255.got.cif
#   From: 2010.05.17/outbox.cif.g08.bks.cpg/sg6_3_cif.got.tgz:5255.got - 2010.06.03 19:42:10.
