data_PCOD9131840
_publ_section_title
;
Structure prediction by ZEFSAII (Michael W. Deem and Ramdas Pophale) SiO2 
 PCOD9131840
Probable space group: C M
;
_chemical_formula_sum "Si O2"
_cell_formula_units_Z 32
_cell_length_a 29.067414
_cell_length_b 8.232791
_cell_length_c 23.859806
_cell_angle_alpha 90.000000
_cell_angle_beta 17.332577
_cell_angle_gamma 90.000000
_cell_volume 1701.048405
_symmetry_space_group_name_H-M "C M"
_symmetry_group_IT_number 8
_symmetry_cell_setting 'monoclinic'
loop_
_space_group_symop_operation_xyz
x,y,z
x,-y,z
1/2+x,1/2+y,z
1/2+x,1/2-y,z
loop_
_atom_site_type_symbol
_atom_site_label
_atom_site_fract_x
_atom_site_fract_y
_atom_site_fract_z
Si Si1 0.840960 0.687675 0.195910
Si Si2 0.698436 0.807704 0.470911
Si Si3 0.375513 0.304209 0.795910
Si Si4 0.996605 0.188718 0.541913
Si Si5 0.265069 0.303509 0.518872
Si Si6 0.636680 0.696564 0.268705
Si Si7 0.081245 0.305845 0.207481
Si Si8 0.965493 0.698817 0.936568
O O1 0.881417 0.500000 0.159494
O O2 0.820203 0.772356 0.279660
O O3 0.669957 0.689316 0.366477
O O4 0.949792 0.753316 0.019661
O O5 0.175991 0.500000 0.500517
O O6 0.534249 0.733670 0.643587
O O7 0.748820 0.747209 0.473425
O O8 0.365412 0.500000 0.803570
O O9 0.392287 0.238708 0.712664
O O10 0.228110 0.242861 0.001165
O O11 0.019827 0.259063 0.452965
O O12 0.950039 0.000000 0.589230
O O13 0.262613 0.500000 0.521451
O O14 0.423176 0.247993 0.362746
O O15 0.117968 0.248724 0.726676
O O16 0.635601 0.500000 0.273147
O O17 0.593540 0.747288 0.256887
O O18 0.810444 0.748667 0.083614
O O19 0.088862 0.500000 0.198643
O O20 0.964117 0.500000 0.939870
#
# Coordination Sequence:
#
# PCOD9131840 Si02
#       8
#     4   4   4   4   4   4   4   4
#     4   8  14  28  51  76 101 126 157 200 244 288
#     4  10  19  31  52  80 103 125 159 203 250 296
#     4   9  18  34  54  74  98 129 166 204 241 289
#     4   7  12  26  50  75  94 119 157 197 236 283
#     4  10  21  36  51  69  98 135 172 205 238 286
#     4   9  16  31  56  78  97 123 158 203 249 292
#     4  11  23  35  48  71 102 133 166 205 249 293
#     4   8  15  31  56  79  95 124 171 207 233 283
#
# _framework density 18.811928999999999
#
# number of rings (size 3 to 8) (size 9 to 14) (size 15 to 20)
#    0.000    3.000    0.000    3.750    0.000    3.000 
#    0.000    8.125    0.000    6.000    0.000    0.000 
#    0.000    0.000    0.000    0.000    0.000    0.000 
#
# Total GULP energy -89137.828763 kJ/mol
# GULP energy per Si atom -5571.114298 kJ/mol
# Density = 1.876911 g / cm^3
# Si number density = 18.811929 Si / 1000 Ang^3
#
#
#
# Elastic Constant Matrix: (Units=GPa)
#
#
# Indices 1 2 3 4 5 6 
#
# 1 139.7780 9.5139 128.1066 -0.0011 36.7769 0.0006
# 2 9.5139 8.6348 12.8531 -0.0008 6.0209 0.0007
# 3 128.1066 12.8531 101.0370 0.0015 36.1005 -0.0002
# 4 -0.0011 -0.0008 0.0015 20.3180 0.0005 2.5001
# 5 36.7769 6.0209 36.1005 0.0005 31.0943 -0.0004
# 6 0.0006 0.0007 -0.0002 2.5001 -0.0004 22.8047
#
#
#
# Elastic Compliance Matrix: (Units=1/GPa)
#
#
# Indices 1 2 3 4 5 6 
#
# 1 -0.030808 -0.027180 0.047199 -0.000006 -0.013097 0.000003
# 2 -0.027180 0.121210 0.027244 0.000003 -0.022953 -0.000003
# 3 0.047199 0.027244 -0.053971 0.000008 0.001559 -0.000003
# 4 -0.000006 0.000003 0.000008 0.049890 -0.000003 -0.005470
# 5 -0.013097 -0.022953 0.001559 -0.000003 0.050285 0.000002
# 6 0.000003 -0.000003 -0.000003 -0.005470 0.000002 0.044450
#
#
# Mechanical properties :
#
#
# Convention : Reuss Voigt Hill
#
# Bulk Modulus (GPa) = 7.63604 61.15523 34.39564
# Shear Modulus (GPa) = 38.40757 21.44181 29.92469
#
# Velocity S-wave (km/s) = 4.52338 3.37975 3.99272
# Velocity P-wave (km/s) = 5.59904 6.91445 6.29122
#
# Compressibility (1/GPa) = 0.13095792
#
# Stress axis : x y z
#
# Youngs Moduli (GPa) = -32.45895 8.25016 -18.52861
#
# Poissons Ratio (x) = 0.22424 0.87454
# Poissons Ratio (y) = -0.88223 0.50479
# Poissons Ratio (z) = 1.53205 -0.22477
#
# Static dielectric constant tensor:
#      x y z
#    x 1.642600 0.000000 0.050910 
#    y 0.000000 1.666080 0.000000 
#    z 0.050910 0.000000 1.669470 
# 
# From -- ./inp_files/16797.got.cif
#   From: 2010.05.17/outbox.cif.g08.bks.cpg/sg8_9_cif.got.tgz:16797.got - 2010.06.03 19:46:02.
