data_PCOD9131421
_publ_section_title
;
Structure prediction by ZEFSAII (Michael W. Deem and Ramdas Pophale) SiO2 
 PCOD9131421
Probable space group: P C
;
_chemical_formula_sum "Si O2"
_cell_formula_units_Z 14
_cell_length_a 9.210710
_cell_length_b 16.153701
_cell_length_c 5.162595
_cell_angle_alpha 90.000000
_cell_angle_beta 123.823322
_cell_angle_gamma 90.000000
_cell_volume 638.127877
_symmetry_space_group_name_H-M "P C"
_symmetry_group_IT_number 7
_symmetry_cell_setting 'monoclinic'
loop_
_space_group_symop_operation_xyz
x,y,z
x,-y,1/2+z
loop_
_atom_site_type_symbol
_atom_site_label
_atom_site_fract_x
_atom_site_fract_y
_atom_site_fract_z
Si Si1 0.725240 0.310896 0.337890
Si Si2 0.719239 0.968148 0.542958
Si Si3 0.324558 0.312838 0.988409
Si Si4 0.815066 0.208080 0.929265
Si Si5 0.326469 0.967093 0.779226
Si Si6 0.231624 0.790302 0.894907
Si Si7 0.024372 0.554842 0.107961
O O1 0.767771 0.241372 0.597788
O O2 0.860798 0.385376 0.499932
O O3 0.525987 0.337373 0.172757
O O4 0.750325 0.273385 0.077793
O O5 0.729266 0.878698 0.424384
O O6 0.802601 0.971707 0.910452
O O7 0.522702 0.000134 0.411421
O O8 0.286782 0.242779 0.731674
O O9 0.195330 0.388522 0.808477
O O10 0.286581 0.276105 0.233431
O O11 0.023096 0.199717 0.169318
O O12 0.317340 0.876643 0.892584
O O13 0.242703 0.973164 0.412056
O O14 0.021155 0.482748 0.317927
#
# Coordination Sequence:
#
# PCOD9131421 Si02
#       7
#     2   2   2   2   2   2   2
#     4  12  27  46  76 113 142 194 243 285 371 442
#     4  10  23  38  60  96 138 186 246 296 370 397
#     4  12  27  46  76 113 142 194 243 285 371 442
#     4  12  24  45  72 101 150 193 248 308 357 433
#     4  10  23  38  60  96 138 186 246 296 370 397
#     4  12  24  45  72 101 150 193 248 308 357 433
#     4  12  26  50  80 110 154 178 228 308 364 436
#
# _framework density 21.939177000000001
#
# number of rings (size 3 to 8) (size 9 to 14) (size 15 to 20)
#    0.000    0.571    2.857    4.286   12.000    2.286 
#    0.000    0.000    0.000    0.000    0.000    0.000 
#    0.000    0.000    0.000    0.000    0.000    0.000 
#
# Total GULP energy -78335.606845 kJ/mol
# GULP energy per Si atom -5595.400489 kJ/mol
# Density = 2.188924 g / cm^3
# Si number density = 21.939177 Si / 1000 Ang^3
#
#
#
# Elastic Constant Matrix: (Units=GPa)
#
#
# Indices 1 2 3 4 5 6 
#
# 1 106.1908 17.1221 36.5765 0.0000 19.0044 0.0000
# 2 17.1221 64.7357 -7.2576 0.0000 18.0875 0.0000
# 3 36.5765 -7.2576 59.7036 0.0000 7.2818 0.0000
# 4 0.0000 0.0000 0.0000 38.2735 0.0000 -12.7679
# 5 19.0044 18.0875 7.2818 0.0000 72.7231 0.0000
# 6 0.0000 0.0000 0.0000 -12.7679 0.0000 33.2593
#
#
#
# Elastic Compliance Matrix: (Units=1/GPa)
#
#
# Indices 1 2 3 4 5 6 
#
# 1 0.013245 -0.003990 -0.008401 0.000000 -0.001628 0.000000
# 2 -0.003990 0.018197 0.005144 0.000000 -0.003998 0.000000
# 3 -0.008401 0.005144 0.022687 0.000000 -0.001356 0.000000
# 4 0.000000 0.000000 0.000000 0.029965 0.000000 0.011503
# 5 -0.001628 -0.003998 -0.001356 0.000000 0.015306 0.000000
# 6 0.000000 0.000000 0.000000 0.011503 0.000000 0.034483
#
#
# Mechanical properties :
#
#
# Convention : Reuss Voigt Hill
#
# Bulk Modulus (GPa) = 25.23054 35.94579 30.58817
# Shear Modulus (GPa) = 30.94264 41.13046 36.03655
#
# Velocity S-wave (km/s) = 3.75958 4.33453 4.05726
# Velocity P-wave (km/s) = 5.51100 6.43978 5.99341
#
# Compressibility (1/GPa) = 0.03963451
#
# Stress axis : x y z
#
# Youngs Moduli (GPa) = 75.49776 54.95509 44.07820
#
# Poissons Ratio (x) = 0.21929 0.37031
# Poissons Ratio (y) = 0.30127 -0.22675
# Poissons Ratio (z) = 0.63427 -0.28270
#
# Static dielectric constant tensor:
#      x y z
#    x 1.774610 0.000000 0.003410 
#    y 0.000000 1.787720 0.000000 
#    z 0.003410 0.000000 2.007400 
# 
# From -- ./inp_files/816.got.cif
#   From: 2010.05.17/outbox.cif.g08.bks.cpg/sg7_cif.got.tgz:816.got - 2010.06.03 19:44:50.
