data_PCOD9131668
_publ_section_title
;
Structure prediction by ZEFSAII (Michael W. Deem and Ramdas Pophale) SiO2 
 PCOD9131668
Probable space group: C M
;
_chemical_formula_sum "Si O2"
_cell_formula_units_Z 32
_cell_length_a 20.748195
_cell_length_b 8.599896
_cell_length_c 12.590634
_cell_angle_alpha 90.000000
_cell_angle_beta 125.921923
_cell_angle_gamma 90.000000
_cell_volume 1819.315947
_symmetry_space_group_name_H-M "C M"
_symmetry_group_IT_number 8
_symmetry_cell_setting 'monoclinic'
loop_
_space_group_symop_operation_xyz
x,y,z
x,-y,z
1/2+x,1/2+y,z
1/2+x,1/2-y,z
loop_
_atom_site_type_symbol
_atom_site_label
_atom_site_fract_x
_atom_site_fract_y
_atom_site_fract_z
Si Si1 0.945000 0.187166 0.015240
Si Si2 0.192310 0.686330 0.786658
Si Si3 0.306491 0.313256 0.712645
Si Si4 0.100904 0.810380 0.047731
Si Si5 0.830201 0.313888 0.072551
Si Si6 0.043793 0.186264 0.757779
Si Si7 0.366880 0.185957 0.554894
Si Si8 0.781569 0.689637 0.257549
O O1 0.908588 0.260236 0.085894
O O2 0.032514 0.238049 0.064036
O O3 0.943934 0.000000 0.025319
O O4 0.883539 0.225026 0.860093
O O5 0.189812 0.500000 0.787616
O O6 0.230338 0.732384 0.709999
O O7 0.106780 0.754215 0.732293
O O8 0.255266 0.744346 0.935878
O O9 0.306032 0.500000 0.699059
O O10 0.316161 0.235421 0.608534
O O11 0.189658 0.758804 0.161838
O O12 0.101060 0.000000 0.047183
O O13 0.075239 0.761486 0.904421
O O14 0.823727 0.500000 0.061849
O O15 0.824615 0.264406 0.189650
O O16 0.955245 0.246508 0.653085
O O17 0.043015 0.000000 0.757295
O O18 0.325757 0.241974 0.406434
O O19 0.372241 0.000000 0.556634
O O20 0.780640 0.500000 0.258640
#
# Coordination Sequence:
#
# PCOD9131668 Si02
#       8
#     4   4   4   4   4   4   4   4
#     4   9  17  31  53  79 106 135 173 226 276 315
#     4  10  20  34  54  82 111 138 175 226 276 317
#     4   9  18  34  53  76 109 144 175 215 274 325
#     4   9  16  32  56  77 101 138 179 217 263 318
#     4  10  18  32  54  78 107 143 180 218 266 322
#     4  11  20  35  58  81 107 142 183 223 270 320
#     4  11  22  35  54  80 112 146 183 222 263 321
#     4   9  19  35  54  77 107 146 180 215 270 322
#
# _framework density 17.589027999999999
#
# number of rings (size 3 to 8) (size 9 to 14) (size 15 to 20)
#    0.000    2.250    2.500    2.250    0.000    2.500 
#    0.000    3.750    0.000    3.000    0.000    0.000 
#    0.000    0.000    0.000    0.000    0.000    0.000 
#
# Total GULP energy -89261.008599 kJ/mol
# GULP energy per Si atom -5578.813037 kJ/mol
# Density = 1.754899 g / cm^3
# Si number density = 17.589028 Si / 1000 Ang^3
#
#
#
# Elastic Constant Matrix: (Units=GPa)
#
#
# Indices 1 2 3 4 5 6 
#
# 1 170.7410 34.5758 83.8019 0.0000 -14.2918 0.0000
# 2 34.5758 28.5528 27.9774 0.0000 -5.8679 0.0000
# 3 83.8019 27.9774 118.6348 0.0000 -10.4985 0.0000
# 4 0.0000 0.0000 0.0000 17.1520 0.0000 -0.4550
# 5 -14.2918 -5.8679 -10.4985 0.0000 25.2656 0.0000
# 6 0.0000 0.0000 0.0000 -0.4550 0.0000 31.6094
#
#
#
# Elastic Compliance Matrix: (Units=1/GPa)
#
#
# Indices 1 2 3 4 5 6 
#
# 1 0.009934 -0.006407 -0.005337 0.000000 0.001914 0.000000
# 2 -0.006407 0.050682 -0.006962 0.000000 0.005254 0.000000
# 3 -0.005337 -0.006962 0.013943 0.000000 0.001158 0.000000
# 4 0.000000 0.000000 0.000000 0.058324 0.000000 0.000840
# 5 0.001914 0.005254 0.001158 0.000000 0.042363 0.000000
# 6 0.000000 0.000000 0.000000 0.000840 0.000000 0.031648
#
#
# Mechanical properties :
#
#
# Convention : Reuss Voigt Hill
#
# Bulk Modulus (GPa) = 26.91881 67.84875 47.38378
# Shear Modulus (GPa) = 19.47886 26.24366 22.86126
#
# Velocity S-wave (km/s) = 3.33144 3.86689 3.60911
# Velocity P-wave (km/s) = 5.48958 7.65476 6.66074
#
# Compressibility (1/GPa) = 0.03714874
#
# Stress axis : x y z
#
# Youngs Moduli (GPa) = 100.66652 19.73085 71.71867
#
# Poissons Ratio (x) = 0.12641 0.38275
# Poissons Ratio (y) = 0.64493 0.49928
# Poissons Ratio (z) = 0.53724 0.13736
#
# Static dielectric constant tensor:
#      x y z
#    x 1.608470 0.000000 -0.007930 
#    y 0.000000 1.601880 0.000000 
#    z -0.007930 0.000000 1.575360 
# 
# From -- ./inp_files/23711.got.cif
#   From: 2010.05.17/outbox.cif.g08.bks.cpg/sg8_12_cif.got.tgz:23711.got - 2010.06.03 19:46:02.
