data_PCOD9131203
_publ_section_title
;
Structure prediction by ZEFSAII (Michael W. Deem and Ramdas Pophale) SiO2 
 PCOD9131203
Probable space group: P C
;
_chemical_formula_sum "Si O2"
_cell_formula_units_Z 16
_cell_length_a 22.261378
_cell_length_b 7.236866
_cell_length_c 5.379595
_cell_angle_alpha 90.000000
_cell_angle_beta 60.816154
_cell_angle_gamma 90.000000
_cell_volume 756.651755
_symmetry_space_group_name_H-M "P C"
_symmetry_group_IT_number 7
_symmetry_cell_setting 'monoclinic'
loop_
_space_group_symop_operation_xyz
x,y,z
x,-y,1/2+z
loop_
_atom_site_type_symbol
_atom_site_label
_atom_site_fract_x
_atom_site_fract_y
_atom_site_fract_z
Si Si1 0.355500 0.297603 0.669440
Si Si2 0.571737 0.726870 0.301037
Si Si3 0.516810 0.696228 0.911198
Si Si4 0.870571 0.618652 0.586726
Si Si5 0.719836 0.376697 0.449942
Si Si6 0.999361 0.881993 0.408001
Si Si7 0.151871 0.877674 0.043497
Si Si8 0.296757 0.286631 0.287698
O O1 0.437060 0.325671 0.506078
O O2 0.328229 0.205615 0.475391
O O3 0.319797 0.499533 0.743921
O O4 0.330782 0.205601 0.972134
O O5 0.553456 0.798404 0.609856
O O6 0.552582 0.506206 0.363598
O O7 0.526202 0.787858 0.160235
O O8 0.651843 0.746897 0.077052
O O9 0.872888 0.468095 0.805605
O O10 0.795382 0.712277 0.773404
O O11 0.935515 0.748384 0.495496
O O12 0.715858 0.483047 0.722914
O O13 0.995914 0.967534 0.691768
O O14 0.075288 0.793781 0.221708
O O15 0.215294 0.739206 0.941639
O O16 0.157215 0.979365 0.765211
#
# Coordination Sequence:
#
# PCOD9131203 Si02
#       8
#     2   2   2   2   2   2   2   2
#     4  10  19  30  45  72 104 139 153 211 258 321
#     4  10  14  22  36  59  90 137 163 194 233 312
#     4  10  16  23  39  61  96 136 166 190 243 315
#     4  10  21  35  55  85 118 145 173 235 284 329
#     4  10  16  27  41  66 105 139 158 205 271 309
#     4  10  21  40  61  80 109 149 192 226 267 334
#     4  10  21  37  56  75  96 131 176 223 253 299
#     4  10  18  32  47  68 100 128 163 200 265 303
#
# _framework density 21.145792
#
# number of rings (size 3 to 8) (size 9 to 14) (size 15 to 20)
#    0.000    2.000    2.500    5.250    0.000    0.000 
#    4.500    0.000    0.000    0.000    0.000    0.000 
#    0.000   34.000    0.000    0.000    0.000    0.000 
#
# Total GULP energy -89254.212355 kJ/mol
# GULP energy per Si atom -5578.388272 kJ/mol
# Density = 2.109766 g / cm^3
# Si number density = 21.145792 Si / 1000 Ang^3
#
#
#
# Elastic Constant Matrix: (Units=GPa)
#
#
# Indices 1 2 3 4 5 6 
#
# 1 117.6296 -2.6775 30.5548 0.0000 -19.2207 0.0000
# 2 -2.6775 37.3182 -3.8749 0.0000 -11.6572 0.0000
# 3 30.5548 -3.8749 99.7559 0.0000 7.4056 0.0000
# 4 0.0000 0.0000 0.0000 18.1165 0.0000 -25.8418
# 5 -19.2207 -11.6572 7.4056 0.0000 82.7119 0.0000
# 6 0.0000 0.0000 0.0000 -25.8418 0.0000 20.2719
#
#
#
# Elastic Compliance Matrix: (Units=1/GPa)
#
#
# Indices 1 2 3 4 5 6 
#
# 1 0.009795 0.001229 -0.003155 0.000000 0.002732 0.000000
# 2 0.001229 0.028248 0.000407 0.000000 0.004230 0.000000
# 3 -0.003155 0.000407 0.011131 0.000000 -0.001672 0.000000
# 4 0.000000 0.000000 0.000000 -0.067451 0.000000 -0.085983
# 5 0.002732 0.004230 -0.001672 0.000000 0.013471 0.000000
# 6 0.000000 0.000000 0.000000 -0.085983 0.000000 -0.060279
#
#
# Mechanical properties :
#
#
# Convention : Reuss Voigt Hill
#
# Bulk Modulus (GPa) = 21.67560 33.63428 27.65494
# Shear Modulus (GPa) = -107.14413 39.60015 -33.77199
#
# Velocity S-wave (km/s) = -7.12596 4.33219 -4.00071
# Velocity P-wave (km/s) = 7.57845 6.40033 2.86955
#
# Compressibility (1/GPa) = 0.04613483
#
# Stress axis : x y z
#
# Youngs Moduli (GPa) = 102.09062 35.40018 89.83999
#
# Poissons Ratio (x) = -0.04349 0.28347
# Poissons Ratio (y) = -0.12542 -0.03656
# Poissons Ratio (z) = 0.32213 -0.01441
#
# Static dielectric constant tensor:
#      x y z
#    x 1.771910 0.000000 0.031910 
#    y 0.000000 1.743370 0.000000 
#    z 0.031910 0.000000 1.789200 
# 
# From -- ./inp_files/1247.got.cif
#   From: 2010.05.17/outbox.cif.g08.bks.cpg/sg7_cif.got.tgz:1247.got - 2010.06.03 19:44:50.
