data_PCOD9131808
_publ_section_title
;
Structure prediction by ZEFSAII (Michael W. Deem and Ramdas Pophale) SiO2 
 PCOD9131808
Probable space group: C M
;
_chemical_formula_sum "Si O2"
_cell_formula_units_Z 28
_cell_length_a 5.542490
_cell_length_b 22.513651
_cell_length_c 12.292121
_cell_angle_alpha 90.000000
_cell_angle_beta 132.250889
_cell_angle_gamma 90.000000
_cell_volume 1135.353936
_symmetry_space_group_name_H-M "C M"
_symmetry_group_IT_number 8
_symmetry_cell_setting 'monoclinic'
loop_
_space_group_symop_operation_xyz
x,y,z
x,-y,z
1/2+x,1/2+y,z
1/2+x,1/2-y,z
loop_
_atom_site_type_symbol
_atom_site_label
_atom_site_fract_x
_atom_site_fract_y
_atom_site_fract_z
Si Si1 0.541710 0.073069 0.958030
Si Si2 0.321038 0.785354 0.097490
Si Si3 0.269822 0.713278 0.768392
Si Si4 0.715751 0.212068 0.414379
Si Si5 0.597920 0.916825 0.658837
Si Si6 0.118091 0.933013 0.009500
Si Si7 0.532599 0.598285 0.615628
O O1 0.299603 0.102446 0.795579
O O2 0.513783 0.000000 0.938795
O O3 0.433507 0.091184 0.045037
O O4 0.906298 0.092380 0.042588
O O5 0.104829 0.736006 0.099995
O O6 0.998086 0.683555 0.251996
O O7 0.032543 0.810644 0.935649
O O8 0.994021 0.749239 0.752146
O O9 0.114678 0.655142 0.668332
O O10 0.471859 0.245804 0.425122
O O11 0.909885 0.160957 0.534848
O O12 0.237196 0.933277 0.584057
O O13 0.734050 0.933770 0.583569
O O14 0.851141 0.937268 0.829179
O O15 0.203091 0.000000 0.068444
#
# Coordination Sequence:
#
# PCOD9131808 Si02
#       7
#     4   4   4   4   4   4   4
#     4   8  14  25  39  54  75 102 130 159 188 224
#     4   8  16  30  44  56  71 100 141 172 190 216
#     4  10  19  30  43  58  80 108 136 165 194 229
#     4  10  19  30  43  58  80 108 136 165 194 229
#     4  10  19  28  40  61  85 107 131 158 197 244
#     4   8  14  25  39  54  75 102 130 159 188 224
#     4  10  19  28  40  61  85 107 131 158 197 244
#
# _framework density 24.661915
#
# number of rings (size 3 to 8) (size 9 to 14) (size 15 to 20)
#    0.000    2.857    0.000    1.714    0.000    3.429 
#    0.000    0.000    0.000    0.000    0.000    1.000 
#    0.000    0.000    0.000   66.000    0.000    0.000 
#
# Total GULP energy -78101.971734 kJ/mol
# GULP energy per Si atom -5578.712267 kJ/mol
# Density = 2.460578 g / cm^3
# Si number density = 24.661915 Si / 1000 Ang^3
#
#
#
# Elastic Constant Matrix: (Units=GPa)
#
#
# Indices 1 2 3 4 5 6 
#
# 1 272.6989 47.8753 12.6154 0.0000 30.9853 0.0000
# 2 47.8753 114.6071 23.9301 0.0000 2.5808 0.0000
# 3 12.6154 23.9301 71.4228 0.0000 -1.6089 0.0000
# 4 0.0000 0.0000 0.0000 8.2850 0.0000 1.6931
# 5 30.9853 2.5808 -1.6089 0.0000 22.0032 0.0000
# 6 0.0000 0.0000 0.0000 1.6931 0.0000 12.4636
#
#
#
# Elastic Compliance Matrix: (Units=1/GPa)
#
#
# Indices 1 2 3 4 5 6 
#
# 1 0.004729 -0.001747 -0.000396 0.000000 -0.006483 0.000000
# 2 -0.001747 0.010066 -0.003040 0.000000 0.001057 0.000000
# 3 -0.000396 -0.003040 0.015135 0.000000 0.002021 0.000000
# 4 0.000000 0.000000 0.000000 0.124147 0.000000 -0.016865
# 5 -0.006483 0.001057 0.002021 0.000000 0.054601 0.000000
# 6 0.000000 0.000000 0.000000 -0.016865 0.000000 0.082525
#
#
# Mechanical properties :
#
#
# Convention : Reuss Voigt Hill
#
# Bulk Modulus (GPa) = 51.11426 69.73005 60.42215
# Shear Modulus (GPa) = 16.22901 33.50423 24.86662
#
# Velocity S-wave (km/s) = 2.56805 3.68984 3.17882
# Velocity P-wave (km/s) = 5.43729 6.81828 6.16657
#
# Compressibility (1/GPa) = 0.01956401
#
# Stress axis : x y z
#
# Youngs Moduli (GPa) = 211.47705 99.34310 66.07084
#
# Poissons Ratio (x) = 0.17352 0.02617
# Poissons Ratio (y) = 0.36937 0.20088
# Poissons Ratio (z) = 0.08376 0.30204
#
# Static dielectric constant tensor:
#      x y z
#    x 2.064850 0.000000 0.023630 
#    y 0.000000 2.061540 0.000000 
#    z 0.023630 0.000000 1.911890 
# 
# From -- ./inp_files/7054.got.cif
#   From: 2010.05.17/outbox.cif.g08.bks.cpg/sg8_4_cif.got.tgz:7054.got - 2010.06.03 19:46:02.
