data_PCOD9131148
_publ_section_title
;
Structure prediction by ZEFSAII (Michael W. Deem and Ramdas Pophale) SiO2 
 PCOD9131148
Probable space group: P M
;
_chemical_formula_sum "Si O2"
_cell_formula_units_Z 16
_cell_length_a 9.950542
_cell_length_b 15.860898
_cell_length_c 5.230103
_cell_angle_alpha 90.000000
_cell_angle_beta 119.483182
_cell_angle_gamma 90.000000
_cell_volume 718.544428
_symmetry_space_group_name_H-M "P M"
_symmetry_group_IT_number 6
_symmetry_cell_setting 'monoclinic'
loop_
_space_group_symop_operation_xyz
x,y,z
x,-y,z
loop_
_atom_site_type_symbol
_atom_site_label
_atom_site_fract_x
_atom_site_fract_y
_atom_site_fract_z
Si Si1 0.961340 0.402075 0.622130
Si Si2 0.167793 0.279220 0.533612
Si Si3 0.935742 0.147872 0.345835
Si Si4 0.086970 0.093103 0.998383
Si Si5 0.479326 0.725685 0.552869
Si Si6 0.588208 0.903151 0.907136
Si Si7 0.371319 0.830857 0.069734
Si Si8 0.757752 0.400343 0.922918
O O1 0.004017 0.500000 0.680003
O O2 0.880961 0.378235 0.813999
O O3 0.111425 0.349362 0.679971
O O4 0.836722 0.393746 0.275273
O O5 0.307256 0.305288 0.477150
O O6 0.003632 0.237026 0.303195
O O7 0.250457 0.201017 0.748312
O O8 0.977779 0.137600 0.684718
O O9 0.758124 0.125994 0.146260
O O10 0.017370 0.089015 0.213685
O O11 0.110905 0.000000 0.914435
O O12 0.253527 0.136356 0.171861
O O13 0.464811 0.747597 0.239333
O O14 0.610031 0.659903 0.752162
O O15 0.526581 0.820920 0.692974
O O16 0.481130 0.900478 0.057976
O O17 0.587860 0.000000 0.802829
O O18 0.718105 0.500000 0.848024
#
# Coordination Sequence:
#
# PCOD9131148 Si02
#       8
#     2   2   2   2   2   2   2   2
#     4  10  23  44  71 103 134 171 217 272 334 397
#     4  10  23  41  64  94 128 170 218 268 328 393
#     4  11  24  41  62  92 121 162 218 275 323 384
#     4  11  22  41  62  84 121 164 211 269 325 382
#     4  11  24  42  66  94 134 180 222 272 334 403
#     4  11  25  42  62  94 130 175 231 283 335 394
#     4  10  24  41  59  92 127 175 220 269 332 393
#     4  10  24  44  71 103 137 175 219 272 334 400
#
# _framework density 22.267237000000002
#
# number of rings (size 3 to 8) (size 9 to 14) (size 15 to 20)
#    0.000    1.500    1.250    2.250    8.750    2.500 
#    0.000    0.625    0.000    0.000    0.000    0.000 
#    0.000    0.000    0.000    0.000    0.000    0.000 
#
# Total GULP energy -89126.171683 kJ/mol
# GULP energy per Si atom -5570.385730 kJ/mol
# Density = 2.221656 g / cm^3
# Si number density = 22.267237 Si / 1000 Ang^3
#
#
#
# Elastic Constant Matrix: (Units=GPa)
#
#
# Indices 1 2 3 4 5 6 
#
# 1 91.1707 49.2000 23.5666 0.0000 10.4619 0.0000
# 2 49.2000 97.0636 25.0379 0.0000 15.6727 0.0000
# 3 23.5666 25.0379 68.2958 0.0000 -3.7883 0.0000
# 4 0.0000 0.0000 0.0000 14.0633 0.0000 -8.4110
# 5 10.4619 15.6727 -3.7883 0.0000 30.7426 0.0000
# 6 0.0000 0.0000 0.0000 -8.4110 0.0000 27.4684
#
#
#
# Elastic Compliance Matrix: (Units=1/GPa)
#
#
# Indices 1 2 3 4 5 6 
#
# 1 0.015683 -0.006802 -0.003042 0.000000 -0.002244 0.000000
# 2 -0.006802 0.015714 -0.003755 0.000000 -0.006159 0.000000
# 3 -0.003042 -0.003755 0.017351 0.000000 0.005088 0.000000
# 4 0.000000 0.000000 0.000000 0.087049 0.000000 0.026655
# 5 -0.002244 -0.006159 0.005088 0.000000 0.037059 0.000000
# 6 0.000000 0.000000 0.000000 0.026655 0.000000 0.044567
#
#
# Mechanical properties :
#
#
# Convention : Reuss Voigt Hill
#
# Bulk Modulus (GPa) = 46.40821 50.23769 48.32295
# Shear Modulus (GPa) = 19.85661 25.03656 22.44658
#
# Velocity S-wave (km/s) = 2.98944 3.35680 3.17843
# Velocity P-wave (km/s) = 5.72734 6.13468 5.93451
#
# Compressibility (1/GPa) = 0.02154791
#
# Stress axis : x y z
#
# Youngs Moduli (GPa) = 63.76199 63.63896 57.63388
#
# Poissons Ratio (x) = 0.43290 0.17535
# Poissons Ratio (y) = 0.43374 0.21642
# Poissons Ratio (z) = 0.19399 0.23897
#
# Static dielectric constant tensor:
#      x y z
#    x 1.855210 0.000000 -0.020320 
#    y 0.000000 1.881240 0.000000 
#    z -0.020320 0.000000 1.992180 
# 
# From -- ./inp_files/1364.got.cif
#   From: 2010.05.17/outbox.cif.g08.bks.cpg/sg6_1_cif.got.tgz:1364.got - 2010.06.03 19:42:10.
