data_PCOD9131752
_publ_section_title
;
Structure prediction by ZEFSAII (Michael W. Deem and Ramdas Pophale) SiO2 
 PCOD9131752
Probable space group: C M
;
_chemical_formula_sum "Si O2"
_cell_formula_units_Z 28
_cell_length_a 7.449011
_cell_length_b 29.127354
_cell_length_c 5.986586
_cell_angle_alpha 90.000000
_cell_angle_beta 69.213827
_cell_angle_gamma 90.000000
_cell_volume 1214.365179
_symmetry_space_group_name_H-M "C M"
_symmetry_group_IT_number 8
_symmetry_cell_setting 'monoclinic'
loop_
_space_group_symop_operation_xyz
x,y,z
x,-y,z
1/2+x,1/2+y,z
1/2+x,1/2-y,z
loop_
_atom_site_type_symbol
_atom_site_label
_atom_site_fract_x
_atom_site_fract_y
_atom_site_fract_z
Si Si1 0.351190 0.337321 0.455670
Si Si2 0.479284 0.405169 0.013802
Si Si3 0.085871 0.770474 0.111510
Si Si4 0.114214 0.398527 0.862570
Si Si5 0.152391 0.500000 0.792367
Si Si6 0.436717 0.820840 0.201542
Si Si7 0.367210 0.500000 0.201363
Si Si8 0.171189 0.166406 0.688307
O O1 0.390560 0.370056 0.229759
O O2 0.398477 0.286469 0.338224
O O3 0.166598 0.359347 0.656745
O O4 0.524555 0.343165 0.553245
O O5 0.493173 0.454290 0.120335
O O6 0.320524 0.408228 0.889239
O O7 0.666912 0.379634 0.838345
O O8 0.267794 0.796681 0.135504
O O9 0.105815 0.715948 0.099756
O O10 0.084399 0.791542 0.865620
O O11 0.050420 0.449832 0.822888
O O12 0.982828 0.371349 0.095623
O O13 0.273151 0.500000 0.496160
O O14 0.237917 0.500000 0.020275
O O15 0.369903 0.822209 0.485582
#
# Coordination Sequence:
#
# PCOD9131752 Si02
#       8
#     4   4   4   4   2   4   2   4
#     4   9  18  36  60  85 119 159 207 264 313 386
#     4   9  18  35  63  91 123 164 209 265 323 383
#     4  10  24  39  59  86 125 167 214 258 326 391
#     4  10  21  36  62  92 128 166 216 270 326 385
#     4  10  20  38  61 101 135 171 226 274 333 397
#     4  11  25  39  60  90 127 169 215 266 329 392
#     4  10  18  34  63 103 129 169 220 278 323 395
#     4   9  21  40  55  83 123 161 210 259 320 390
#
# _framework density 23.057316
#
# number of rings (size 3 to 8) (size 9 to 14) (size 15 to 20)
#    0.000    2.286    1.429    0.000    8.000    2.286 
#    0.000    0.714    0.000    9.429    0.000    0.000 
#    0.000    0.000    0.000    0.000    0.000    0.000 
#
# Total GULP energy -77956.998614 kJ/mol
# GULP energy per Si atom -5568.357044 kJ/mol
# Density = 2.300484 g / cm^3
# Si number density = 23.057316 Si / 1000 Ang^3
#
#
#
# Elastic Constant Matrix: (Units=GPa)
#
#
# Indices 1 2 3 4 5 6 
#
# 1 38.0137 6.8227 -13.9313 0.0000 9.4941 0.0000
# 2 6.8227 166.2272 48.6887 0.0000 -18.4690 0.0000
# 3 -13.9313 48.6887 105.3957 0.0000 -15.1146 0.0000
# 4 0.0000 0.0000 0.0000 32.9976 0.0000 -3.2585
# 5 9.4941 -18.4690 -15.1146 0.0000 22.4366 0.0000
# 6 0.0000 0.0000 0.0000 -3.2585 0.0000 19.8639
#
#
#
# Elastic Compliance Matrix: (Units=1/GPa)
#
#
# Indices 1 2 3 4 5 6 
#
# 1 0.032086 -0.004093 0.004098 0.000000 -0.014186 0.000000
# 2 -0.004093 0.007809 -0.003297 0.000000 0.005940 0.000000
# 3 0.004098 -0.003297 0.012082 0.000000 0.003691 0.000000
# 4 0.000000 0.000000 0.000000 0.030804 0.000000 0.005053
# 5 -0.014186 0.005940 0.003691 0.000000 0.057949 0.000000
# 6 0.000000 0.000000 0.000000 0.005053 0.000000 0.051171
#
#
# Mechanical properties :
#
#
# Convention : Reuss Voigt Hill
#
# Bulk Modulus (GPa) = 22.03025 43.64408 32.83716
# Shear Modulus (GPa) = 23.40628 32.93005 28.16817
#
# Velocity S-wave (km/s) = 3.18957 3.78323 3.49902
# Velocity P-wave (km/s) = 4.81039 6.16874 5.53142
#
# Compressibility (1/GPa) = 0.04539214
#
# Stress axis : x y z
#
# Youngs Moduli (GPa) = 31.16645 128.04932 82.76690
#
# Poissons Ratio (x) = 0.52415 -0.33915
# Poissons Ratio (y) = 0.12757 0.27288
# Poissons Ratio (z) = -0.12771 0.42217
#
# Static dielectric constant tensor:
#      x y z
#    x 1.955260 0.000000 0.021530 
#    y 0.000000 1.867940 0.000000 
#    z 0.021530 0.000000 1.924440 
# 
# From -- ./inp_files/1852.got.cif
#   From: 2010.05.17/outbox.cif.g08.bks.cpg/sg8_1_cif.got.tgz:1852.got - 2010.06.03 19:46:02.
