data_PCOD9131644
_publ_section_title
;
Structure prediction by ZEFSAII (Michael W. Deem and Ramdas Pophale) SiO2 
 PCOD9131644
Probable space group: C M
;
_chemical_formula_sum "Si O2"
_cell_formula_units_Z 24
_cell_length_a 18.164010
_cell_length_b 8.261158
_cell_length_c 15.450603
_cell_angle_alpha 90.000000
_cell_angle_beta 25.829957
_cell_angle_gamma 90.000000
_cell_volume 1010.153606
_symmetry_space_group_name_H-M "C M"
_symmetry_group_IT_number 8
_symmetry_cell_setting 'monoclinic'
loop_
_space_group_symop_operation_xyz
x,y,z
x,-y,z
1/2+x,1/2+y,z
1/2+x,1/2-y,z
loop_
_atom_site_type_symbol
_atom_site_label
_atom_site_fract_x
_atom_site_fract_y
_atom_site_fract_z
Si Si1 0.860610 0.825956 0.331200
Si Si2 0.458044 0.676403 0.024388
Si Si3 0.537654 0.500000 0.373273
Si Si4 0.478930 0.186422 0.705161
Si Si5 0.466055 0.000000 0.210696
Si Si6 0.204030 0.688420 0.132243
Si Si7 0.110976 0.000000 0.478882
Si Si8 0.156222 0.500000 0.836465
O O1 0.661209 0.818552 0.560454
O O2 0.958587 0.672548 0.263312
O O3 0.925792 0.000000 0.290223
O O4 0.885418 0.819360 0.199804
O O5 0.546711 0.500000 0.922497
O O6 0.572257 0.834245 0.891723
O O7 0.313122 0.678900 0.106230
O O8 0.572629 0.331369 0.289741
O O9 0.660783 0.500000 0.326815
O O10 0.349976 0.500000 0.608492
O O11 0.508417 0.334638 0.607288
O O12 0.450890 0.000000 0.702980
O O13 0.331871 0.243775 0.923982
O O14 0.280734 0.000000 0.357552
O O15 0.613283 0.000000 0.984331
O O16 0.158370 0.500000 0.163388
#
# Coordination Sequence:
#
# PCOD9131644 Si02
#       8
#     4   4   2   4   2   4   2   2
#     4   8  14  25  45  74 100 129 164 217 278 321
#     4   9  18  34  57  82 112 140 188 245 288 330
#     4  12  24  36  56  86 119 159 197 230 281 347
#     4  10  18  31  54  85 113 144 179 237 299 338
#     4   8  14  28  50  72 100 129 173 226 269 311
#     4  11  21  35  57  89 118 146 191 245 292 338
#     4  10  20  36  58  86 111 144 190 246 291 338
#     4  10  20  34  54  80 114 156 188 228 281 340
#
# _framework density 23.758762999999998
#
# number of rings (size 3 to 8) (size 9 to 14) (size 15 to 20)
#    0.000    2.333    1.667    3.500    0.000    2.667 
#    0.000    0.000    0.000    6.000    0.000    0.000 
#    0.000    0.000    0.000    0.000    0.000    0.000 
#
# Total GULP energy -67051.347291 kJ/mol
# GULP energy per Si atom -5587.612274 kJ/mol
# Density = 2.370469 g / cm^3
# Si number density = 23.758763 Si / 1000 Ang^3
#
#
#
# Elastic Constant Matrix: (Units=GPa)
#
#
# Indices 1 2 3 4 5 6 
#
# 1 50.0566 44.1748 8.2297 0.0000 7.0617 0.0000
# 2 44.1748 308.3713 76.8618 0.0000 -1.4290 0.0000
# 3 8.2297 76.8618 113.5700 0.0000 -8.6721 0.0000
# 4 0.0000 0.0000 0.0000 28.8697 0.0000 -1.7661
# 5 7.0617 -1.4290 -8.6721 0.0000 15.2735 0.0000
# 6 0.0000 0.0000 0.0000 -1.7661 0.0000 40.4596
#
#
#
# Elastic Compliance Matrix: (Units=1/GPa)
#
#
# Indices 1 2 3 4 5 6 
#
# 1 0.024842 -0.003533 -0.000325 0.000000 -0.012001 0.000000
# 2 -0.003533 0.004424 -0.002699 0.000000 0.000515 0.000000
# 3 -0.000325 -0.002699 0.011130 0.000000 0.006217 0.000000
# 4 0.000000 0.000000 0.000000 0.034731 0.000000 0.001516
# 5 -0.012001 0.000515 0.006217 0.000000 0.074600 0.000000
# 6 0.000000 0.000000 0.000000 0.001516 0.000000 0.024782
#
#
# Mechanical properties :
#
#
# Convention : Reuss Voigt Hill
#
# Bulk Modulus (GPa) = 36.65507 81.17007 58.91257
# Shear Modulus (GPa) = 25.41720 39.76934 32.59327
#
# Velocity S-wave (km/s) = 3.27433 4.09575 3.70786
# Velocity P-wave (km/s) = 5.45495 7.52365 6.57122
#
# Compressibility (1/GPa) = 0.02728135
#
# Stress axis : x y z
#
# Youngs Moduli (GPa) = 40.25460 226.03858 89.84809
#
# Poissons Ratio (x) = 0.79863 0.02923
# Poissons Ratio (y) = 0.14223 0.24247
# Poissons Ratio (z) = 0.01310 0.61001
#
# Static dielectric constant tensor:
#      x y z
#    x 1.956370 0.000000 -0.001380 
#    y 0.000000 1.972030 0.000000 
#    z -0.001380 0.000000 1.832560 
# 
# From -- ./inp_files/14270.got.cif
#   From: 2010.05.17/outbox.cif.g08.bks.cpg/sg8_8_cif.got.tgz:14270.got - 2010.06.03 19:46:02.
