data_PCOD9131651
_publ_section_title
;
Structure prediction by ZEFSAII (Michael W. Deem and Ramdas Pophale) SiO2 
 PCOD9131651
Probable space group: C M
;
_chemical_formula_sum "Si O2"
_cell_formula_units_Z 32
_cell_length_a 14.506439
_cell_length_b 19.190538
_cell_length_c 14.668018
_cell_angle_alpha 90.000000
_cell_angle_beta 159.363716
_cell_angle_gamma 90.000000
_cell_volume 1439.122107
_symmetry_space_group_name_H-M "C M"
_symmetry_group_IT_number 8
_symmetry_cell_setting 'monoclinic'
loop_
_space_group_symop_operation_xyz
x,y,z
x,-y,z
1/2+x,1/2+y,z
1/2+x,1/2-y,z
loop_
_atom_site_type_symbol
_atom_site_label
_atom_site_fract_x
_atom_site_fract_y
_atom_site_fract_z
Si Si1 0.239500 0.192109 0.992880
Si Si2 0.811910 0.572059 0.914164
Si Si3 0.627715 0.922047 0.855224
Si Si4 0.795237 0.752917 0.457305
Si Si5 0.049915 0.916257 0.973014
Si Si6 0.861039 0.880248 0.375958
Si Si7 0.979374 0.385255 0.520563
Si Si8 0.073534 0.085381 0.389720
O O1 0.278778 0.134355 0.951691
O O2 0.172169 0.143222 0.017933
O O3 0.000160 0.236382 0.729823
O O4 0.507295 0.236927 0.235657
O O5 0.768698 0.500000 0.925112
O O6 0.605774 0.579107 0.643423
O O7 0.099005 0.576105 0.140385
O O8 0.567614 0.925217 0.693320
O O9 0.370431 0.888539 0.660542
O O10 0.621764 0.000000 0.886917
O O11 0.914869 0.898395 0.149885
O O12 0.823945 0.814370 0.407710
O O13 0.879231 0.686799 0.473790
O O14 0.752094 0.889373 0.715950
O O15 0.039952 0.000000 0.936569
O O16 0.241457 0.913258 0.238700
O O17 0.923242 0.872263 0.328121
O O18 0.073863 0.000000 0.404605
#
# Coordination Sequence:
#
# PCOD9131651 Si02
#       8
#     4   4   4   4   4   4   4   4
#     4  10  22  42  65  95 132 174 216 282 331 406
#     4  10  18  31  56  86 121 164 204 256 330 392
#     4  10  21  37  57  83 118 158 205 263 322 378
#     4  10  23  44  64  89 138 177 223 260 330 420
#     4  12  25  44  74 107 136 173 233 300 351 398
#     4  10  20  34  55  84 122 164 208 260 313 384
#     4  12  25  45  67  97 133 183 224 279 345 411
#     4  10  19  33  54  85 119 153 205 260 312 377
#
# _framework density 22.235779000000001
#
# number of rings (size 3 to 8) (size 9 to 14) (size 15 to 20)
#    0.000    1.500    0.000    5.625    0.000    2.000 
#    6.750    3.750    0.000    0.000    0.000    0.000 
#    0.000    0.000    0.000    0.000    0.000    0.000 
#
# Total GULP energy -89148.120515 kJ/mol
# GULP energy per Si atom -5571.757532 kJ/mol
# Density = 2.218517 g / cm^3
# Si number density = 22.235779 Si / 1000 Ang^3
#
#
#
# Elastic Constant Matrix: (Units=GPa)
#
#
# Indices 1 2 3 4 5 6 
#
# 1 79.5300 29.6928 21.9038 -0.0058 11.3278 0.0019
# 2 29.6928 130.5492 50.1683 0.0000 12.9875 -0.0005
# 3 21.9038 50.1683 159.2756 -0.0095 5.4395 0.0020
# 4 -0.0058 0.0000 -0.0095 -87.8285 -0.0032 27.2162
# 5 11.3278 12.9875 5.4395 -0.0032 46.8777 -0.0015
# 6 0.0019 -0.0005 0.0020 27.2162 -0.0015 -28.8091
#
#
#
# Elastic Compliance Matrix: (Units=1/GPa)
#
#
# Indices 1 2 3 4 5 6 
#
# 1 0.014192 -0.002564 -0.001055 -0.000001 -0.002597 0.000000
# 2 -0.002564 0.009390 -0.002547 0.000001 -0.001686 0.000000
# 3 -0.001055 -0.002547 0.007222 -0.000001 0.000123 0.000000
# 4 -0.000001 0.000001 -0.000001 -0.016099 -0.000001 -0.015208
# 5 -0.002597 -0.001686 0.000123 -0.000001 0.022412 -0.000003
# 6 0.000000 0.000000 0.000000 -0.015208 -0.000003 -0.049079
#
#
# Mechanical properties :
#
#
# Convention : Reuss Voigt Hill
#
# Bulk Modulus (GPa) = 54.14267 63.65385 58.89826
# Shear Modulus (GPa) = 765.90134 3.88733 384.89433
#
# Velocity S-wave (km/s) = 18.57938 1.32364 13.17090
# Velocity P-wave (km/s) = 22.01499 5.57000 16.05747
#
# Compressibility (1/GPa) = 0.01846972
#
# Stress axis : x y z
#
# Youngs Moduli (GPa) = 70.46405 106.49864 138.47072
#
# Poissons Ratio (x) = 0.27306 0.14614
# Poissons Ratio (y) = 0.18067 0.35274
# Poissons Ratio (z) = 0.07437 0.27129
#
# Static dielectric constant tensor:
#      x y z
#    x 1.828100 0.000000 0.007390 
#    y 0.000000 2.016150 0.000000 
#    z 0.007390 0.000000 1.828430 
# 
# From -- ./inp_files/27081.got.cif
#   From: 2010.05.17/outbox.cif.g08.bks.cpg/sg8_14_cif.got.tgz:27081.got - 2010.06.03 19:46:02.
