data_PCOD9131306
_publ_section_title
;
Structure prediction by ZEFSAII (Michael W. Deem and Ramdas Pophale) SiO2 
 PCOD9131306
Probable space group: P C
;
_chemical_formula_sum "Si O2"
_cell_formula_units_Z 14
_cell_length_a 6.950891
_cell_length_b 15.021404
_cell_length_c 5.277464
_cell_angle_alpha 90.000000
_cell_angle_beta 102.379650
_cell_angle_gamma 90.000000
_cell_volume 538.219007
_symmetry_space_group_name_H-M "P C"
_symmetry_group_IT_number 7
_symmetry_cell_setting 'monoclinic'
loop_
_space_group_symop_operation_xyz
x,y,z
x,-y,1/2+z
loop_
_atom_site_type_symbol
_atom_site_label
_atom_site_fract_x
_atom_site_fract_y
_atom_site_fract_z
Si Si1 0.036700 0.440943 0.074920
Si Si2 0.959032 0.956710 0.433290
Si Si3 0.692299 0.264207 0.382543
Si Si4 0.508516 0.552937 0.745926
Si Si5 0.029926 0.749847 0.341076
Si Si6 0.473162 0.213408 0.838070
Si Si7 0.406458 0.975242 0.073030
O O1 0.987801 0.492873 0.324187
O O2 0.274489 0.430317 0.164369
O O3 0.970790 0.339498 0.981491
O O4 0.978991 0.848962 0.437849
O O5 0.865054 0.003437 0.651455
O O6 0.179128 0.996986 0.476518
O O7 0.638214 0.360576 0.265787
O O8 0.914613 0.251707 0.539827
O O9 0.571758 0.255268 0.614995
O O10 0.613887 0.208796 0.121574
O O11 0.553736 0.491068 0.524201
O O12 0.264129 0.744421 0.357698
O O13 0.422823 0.115504 0.730568
O O14 0.484855 0.039836 0.314297
#
# Coordination Sequence:
#
# PCOD9131306 Si02
#       7
#     2   2   2   2   2   2   2
#     4  10  24  42  72 107 136 192 245 285 367 434
#     4  10  22  40  71 105 135 191 239 283 372 419
#     4  12  29  45  71 116 134 196 251 282 376 438
#     4  10  21  42  69  97 144 183 233 308 354 420
#     4  12  27  49  80 102 156 192 236 314 360 430
#     4  12  26  47  73 102 150 187 239 303 354 435
#     4  10  19  39  70  97 133 191 235 279 367 412
#
# _framework density 26.011714999999999
#
# number of rings (size 3 to 8) (size 9 to 14) (size 15 to 20)
#    0.000    1.143    4.286    1.714    6.000    5.714 
#    0.000    4.286    0.000    0.000    0.000    0.000 
#    0.000    0.000    0.000    0.000    0.000    0.000 
#
# Total GULP energy -78326.397937 kJ/mol
# GULP energy per Si atom -5594.742710 kJ/mol
# Density = 2.595251 g / cm^3
# Si number density = 26.011715 Si / 1000 Ang^3
#
#
#
# Elastic Constant Matrix: (Units=GPa)
#
#
# Indices 1 2 3 4 5 6 
#
# 1 132.7567 63.3286 109.1855 0.0000 2.2185 0.0000
# 2 63.3286 285.0703 175.0999 0.0000 -25.1580 0.0000
# 3 109.1855 175.0999 344.5607 0.0000 -27.2765 0.0000
# 4 0.0000 0.0000 0.0000 67.1207 0.0000 14.9068
# 5 2.2185 -25.1580 -27.2765 0.0000 66.9833 0.0000
# 6 0.0000 0.0000 0.0000 14.9068 0.0000 28.5459
#
#
#
# Elastic Compliance Matrix: (Units=1/GPa)
#
#
# Indices 1 2 3 4 5 6 
#
# 1 0.010433 -0.000523 -0.003186 0.000000 -0.001839 0.000000
# 2 -0.000523 0.005178 -0.002387 0.000000 0.000990 0.000000
# 3 -0.003186 -0.002387 0.005231 0.000000 0.001339 0.000000
# 4 0.000000 0.000000 0.000000 0.016853 0.000000 -0.008801
# 5 -0.001839 0.000990 0.001339 0.000000 0.015907 0.000000
# 6 0.000000 0.000000 0.000000 -0.008801 0.000000 0.039627
#
#
# Mechanical properties :
#
#
# Convention : Reuss Voigt Hill
#
# Bulk Modulus (GPa) = 115.61391 161.95729 138.78560
# Shear Modulus (GPa) = 46.16631 60.18158 53.17394
#
# Velocity S-wave (km/s) = 4.21744 4.81524 4.52622
# Velocity P-wave (km/s) = 8.26191 9.65991 8.98813
#
# Compressibility (1/GPa) = 0.00864948
#
# Stress axis : x y z
#
# Youngs Moduli (GPa) = 95.84932 193.13522 191.17426
#
# Poissons Ratio (x) = 0.10105 0.60904
# Poissons Ratio (y) = 0.05015 0.45634
# Poissons Ratio (z) = 0.30535 0.46103
#
# Static dielectric constant tensor:
#      x y z
#    x 2.002180 0.000000 -0.053070 
#    y 0.000000 2.028960 0.000000 
#    z -0.053070 0.000000 2.127710 
# 
# From -- ./inp_files/779.got.cif
#   From: 2010.05.17/outbox.cif.g08.bks.cpg/sg7_cif.got.tgz:779.got - 2010.06.03 19:44:50.
