data_PCOD9131338
_publ_section_title
;
Structure prediction by ZEFSAII (Michael W. Deem and Ramdas Pophale) SiO2 
 PCOD9131338
Probable space group: P C
;
_chemical_formula_sum "Si O2"
_cell_formula_units_Z 16
_cell_length_a 7.991162
_cell_length_b 19.422240
_cell_length_c 5.289071
_cell_angle_alpha 90.000000
_cell_angle_beta 120.924130
_cell_angle_gamma 90.000000
_cell_volume 704.205271
_symmetry_space_group_name_H-M "P C"
_symmetry_group_IT_number 7
_symmetry_cell_setting 'monoclinic'
loop_
_space_group_symop_operation_xyz
x,y,z
x,-y,1/2+z
loop_
_atom_site_type_symbol
_atom_site_label
_atom_site_fract_x
_atom_site_fract_y
_atom_site_fract_z
Si Si1 0.948150 0.672202 0.353940
Si Si2 0.737841 0.534615 0.099280
Si Si3 0.213422 0.328733 0.560796
Si Si4 0.304739 0.477644 0.728638
Si Si5 0.817733 0.968570 0.404860
Si Si6 0.964253 0.178897 0.947699
Si Si7 0.219751 0.180080 0.645696
Si Si8 0.360164 0.032474 0.613121
O O1 0.797262 0.609935 0.236037
O O2 0.858580 0.748301 0.321423
O O3 0.106057 0.665078 0.705399
O O4 0.054792 0.671314 0.164659
O O5 0.805112 0.481473 0.367619
O O6 0.504033 0.521451 0.906056
O O7 0.337529 0.397219 0.707155
O O8 0.317847 0.254777 0.674530
O O9 0.196896 0.510288 0.407349
O O10 0.843443 0.890710 0.333352
O O11 0.898751 0.981956 0.748343
O O12 0.588845 0.983332 0.259586
O O13 0.130424 0.177015 0.858123
O O14 0.053365 0.179937 0.298849
O O15 0.338844 0.111039 0.684497
O O16 0.278635 0.983297 0.771059
#
# Coordination Sequence:
#
# PCOD9131338 Si02
#       8
#     2   2   2   2   2   2   2   2
#     4  10  21  37  58  83 114 150 187 234 287 339
#     4  10  21  37  56  81 114 143 185 239 275 340
#     4  10  21  37  58  83 114 150 187 234 287 339
#     4  10  21  37  56  81 114 143 185 239 275 340
#     4  10  21  37  57  83 118 152 191 233 280 334
#     4  10  21  37  58  85 116 148 192 236 282 338
#     4  10  21  37  58  85 116 148 192 236 282 338
#     4  10  21  37  57  83 118 152 191 233 280 334
#
# _framework density 22.720649000000002
#
# number of rings (size 3 to 8) (size 9 to 14) (size 15 to 20)
#    0.000    2.000    0.000    3.000    0.000    6.000 
#    4.500    0.000   11.000    0.000    0.000    0.000 
#    0.000    0.000    0.000    0.000    0.000    0.000 
#
# Total GULP energy -89347.269272 kJ/mol
# GULP energy per Si atom -5584.204330 kJ/mol
# Density = 2.266894 g / cm^3
# Si number density = 22.720649 Si / 1000 Ang^3
#
#
#
# Elastic Constant Matrix: (Units=GPa)
#
#
# Indices 1 2 3 4 5 6 
#
# 1 55.5959 37.0808 23.9699 0.0000 -11.9001 0.0000
# 2 37.0808 153.6722 3.8098 0.0000 -26.6657 0.0000
# 3 23.9699 3.8098 76.9462 0.0000 -30.2456 0.0000
# 4 0.0000 0.0000 0.0000 30.1759 0.0000 -8.4581
# 5 -11.9001 -26.6657 -30.2456 0.0000 29.8266 0.0000
# 6 0.0000 0.0000 0.0000 -8.4581 0.0000 26.5501
#
#
#
# Elastic Compliance Matrix: (Units=1/GPa)
#
#
# Indices 1 2 3 4 5 6 
#
# 1 0.025711 -0.007053 -0.010154 0.000000 -0.006344 0.000000
# 2 -0.007053 0.010397 0.007034 0.000000 0.013614 0.000000
# 3 -0.010154 0.007034 0.027752 0.000000 0.030379 0.000000
# 4 0.000000 0.000000 0.000000 0.036388 0.000000 0.011592
# 5 -0.006344 0.013614 0.030379 0.000000 0.073973 0.000000
# 6 0.000000 0.000000 0.000000 0.011592 0.000000 0.041358
#
#
# Mechanical properties :
#
#
# Convention : Reuss Voigt Hill
#
# Bulk Modulus (GPa) = 22.98138 46.21500 34.59819
# Shear Modulus (GPa) = 19.96566 32.06743 26.01654
#
# Velocity S-wave (km/s) = 2.96758 3.76091 3.38755
# Velocity P-wave (km/s) = 4.67747 6.26450 5.52823
#
# Compressibility (1/GPa) = 0.04351349
#
# Stress axis : x y z
#
# Youngs Moduli (GPa) = 38.89385 96.18009 36.03332
#
# Poissons Ratio (x) = 0.67837 0.36587
# Poissons Ratio (y) = 0.27432 -0.25344
# Poissons Ratio (z) = 0.39492 -0.67648
#
# Static dielectric constant tensor:
#      x y z
#    x 1.871920 0.000000 -0.030230 
#    y 0.000000 1.853400 0.000000 
#    z -0.030230 0.000000 1.898130 
# 
# From -- ./inp_files/652.got.cif
#   From: 2010.05.17/outbox.cif.g08.bks.cpg/sg7_cif.got.tgz:652.got - 2010.06.03 19:44:50.
