data_PCOD9131099
_publ_section_title
;
Structure prediction by ZEFSAII (Michael W. Deem and Ramdas Pophale) SiO2 
 PCOD9131099
Probable space group: P M
;
_chemical_formula_sum "Si O2"
_cell_formula_units_Z 11
_cell_length_a 4.859590
_cell_length_b 15.486216
_cell_length_c 5.408941
_cell_angle_alpha 90.000000
_cell_angle_beta 95.102847
_cell_angle_gamma 90.000000
_cell_volume 405.445518
_symmetry_space_group_name_H-M "P M"
_symmetry_group_IT_number 6
_symmetry_cell_setting 'monoclinic'
loop_
_space_group_symop_operation_xyz
x,y,z
x,-y,z
loop_
_atom_site_type_symbol
_atom_site_label
_atom_site_fract_x
_atom_site_fract_y
_atom_site_fract_z
Si Si1 0.974280 0.367964 0.712380
Si Si2 0.637719 0.000000 0.016478
Si Si3 0.092391 0.000000 0.692537
Si Si4 0.327662 0.500000 0.419096
Si Si5 0.096825 0.186767 0.574429
Si Si6 0.535587 0.632682 0.058143
Si Si7 0.445392 0.184755 0.109719
O O1 0.714933 0.403840 0.845006
O O2 0.118163 0.425357 0.516007
O O3 0.913646 0.270923 0.613835
O O4 0.220653 0.365038 0.936242
O O5 0.575800 0.090394 0.141277
O O6 0.951500 0.000000 0.950767
O O7 0.422490 0.000000 0.763511
O O8 0.990744 0.911481 0.562645
O O9 0.519723 0.574785 0.297347
O O10 0.257001 0.200000 0.332841
O O11 0.289803 0.183959 0.834225
O O12 0.635033 0.730454 0.108053
#
# Coordination Sequence:
#
# PCOD9131099 Si02
#       7
#     2   1   1   1   2   2   2
#     4  11  25  44  66  98 134 174 225 281 340 406
#     4  10  21  40  66  98 134 178 224 275 335 405
#     4  10  21  40  66  98 134 178 224 275 335 405
#     4  12  24  46  68  98 128 178 228 278 350 396
#     4  10  21  43  66 100 135 179 224 279 338 405
#     4  11  25  44  66  98 134 174 225 281 340 406
#     4  10  21  43  66 100 135 179 224 279 338 405
#
# _framework density 27.130645999999999
#
# number of rings (size 3 to 8) (size 9 to 14) (size 15 to 20)
#    0.000    1.455    1.818    2.727    0.000    2.909 
#    0.000   25.455    0.000    0.000    0.000    0.000 
#    0.000    0.000    0.000    0.000    0.000    0.000 
#
# Total GULP energy -61358.724508 kJ/mol
# GULP energy per Si atom -5578.065864 kJ/mol
# Density = 2.706890 g / cm^3
# Si number density = 27.130646 Si / 1000 Ang^3
#
#
#
# Elastic Constant Matrix: (Units=GPa)
#
#
# Indices 1 2 3 4 5 6 
#
# 1 66.8582 0.1242 37.2864 0.0000 12.6419 0.0000
# 2 0.1242 263.0117 43.8259 0.0000 -32.0210 0.0000
# 3 37.2864 43.8259 176.9551 0.0000 -31.5011 0.0000
# 4 0.0000 0.0000 0.0000 46.4356 0.0000 -37.8533
# 5 12.6419 -32.0210 -31.5011 0.0000 71.3626 0.0000
# 6 0.0000 0.0000 0.0000 -37.8533 0.0000 -6.7685
#
#
#
# Elastic Compliance Matrix: (Units=1/GPa)
#
#
# Indices 1 2 3 4 5 6 
#
# 1 0.018750 0.000155 -0.004958 0.000000 -0.005441 0.000000
# 2 0.000155 0.004112 -0.000790 0.000000 0.001469 0.000000
# 3 -0.004958 -0.000790 0.007580 0.000000 0.003870 0.000000
# 4 0.000000 0.000000 0.000000 0.003874 0.000000 -0.021665
# 5 -0.005441 0.001469 0.003870 0.000000 0.017344 0.000000
# 6 0.000000 0.000000 0.000000 -0.021665 0.000000 -0.026578
#
#
# Mechanical properties :
#
#
# Convention : Reuss Voigt Hill
#
# Bulk Modulus (GPa) = 51.92594 74.36642 63.14618
# Shear Modulus (GPa) = 117.12762 50.57851 83.85306
#
# Velocity S-wave (km/s) = 6.57765 4.32239 5.56545
# Velocity P-wave (km/s) = 8.76744 7.23745 8.03893
#
# Compressibility (1/GPa) = 0.01925820
#
# Stress axis : x y z
#
# Youngs Moduli (GPa) = 53.33215 243.16121 131.92054
#
# Poissons Ratio (x) = -0.03766 0.65404
# Poissons Ratio (y) = -0.00826 0.10416
# Poissons Ratio (z) = 0.26441 0.19200
#
# Static dielectric constant tensor:
#      x y z
#    x 2.121110 0.000000 0.136360 
#    y 0.000000 2.129550 0.000000 
#    z 0.136360 0.000000 2.175060 
# 
# From -- ./inp_files/318.got.cif
#   From: 2010.05.17/outbox.cif.g08.bks.cpg/sg6_1_cif.got.tgz:318.got - 2010.06.03 19:42:10.
