data_PCOD9131832
_publ_section_title
;
Structure prediction by ZEFSAII (Michael W. Deem and Ramdas Pophale) SiO2 
 PCOD9131832
Probable space group: C M
;
_chemical_formula_sum "Si O2"
_cell_formula_units_Z 32
_cell_length_a 16.126539
_cell_length_b 7.444741
_cell_length_c 12.654777
_cell_angle_alpha 90.000000
_cell_angle_beta 50.106655
_cell_angle_gamma 90.000000
_cell_volume 1165.671829
_symmetry_space_group_name_H-M "C M"
_symmetry_group_IT_number 8
_symmetry_cell_setting 'monoclinic'
loop_
_space_group_symop_operation_xyz
x,y,z
x,-y,z
1/2+x,1/2+y,z
1/2+x,1/2-y,z
loop_
_atom_site_type_symbol
_atom_site_label
_atom_site_fract_x
_atom_site_fract_y
_atom_site_fract_z
Si Si1 0.717630 0.717770 0.696500
Si Si2 0.762078 0.792105 0.199589
Si Si3 0.249122 0.215868 0.443865
Si Si4 0.052510 0.791231 0.124881
Si Si5 0.485200 0.719790 0.949478
Si Si6 0.015636 0.205655 0.377140
Si Si7 0.499804 0.720765 0.618762
Si Si8 0.286983 0.704865 0.876900
O O1 0.721654 0.500000 0.700327
O O2 0.778559 0.772794 0.539158
O O3 0.758809 0.791626 0.774032
O O4 0.589590 0.766960 0.794907
O O5 0.798533 0.782683 0.293542
O O6 0.646757 0.698989 0.284922
O O7 0.860057 0.724144 0.046391
O O8 0.741776 0.000000 0.192263
O O9 0.122708 0.269956 0.539442
O O10 0.255072 0.000000 0.435888
O O11 0.019615 0.716229 0.038921
O O12 0.003040 0.709008 0.271738
O O13 0.022489 0.000000 0.149238
O O14 0.183252 0.785679 0.018442
O O15 0.481932 0.500000 0.950155
O O16 0.974895 0.287287 0.519935
O O17 0.979672 0.000000 0.403337
O O18 0.496522 0.500000 0.621844
O O19 0.408159 0.781683 0.775163
O O20 0.293563 0.500000 0.907539
#
# Coordination Sequence:
#
# PCOD9131832 Si02
#       8
#     4   4   4   4   4   4   4   4
#     4   9  18  34  53  70  93 128 165 196 230 281
#     4  10  19  31  50  75 100 123 153 200 246 280
#     4   9  18  34  53  70  93 128 165 196 230 281
#     4   9  18  34  53  70  93 128 165 196 230 281
#     4   8  16  31  50  71  94 125 163 196 230 278
#     4   9  18  34  53  70  93 128 165 196 230 281
#     4   8  16  31  50  71  94 125 163 196 230 278
#     4  10  19  31  50  75 100 123 153 200 246 280
#
# _framework density 27.451982000000001
#
# number of rings (size 3 to 8) (size 9 to 14) (size 15 to 20)
#    0.000    3.000    0.000    2.250    0.000    3.000 
#    0.000   15.000    0.000    0.000    0.000    0.000 
#    0.000    0.000    0.000    0.000    0.000    0.000 
#
# Total GULP energy -89475.117882 kJ/mol
# GULP energy per Si atom -5592.194868 kJ/mol
# Density = 2.738950 g / cm^3
# Si number density = 27.451982 Si / 1000 Ang^3
#
#
#
# Elastic Constant Matrix: (Units=GPa)
#
#
# Indices 1 2 3 4 5 6 
#
# 1 71.1431 5.6591 14.3789 0.0000 2.0990 0.0000
# 2 5.6591 103.2719 9.3879 0.0000 -1.7800 0.0000
# 3 14.3789 9.3879 196.9574 0.0000 7.0510 0.0000
# 4 0.0000 0.0000 0.0000 16.4104 0.0000 -9.2649
# 5 2.0990 -1.7800 7.0510 0.0000 67.2168 0.0000
# 6 0.0000 0.0000 0.0000 -9.2649 0.0000 14.7423
#
#
#
# Elastic Compliance Matrix: (Units=1/GPa)
#
#
# Indices 1 2 3 4 5 6 
#
# 1 0.014325 -0.000700 -0.000999 0.000000 -0.000361 0.000000
# 2 -0.000700 0.009766 -0.000426 0.000000 0.000325 0.000000
# 3 -0.000999 -0.000426 0.005189 0.000000 -0.000524 0.000000
# 4 0.000000 0.000000 0.000000 0.094449 0.000000 0.059357
# 5 -0.000361 0.000325 -0.000524 0.000000 0.014952 0.000000
# 6 0.000000 0.000000 0.000000 0.059357 0.000000 0.105136
#
#
# Mechanical properties :
#
#
# Convention : Reuss Voigt Hill
#
# Bulk Modulus (GPa) = 39.95503 47.80269 43.87886
# Shear Modulus (GPa) = 19.49995 42.47032 30.98514
#
# Velocity S-wave (km/s) = 2.66809 3.93756 3.36326
# Velocity P-wave (km/s) = 4.90691 6.17442 5.57679
#
# Compressibility (1/GPa) = 0.02502814
#
# Stress axis : x y z
#
# Youngs Moduli (GPa) = 69.81029 102.39727 192.70481
#
# Poissons Ratio (x) = 0.07171 0.19260
# Poissons Ratio (y) = 0.04889 0.08209
# Poissons Ratio (z) = 0.06977 0.04362
#
# Static dielectric constant tensor:
#      x y z
#    x 2.278310 0.000000 0.014780 
#    y 0.000000 2.016810 0.000000 
#    z 0.014780 0.000000 2.112950 
# 
# From -- ./inp_files/17855.got.cif
#   From: 2010.05.17/outbox.cif.g08.bks.cpg/sg8_9_cif.got.tgz:17855.got - 2010.06.03 19:46:02.
