data_PCOD9131652
_publ_section_title
;
Structure prediction by ZEFSAII (Michael W. Deem and Ramdas Pophale) SiO2 
 PCOD9131652
Probable space group: C M
;
_chemical_formula_sum "Si O2"
_cell_formula_units_Z 26
_cell_length_a 14.565751
_cell_length_b 7.649824
_cell_length_c 20.854737
_cell_angle_alpha 90.000000
_cell_angle_beta 24.804052
_cell_angle_gamma 90.000000
_cell_volume 974.850146
_symmetry_space_group_name_H-M "C M"
_symmetry_group_IT_number 8
_symmetry_cell_setting 'monoclinic'
loop_
_space_group_symop_operation_xyz
x,y,z
x,-y,z
1/2+x,1/2+y,z
1/2+x,1/2-y,z
loop_
_atom_site_type_symbol
_atom_site_label
_atom_site_fract_x
_atom_site_fract_y
_atom_site_fract_z
Si Si1 0.325460 0.303610 0.036190
Si Si2 0.290011 0.799655 0.875272
Si Si3 0.965383 0.805986 0.355588
Si Si4 0.937267 0.696562 0.181975
Si Si5 0.303025 0.695707 0.727077
Si Si6 0.743807 0.000000 0.379887
Si Si7 0.755520 0.215678 0.620286
O O1 0.410098 0.500000 0.976632
O O2 0.171608 0.292116 0.195880
O O3 0.149141 0.265362 0.092884
O O4 0.537748 0.185893 0.897032
O O5 0.061969 0.706151 0.034846
O O6 0.353786 0.793886 0.760122
O O7 0.503003 0.726694 0.775866
O O8 0.257674 0.000000 0.914715
O O9 0.862763 0.732102 0.485218
O O10 0.050051 0.000000 0.319353
O O11 0.794032 0.848410 0.406401
O O12 0.858402 0.500000 0.244812
O O13 0.771740 0.846018 0.306578
O O14 0.395792 0.500000 0.671266
O O15 0.352225 0.781026 0.626708
O O16 0.755648 0.000000 0.622929
#
# Coordination Sequence:
#
# PCOD9131652 Si02
#       7
#     4   4   4   4   4   2   4
#     4  10  19  33  56  86 115 148 193 247 299 355
#     4  11  21  36  58  87 125 156 202 251 304 360
#     4   8  16  32  57  82 108 153 204 232 301 365
#     4  10  18  31  56  88 119 154 195 246 300 353
#     4  11  22  36  59  87 117 154 201 250 303 356
#     4   8  16  30  56  88 114 154 196 246 298 358
#     4   9  19  36  61  82 112 162 202 244 301 368
#
# _framework density 26.670763999999998
#
# number of rings (size 3 to 8) (size 9 to 14) (size 15 to 20)
#    0.462    1.846    2.308    1.385    1.077    0.000 
#    0.000    3.077    6.769    0.000    0.000    0.000 
#    0.000    0.000    0.000    0.000    0.000    0.000 
#
# Total GULP energy -72429.310799 kJ/mol
# GULP energy per Si atom -5571.485446 kJ/mol
# Density = 2.661006 g / cm^3
# Si number density = 26.670764 Si / 1000 Ang^3
#
#
#
# Elastic Constant Matrix: (Units=GPa)
#
#
# Indices 1 2 3 4 5 6 
#
# 1 121.5436 -12.9715 35.6860 -0.0009 12.1896 0.0006
# 2 -12.9715 97.2487 11.7050 -0.0014 8.4476 -0.0004
# 3 35.6860 11.7050 133.8141 -0.0014 40.3533 0.0007
# 4 -0.0009 -0.0014 -0.0014 -3.4300 0.0012 28.3931
# 5 12.1896 8.4476 40.3533 0.0012 50.7709 -0.0012
# 6 0.0006 -0.0004 0.0007 28.3931 -0.0012 6.9985
#
#
#
# Elastic Compliance Matrix: (Units=1/GPa)
#
#
# Indices 1 2 3 4 5 6 
#
# 1 0.009157 0.001559 -0.002416 0.000000 -0.000537 0.000000
# 2 0.001559 0.010726 -0.000924 0.000000 -0.001424 0.000001
# 3 -0.002416 -0.000924 0.010492 -0.000001 -0.007605 0.000001
# 4 0.000000 0.000000 -0.000001 -0.008430 0.000002 0.034201
# 5 -0.000537 -0.001424 -0.007605 0.000002 0.026107 -0.000001
# 6 0.000000 0.000001 0.000001 0.034201 -0.000001 0.004132
#
#
# Mechanical properties :
#
#
# Convention : Reuss Voigt Hill
#
# Bulk Modulus (GPa) = 37.29826 46.82727 42.06277
# Shear Modulus (GPa) = 77.29893 32.08034 54.68964
#
# Velocity S-wave (km/s) = 5.38939 3.47194 4.53321
# Velocity P-wave (km/s) = 7.26240 5.80243 6.57308
#
# Compressibility (1/GPa) = 0.02681090
#
# Stress axis : x y z
#
# Youngs Moduli (GPa) = 109.20324 93.23286 95.31341
#
# Poissons Ratio (x) = -0.14535 0.23031
# Poissons Ratio (y) = -0.17024 0.08812
# Poissons Ratio (z) = 0.26388 0.08619
#
# Static dielectric constant tensor:
#      x y z
#    x 2.169400 0.000000 0.019470 
#    y 0.000000 1.998380 0.000010 
#    z 0.019470 0.000010 2.161860 
# 
# From -- ./inp_files/30683.got.cif
#   From: 2010.05.17/outbox.cif.g08.bks.cpg/sg8_16_cif.got.tgz:30683.got - 2010.06.03 19:46:02.
