data_PCOD9131049
_publ_section_title
;
Structure prediction by ZEFSAII (Michael W. Deem and Ramdas Pophale) SiO2 
 PCOD9131049
Probable space group: P M
;
_chemical_formula_sum "Si O2"
_cell_formula_units_Z 14
_cell_length_a 5.548458
_cell_length_b 22.723194
_cell_length_c 6.953840
_cell_angle_alpha 90.000000
_cell_angle_beta 44.293500
_cell_angle_gamma 90.000000
_cell_volume 612.251158
_symmetry_space_group_name_H-M "P M"
_symmetry_group_IT_number 6
_symmetry_cell_setting 'monoclinic'
loop_
_space_group_symop_operation_xyz
x,y,z
x,-y,z
loop_
_atom_site_type_symbol
_atom_site_label
_atom_site_fract_x
_atom_site_fract_y
_atom_site_fract_z
Si Si1 0.201930 0.726479 0.300030
Si Si2 0.874140 0.666216 0.808874
Si Si3 0.808934 0.836636 0.657970
Si Si4 0.716923 0.932538 0.439376
Si Si5 0.837019 0.629457 0.270779
Si Si6 0.096311 0.134760 0.894794
Si Si7 0.511710 0.431159 0.779594
O O1 0.063153 0.791593 0.406726
O O2 0.923969 0.687410 0.343642
O O3 0.191565 0.698263 0.522544
O O4 0.554788 0.713040 0.986484
O O5 0.789518 0.607991 0.734932
O O6 0.855523 0.647981 0.039737
O O7 0.896133 0.835339 0.833670
O O8 0.410829 0.827792 0.812928
O O9 0.876516 0.902775 0.539764
O O10 0.839655 0.889625 0.200129
O O11 0.808870 0.000000 0.360344
O O12 0.310101 0.921563 0.695257
O O13 0.527109 0.595429 0.553648
O O14 0.158955 0.583827 0.092221
O O15 0.577483 0.500000 0.740792
#
# Coordination Sequence:
#
# PCOD9131049 Si02
#       7
#     2   2   2   2   2   2   2
#     4  10  23  37  63  86 123 153 204 251 310 368
#     4  10  22  39  59  88 117 160 198 251 310 368
#     4  10  26  43  66  99 128 172 215 269 319 389
#     4  10  24  44  67  95 130 171 214 268 323 388
#     4  10  21  39  58  87 117 159 198 249 307 365
#     4  10  25  41  64  95 129 163 218 258 325 376
#     4  10  21  37  57  86 119 152 202 250 298 370
#
# _framework density 22.866430999999999
#
# number of rings (size 3 to 8) (size 9 to 14) (size 15 to 20)
#    0.857    1.143    0.000    1.714    6.000    3.429 
#    0.000    0.000    0.000    0.000    0.000    0.000 
#    0.000    0.000    0.000    0.000    0.000    0.000 
#
# Total GULP energy -78075.948145 kJ/mol
# GULP energy per Si atom -5576.853439 kJ/mol
# Density = 2.281439 g / cm^3
# Si number density = 22.866431 Si / 1000 Ang^3
#
#
#
# Elastic Constant Matrix: (Units=GPa)
#
#
# Indices 1 2 3 4 5 6 
#
# 1 70.9094 21.1052 20.4359 0.0000 25.5514 0.0000
# 2 21.1052 94.8780 5.2489 0.0000 13.3926 0.0000
# 3 20.4359 5.2489 110.7888 0.0000 4.3749 0.0000
# 4 0.0000 0.0000 0.0000 30.9844 0.0000 -1.1050
# 5 25.5514 13.3926 4.3749 0.0000 44.4649 0.0000
# 6 0.0000 0.0000 0.0000 -1.1050 0.0000 14.3189
#
#
#
# Elastic Compliance Matrix: (Units=1/GPa)
#
#
# Indices 1 2 3 4 5 6 
#
# 1 0.019411 -0.002733 -0.003055 0.000000 -0.010030 0.000000
# 2 -0.002733 0.011410 0.000037 0.000000 -0.001870 0.000000
# 3 -0.003055 0.000037 0.009556 0.000000 0.000804 0.000000
# 4 0.000000 0.000000 0.000000 0.032363 0.000000 0.002497
# 5 -0.010030 -0.001870 0.000804 0.000000 0.028738 0.000000
# 6 0.000000 0.000000 0.000000 0.002497 0.000000 0.070030
#
#
# Mechanical properties :
#
#
# Convention : Reuss Voigt Hill
#
# Bulk Modulus (GPa) = 34.63135 41.12849 37.87992
# Shear Modulus (GPa) = 25.95596 33.27274 29.61435
#
# Velocity S-wave (km/s) = 3.37280 3.81870 3.60266
# Velocity P-wave (km/s) = 5.50869 6.12117 5.82299
#
# Compressibility (1/GPa) = 0.02887557
#
# Stress axis : x y z
#
# Youngs Moduli (GPa) = 51.51798 87.64523 104.64452
#
# Poissons Ratio (x) = 0.23953 0.31968
# Poissons Ratio (y) = 0.14080 -0.00391
# Poissons Ratio (z) = 0.15738 -0.00328
#
# Static dielectric constant tensor:
#      x y z
#    x 1.946550 0.000000 0.015910 
#    y 0.000000 1.830710 0.000000 
#    z 0.015910 0.000000 1.872830 
# 
# From -- ./inp_files/654.got.cif
#   From: 2010.05.17/outbox.cif.g08.bks.cpg/sg6_1_cif.got.tgz:654.got - 2010.06.03 19:42:10.
