data_PCOD9131684
_publ_section_title
;
Structure prediction by ZEFSAII (Michael W. Deem and Ramdas Pophale) SiO2 
 PCOD9131684
Probable space group: C M
;
_chemical_formula_sum "Si O2"
_cell_formula_units_Z 32
_cell_length_a 32.778095
_cell_length_b 7.550584
_cell_length_c 12.695726
_cell_angle_alpha 90.000000
_cell_angle_beta 27.165925
_cell_angle_gamma 90.000000
_cell_volume 1434.591031
_symmetry_space_group_name_H-M "C M"
_symmetry_group_IT_number 8
_symmetry_cell_setting 'monoclinic'
loop_
_space_group_symop_operation_xyz
x,y,z
x,-y,z
1/2+x,1/2+y,z
1/2+x,1/2-y,z
loop_
_atom_site_type_symbol
_atom_site_label
_atom_site_fract_x
_atom_site_fract_y
_atom_site_fract_z
Si Si1 0.291280 0.796779 0.451470
Si Si2 0.771160 0.289367 0.096194
Si Si3 0.520763 0.216713 0.186702
Si Si4 0.076937 0.712697 0.603912
Si Si5 0.881833 0.283017 0.038726
Si Si6 0.101784 0.284444 0.786610
Si Si7 0.207497 0.701919 0.857226
Si Si8 0.846774 0.704793 0.706595
O O1 0.196981 0.788273 0.606209
O O2 0.271470 0.706340 0.607610
O O3 0.315621 0.000000 0.420057
O O4 0.359883 0.723448 0.207884
O O5 0.786716 0.500000 0.061667
O O6 0.665180 0.264071 0.338923
O O7 0.811529 0.220014 0.113264
O O8 0.819911 0.215959 0.880869
O O9 0.431688 0.281131 0.448990
O O10 0.521083 0.000000 0.185936
O O11 0.531614 0.267120 0.038992
O O12 0.611592 0.273715 0.038558
O O13 0.075602 0.500000 0.610280
O O14 0.083327 0.774418 0.710583
O O15 0.981639 0.769521 0.777969
O O16 0.876809 0.500000 0.055098
O O17 0.107337 0.500000 0.774193
O O18 0.192604 0.500000 0.923867
O O19 0.260414 0.791834 0.829753
O O20 0.870692 0.500000 0.670817
#
# Coordination Sequence:
#
# PCOD9131684 Si02
#       8
#     4   4   4   4   4   4   4   4
#     4  10  18  32  57  82 112 148 183 222 272 329
#     4  10  21  39  56  79 114 146 186 233 274 320
#     4   8  17  34  55  79 108 144 181 221 270 325
#     4  10  20  34  56  83 109 145 187 228 274 326
#     4   9  19  34  55  81 109 147 189 226 266 327
#     4   9  17  31  53  80 114 144 178 228 278 324
#     4  10  21  37  56  83 115 143 179 230 280 327
#     4  10  21  37  60  81 105 149 193 228 268 324
#
# _framework density 22.306010000000001
#
# number of rings (size 3 to 8) (size 9 to 14) (size 15 to 20)
#    0.000    2.500    1.250    1.500    1.750    1.500 
#    0.000    7.500    0.000    0.000    0.000    0.000 
#    0.000    0.000    0.000    0.000    0.000    0.000 
#
# Total GULP energy -89321.046508 kJ/mol
# GULP energy per Si atom -5582.565407 kJ/mol
# Density = 2.225524 g / cm^3
# Si number density = 22.306010 Si / 1000 Ang^3
#
#
#
# Elastic Constant Matrix: (Units=GPa)
#
#
# Indices 1 2 3 4 5 6 
#
# 1 37.2496 -6.1029 20.5970 0.0000 9.6949 0.0000
# 2 -6.1029 51.4700 -3.0575 0.0000 3.2244 0.0000
# 3 20.5970 -3.0575 123.9437 0.0000 15.4751 0.0000
# 4 0.0000 0.0000 0.0000 4.3157 0.0000 -9.6546
# 5 9.6949 3.2244 15.4751 0.0000 26.5911 0.0000
# 6 0.0000 0.0000 0.0000 -9.6546 0.0000 12.1113
#
#
#
# Elastic Compliance Matrix: (Units=1/GPa)
#
#
# Indices 1 2 3 4 5 6 
#
# 1 0.032359 0.004222 -0.004029 0.000000 -0.009965 0.000000
# 2 0.004222 0.020210 0.000318 0.000000 -0.004175 0.000000
# 3 -0.004029 0.000318 0.009238 0.000000 -0.003946 0.000000
# 4 0.000000 0.000000 0.000000 -0.295808 0.000000 -0.235806
# 5 -0.009965 -0.004175 -0.003946 0.000000 0.044042 0.000000
# 6 0.000000 0.000000 0.000000 -0.235806 0.000000 -0.105407
#
#
# Mechanical properties :
#
#
# Convention : Reuss Voigt Hill
#
# Bulk Modulus (GPa) = 15.91620 26.17073 21.04347
# Shear Modulus (GPa) = -18.15251 22.01872 1.93311
#
# Velocity S-wave (km/s) = -2.85580 3.14526 0.93194
# Velocity P-wave (km/s) = 1.92958 4.99482 3.25768
#
# Compressibility (1/GPa) = 0.06282907
#
# Stress axis : x y z
#
# Youngs Moduli (GPa) = 30.90321 49.48089 108.24552
#
# Poissons Ratio (x) = -0.20890 0.43613
# Poissons Ratio (y) = -0.13047 -0.03445
# Poissons Ratio (z) = 0.12451 -0.01575
#
# Static dielectric constant tensor:
#      x y z
#    x 1.793070 0.000000 0.003000 
#    y 0.000000 1.886960 0.000000 
#    z 0.003000 0.000000 1.822070 
# 
# From -- ./inp_files/21865.got.cif
#   From: 2010.05.17/outbox.cif.g08.bks.cpg/sg8_11_cif.got.tgz:21865.got - 2010.06.03 19:46:02.
