data_PCOD9131557
_publ_section_title
;
Structure prediction by ZEFSAII (Michael W. Deem and Ramdas Pophale) SiO2 
 PCOD9131557
Probable space group: C M
;
_chemical_formula_sum "Si O2"
_cell_formula_units_Z 32
_cell_length_a 13.637695
_cell_length_b 23.317564
_cell_length_c 8.824673
_cell_angle_alpha 90.000000
_cell_angle_beta 149.675125
_cell_angle_gamma 90.000000
_cell_volume 1416.870717
_symmetry_space_group_name_H-M "C M"
_symmetry_group_IT_number 8
_symmetry_cell_setting 'monoclinic'
loop_
_space_group_symop_operation_xyz
x,y,z
x,-y,z
1/2+x,1/2+y,z
1/2+x,1/2-y,z
loop_
_atom_site_type_symbol
_atom_site_label
_atom_site_fract_x
_atom_site_fract_y
_atom_site_fract_z
Si Si1 0.127580 0.733824 0.890550
Si Si2 0.352978 0.167723 0.311265
Si Si3 0.154286 0.339458 0.193059
Si Si4 0.507956 0.633352 0.069626
Si Si5 0.759085 0.231140 0.607341
Si Si6 0.360439 0.066216 0.099421
Si Si7 0.219941 0.141631 0.645033
Si Si8 0.800495 0.062132 0.559954
O O1 0.037453 0.699082 0.631680
O O2 0.940274 0.752590 0.740395
O O3 0.262357 0.789646 0.063028
O O4 0.233272 0.692106 0.151282
O O5 0.195710 0.159752 0.235211
O O6 0.381109 0.105699 0.275357
O O7 0.121001 0.298185 0.296209
O O8 0.307409 0.386533 0.450317
O O9 0.941708 0.364849 0.875999
O O10 0.565036 0.620132 0.316202
O O11 0.342257 0.681493 0.825937
O O12 0.437157 0.578809 0.881061
O O13 0.690518 0.288851 0.598665
O O14 0.577942 0.063513 0.320193
O O15 0.298656 0.000000 0.040242
O O16 0.228598 0.103015 0.806644
O O17 0.844661 0.000000 0.556284
#
# Coordination Sequence:
#
# PCOD9131557 Si02
#       8
#     4   4   4   4   4   4   4   4
#     4  10  17  32  56  87 120 148 182 235 298 350
#     4  11  21  38  61  90 121 157 188 244 298 355
#     4   9  15  29  55  83 114 147 185 236 294 343
#     4  10  19  32  64  91 111 144 201 250 288 345
#     4   9  15  29  53  85 121 143 178 231 301 347
#     4  10  24  44  57  76 123 168 196 239 298 345
#     4  10  17  32  56  85 109 149 193 237 292 347
#     4   9  20  38  58  79 115 162 201 238 291 348
#
# _framework density 22.584982
#
# number of rings (size 3 to 8) (size 9 to 14) (size 15 to 20)
#    0.000    2.250    3.750    1.500    0.000    1.000 
#    9.000    0.625    0.000    0.000    0.000    0.000 
#    0.000    0.000    0.000    0.000    0.000    0.000 
#
# Total GULP energy -89343.177595 kJ/mol
# GULP energy per Si atom -5583.948600 kJ/mol
# Density = 2.253358 g / cm^3
# Si number density = 22.584982 Si / 1000 Ang^3
#
#
#
# Elastic Constant Matrix: (Units=GPa)
#
#
# Indices 1 2 3 4 5 6 
#
# 1 60.3987 24.9536 20.8220 0.0000 4.1482 0.0000
# 2 24.9536 157.2025 48.5057 0.0000 -24.2304 0.0000
# 3 20.8220 48.5057 120.9641 0.0000 -36.9502 0.0000
# 4 0.0000 0.0000 0.0000 21.2289 0.0000 -0.7565
# 5 4.1482 -24.2304 -36.9502 0.0000 21.1128 0.0000
# 6 0.0000 0.0000 0.0000 -0.7565 0.0000 20.3291
#
#
#
# Elastic Compliance Matrix: (Units=1/GPa)
#
#
# Indices 1 2 3 4 5 6 
#
# 1 0.024969 -0.005173 -0.011895 0.000000 -0.031660 0.000000
# 2 -0.005173 0.008840 0.001623 0.000000 0.014002 0.000000
# 3 -0.011895 0.001623 0.023521 0.000000 0.045364 0.000000
# 4 0.000000 0.000000 0.000000 0.047168 0.000000 0.001755
# 5 -0.031660 0.014002 0.045364 0.000000 0.149047 0.000000
# 6 0.000000 0.000000 0.000000 0.001755 0.000000 0.049256
#
#
# Mechanical properties :
#
#
# Convention : Reuss Voigt Hill
#
# Bulk Modulus (GPa) = 37.82244 58.56977 48.19611
# Shear Modulus (GPa) = 14.59841 28.81975 21.70908
#
# Velocity S-wave (km/s) = 2.54515 3.57607 3.10371
# Velocity P-wave (km/s) = 5.04184 6.56052 5.85066
#
# Compressibility (1/GPa) = 0.02643933
#
# Stress axis : x y z
#
# Youngs Moduli (GPa) = 40.04982 113.12442 42.51601
#
# Poissons Ratio (x) = 0.58522 0.50571
# Poissons Ratio (y) = 0.20719 -0.06899
# Poissons Ratio (z) = 0.47637 -0.18358
#
# Static dielectric constant tensor:
#      x y z
#    x 1.902240 0.000000 -0.005050 
#    y 0.000000 1.870990 0.000000 
#    z -0.005050 0.000000 1.894480 
# 
# From -- ./inp_files/13846.got.cif
#   From: 2010.05.17/outbox.cif.g08.bks.cpg/sg8_7_cif.got.tgz:13846.got - 2010.06.03 19:46:02.
