data_PCOD9131290
_publ_section_title
;
Structure prediction by ZEFSAII (Michael W. Deem and Ramdas Pophale) SiO2 
 PCOD9131290
Probable space group: P C
;
_chemical_formula_sum "Si O2"
_cell_formula_units_Z 16
_cell_length_a 7.378382
_cell_length_b 17.152990
_cell_length_c 5.366564
_cell_angle_alpha 90.000000
_cell_angle_beta 117.122132
_cell_angle_gamma 90.000000
_cell_volume 604.512428
_symmetry_space_group_name_H-M "P C"
_symmetry_group_IT_number 7
_symmetry_cell_setting 'monoclinic'
loop_
_space_group_symop_operation_xyz
x,y,z
x,-y,1/2+z
loop_
_atom_site_type_symbol
_atom_site_label
_atom_site_fract_x
_atom_site_fract_y
_atom_site_fract_z
Si Si1 0.932520 0.950110 0.601100
Si Si2 0.532405 0.304375 0.944947
Si Si3 0.923202 0.546064 0.282051
Si Si4 0.105216 0.280662 0.927181
Si Si5 0.288122 0.167650 0.405135
Si Si6 0.482044 0.515810 0.442430
Si Si7 0.686391 0.226716 0.530486
Si Si8 0.466160 0.052075 0.842323
O O1 0.701080 0.920147 0.474749
O O2 0.106991 0.887019 0.701980
O O3 0.953295 0.000468 0.365900
O O4 0.556222 0.396478 0.971735
O O5 0.661515 0.269392 0.252313
O O6 0.296169 0.287581 0.860646
O O7 0.603145 0.271365 0.724923
O O8 0.975688 0.508175 0.049820
O O9 0.002134 0.633804 0.371599
O O10 0.674943 0.541028 0.099801
O O11 0.927243 0.221564 0.725415
O O12 0.202033 0.250757 0.249411
O O13 0.512329 0.159666 0.414095
O O14 0.333293 0.129444 0.705553
O O15 0.364866 0.491050 0.125117
O O16 0.433396 0.994987 0.579307
#
# Coordination Sequence:
#
# PCOD9131290 Si02
#       8
#     2   2   2   2   2   2   2   2
#     4  10  22  42  71 103 137 181 230 276 332 404
#     4  11  25  44  67  96 130 178 231 285 352 423
#     4  10  21  39  64  91 126 173 227 290 351 411
#     4  11  26  45  71 102 139 186 235 290 358 425
#     4  11  24  43  68 104 141 183 230 282 344 416
#     4  10  19  36  63  90 122 163 218 287 350 408
#     4  11  25  45  66  95 140 180 223 284 345 412
#     4  10  22  42  68  99 139 184 228 280 336 397
#
# _framework density 26.467607999999998
#
# number of rings (size 3 to 8) (size 9 to 14) (size 15 to 20)
#    0.000    1.500    0.000    5.250    0.000    9.000 
#    0.000    5.000    0.000    0.000    0.000    0.000 
#    0.000    0.000    0.000    0.000    0.000    0.000 
#
# Total GULP energy -89536.266803 kJ/mol
# GULP energy per Si atom -5596.016675 kJ/mol
# Density = 2.640737 g / cm^3
# Si number density = 26.467608 Si / 1000 Ang^3
#
#
#
# Elastic Constant Matrix: (Units=GPa)
#
#
# Indices 1 2 3 4 5 6 
#
# 1 139.1588 25.5838 58.0554 0.0000 16.5736 0.0000
# 2 25.5838 87.1581 39.7403 0.0000 -8.9176 0.0000
# 3 58.0554 39.7403 184.8885 0.0000 -21.1006 0.0000
# 4 0.0000 0.0000 0.0000 30.4641 0.0000 -4.8328
# 5 16.5736 -8.9176 -21.1006 0.0000 62.2217 0.0000
# 6 0.0000 0.0000 0.0000 -4.8328 0.0000 36.5072
#
#
#
# Elastic Compliance Matrix: (Units=1/GPa)
#
#
# Indices 1 2 3 4 5 6 
#
# 1 0.009163 -0.001733 -0.002925 0.000000 -0.003681 0.000000
# 2 -0.001733 0.013100 -0.002085 0.000000 0.001632 0.000000
# 3 -0.002925 -0.002085 0.007105 0.000000 0.002890 0.000000
# 4 0.000000 0.000000 0.000000 0.033530 0.000000 0.004439
# 5 -0.003681 0.001632 0.002890 0.000000 0.018266 0.000000
# 6 0.000000 0.000000 0.000000 0.004439 0.000000 0.027979
#
#
# Mechanical properties :
#
#
# Convention : Reuss Voigt Hill
#
# Bulk Modulus (GPa) = 62.96391 73.10716 68.03554
# Shear Modulus (GPa) = 39.08594 45.02700 42.05647
#
# Velocity S-wave (km/s) = 3.84701 4.12905 3.99052
# Velocity P-wave (km/s) = 6.60101 7.10024 6.85517
#
# Compressibility (1/GPa) = 0.01588211
#
# Stress axis : x y z
#
# Youngs Moduli (GPa) = 109.13172 76.33692 140.74326
#
# Poissons Ratio (x) = 0.13227 0.41167
# Poissons Ratio (y) = 0.18909 0.29351
# Poissons Ratio (z) = 0.31920 0.15919
#
# Static dielectric constant tensor:
#      x y z
#    x 2.097670 0.000000 -0.008760 
#    y 0.000000 2.119950 0.000000 
#    z -0.008760 0.000000 2.096170 
# 
# From -- ./inp_files/945.got.cif
#   From: 2010.05.17/outbox.cif.g08.bks.cpg/sg7_cif.got.tgz:945.got - 2010.06.03 19:44:50.
