data_PCOD9131234
_publ_section_title
;
Structure prediction by ZEFSAII (Michael W. Deem and Ramdas Pophale) SiO2 
 PCOD9131234
Probable space group: P C
;
_chemical_formula_sum "Si O2"
_cell_formula_units_Z 16
_cell_length_a 13.060566
_cell_length_b 9.266787
_cell_length_c 5.579399
_cell_angle_alpha 90.000000
_cell_angle_beta 61.894755
_cell_angle_gamma 90.000000
_cell_volume 595.646258
_symmetry_space_group_name_H-M "P C"
_symmetry_group_IT_number 7
_symmetry_cell_setting 'monoclinic'
loop_
_space_group_symop_operation_xyz
x,y,z
x,-y,1/2+z
loop_
_atom_site_type_symbol
_atom_site_label
_atom_site_fract_x
_atom_site_fract_y
_atom_site_fract_z
Si Si1 0.763530 0.448630 0.719920
Si Si2 0.891522 0.166817 0.457212
Si Si3 0.102602 0.832489 0.967951
Si Si4 0.327411 0.079063 0.439601
Si Si5 0.559478 0.817442 0.630942
Si Si6 0.998777 0.628527 0.456028
Si Si7 0.234031 0.554686 0.696977
Si Si8 0.648947 0.144477 0.531646
O O1 0.706933 0.487776 0.523629
O O2 0.811392 0.284094 0.688824
O O3 0.883352 0.537732 0.560295
O O4 0.973328 0.265330 0.201035
O O5 0.785345 0.101948 0.418443
O O6 0.995313 0.077750 0.469394
O O7 0.189594 0.899685 0.066995
O O8 0.196651 0.725380 0.726671
O O9 0.023465 0.721066 0.197624
O O10 0.422325 0.205054 0.315306
O O11 0.349719 0.987283 0.174530
O O12 0.596768 0.772561 0.321821
O O13 0.584638 0.990440 0.593318
O O14 0.625940 0.777921 0.803509
O O15 0.112688 0.533283 0.358246
O O16 0.290404 0.504500 0.888785
#
# Coordination Sequence:
#
# PCOD9131234 Si02
#       8
#     2   2   2   2   2   2   2   2
#     4  10  17  30  51  74 123 159 180 218 262 355
#     4  11  20  33  53  92 125 146 191 228 299 365
#     4  11  22  35  58  92 126 158 193 238 311 359
#     4  12  25  45  66  82 114 157 209 264 293 347
#     4  10  20  47  60  79 100 148 211 252 285 329
#     4  10  18  34  52  84 132 161 190 219 281 377
#     4  10  17  32  54  80 125 159 191 224 268 369
#     4  10  21  36  68  79 107 146 197 247 289 337
#
# _framework density 26.86158
#
# number of rings (size 3 to 8) (size 9 to 14) (size 15 to 20)
#    0.000    1.500    6.250    1.500    3.500    0.000 
#    4.500    0.000    0.000    0.000    0.000   21.000 
#    0.000    0.000    0.000    0.000    0.000    0.000 
#
# Total GULP energy -89195.710277 kJ/mol
# GULP energy per Si atom -5574.731892 kJ/mol
# Density = 2.680044 g / cm^3
# Si number density = 26.861580 Si / 1000 Ang^3
#
#
#
# Elastic Constant Matrix: (Units=GPa)
#
#
# Indices 1 2 3 4 5 6 
#
# 1 137.1997 24.2232 30.8509 0.0000 6.0970 0.0000
# 2 24.2232 25.9048 26.4150 0.0000 1.1532 0.0000
# 3 30.8509 26.4150 140.2184 0.0000 42.0487 0.0000
# 4 0.0000 0.0000 0.0000 22.6324 0.0000 -1.1209
# 5 6.0970 1.1532 42.0487 0.0000 40.6416 0.0000
# 6 0.0000 0.0000 0.0000 -1.1209 0.0000 23.8526
#
#
#
# Elastic Compliance Matrix: (Units=1/GPa)
#
#
# Indices 1 2 3 4 5 6 
#
# 1 0.008779 -0.008030 -0.000134 0.000000 -0.000951 0.000000
# 2 -0.008030 0.059174 -0.013394 0.000000 0.013383 0.000000
# 3 -0.000134 -0.013394 0.013867 0.000000 -0.013947 0.000000
# 4 0.000000 0.000000 0.000000 0.044288 0.000000 0.002081
# 5 -0.000951 0.013383 -0.013947 0.000000 0.038798 0.000000
# 6 0.000000 0.000000 0.000000 0.002081 0.000000 0.042022
#
#
# Mechanical properties :
#
#
# Convention : Reuss Voigt Hill
#
# Bulk Modulus (GPa) = 25.83746 51.81125 38.82435
# Shear Modulus (GPa) = 19.01549 32.21424 25.61487
#
# Velocity S-wave (km/s) = 2.66354 3.46680 3.09137
# Velocity P-wave (km/s) = 4.37023 5.94601 5.21795
#
# Compressibility (1/GPa) = 0.03870350
#
# Stress axis : x y z
#
# Youngs Moduli (GPa) = 113.91174 16.89934 72.11541
#
# Poissons Ratio (x) = 0.13571 0.00963
# Poissons Ratio (y) = 0.91475 0.96591
# Poissons Ratio (z) = 0.01521 0.22635
#
# Static dielectric constant tensor:
#      x y z
#    x 2.448590 0.000000 0.248590 
#    y 0.000000 2.206040 0.000000 
#    z 0.248590 0.000000 2.233250 
# 
# From -- ./inp_files/1097.got.cif
#   From: 2010.05.17/outbox.cif.g08.bks.cpg/sg7_cif.got.tgz:1097.got - 2010.06.03 19:44:50.
