data_PCOD9131489
_publ_section_title
;
Structure prediction by ZEFSAII (Michael W. Deem and Ramdas Pophale) SiO2 
 PCOD9131489
Probable space group: C M
;
_chemical_formula_sum "Si O2"
_cell_formula_units_Z 24
_cell_length_a 9.366770
_cell_length_b 27.174927
_cell_length_c 7.552684
_cell_angle_alpha 90.000000
_cell_angle_beta 33.933845
_cell_angle_gamma 90.000000
_cell_volume 1073.190592
_symmetry_space_group_name_H-M "C M"
_symmetry_group_IT_number 8
_symmetry_cell_setting 'monoclinic'
loop_
_space_group_symop_operation_xyz
x,y,z
x,-y,z
1/2+x,1/2+y,z
1/2+x,1/2-y,z
loop_
_atom_site_type_symbol
_atom_site_label
_atom_site_fract_x
_atom_site_fract_y
_atom_site_fract_z
Si Si1 0.603590 0.500000 0.781510
Si Si2 0.647692 0.655512 0.996339
Si Si3 0.088680 0.500000 0.539278
Si Si4 0.466506 0.302532 0.636138
Si Si5 0.965289 0.104939 0.855212
Si Si6 0.150375 0.607093 0.526519
Si Si7 0.487629 0.245626 0.983466
O O1 0.557302 0.550090 0.722708
O O2 0.872037 0.500000 0.609051
O O3 0.375681 0.500000 0.162864
O O4 0.667946 0.630708 0.779680
O O5 0.539109 0.709264 0.067625
O O6 0.925943 0.646211 0.788840
O O7 0.745409 0.712597 0.281819
O O8 0.065577 0.552053 0.663859
O O9 0.432719 0.358971 0.726112
O O10 0.423410 0.375579 0.320691
O O11 0.437010 0.271924 0.849519
O O12 0.248219 0.284563 0.728988
O O13 0.722667 0.104399 0.240127
#
# Coordination Sequence:
#
# PCOD9131489 Si02
#       7
#     2   4   2   4   4   4   4
#     4  10  16  26  42  72 102 142 162 222 278 350
#     4   9  17  28  45  65 100 137 175 207 268 315
#     4  10  14  22  38  66  96 136 162 204 266 348
#     4  11  23  37  57  81 114 150 190 233 278 334
#     4   8  19  27  49  69 110 133 178 214 290 315
#     4   9  15  25  42  65  99 134 167 207 270 326
#     4  11  23  37  57  79 112 150 193 230 284 326
#
# _framework density 22.363222
#
# number of rings (size 3 to 8) (size 9 to 14) (size 15 to 20)
#    1.000    1.333    1.667    2.000    4.667    0.000 
#    0.000    0.000    0.000    0.000    0.000    0.000 
#    0.000   58.667    0.000    0.000    0.000    0.000 
#
# Total GULP energy -66929.879982 kJ/mol
# GULP energy per Si atom -5577.489999 kJ/mol
# Density = 2.231232 g / cm^3
# Si number density = 22.363222 Si / 1000 Ang^3
#
#
#
# Elastic Constant Matrix: (Units=GPa)
#
#
# Indices 1 2 3 4 5 6 
#
# 1 57.4914 26.5772 28.0845 0.0000 -16.5396 0.0000
# 2 26.5772 128.5587 30.5069 0.0000 1.7262 0.0000
# 3 28.0845 30.5069 78.4012 0.0000 -22.4056 0.0000
# 4 0.0000 0.0000 0.0000 24.1977 0.0000 -3.5968
# 5 -16.5396 1.7262 -22.4056 0.0000 45.1941 0.0000
# 6 0.0000 0.0000 0.0000 -3.5968 0.0000 14.2546
#
#
#
# Elastic Compliance Matrix: (Units=1/GPa)
#
#
# Indices 1 2 3 4 5 6 
#
# 1 0.023400 -0.003687 -0.005196 0.000000 0.006128 0.000000
# 2 -0.003687 0.009362 -0.003274 0.000000 -0.003330 0.000000
# 3 -0.005196 -0.003274 0.017922 0.000000 0.007108 0.000000
# 4 0.000000 0.000000 0.000000 0.042937 0.000000 0.010834
# 5 0.006128 -0.003330 0.007108 0.000000 0.028021 0.000000
# 6 0.000000 0.000000 0.000000 0.010834 0.000000 0.072887
#
#
# Mechanical properties :
#
#
# Convention : Reuss Voigt Hill
#
# Bulk Modulus (GPa) = 37.92227 48.30983 43.11605
# Shear Modulus (GPa) = 21.96536 28.68146 25.32341
#
# Velocity S-wave (km/s) = 3.13742 3.58513 3.36872
# Velocity P-wave (km/s) = 5.48806 6.22790 5.86965
#
# Compressibility (1/GPa) = 0.02636973
#
# Stress axis : x y z
#
# Youngs Moduli (GPa) = 42.73583 106.81097 55.79845
#
# Poissons Ratio (x) = 0.39378 0.28994
# Poissons Ratio (y) = 0.15755 0.18268
# Poissons Ratio (z) = 0.22207 0.34970
#
# Static dielectric constant tensor:
#      x y z
#    x 1.841680 0.000000 0.026620 
#    y 0.000000 1.887690 0.000000 
#    z 0.026620 0.000000 1.809060 
# 
# From -- ./inp_files/9076.got.cif
#   From: 2010.05.17/outbox.cif.g08.bks.cpg/sg8_5_cif.got.tgz:9076.got - 2010.06.03 19:46:02.
