data_PCOD9131754
_publ_section_title
;
Structure prediction by ZEFSAII (Michael W. Deem and Ramdas Pophale) SiO2 
 PCOD9131754
Probable space group: C M
;
_chemical_formula_sum "Si O2"
_cell_formula_units_Z 28
_cell_length_a 7.789885
_cell_length_b 13.688963
_cell_length_c 12.181325
_cell_angle_alpha 90.000000
_cell_angle_beta 124.017264
_cell_angle_gamma 90.000000
_cell_volume 1076.668596
_symmetry_space_group_name_H-M "C M"
_symmetry_group_IT_number 8
_symmetry_cell_setting 'monoclinic'
loop_
_space_group_symop_operation_xyz
x,y,z
x,-y,z
1/2+x,1/2+y,z
1/2+x,1/2-y,z
loop_
_atom_site_type_symbol
_atom_site_label
_atom_site_fract_x
_atom_site_fract_y
_atom_site_fract_z
Si Si1 0.798660 0.193922 0.451670
Si Si2 0.255121 0.118154 0.891898
Si Si3 0.786565 0.118345 0.693001
Si Si4 0.459527 0.384254 0.107509
Si Si5 0.564813 0.881011 0.827346
Si Si6 0.115324 0.888075 0.398401
Si Si7 0.904078 0.617802 0.178157
O O1 0.774637 0.161295 0.567890
O O2 0.795945 0.310981 0.442469
O O3 0.594987 0.161152 0.311778
O O4 0.992744 0.142877 0.463140
O O5 0.356195 0.150185 0.813579
O O6 0.016267 0.145160 0.819836
O O7 0.254735 0.000000 0.890798
O O8 0.396094 0.143546 0.046791
O O9 0.618903 0.149213 0.723752
O O10 0.777442 0.000000 0.681190
O O11 0.464411 0.500000 0.083100
O O12 0.459159 0.377455 0.238925
O O13 0.682842 0.347919 0.146868
O O14 0.257671 0.348490 0.972328
O O15 0.561199 0.000000 0.824856
O O16 0.185619 0.000000 0.427824
O O17 0.916312 0.500000 0.192979
#
# Coordination Sequence:
#
# PCOD9131754 Si02
#       7
#     4   4   4   4   4   4   4
#     4  12  25  44  72 105 146 194 253 306 378 453
#     4   9  17  32  60  99 147 200 251 305 378 445
#     4  10  20  38  64 103 150 197 248 309 373 453
#     4   9  17  34  65 102 141 187 242 305 371 437
#     4   9  16  31  60 100 144 193 245 301 369 443
#     4  11  25  47  73 106 150 196 248 314 378 448
#     4  10  18  34  65 107 150 195 248 312 374 443
#
# _framework density 26.006145
#
# number of rings (size 3 to 8) (size 9 to 14) (size 15 to 20)
#    0.000    2.000    1.429    3.000    0.000    2.286 
#    5.143    1.429    3.143    0.000    0.000    1.000 
#    0.000    0.000    0.000    0.000    0.000    0.000 
#
# Total GULP energy -78519.410032 kJ/mol
# GULP energy per Si atom -5608.529288 kJ/mol
# Density = 2.594695 g / cm^3
# Si number density = 26.006145 Si / 1000 Ang^3
#
#
#
# Elastic Constant Matrix: (Units=GPa)
#
#
# Indices 1 2 3 4 5 6 
#
# 1 94.3291 6.5837 38.7604 0.0000 -30.1894 0.0000
# 2 6.5837 138.1229 22.0023 0.0000 -3.3867 0.0000
# 3 38.7604 22.0023 137.7975 0.0000 -14.0007 0.0000
# 4 0.0000 0.0000 0.0000 -2.3104 0.0000 24.7063
# 5 -30.1894 -3.3867 -14.0007 0.0000 47.3950 0.0000
# 6 0.0000 0.0000 0.0000 24.7063 0.0000 10.9547
#
#
#
# Elastic Compliance Matrix: (Units=1/GPa)
#
#
# Indices 1 2 3 4 5 6 
#
# 1 0.014612 0.000029 -0.003267 0.000000 0.008345 0.000000
# 2 0.000029 0.007431 -0.001174 0.000000 0.000202 0.000000
# 3 -0.003267 -0.001174 0.008395 0.000000 0.000315 0.000000
# 4 0.000000 0.000000 0.000000 -0.017232 0.000000 0.038864
# 5 0.008345 0.000202 0.000315 0.000000 0.026522 0.000000
# 6 0.000000 0.000000 0.000000 0.038864 0.000000 0.003634
#
#
# Mechanical properties :
#
#
# Convention : Reuss Voigt Hill
#
# Bulk Modulus (GPa) = 46.26727 56.10471 51.18599
# Shear Modulus (GPa) = 84.18704 31.40141 57.79422
#
# Velocity S-wave (km/s) = 5.69581 3.47862 4.71927
# Velocity P-wave (km/s) = 7.81574 6.14450 7.02996
#
# Compressibility (1/GPa) = 0.02161355
#
# Stress axis : x y z
#
# Youngs Moduli (GPa) = 68.43584 134.57996 119.11249
#
# Poissons Ratio (x) = -0.00384 0.38913
# Poissons Ratio (y) = -0.00195 0.13983
# Poissons Ratio (z) = 0.22357 0.15798
#
# Static dielectric constant tensor:
#      x y z
#    x 1.981240 0.000000 -0.007930 
#    y 0.000000 2.084440 0.000000 
#    z -0.007930 0.000000 1.983920 
# 
# From -- ./inp_files/18901.got.cif
#   From: 2010.05.17/outbox.cif.g08.bks.cpg/sg8_10_cif.got.tgz:18901.got - 2010.06.03 19:46:02.
