data_PCOD9131561
_publ_section_title
;
Structure prediction by ZEFSAII (Michael W. Deem and Ramdas Pophale) SiO2 
 PCOD9131561
Probable space group: C M
;
_chemical_formula_sum "Si O2"
_cell_formula_units_Z 32
_cell_length_a 12.580618
_cell_length_b 13.108396
_cell_length_c 9.278990
_cell_angle_alpha 90.000000
_cell_angle_beta 116.438624
_cell_angle_gamma 90.000000
_cell_volume 1370.171906
_symmetry_space_group_name_H-M "C M"
_symmetry_group_IT_number 8
_symmetry_cell_setting 'monoclinic'
loop_
_space_group_symop_operation_xyz
x,y,z
x,-y,z
1/2+x,1/2+y,z
1/2+x,1/2-y,z
loop_
_atom_site_type_symbol
_atom_site_label
_atom_site_fract_x
_atom_site_fract_y
_atom_site_fract_z
Si Si1 0.764630 0.157421 0.670960
Si Si2 0.203455 0.890372 0.632143
Si Si3 0.000911 0.799523 0.710799
Si Si4 0.061247 0.156323 0.279534
Si Si5 0.501372 0.836912 0.449017
Si Si6 0.872945 0.390355 0.101765
Si Si7 0.308901 0.344443 0.024023
Si Si8 0.592572 0.191130 0.057920
O O1 0.769731 0.282108 0.674396
O O2 0.883686 0.132335 0.658692
O O3 0.637945 0.124786 0.530878
O O4 0.772034 0.125940 0.841246
O O5 0.151271 0.898883 0.438429
O O6 0.100573 0.866091 0.688446
O O7 0.261994 0.000000 0.697077
O O8 0.976489 0.700001 0.594985
O O9 0.041512 0.753584 0.889250
O O10 0.004854 0.232236 0.362453
O O11 0.125642 0.223538 0.197199
O O12 0.941024 0.114671 0.134922
O O13 0.410913 0.895092 0.293153
O O14 0.814530 0.500000 0.035410
O O15 0.811289 0.281157 0.034488
O O16 0.991597 0.376102 0.075050
O O17 0.206434 0.371232 0.074436
#
# Coordination Sequence:
#
# PCOD9131561 Si02
#       8
#     4   4   4   4   4   4   4   4
#     4  10  17  33  60  83 104 144 194 221 266 330
#     4  10  22  37  54  85 119 140 175 236 286 316
#     4  10  17  34  58  82 107 148 190 219 269 336
#     4   8  18  32  51  77 110 145 177 215 266 339
#     4   8  18  32  51  77 110 145 177 215 266 339
#     4  10  22  37  54  85 119 140 175 236 286 316
#     4  10  17  33  60  83 104 144 194 221 266 330
#     4  10  17  34  58  82 107 148 190 219 269 336
#
# _framework density 23.354735000000002
#
# number of rings (size 3 to 8) (size 9 to 14) (size 15 to 20)
#    0.000    3.000    5.000    0.000    0.000    9.500 
#    0.000    6.250    0.000    1.500    0.000    0.000 
#    0.000    0.000    0.000    0.000    0.000    0.000 
#
# Total GULP energy -89086.399442 kJ/mol
# GULP energy per Si atom -5567.899965 kJ/mol
# Density = 2.330158 g / cm^3
# Si number density = 23.354735 Si / 1000 Ang^3
#
#
#
# Elastic Constant Matrix: (Units=GPa)
#
#
# Indices 1 2 3 4 5 6 
#
# 1 81.8158 -24.2894 -13.0200 0.0000 -14.7314 0.0000
# 2 -24.2894 98.1537 8.0097 0.0000 -5.8411 0.0000
# 3 -13.0200 8.0097 128.1333 0.0000 5.0762 0.0000
# 4 0.0000 0.0000 0.0000 -15.6594 0.0000 -3.4287
# 5 -14.7314 -5.8411 5.0762 0.0000 36.2522 0.0000
# 6 0.0000 0.0000 0.0000 -3.4287 0.0000 -13.5362
#
#
#
# Elastic Compliance Matrix: (Units=1/GPa)
#
#
# Indices 1 2 3 4 5 6 
#
# 1 0.014719 0.003947 0.000992 0.000000 0.006478 0.000000
# 2 0.003947 0.011410 -0.000451 0.000000 0.003505 0.000000
# 3 0.000992 -0.000451 0.007964 0.000000 -0.000785 0.000000
# 4 0.000000 0.000000 0.000000 -0.067609 0.000000 0.017125
# 5 0.006478 0.003505 -0.000785 0.000000 0.030892 0.000000
# 6 0.000000 0.000000 0.000000 0.017125 0.000000 -0.078214
#
#
# Mechanical properties :
#
#
# Convention : Reuss Voigt Hill
#
# Bulk Modulus (GPa) = 23.21837 27.72262 25.47049
# Shear Modulus (GPa) = -66.26250 23.90481 -21.17885
#
# Velocity S-wave (km/s) = -5.33233 3.20277 -3.01463
# Velocity P-wave (km/s) = 5.28664 5.05698 1.08984
#
# Compressibility (1/GPa) = 0.04306935
#
# Stress axis : x y z
#
# Youngs Moduli (GPa) = 67.94111 87.64065 125.55749
#
# Poissons Ratio (x) = -0.34591 -0.12458
# Poissons Ratio (y) = -0.26815 0.05664
# Poissons Ratio (z) = -0.06741 0.03953
#
# Static dielectric constant tensor:
#      x y z
#    x 1.904900 0.000000 0.050140 
#    y 0.000000 2.178520 0.000000 
#    z 0.050140 0.000000 1.930700 
# 
# From -- ./inp_files/13466.got.cif
#   From: 2010.05.17/outbox.cif.g08.bks.cpg/sg8_7_cif.got.tgz:13466.got - 2010.06.03 19:46:02.
