data_PCOD9131414
_publ_section_title
;
Structure prediction by ZEFSAII (Michael W. Deem and Ramdas Pophale) SiO2 
 PCOD9131414
Probable space group: P C
;
_chemical_formula_sum "Si O2"
_cell_formula_units_Z 10
_cell_length_a 4.941491
_cell_length_b 14.799209
_cell_length_c 5.713099
_cell_angle_alpha 90.000000
_cell_angle_beta 108.168588
_cell_angle_gamma 90.000000
_cell_volume 396.969647
_symmetry_space_group_name_H-M "P C"
_symmetry_group_IT_number 7
_symmetry_cell_setting 'monoclinic'
loop_
_space_group_symop_operation_xyz
x,y,z
x,-y,1/2+z
loop_
_atom_site_type_symbol
_atom_site_label
_atom_site_fract_x
_atom_site_fract_y
_atom_site_fract_z
Si Si1 0.069700 0.552048 0.708870
Si Si2 0.228640 0.013742 0.872177
Si Si3 0.550035 0.167865 0.473354
Si Si4 0.160103 0.791365 0.252876
Si Si5 0.528986 0.329351 0.139318
O O1 0.056130 0.493642 0.463535
O O2 0.369232 0.604857 0.776053
O O3 0.803448 0.620267 0.619381
O O4 0.077011 0.997662 0.079409
O O5 0.475617 0.937728 0.925130
O O6 0.313709 0.118250 0.893662
O O7 0.259598 0.204879 0.511491
O O8 0.612731 0.234657 0.278130
O O9 0.829193 0.187852 0.705047
O O10 0.285841 0.700265 0.389989
#
# Coordination Sequence:
#
# PCOD9131414 Si02
#       5
#     2   2   2   2   2
#     4  12  30  52  82 110 148 192 246 322 390 458
#     4  10  22  44  66 106 150 198 248 296 354 420
#     4  11  25  44  73 108 152 203 250 304 362 440
#     4  11  25  44  73 108 152 203 250 304 362 440
#     4  12  26  50  78 110 150 194 254 304 384 448
#
# _framework density 25.190842
#
# number of rings (size 3 to 8) (size 9 to 14) (size 15 to 20)
#    0.000    0.800    2.000    3.600    8.400    6.400 
#    3.600    0.000    0.000    0.000    0.000    0.000 
#    0.000    0.000    0.000    0.000    0.000    0.000 
#
# Total GULP energy -55807.731388 kJ/mol
# GULP energy per Si atom -5580.773139 kJ/mol
# Density = 2.513351 g / cm^3
# Si number density = 25.190842 Si / 1000 Ang^3
#
#
#
# Elastic Constant Matrix: (Units=GPa)
#
#
# Indices 1 2 3 4 5 6 
#
# 1 133.7731 19.8846 22.1730 0.0000 4.7825 0.0000
# 2 19.8846 78.5685 36.6860 0.0000 -3.5524 0.0000
# 3 22.1730 36.6860 111.3214 0.0000 -18.9659 0.0000
# 4 0.0000 0.0000 0.0000 38.6211 0.0000 -8.8463
# 5 4.7825 -3.5524 -18.9659 0.0000 28.7716 0.0000
# 6 0.0000 0.0000 0.0000 -8.8463 0.0000 34.2356
#
#
#
# Elastic Compliance Matrix: (Units=1/GPa)
#
#
# Indices 1 2 3 4 5 6 
#
# 1 0.008037 -0.001417 -0.001567 0.000000 -0.002544 0.000000
# 2 -0.001417 0.015357 -0.004974 0.000000 -0.001147 0.000000
# 3 -0.001567 -0.004974 0.012250 0.000000 0.007721 0.000000
# 4 0.000000 0.000000 0.000000 0.027521 0.000000 0.007111
# 5 -0.002544 -0.001147 0.007721 0.000000 0.040127 0.000000
# 6 0.000000 0.000000 0.000000 0.007111 0.000000 0.031047
#
#
# Mechanical properties :
#
#
# Convention : Reuss Voigt Hill
#
# Bulk Modulus (GPa) = 50.69261 53.46112 52.07687
# Shear Modulus (GPa) = 31.88125 36.65363 34.26744
#
# Velocity S-wave (km/s) = 3.56137 3.81863 3.69224
# Velocity P-wave (km/s) = 6.08919 6.38053 6.23656
#
# Compressibility (1/GPa) = 0.01972674
#
# Stress axis : x y z
#
# Youngs Moduli (GPa) = 124.42912 65.11630 81.63379
#
# Poissons Ratio (x) = 0.09229 0.12793
# Poissons Ratio (y) = 0.17635 0.40605
# Poissons Ratio (z) = 0.19499 0.32389
#
# Static dielectric constant tensor:
#      x y z
#    x 1.915080 0.000000 -0.026370 
#    y 0.000000 2.015640 0.000000 
#    z -0.026370 0.000000 2.220240 
# 
# From -- ./inp_files/110.got.cif
#   From: 2010.05.17/outbox.cif.g08.bks.cpg/sg7_cif.got.tgz:110.got - 2010.06.03 19:44:50.
