data_PCOD9131408
_publ_section_title
;
Structure prediction by ZEFSAII (Michael W. Deem and Ramdas Pophale) SiO2 
 PCOD9131408
Probable space group: P C
;
_chemical_formula_sum "Si O2"
_cell_formula_units_Z 16
_cell_length_a 7.070084
_cell_length_b 17.045263
_cell_length_c 5.517980
_cell_angle_alpha 90.000000
_cell_angle_beta 106.166174
_cell_angle_gamma 90.000000
_cell_volume 638.685246
_symmetry_space_group_name_H-M "P C"
_symmetry_group_IT_number 7
_symmetry_cell_setting 'monoclinic'
loop_
_space_group_symop_operation_xyz
x,y,z
x,-y,1/2+z
loop_
_atom_site_type_symbol
_atom_site_label
_atom_site_fract_x
_atom_site_fract_y
_atom_site_fract_z
Si Si1 0.314740 0.522338 0.704340
Si Si2 0.344090 0.822917 0.128638
Si Si3 0.644006 0.759916 0.612767
Si Si4 0.768911 0.532612 0.255740
Si Si5 0.902146 0.703534 0.328250
Si Si6 0.093962 0.043105 0.771362
Si Si7 0.279595 0.699256 0.736781
Si Si8 0.728328 0.137195 0.527556
O O1 0.233911 0.528912 0.399546
O O2 0.538434 0.492300 0.720462
O O3 0.289701 0.608820 0.809855
O O4 0.222236 0.764452 0.914362
O O5 0.502402 0.872430 0.027264
O O6 0.217152 0.879637 0.248014
O O7 0.490779 0.772342 0.343189
O O8 0.816984 0.708004 0.572648
O O9 0.505731 0.720734 0.761159
O O10 0.723046 0.842676 0.740342
O O11 0.848716 0.516994 0.555855
O O12 0.811614 0.622714 0.199704
O O13 0.134715 0.705688 0.455352
O O14 0.826647 0.782470 0.171466
O O15 0.865735 0.067357 0.659742
O O16 0.135324 0.014954 0.058861
#
# Coordination Sequence:
#
# PCOD9131408 Si02
#       8
#     2   2   2   2   2   2   2   2
#     4  10  23  40  63  95 143 185 241 294 370 413
#     4  10  25  45  75 107 143 192 249 289 364 441
#     4  10  22  42  72 100 142 182 254 296 350 424
#     4  10  23  40  63  95 143 185 241 294 370 413
#     4  11  24  41  71 102 141 194 245 304 357 436
#     4  12  30  50  78 112 156 188 230 306 370 434
#     4  11  24  41  71 102 141 194 245 304 357 436
#     4  10  25  45  75 107 143 192 249 289 364 441
#
# _framework density 25.051462999999998
#
# number of rings (size 3 to 8) (size 9 to 14) (size 15 to 20)
#    0.000    1.500    0.000    3.000   22.750    2.000 
#    0.000    0.000    0.000    0.000    0.000    0.000 
#    0.000    0.000    0.000    0.000    0.000    0.000 
#
# Total GULP energy -89355.216199 kJ/mol
# GULP energy per Si atom -5584.701012 kJ/mol
# Density = 2.499444 g / cm^3
# Si number density = 25.051463 Si / 1000 Ang^3
#
#
#
# Elastic Constant Matrix: (Units=GPa)
#
#
# Indices 1 2 3 4 5 6 
#
# 1 79.0254 21.0410 24.7228 0.0000 7.3940 0.0000
# 2 21.0410 66.8947 5.0849 0.0000 -7.2424 0.0000
# 3 24.7228 5.0849 84.3340 0.0000 -9.4916 0.0000
# 4 0.0000 0.0000 0.0000 43.3686 0.0000 -3.1097
# 5 7.3940 -7.2424 -9.4916 0.0000 44.1261 0.0000
# 6 0.0000 0.0000 0.0000 -3.1097 0.0000 27.3527
#
#
#
# Elastic Compliance Matrix: (Units=1/GPa)
#
#
# Indices 1 2 3 4 5 6 
#
# 1 0.015984 -0.005151 -0.004890 0.000000 -0.004576 0.000000
# 2 -0.005151 0.016915 0.000922 0.000000 0.003838 0.000000
# 3 -0.004890 0.000922 0.013676 0.000000 0.003912 0.000000
# 4 0.000000 0.000000 0.000000 0.023248 0.000000 0.002643
# 5 -0.004576 0.003838 0.003912 0.000000 0.024900 0.000000
# 6 0.000000 0.000000 0.000000 0.002643 0.000000 0.036860
#
#
# Mechanical properties :
#
#
# Convention : Reuss Voigt Hill
#
# Bulk Modulus (GPa) = 35.29091 36.88352 36.08722
# Shear Modulus (GPa) = 31.39409 34.92983 33.16196
#
# Velocity S-wave (km/s) = 3.54387 3.73811 3.64229
# Velocity P-wave (km/s) = 5.55548 5.77810 5.66788
#
# Compressibility (1/GPa) = 0.02833591
#
# Stress axis : x y z
#
# Youngs Moduli (GPa) = 62.56398 59.12080 73.12136
#
# Poissons Ratio (x) = 0.30454 0.35757
# Poissons Ratio (y) = 0.32228 -0.06743
# Poissons Ratio (z) = 0.30594 -0.05452
#
# Static dielectric constant tensor:
#      x y z
#    x 2.043880 0.000000 0.010100 
#    y 0.000000 1.974770 0.000000 
#    z 0.010100 0.000000 2.153880 
# 
# From -- ./inp_files/689.got.cif
#   From: 2010.05.17/outbox.cif.g08.bks.cpg/sg7_cif.got.tgz:689.got - 2010.06.03 19:44:50.
