data_PCOD9131125
_publ_section_title
;
Structure prediction by ZEFSAII (Michael W. Deem and Ramdas Pophale) SiO2 
 PCOD9131125
Probable space group: P M
;
_chemical_formula_sum "Si O2"
_cell_formula_units_Z 16
_cell_length_a 18.435413
_cell_length_b 8.934270
_cell_length_c 5.465540
_cell_angle_alpha 90.000000
_cell_angle_beta 120.530949
_cell_angle_gamma 90.000000
_cell_volume 775.402400
_symmetry_space_group_name_H-M "P M"
_symmetry_group_IT_number 6
_symmetry_cell_setting 'monoclinic'
loop_
_space_group_symop_operation_xyz
x,y,z
x,-y,z
loop_
_atom_site_type_symbol
_atom_site_label
_atom_site_fract_x
_atom_site_fract_y
_atom_site_fract_z
Si Si1 0.003480 0.180648 0.334420
Si Si2 0.459933 0.834864 0.795063
Si Si3 0.750286 0.171017 0.338637
Si Si4 0.927404 0.679256 0.704281
Si Si5 0.287605 0.817857 0.258325
Si Si6 0.201371 0.819134 0.612244
Si Si7 0.587676 0.663215 0.267268
Si Si8 0.622142 0.838892 0.729200
O O1 0.103348 0.211851 0.488342
O O2 0.969278 0.249941 0.530511
O O3 0.990554 0.000000 0.315396
O O4 0.962420 0.249991 0.017869
O O5 0.383450 0.782024 0.496890
O O6 0.545732 0.850333 0.789656
O O7 0.436411 0.000000 0.853865
O O8 0.494262 0.726076 0.061076
O O9 0.829398 0.275073 0.517162
O O10 0.667093 0.235206 0.324940
O O11 0.769498 0.000000 0.444496
O O12 0.715185 0.165365 0.001283
O O13 0.938235 0.500000 0.724898
O O14 0.232473 0.766783 0.398354
O O15 0.282288 0.000000 0.238725
O O16 0.255235 0.763996 0.938706
O O17 0.210137 0.000000 0.621684
O O18 0.596562 0.500000 0.178374
O O19 0.602130 0.680170 0.577901
O O20 0.614326 0.000000 0.577284
#
# Coordination Sequence:
#
# PCOD9131125 Si02
#       8
#     2   2   2   2   2   2   2   2
#     4  11  23  43  69  97 130 171 216 266 325 390
#     4   9  19  34  55  83 114 153 201 252 303 356
#     4  10  22  41  62  86 115 155 205 257 311 371
#     4  12  26  43  66  98 134 170 213 266 323 388
#     4   9  17  30  55  91 124 152 195 262 317 358
#     4   9  18  33  58  93 123 152 200 261 317 364
#     4  11  22  35  55  81 118 160 198 247 303 366
#     4   9  19  35  56  81 112 153 200 247 299 365
#
# _framework density 20.634447000000002
#
# number of rings (size 3 to 8) (size 9 to 14) (size 15 to 20)
#    0.000    2.000    0.000    4.500    3.500    4.500 
#    0.000    0.000    0.000    4.500    0.000    0.000 
#    0.000    0.000    0.000    0.000    0.000    0.000 
#
# Total GULP energy -89069.331843 kJ/mol
# GULP energy per Si atom -5566.833240 kJ/mol
# Density = 2.058748 g / cm^3
# Si number density = 20.634447 Si / 1000 Ang^3
#
#
#
# Elastic Constant Matrix: (Units=GPa)
#
#
# Indices 1 2 3 4 5 6 
#
# 1 46.4143 8.0858 21.5130 0.0000 7.6736 0.0000
# 2 8.0858 80.5560 34.8159 0.0000 2.2330 0.0000
# 3 21.5130 34.8159 112.9606 0.0000 10.5330 0.0000
# 4 0.0000 0.0000 0.0000 -0.8820 0.0000 -19.5142
# 5 7.6736 2.2330 10.5330 0.0000 33.4009 0.0000
# 6 0.0000 0.0000 0.0000 -19.5142 0.0000 -19.2667
#
#
#
# Elastic Compliance Matrix: (Units=1/GPa)
#
#
# Indices 1 2 3 4 5 6 
#
# 1 0.024220 -0.000566 -0.004042 0.000000 -0.004252 0.000000
# 2 -0.000566 0.014341 -0.004363 0.000000 0.000547 0.000000
# 3 -0.004042 -0.004363 0.011182 0.000000 -0.002306 0.000000
# 4 0.000000 0.000000 0.000000 0.052958 0.000000 -0.053639
# 5 -0.004252 0.000547 -0.002306 0.000000 0.031607 0.000000
# 6 0.000000 0.000000 0.000000 -0.053639 0.000000 0.002424
#
#
# Mechanical properties :
#
#
# Convention : Reuss Voigt Hill
#
# Bulk Modulus (GPa) = 31.44576 40.97334 36.20955
# Shear Modulus (GPa) = 30.25246 14.35152 22.30199
#
# Velocity S-wave (km/s) = 3.83314 2.64012 3.29114
# Velocity P-wave (km/s) = 5.90450 5.40310 5.65936
#
# Compressibility (1/GPa) = 0.03180079
#
# Stress axis : x y z
#
# Youngs Moduli (GPa) = 41.28819 69.72916 89.42789
#
# Poissons Ratio (x) = 0.03950 0.36143
# Poissons Ratio (y) = 0.02339 0.39020
# Poissons Ratio (z) = 0.16687 0.30425
#
# Static dielectric constant tensor:
#      x y z
#    x 1.773090 0.000000 -0.109270 
#    y 0.000000 1.900090 0.000000 
#    z -0.109270 0.000000 1.862950 
# 
# From -- ./inp_files/1959.got.cif
#   From: 2010.05.17/outbox.cif.g08.bks.cpg/sg6_1_cif.got.tgz:1959.got - 2010.06.03 19:42:10.
