data_PCOD9131228
_publ_section_title
;
Structure prediction by ZEFSAII (Michael W. Deem and Ramdas Pophale) SiO2 
 PCOD9131228
Probable space group: P C
;
_chemical_formula_sum "Si O2"
_cell_formula_units_Z 10
_cell_length_a 12.464624
_cell_length_b 6.807606
_cell_length_c 5.240471
_cell_angle_alpha 90.000000
_cell_angle_beta 102.330095
_cell_angle_gamma 90.000000
_cell_volume 434.419127
_symmetry_space_group_name_H-M "P C"
_symmetry_group_IT_number 7
_symmetry_cell_setting 'monoclinic'
loop_
_space_group_symop_operation_xyz
x,y,z
x,-y,1/2+z
loop_
_atom_site_type_symbol
_atom_site_label
_atom_site_fract_x
_atom_site_fract_y
_atom_site_fract_z
Si Si1 0.074080 0.705091 0.277660
Si Si2 0.753313 0.631398 0.456026
Si Si3 0.514345 0.368192 0.921685
Si Si4 0.985393 0.740063 0.734043
Si Si5 0.294253 0.871964 0.232510
O O1 0.067270 0.802276 0.551565
O O2 0.022386 0.489637 0.291124
O O3 0.197312 0.714834 0.235598
O O4 0.999595 0.811929 0.028396
O O5 0.757772 0.541841 0.173739
O O6 0.634599 0.727512 0.441801
O O7 0.862135 0.753927 0.569584
O O8 0.508778 0.537018 0.700434
O O9 0.412608 0.226628 0.825666
O O10 0.283587 0.035649 0.447613
#
# Coordination Sequence:
#
# PCOD9131228 Si02
#       5
#     2   2   2   2   2
#     4  10  20  31  57  82 118 153 191 231 300 350
#     4  10  16  32  54  92 118 141 181 262 306 335
#     4  10  23  38  65  92 116 151 216 255 292 351
#     4  10  17  32  57  94 112 140 190 257 294 337
#     4  12  26  43  59  84 130 169 198 245 306 361
#
# _framework density 23.019242999999999
#
# number of rings (size 3 to 8) (size 9 to 14) (size 15 to 20)
#    0.000    1.600    4.000    2.400    5.600    0.000 
#    0.000    0.000    0.000    7.200    0.000    0.000 
#    0.000    0.000    0.000    0.000    0.000    0.000 
#
# Total GULP energy -55842.927461 kJ/mol
# GULP energy per Si atom -5584.292746 kJ/mol
# Density = 2.296685 g / cm^3
# Si number density = 23.019243 Si / 1000 Ang^3
#
#
#
# Elastic Constant Matrix: (Units=GPa)
#
#
# Indices 1 2 3 4 5 6 
#
# 1 151.1658 6.3663 7.8311 0.0000 30.9782 0.0000
# 2 6.3663 48.2593 -15.4804 0.0000 6.0729 0.0000
# 3 7.8311 -15.4804 123.8039 0.0000 -6.9949 0.0000
# 4 0.0000 0.0000 0.0000 -18.7034 0.0000 3.5299
# 5 30.9782 6.0729 -6.9949 0.0000 49.7268 0.0000
# 6 0.0000 0.0000 0.0000 3.5299 0.0000 14.8613
#
#
#
# Elastic Compliance Matrix: (Units=1/GPa)
#
#
# Indices 1 2 3 4 5 6 
#
# 1 0.007674 -0.000676 -0.000842 0.000000 -0.004817 0.000000
# 2 -0.000676 0.021905 0.002676 0.000000 -0.001877 0.000000
# 3 -0.000842 0.002676 0.008544 0.000000 0.001400 0.000000
# 4 0.000000 0.000000 0.000000 -0.051172 0.000000 0.012155
# 5 -0.004817 -0.001877 0.001400 0.000000 0.023537 0.000000
# 6 0.000000 0.000000 0.000000 0.012155 0.000000 0.064402
#
#
# Mechanical properties :
#
#
# Convention : Reuss Voigt Hill
#
# Bulk Modulus (GPa) = 24.72910 35.62921 30.17916
# Shear Modulus (GPa) = 58.10200 30.81107 44.45653
#
# Velocity S-wave (km/s) = 5.02945 3.66251 4.39940
# Velocity P-wave (km/s) = 6.67033 5.77901 6.24060
#
# Compressibility (1/GPa) = 0.04043819
#
# Stress axis : x y z
#
# Youngs Moduli (GPa) = 130.30217 45.65131 117.03822
#
# Poissons Ratio (x) = 0.03088 0.09857
# Poissons Ratio (y) = 0.08814 -0.31316
# Poissons Ratio (z) = 0.10974 -0.12215
#
# Static dielectric constant tensor:
#      x y z
#    x 1.849220 0.000000 -0.010510 
#    y 0.000000 2.930310 0.000000 
#    z -0.010510 0.000000 1.916790 
# 
# From -- ./inp_files/1047.got.cif
#   From: 2010.05.17/outbox.cif.g08.bks.cpg/sg7_cif.got.tgz:1047.got - 2010.06.03 19:44:50.
