data_PCOD9131969
_publ_section_title
;
Structure prediction by ZEFSAII (Michael W. Deem and Ramdas Pophale) SiO2 
 PCOD9131969
Probable space group: C M
;
_chemical_formula_sum "Si O2"
_cell_formula_units_Z 32
_cell_length_a 25.737871
_cell_length_b 8.443310
_cell_length_c 17.133157
_cell_angle_alpha 90.000000
_cell_angle_beta 153.948423
_cell_angle_gamma 90.000000
_cell_volume 1635.179208
_symmetry_space_group_name_H-M "C M"
_symmetry_group_IT_number 8
_symmetry_cell_setting 'monoclinic'
loop_
_space_group_symop_operation_xyz
x,y,z
x,-y,z
1/2+x,1/2+y,z
1/2+x,1/2-y,z
loop_
_atom_site_type_symbol
_atom_site_label
_atom_site_fract_x
_atom_site_fract_y
_atom_site_fract_z
Si Si1 0.136690 0.813832 0.775870
Si Si2 0.549506 0.691114 0.125041
Si Si3 0.559549 0.188197 0.381795
Si Si4 0.863806 0.812886 0.002624
Si Si5 0.970841 0.808477 0.419144
Si Si6 0.201609 0.312479 0.031162
Si Si7 0.248317 0.690173 0.509228
Si Si8 0.511907 0.690966 0.897537
O O1 0.246385 0.780194 0.866267
O O2 0.020381 0.765735 0.570956
O O3 0.130671 0.000000 0.785370
O O4 0.159351 0.724222 0.886699
O O5 0.549134 0.500000 0.124950
O O6 0.666223 0.745364 0.328960
O O7 0.435160 0.740476 0.021995
O O8 0.540309 0.747295 0.023740
O O9 0.552718 0.235249 0.462357
O O10 0.679962 0.225997 0.498118
O O11 0.538295 0.000000 0.344699
O O12 0.455944 0.282291 0.197438
O O13 0.837559 0.000000 0.961436
O O14 0.836467 0.754684 0.223931
O O15 0.975844 0.000000 0.419090
O O16 0.202963 0.500000 0.045196
O O17 0.112964 0.237880 0.973670
O O18 0.250408 0.500000 0.504214
O O19 0.382732 0.748587 0.694986
O O20 0.505421 0.500000 0.892296
#
# Coordination Sequence:
#
# PCOD9131969 Si02
#       8
#     4   4   4   4   4   4   4   4
#     4  11  23  39  60  88 118 156 198 243 300 356
#     4   9  20  37  59  86 119 156 195 239 291 347
#     4  10  19  33  59  89 120 156 197 239 291 356
#     4  10  19  34  58  87 124 159 191 241 298 348
#     4  10  23  40  58  84 120 155 192 245 304 350
#     4  11  24  43  62  84 117 157 200 249 297 349
#     4   9  20  37  58  86 120 154 192 241 294 346
#     4  10  22  41  62  84 116 159 199 241 291 350
#
# _framework density 19.569721000000001
#
# number of rings (size 3 to 8) (size 9 to 14) (size 15 to 20)
#    0.000    2.000    1.250    1.500    1.750    4.500 
#    0.000    3.750    0.000    0.000    0.000    0.000 
#    0.000    0.000    0.000    0.000    0.000    0.000 
#
# Total GULP energy -89352.653441 kJ/mol
# GULP energy per Si atom -5584.540840 kJ/mol
# Density = 1.952518 g / cm^3
# Si number density = 19.569721 Si / 1000 Ang^3
#
#
#
# Elastic Constant Matrix: (Units=GPa)
#
#
# Indices 1 2 3 4 5 6 
#
# 1 105.8484 4.5551 54.3838 0.0000 -9.8589 0.0000
# 2 4.5551 9.0326 5.8683 0.0000 -0.1407 0.0000
# 3 54.3838 5.8683 75.1458 0.0000 -16.3645 0.0000
# 4 0.0000 0.0000 0.0000 23.7069 0.0000 0.0182
# 5 -9.8589 -0.1407 -16.3645 0.0000 18.4397 0.0000
# 6 0.0000 0.0000 0.0000 0.0182 0.0000 30.8808
#
#
#
# Elastic Compliance Matrix: (Units=1/GPa)
#
#
# Indices 1 2 3 4 5 6 
#
# 1 0.015101 -0.000278 -0.011341 0.000000 -0.001993 0.000000
# 2 -0.000278 0.117827 -0.010954 0.000000 -0.008971 0.000000
# 3 -0.011341 -0.010954 0.026070 0.000000 0.016989 0.000000
# 4 0.000000 0.000000 0.000000 0.042182 0.000000 -0.000025
# 5 -0.001993 -0.008971 0.016989 0.000000 0.068174 0.000000
# 6 0.000000 0.000000 0.000000 -0.000025 0.000000 0.032383
#
#
# Mechanical properties :
#
#
# Convention : Reuss Voigt Hill
#
# Bulk Modulus (GPa) = 8.78331 35.51570 22.14950
# Shear Modulus (GPa) = 12.99270 22.95347 17.97309
#
# Velocity S-wave (km/s) = 2.57946 3.42849 3.03382
# Velocity P-wave (km/s) = 3.65642 5.81897 4.85952
#
# Compressibility (1/GPa) = 0.11385230
#
# Stress axis : x y z
#
# Youngs Moduli (GPa) = 66.22276 8.48703 38.35836
#
# Poissons Ratio (x) = 0.00236 0.43501
# Poissons Ratio (y) = 0.01843 0.42016
# Poissons Ratio (z) = 0.75101 0.09296
#
# Static dielectric constant tensor:
#      x y z
#    x 1.665260 0.000000 -0.001920 
#    y 0.000000 1.668960 0.000000 
#    z -0.001920 0.000000 1.695140 
# 
# From -- ./inp_files/24360.got.cif
#   From: 2010.05.17/outbox.cif.g08.bks.cpg/sg8_13_cif.got.tgz:24360.got - 2010.06.03 19:46:02.
