data_PCOD9131695
_publ_section_title
;
Structure prediction by ZEFSAII (Michael W. Deem and Ramdas Pophale) SiO2 
 PCOD9131695
Probable space group: C M
;
_chemical_formula_sum "Si O2"
_cell_formula_units_Z 32
_cell_length_a 20.829073
_cell_length_b 8.464460
_cell_length_c 25.813145
_cell_angle_alpha 90.000000
_cell_angle_beta 156.788951
_cell_angle_gamma 90.000000
_cell_volume 1793.649815
_symmetry_space_group_name_H-M "C M"
_symmetry_group_IT_number 8
_symmetry_cell_setting 'monoclinic'
loop_
_space_group_symop_operation_xyz
x,y,z
x,-y,z
1/2+x,1/2+y,z
1/2+x,1/2-y,z
loop_
_atom_site_type_symbol
_atom_site_label
_atom_site_fract_x
_atom_site_fract_y
_atom_site_fract_z
Si Si1 0.421400 0.190675 0.295280
Si Si2 0.747006 0.688970 0.337048
Si Si3 0.911981 0.309404 0.794220
Si Si4 0.548978 0.311116 0.499698
Si Si5 0.530356 0.810733 0.264961
Si Si6 0.231544 0.691183 0.974042
Si Si7 0.446126 0.307876 0.040723
Si Si8 0.042402 0.808867 0.000003
O O1 0.488824 0.259080 0.398454
O O2 0.521653 0.238855 0.318457
O O3 0.424828 0.000000 0.301874
O O4 0.232695 0.235974 0.146237
O O5 0.746591 0.500000 0.337654
O O6 0.682261 0.750419 0.344056
O O7 0.610399 0.739849 0.193293
O O8 0.920497 0.748529 0.446510
O O9 0.910246 0.500000 0.790637
O O10 0.731984 0.252297 0.646246
O O11 0.054600 0.253633 0.861075
O O12 0.963924 0.259118 0.890191
O O13 0.549147 0.500000 0.502216
O O14 0.526559 0.000000 0.260390
O O15 0.368170 0.747595 0.116031
O O16 0.232887 0.500000 0.975538
O O17 0.295475 0.742901 0.964938
O O18 0.446704 0.500000 0.040241
O O19 0.454165 0.255495 0.987471
O O20 0.036227 0.000000 0.992663
#
# Coordination Sequence:
#
# PCOD9131695 Si02
#       8
#     4   4   4   4   4   4   4   4
#     4  10  20  35  55  81 113 144 182 229 273 322
#     4  10  19  35  56  79 109 143 181 227 278 331
#     4  10  22  37  52  77 113 146 180 225 274 322
#     4  11  23  37  54  78 112 151 188 228 274 326
#     4  10  19  32  53  83 113 139 176 229 277 323
#     4   9  17  32  53  76 105 144 181 219 269 321
#     4   8  15  29  52  78 102 129 171 224 267 311
#     4  10  18  33  55  80 107 138 181 227 270 324
#
# _framework density 17.840717999999999
#
# number of rings (size 3 to 8) (size 9 to 14) (size 15 to 20)
#    0.000    2.250    2.500    1.875    0.000    2.500 
#    0.000    1.875    0.000    1.500    0.000    0.000 
#    0.000    0.000    0.000    0.000    0.000    0.000 
#
# Total GULP energy -89250.770070 kJ/mol
# GULP energy per Si atom -5578.173129 kJ/mol
# Density = 1.780011 g / cm^3
# Si number density = 17.840718 Si / 1000 Ang^3
#
#
#
# Elastic Constant Matrix: (Units=GPa)
#
#
# Indices 1 2 3 4 5 6 
#
# 1 163.9777 23.7509 78.3060 -0.0003 28.6587 0.0000
# 2 23.7509 16.3933 18.1099 -0.0005 7.0115 0.0000
# 3 78.3060 18.1099 117.8572 -0.0022 20.0001 -0.0001
# 4 -0.0003 -0.0005 -0.0022 19.7532 -0.0003 -1.7624
# 5 28.6587 7.0115 20.0001 -0.0003 27.8155 0.0000
# 6 0.0000 0.0000 -0.0001 -1.7624 0.0000 28.4284
#
#
#
# Elastic Compliance Matrix: (Units=1/GPa)
#
#
# Indices 1 2 3 4 5 6 
#
# 1 0.010450 -0.007441 -0.004887 -0.000001 -0.005377 0.000000
# 2 -0.007441 0.082368 -0.006253 0.000001 -0.008600 0.000000
# 3 -0.004887 -0.006253 0.013179 0.000001 -0.002864 0.000000
# 4 -0.000001 0.000001 0.000001 0.050906 0.000000 0.003156
# 5 -0.005377 -0.008600 -0.002864 0.000000 0.045718 0.000000
# 6 0.000000 0.000000 0.000000 0.003156 0.000000 0.035372
#
#
# Mechanical properties :
#
#
# Convention : Reuss Voigt Hill
#
# Bulk Modulus (GPa) = 14.52787 59.84022 37.18405
# Shear Modulus (GPa) = 16.77288 27.07015 21.92152
#
# Velocity S-wave (km/s) = 3.06951 3.89951 3.50913
# Velocity P-wave (km/s) = 4.55228 7.34092 6.10788
#
# Compressibility (1/GPa) = 0.06883319
#
# Stress axis : x y z
#
# Youngs Moduli (GPa) = 95.69669 12.14068 75.87910
#
# Poissons Ratio (x) = 0.09034 0.37083
# Poissons Ratio (y) = 0.71210 0.47449
# Poissons Ratio (z) = 0.46768 0.07592
#
# Static dielectric constant tensor:
#      x y z
#    x 1.624940 0.000000 0.026540 
#    y 0.000000 1.613410 0.000000 
#    z 0.026540 0.000000 1.586040 
# 
# From -- ./inp_files/15798.got.cif
#   From: 2010.05.17/outbox.cif.g08.bks.cpg/sg8_8_cif.got.tgz:15798.got - 2010.06.03 19:46:02.
