data_PCOD9131484
_publ_section_title
;
Structure prediction by ZEFSAII (Michael W. Deem and Ramdas Pophale) SiO2 
 PCOD9131484
Probable space group: P C
;
_chemical_formula_sum "Si O2"
_cell_formula_units_Z 10
_cell_length_a 4.791675
_cell_length_b 11.708218
_cell_length_c 7.408746
_cell_angle_alpha 90.000000
_cell_angle_beta 73.938535
_cell_angle_gamma 90.000000
_cell_volume 399.420759
_symmetry_space_group_name_H-M "P C"
_symmetry_group_IT_number 7
_symmetry_cell_setting 'monoclinic'
loop_
_space_group_symop_operation_xyz
x,y,z
x,-y,1/2+z
loop_
_atom_site_type_symbol
_atom_site_label
_atom_site_fract_x
_atom_site_fract_y
_atom_site_fract_z
Si Si1 0.946470 0.918637 0.986690
Si Si2 0.215012 0.594541 0.963549
Si Si3 0.337685 0.888399 0.245072
Si Si4 0.797169 0.294265 0.271446
Si Si5 0.206358 0.346048 0.876991
O O1 0.874225 0.829480 0.840560
O O2 0.399996 0.768618 0.332629
O O3 0.130178 0.027152 0.891352
O O4 0.149799 0.861756 0.100847
O O5 0.140712 0.622446 0.182306
O O6 0.459641 0.677411 0.837733
O O7 0.326037 0.464111 0.935456
O O8 0.938197 0.615524 0.886950
O O9 0.638113 0.946631 0.133840
O O10 0.937166 0.312249 0.051739
#
# Coordination Sequence:
#
# PCOD9131484 Si02
#       5
#     2   2   2   2   2
#     4  12  25  50  74 116 156 204 261 321 391 469
#     4  12  28  46  75 111 155 202 257 317 384 461
#     4  12  27  47  80 111 162 201 261 324 389 469
#     4  12  27  48  75 108 155 202 257 319 384 455
#     4  12  27  49  78 114 154 209 252 325 384 460
#
# _framework density 25.036254
#
# number of rings (size 3 to 8) (size 9 to 14) (size 15 to 20)
#    0.000    0.000    6.000    2.400    2.800    6.400 
#    0.000    0.000    0.000    0.000    0.000    0.000 
#    0.000    0.000    0.000    0.000    0.000    0.000 
#
# Total GULP energy -56056.010287 kJ/mol
# GULP energy per Si atom -5605.601029 kJ/mol
# Density = 2.497927 g / cm^3
# Si number density = 25.036254 Si / 1000 Ang^3
#
#
#
# Elastic Constant Matrix: (Units=GPa)
#
#
# Indices 1 2 3 4 5 6 
#
# 1 103.2541 21.3553 22.8101 0.0000 -24.7606 0.0000
# 2 21.3553 177.0461 46.1606 0.0000 -15.6773 0.0000
# 3 22.8101 46.1606 149.3142 0.0000 -33.7983 0.0000
# 4 0.0000 0.0000 0.0000 32.8139 0.0000 0.1817
# 5 -24.7606 -15.6773 -33.7983 0.0000 36.2824 0.0000
# 6 0.0000 0.0000 0.0000 0.1817 0.0000 27.2225
#
#
#
# Elastic Compliance Matrix: (Units=1/GPa)
#
#
# Indices 1 2 3 4 5 6 
#
# 1 0.011676 -0.000774 0.000233 0.000000 0.007850 0.000000
# 2 -0.000774 0.006231 -0.001670 0.000000 0.000608 0.000000
# 3 0.000233 -0.001670 0.008935 0.000000 0.007760 0.000000
# 4 0.000000 0.000000 0.000000 0.030476 0.000000 -0.000203
# 5 0.007850 0.000608 0.007760 0.000000 0.040410 0.000000
# 6 0.000000 0.000000 0.000000 -0.000203 0.000000 0.036736
#
#
# Mechanical properties :
#
#
# Convention : Reuss Voigt Hill
#
# Bulk Modulus (GPa) = 44.60648 67.80736 56.20692
# Shear Modulus (GPa) = 34.16234 41.88300 38.02267
#
# Velocity S-wave (km/s) = 3.69794 4.09454 3.90128
# Velocity P-wave (km/s) = 6.00737 7.03535 6.54158
#
# Compressibility (1/GPa) = 0.02241827
#
# Stress axis : x y z
#
# Youngs Moduli (GPa) = 85.64517 160.48875 111.92343
#
# Poissons Ratio (x) = 0.12419 -0.02603
# Poissons Ratio (y) = 0.06628 0.18696
# Poissons Ratio (z) = -0.01992 0.26808
#
# Static dielectric constant tensor:
#      x y z
#    x 1.889100 0.000000 0.014740 
#    y 0.000000 2.015800 0.000000 
#    z 0.014740 0.000000 1.968130 
# 
# From -- ./inp_files/156.got.cif
#   From: 2010.05.17/outbox.cif.g08.bks.cpg/sg7_cif.got.tgz:156.got - 2010.06.03 19:44:50.
