data_PCOD9131575
_publ_section_title
;
Structure prediction by ZEFSAII (Michael W. Deem and Ramdas Pophale) SiO2 
 PCOD9131575
Probable space group: C M
;
_chemical_formula_sum "Si O2"
_cell_formula_units_Z 22
_cell_length_a 13.702536
_cell_length_b 11.819576
_cell_length_c 15.614145
_cell_angle_alpha 90.000000
_cell_angle_beta 151.884567
_cell_angle_gamma 90.000000
_cell_volume 1191.713702
_symmetry_space_group_name_H-M "C M"
_symmetry_group_IT_number 8
_symmetry_cell_setting 'monoclinic'
loop_
_space_group_symop_operation_xyz
x,y,z
x,-y,z
1/2+x,1/2+y,z
1/2+x,1/2-y,z
loop_
_atom_site_type_symbol
_atom_site_label
_atom_site_fract_x
_atom_site_fract_y
_atom_site_fract_z
Si Si1 0.450511 0.000000 0.384010
Si Si2 0.771123 0.264760 0.295393
Si Si3 0.368962 0.500000 0.799903
Si Si4 0.906123 0.747527 0.588620
Si Si5 0.194317 0.135116 0.590675
Si Si6 0.348335 0.500000 0.591414
Si Si7 0.862112 0.765439 0.883922
O O1 0.326100 0.114788 0.295409
O O2 0.619560 0.000000 0.592102
O O3 0.601443 0.000000 0.418868
O O4 0.785118 0.283900 0.408226
O O5 0.958453 0.180204 0.416360
O O6 0.548774 0.226442 0.088852
O O7 0.448991 0.500000 0.764321
O O8 0.422971 0.385144 0.888643
O O9 0.799210 0.695176 0.589600
O O10 0.904974 0.883886 0.591058
O O11 0.146362 0.713834 0.766347
O O12 0.309546 0.180628 0.765255
O O13 0.203298 0.000000 0.591005
#
# Coordination Sequence:
#
# PCOD9131575 Si02
#       7
#     2   4   2   4   4   2   4
#     4  10  17  43  66  86 117 166 202 251 303 352
#     4  11  24  41  64  93 123 160 205 252 302 359
#     4  10  17  43  66  86 117 166 202 251 303 352
#     4  11  22  41  64  89 124 158 208 249 306 355
#     4  11  24  43  65  83 129 168 197 247 307 365
#     4  10  18  40  68  84 112 170 198 256 306 348
#     4  11  24  41  64  93 123 160 205 252 302 359
#
# _framework density 18.460811
#
# number of rings (size 3 to 8) (size 9 to 14) (size 15 to 20)
#    0.545    0.727    7.273    0.545    7.636    2.182 
#    0.000    0.000    0.000    0.000    0.000    0.000 
#    0.000    0.000    0.000    0.000    0.000    0.000 
#
# Total GULP energy -61353.285306 kJ/mol
# GULP energy per Si atom -5577.571391 kJ/mol
# Density = 1.841879 g / cm^3
# Si number density = 18.460811 Si / 1000 Ang^3
#
#
#
# Elastic Constant Matrix: (Units=GPa)
#
#
# Indices 1 2 3 4 5 6 
#
# 1 73.0807 -8.2597 43.8740 -0.0006 -6.0016 -0.0008
# 2 -8.2597 93.3895 11.1068 -0.0013 2.2936 -0.0016
# 3 43.8740 11.1068 158.8253 -0.0003 11.2050 -0.0006
# 4 -0.0006 -0.0013 -0.0003 13.5966 -0.0002 -2.2479
# 5 -6.0016 2.2936 11.2050 -0.0002 0.6999 -0.0004
# 6 -0.0008 -0.0016 -0.0006 -2.2479 -0.0004 29.0790
#
#
#
# Elastic Compliance Matrix: (Units=1/GPa)
#
#
# Indices 1 2 3 4 5 6 
#
# 1 0.001335 0.001847 0.006789 -0.000001 -0.103282 -0.000001
# 2 0.001847 0.011046 -0.001186 0.000001 -0.001376 0.000001
# 3 0.006789 -0.001186 -0.000952 0.000002 0.077335 0.000001
# 4 -0.000001 0.000001 0.000002 0.074500 -0.000016 0.005759
# 5 -0.103282 -0.001376 0.077335 -0.000016 -0.690407 -0.000012
# 6 -0.000001 0.000001 0.000001 0.005759 -0.000012 0.034834
#
#
# Mechanical properties :
#
#
# Convention : Reuss Voigt Hill
#
# Bulk Modulus (GPa) = 37.98067 46.52641 42.25354
# Shear Modulus (GPa) = -8.68405 27.24673 9.28134
#
# Velocity S-wave (km/s) = -2.17123 3.84594 2.24466
# Velocity P-wave (km/s) = 3.78585 6.70665 5.44573
#
# Compressibility (1/GPa) = 0.02632918
#
# Stress axis : x y z
#
# Youngs Moduli (GPa) = 749.09805 90.53032 -1050.36706
#
# Poissons Ratio (x) = -0.16724 7.13046
# Poissons Ratio (y) = -1.38381 -1.24543
# Poissons Ratio (z) = -5.08528 0.10734
#
# Static dielectric constant tensor:
#      x y z
#    x 1.628680 0.000000 0.002830 
#    y 0.000000 1.622310 0.000000 
#    z 0.002830 0.000000 1.659710 
# 
# From -- ./inp_files/26763.got.cif
#   From: 2010.05.17/outbox.cif.g08.bks.cpg/sg8_14_cif.got.tgz:26763.got - 2010.06.03 19:46:02.
