data_PCOD9131022
_publ_section_title
;
Structure prediction by ZEFSAII (Michael W. Deem and Ramdas Pophale) SiO2 
 PCOD9131022
Probable space group: P M
;
_chemical_formula_sum "Si O2"
_cell_formula_units_Z 15
_cell_length_a 5.002829
_cell_length_b 20.237775
_cell_length_c 5.646251
_cell_angle_alpha 90.000000
_cell_angle_beta 94.996335
_cell_angle_gamma 90.000000
_cell_volume 569.488893
_symmetry_space_group_name_H-M "P M"
_symmetry_group_IT_number 6
_symmetry_cell_setting 'monoclinic'
loop_
_space_group_symop_operation_xyz
x,y,z
x,-y,z
loop_
_atom_site_type_symbol
_atom_site_label
_atom_site_fract_x
_atom_site_fract_y
_atom_site_fract_z
Si Si1 0.693120 0.575395 0.764580
Si Si2 0.364042 0.078111 0.525749
Si Si3 0.992990 0.500000 0.041369
Si Si4 0.987705 0.734945 0.470405
Si Si5 0.283312 0.824247 0.150479
Si Si6 0.236836 0.391992 0.392786
Si Si7 0.867647 0.142391 0.751923
Si Si8 0.543702 0.699597 0.050418
O O1 0.643533 0.500000 0.913539
O O2 0.498489 0.573530 0.528472
O O3 0.640778 0.647009 0.865744
O O4 0.002747 0.557759 0.821518
O O5 0.430882 0.114247 0.281337
O O6 0.074171 0.101383 0.600504
O O7 0.586222 0.105770 0.723719
O O8 0.373992 0.000000 0.505944
O O9 0.037502 0.442233 0.249543
O O10 0.221634 0.778718 0.373506
O O11 0.098130 0.663545 0.547582
O O12 0.853547 0.782802 0.650085
O O13 0.783514 0.719977 0.242687
O O14 0.408266 0.770120 0.980876
O O15 0.013069 0.851550 0.013959
O O16 0.348890 0.346010 0.190855
#
# Coordination Sequence:
#
# PCOD9131022 Si02
#       8
#     2   2   1   2   2   2   2   2
#     4  10  22  38  58  86 120 167 218 272 334 405
#     4  11  25  44  67 103 144 179 227 277 332 406
#     4  10  20  40  56  80 122 160 212 274 328 402
#     4  10  21  42  63  96 128 166 221 283 331 399
#     4  10  24  42  69  96 134 176 221 281 336 398
#     4  11  22  41  59  84 127 164 213 279 339 395
#     4  11  24  43  71 102 136 183 226 278 337 402
#     4  11  22  40  65  93 123 170 222 276 332 404
#
# _framework density 26.339407000000001
#
# number of rings (size 3 to 8) (size 9 to 14) (size 15 to 20)
#    0.400    1.067    3.333    1.200    2.800    2.133 
#    2.400    1.333    0.000    0.000    0.000    0.000 
#    0.000    0.000    0.000    0.000    0.000    0.000 
#
# Total GULP energy -83624.185766 kJ/mol
# GULP energy per Si atom -5574.945718 kJ/mol
# Density = 2.627946 g / cm^3
# Si number density = 26.339407 Si / 1000 Ang^3
#
#
#
# Elastic Constant Matrix: (Units=GPa)
#
#
# Indices 1 2 3 4 5 6 
#
# 1 81.0047 39.4699 24.5073 0.0000 8.4205 0.0000
# 2 39.4699 244.3554 56.5407 0.0000 10.3538 0.0000
# 3 24.5073 56.5407 88.8522 0.0000 26.5372 0.0000
# 4 0.0000 0.0000 0.0000 29.2683 0.0000 7.5358
# 5 8.4205 10.3538 26.5372 0.0000 55.3276 0.0000
# 6 0.0000 0.0000 0.0000 7.5358 0.0000 30.7675
#
#
#
# Elastic Compliance Matrix: (Units=1/GPa)
#
#
# Indices 1 2 3 4 5 6 
#
# 1 0.013998 -0.001621 -0.002666 0.000000 -0.000549 0.000000
# 2 -0.001621 0.005008 -0.002957 0.000000 0.000728 0.000000
# 3 -0.002666 -0.002957 0.015856 0.000000 -0.006646 0.000000
# 4 0.000000 0.000000 0.000000 0.036466 0.000000 -0.008932
# 5 -0.000549 0.000728 -0.006646 0.000000 0.021209 0.000000
# 6 0.000000 0.000000 0.000000 -0.008932 0.000000 0.034689
#
#
# Mechanical properties :
#
#
# Convention : Reuss Voigt Hill
#
# Bulk Modulus (GPa) = 49.07892 72.80536 60.94214
# Shear Modulus (GPa) = 33.66866 42.65231 38.16049
#
# Velocity S-wave (km/s) = 3.57916 4.02846 3.81044
# Velocity P-wave (km/s) = 5.97948 7.02419 6.52279
#
# Compressibility (1/GPa) = 0.02037534
#
# Stress axis : x y z
#
# Youngs Moduli (GPa) = 71.43711 199.69767 63.06583
#
# Poissons Ratio (x) = 0.32372 0.16811
# Poissons Ratio (y) = 0.11580 0.18647
# Poissons Ratio (z) = 0.19043 0.59046
#
# Static dielectric constant tensor:
#      x y z
#    x 2.223940 0.000000 -0.151340 
#    y 0.000000 2.087690 0.000000 
#    z -0.151340 0.000000 2.185850 
# 
# From -- ./inp_files/640.got.cif
#   From: 2010.05.17/outbox.cif.g08.bks.cpg/sg6_1_cif.got.tgz:640.got - 2010.06.03 19:42:10.
