data_PCOD9131113
_publ_section_title
;
Structure prediction by ZEFSAII (Michael W. Deem and Ramdas Pophale) SiO2 
 PCOD9131113
Probable space group: P M
;
_chemical_formula_sum "Si O2"
_cell_formula_units_Z 14
_cell_length_a 10.592734
_cell_length_b 8.051925
_cell_length_c 7.940702
_cell_angle_alpha 90.000000
_cell_angle_beta 119.842543
_cell_angle_gamma 90.000000
_cell_volume 587.467983
_symmetry_space_group_name_H-M "P M"
_symmetry_group_IT_number 6
_symmetry_cell_setting 'monoclinic'
loop_
_space_group_symop_operation_xyz
x,y,z
x,-y,z
loop_
_atom_site_type_symbol
_atom_site_label
_atom_site_fract_x
_atom_site_fract_y
_atom_site_fract_z
Si Si1 0.871750 0.813754 0.872830
Si Si2 0.357480 0.806360 0.835057
Si Si3 0.044202 0.198133 0.502010
Si Si4 0.140834 0.303271 0.208968
Si Si5 0.440565 0.193218 0.278430
Si Si6 0.665440 0.312079 0.020872
Si Si7 0.748435 0.252595 0.428069
O O1 0.801594 0.819159 0.642274
O O2 0.875312 0.000000 0.941178
O O3 0.772135 0.711483 0.935762
O O4 0.036254 0.745163 0.983714
O O5 0.198955 0.746445 0.678322
O O6 0.365142 0.000000 0.790916
O O7 0.375697 0.793644 0.047665
O O8 0.499517 0.717924 0.855420
O O9 0.062849 0.219432 0.315768
O O10 0.909969 0.308156 0.476797
O O11 0.018366 0.000000 0.525061
O O12 0.141433 0.500000 0.228363
O O13 0.305656 0.239937 0.305450
O O14 0.585458 0.305177 0.378614
O O15 0.485206 0.000000 0.336312
O O16 0.700294 0.194100 0.205268
O O17 0.679408 0.500000 0.097779
#
# Coordination Sequence:
#
# PCOD9131113 Si02
#       7
#     2   2   2   2   2   2   2
#     4  12  25  44  74 105 136 182 239 295 346 409
#     4   9  21  41  69  99 132 177 234 288 341 406
#     4  11  22  42  71 100 134 179 234 295 348 407
#     4  12  27  44  63  98 143 187 231 284 354 422
#     4  10  21  42  69 100 133 173 229 290 345 411
#     4  11  25  45  68 104 148 187 226 283 355 424
#     4  11  25  44  74 106 138 179 235 293 349 409
#
# _framework density 23.831087
#
# number of rings (size 3 to 8) (size 9 to 14) (size 15 to 20)
#    0.000    1.143    1.429    4.286    2.000    7.429 
#    0.000    1.429    0.000    0.000    0.000    0.000 
#    0.000    0.000    0.000    0.000    0.000    0.000 
#
# Total GULP energy -78018.469236 kJ/mol
# GULP energy per Si atom -5572.747803 kJ/mol
# Density = 2.377685 g / cm^3
# Si number density = 23.831087 Si / 1000 Ang^3
#
#
#
# Elastic Constant Matrix: (Units=GPa)
#
#
# Indices 1 2 3 4 5 6 
#
# 1 173.2741 29.2325 50.7564 0.0000 35.4113 0.0000
# 2 29.2325 86.4890 22.5742 0.0000 11.3661 0.0000
# 3 50.7564 22.5742 124.7850 0.0000 34.1356 0.0000
# 4 0.0000 0.0000 0.0000 4.4794 0.0000 25.0526
# 5 35.4113 11.3661 34.1356 0.0000 49.9228 0.0000
# 6 0.0000 0.0000 0.0000 25.0526 0.0000 27.4017
#
#
#
# Elastic Compliance Matrix: (Units=1/GPa)
#
#
# Indices 1 2 3 4 5 6 
#
# 1 0.007270 -0.001538 -0.001678 0.000000 -0.003659 0.000000
# 2 -0.001538 0.012559 -0.001430 0.000000 -0.000790 0.000000
# 3 -0.001678 -0.001430 0.010505 0.000000 -0.005668 0.000000
# 4 0.000000 0.000000 0.000000 -0.054273 0.000000 0.049620
# 5 -0.003659 -0.000790 -0.005668 0.000000 0.026682 0.000000
# 6 0.000000 0.000000 0.000000 0.049620 0.000000 -0.008872
#
#
# Mechanical properties :
#
#
# Convention : Reuss Voigt Hill
#
# Bulk Modulus (GPa) = 47.52374 65.51939 56.52157
# Shear Modulus (GPa) = 491.25840 35.15978 263.20909
#
# Velocity S-wave (km/s) = 14.37322 3.84523 10.52082
# Velocity P-wave (km/s) = 17.18830 6.87512 13.09017
#
# Compressibility (1/GPa) = 0.02104211
#
# Stress axis : x y z
#
# Youngs Moduli (GPa) = 137.55075 79.62258 95.19003
#
# Poissons Ratio (x) = 0.12249 0.15971
# Poissons Ratio (y) = 0.21161 0.13613
# Poissons Ratio (z) = 0.23078 0.11387
#
# Static dielectric constant tensor:
#      x y z
#    x 1.888280 0.000000 0.011350 
#    y 0.000000 1.939320 0.000000 
#    z 0.011350 0.000000 1.892230 
# 
# From -- ./inp_files/3802.got.cif
#   From: 2010.05.17/outbox.cif.g08.bks.cpg/sg6_2_cif.got.tgz:3802.got - 2010.06.03 19:42:10.
