data_PCOD9131677
_publ_section_title
;
Structure prediction by ZEFSAII (Michael W. Deem and Ramdas Pophale) SiO2 
 PCOD9131677
Probable space group: C M
;
_chemical_formula_sum "Si O2"
_cell_formula_units_Z 28
_cell_length_a 12.802139
_cell_length_b 14.244900
_cell_length_c 12.927425
_cell_angle_alpha 90.000000
_cell_angle_beta 31.340315
_cell_angle_gamma 90.000000
_cell_volume 1226.189790
_symmetry_space_group_name_H-M "C M"
_symmetry_group_IT_number 8
_symmetry_cell_setting 'monoclinic'
loop_
_space_group_symop_operation_xyz
x,y,z
x,-y,z
1/2+x,1/2+y,z
1/2+x,1/2-y,z
loop_
_atom_site_type_symbol
_atom_site_label
_atom_site_fract_x
_atom_site_fract_y
_atom_site_fract_z
Si Si1 0.001010 0.896820 0.206880
Si Si2 0.427323 0.612423 0.696675
Si Si3 0.556648 0.100617 0.565015
Si Si4 0.179374 0.784874 0.666957
Si Si5 0.058144 0.754593 0.976247
Si Si6 0.415708 0.897807 0.904573
Si Si7 0.592360 0.273698 0.377332
O O1 0.029409 0.812559 0.105294
O O2 0.774053 0.897367 0.437953
O O3 0.018748 0.000000 0.141099
O O4 0.182432 0.891770 0.134416
O O5 0.405496 0.500000 0.730024
O O6 0.565136 0.659209 0.672703
O O7 0.531342 0.636570 0.498386
O O8 0.216596 0.670724 0.868433
O O9 0.404498 0.102991 0.788304
O O10 0.567223 0.188168 0.481980
O O11 0.538405 0.000000 0.525339
O O12 0.412896 0.759023 0.451142
O O13 0.064893 0.687600 0.792936
O O14 0.144168 0.824773 0.813325
O O15 0.825905 0.726915 0.150871
O O16 0.493415 0.000000 0.872802
#
# Coordination Sequence:
#
# PCOD9131677 Si02
#       7
#     4   4   4   4   4   4   4
#     4   9  17  32  57  84 108 139 182 236 300 361
#     4  11  24  43  63  89 129 176 217 254 310 380
#     4   9  17  32  57  84 108 139 182 236 300 361
#     4  11  22  37  58  93 119 158 209 259 310 367
#     4  10  22  40  62  88 124 164 205 256 313 375
#     4  10  18  32  55  80 108 140 184 241 296 351
#     4  10  22  40  62  88 124 164 205 256 313 375
#
# _framework density 22.834963999999999
#
# number of rings (size 3 to 8) (size 9 to 14) (size 15 to 20)
#    0.000    2.000    2.857    0.857    0.000    6.286 
#    0.000    0.000    0.000    0.000    0.000    0.000 
#    0.000    0.000    0.000    0.000    0.000    0.000 
#
# Total GULP energy -77945.321198 kJ/mol
# GULP energy per Si atom -5567.522943 kJ/mol
# Density = 2.278299 g / cm^3
# Si number density = 22.834964 Si / 1000 Ang^3
#
#
#
# Elastic Constant Matrix: (Units=GPa)
#
#
# Indices 1 2 3 4 5 6 
#
# 1 105.6912 40.5015 34.6616 -0.0023 -18.2917 0.0011
# 2 40.5015 95.0076 16.6431 -0.0042 -22.3517 0.0023
# 3 34.6616 16.6431 148.1007 -0.0060 -38.6442 0.0044
# 4 -0.0023 -0.0042 -0.0060 20.4087 0.0025 -3.9816
# 5 -18.2917 -22.3517 -38.6442 0.0025 38.0093 -0.0013
# 6 0.0011 0.0023 0.0044 -3.9816 -0.0013 16.2823
#
#
#
# Elastic Compliance Matrix: (Units=1/GPa)
#
#
# Indices 1 2 3 4 5 6 
#
# 1 0.012048 -0.004529 -0.002032 0.000000 0.001069 0.000000
# 2 -0.004529 0.013969 0.001449 0.000002 0.007509 -0.000001
# 3 -0.002032 0.001449 0.009571 0.000001 0.009606 -0.000002
# 4 0.000000 0.000002 0.000001 0.051453 -0.000001 0.012582
# 5 0.001069 0.007509 0.009606 -0.000001 0.041005 -0.000001
# 6 0.000000 -0.000001 -0.000002 0.012582 -0.000001 0.064493
#
#
# Mechanical properties :
#
#
# Convention : Reuss Voigt Hill
#
# Bulk Modulus (GPa) = 39.42315 59.15687 49.29001
# Shear Modulus (GPa) = 23.67224 32.07296 27.87260
#
# Velocity S-wave (km/s) = 3.22322 3.75181 3.49751
# Velocity P-wave (km/s) = 5.58158 6.68809 6.15973
#
# Compressibility (1/GPa) = 0.02536581
#
# Stress axis : x y z
#
# Youngs Moduli (GPa) = 82.99893 71.58903 104.47963
#
# Poissons Ratio (x) = 0.32420 0.21229
# Poissons Ratio (y) = 0.37588 -0.15143
# Poissons Ratio (z) = 0.16864 -0.10376
#
# Static dielectric constant tensor:
#      x y z
#    x 2.041940 0.000000 0.021020 
#    y 0.000000 1.986990 0.000000 
#    z 0.021020 0.000000 1.895580 
# 
# From -- ./inp_files/26904.got.cif
#   From: 2010.05.17/outbox.cif.g08.bks.cpg/sg8_14_cif.got.tgz:26904.got - 2010.06.03 19:46:02.
