data_PCOD9131005
_publ_section_title
;
Structure prediction by ZEFSAII (Michael W. Deem and Ramdas Pophale) SiO2 
 PCOD9131005
Probable space group: P M
;
_chemical_formula_sum "Si O2"
_cell_formula_units_Z 13
_cell_length_a 11.836925
_cell_length_b 12.654513
_cell_length_c 7.739089
_cell_angle_alpha 90.000000
_cell_angle_beta 150.241794
_cell_angle_gamma 90.000000
_cell_volume 575.379239
_symmetry_space_group_name_H-M "P M"
_symmetry_group_IT_number 6
_symmetry_cell_setting 'monoclinic'
loop_
_space_group_symop_operation_xyz
x,y,z
x,-y,z
loop_
_atom_site_type_symbol
_atom_site_label
_atom_site_fract_x
_atom_site_fract_y
_atom_site_fract_z
Si Si1 0.142510 0.500000 0.634560
Si Si2 0.520211 0.880080 0.726522
Si Si3 0.278908 0.325435 0.361062
Si Si4 0.957345 0.500000 0.022764
Si Si5 0.925987 0.118654 0.536763
Si Si6 0.675751 0.878095 0.539490
Si Si7 0.304729 0.285147 0.995138
Si Si8 0.636197 0.500000 0.895323
O O1 0.121921 0.500000 0.404987
O O2 0.270054 0.394408 0.854155
O O3 0.869224 0.500000 0.317832
O O4 0.323917 0.792384 0.490144
O O5 0.657135 0.861801 0.723831
O O6 0.429548 0.000000 0.596616
O O7 0.695375 0.874969 0.118411
O O8 0.038906 0.389808 0.047927
O O9 0.482031 0.396805 0.710020
O O10 0.324187 0.316517 0.219617
O O11 0.717175 0.500000 0.799483
O O12 0.893267 0.129594 0.701257
O O13 0.086843 0.210582 0.684108
O O14 0.018791 0.000000 0.630214
O O15 0.598552 0.000000 0.412026
O O16 0.515358 0.790448 0.240869
#
# Coordination Sequence:
#
# PCOD9131005 Si02
#       8
#     1   2   2   1   2   2   2   1
#     4  10  22  38  56  84 116 148 197 240 288 343
#     4   9  19  36  60  88 121 156 192 235 284 346
#     4  10  20  38  61  80 115 152 192 237 290 343
#     4   9  22  37  59  82 108 149 194 239 282 345
#     4  10  21  38  61  88 119 155 192 236 291 344
#     4   9  20  39  61  88 120 156 192 233 289 345
#     4  11  22  38  57  87 117 150 194 245 286 342
#     4   9  20  37  57  78 108 149 189 239 284 338
#
# _framework density 22.593795
#
# number of rings (size 3 to 8) (size 9 to 14) (size 15 to 20)
#    0.462    1.846    0.000    2.308    2.154    3.077 
#    0.000    0.000    0.000    8.308    0.000    0.000 
#    0.000    0.000    0.000    0.000    0.000    0.000 
#
# Total GULP energy -72395.913558 kJ/mol
# GULP energy per Si atom -5568.916428 kJ/mol
# Density = 2.254237 g / cm^3
# Si number density = 22.593795 Si / 1000 Ang^3
#
#
#
# Elastic Constant Matrix: (Units=GPa)
#
#
# Indices 1 2 3 4 5 6 
#
# 1 36.7772 24.1803 -6.2879 0.0000 -0.4446 0.0000
# 2 24.1803 136.8164 21.7030 0.0000 1.0402 0.0000
# 3 -6.2879 21.7030 45.8590 0.0000 -7.8597 0.0000
# 4 0.0000 0.0000 0.0000 17.9167 0.0000 -10.7794
# 5 -0.4446 1.0402 -7.8597 0.0000 22.9167 0.0000
# 6 0.0000 0.0000 0.0000 -10.7794 0.0000 12.0525
#
#
#
# Elastic Compliance Matrix: (Units=1/GPa)
#
#
# Indices 1 2 3 4 5 6 
#
# 1 0.033574 -0.007355 0.008769 0.000000 0.003993 0.000000
# 2 -0.007355 0.009580 -0.005993 0.000000 -0.002633 0.000000
# 3 0.008769 -0.005993 0.027539 0.000000 0.009887 0.000000
# 4 0.000000 0.000000 0.000000 0.120833 0.000000 0.108070
# 5 0.003993 -0.002633 0.009887 0.000000 0.047224 0.000000
# 6 0.000000 0.000000 0.000000 0.108070 0.000000 0.179626
#
#
# Mechanical properties :
#
#
# Convention : Reuss Voigt Hill
#
# Bulk Modulus (GPa) = 16.25139 33.18259 24.71699
# Shear Modulus (GPa) = 11.15954 22.56764 16.86359
#
# Velocity S-wave (km/s) = 2.22484 3.16388 2.73496
# Velocity P-wave (km/s) = 3.71596 5.29767 4.57568
#
# Compressibility (1/GPa) = 0.06153320
#
# Stress axis : x y z
#
# Youngs Moduli (GPa) = 29.78496 104.38753 36.31181
#
# Poissons Ratio (x) = 0.76777 -0.31840
# Poissons Ratio (y) = 0.21907 0.21763
# Poissons Ratio (z) = -0.26117 0.62563
#
# Static dielectric constant tensor:
#      x y z
#    x 1.870730 0.000000 0.026870 
#    y 0.000000 2.811490 0.000000 
#    z 0.026870 0.000000 1.843270 
# 
# From -- ./inp_files/4157.got.cif
#   From: 2010.05.17/outbox.cif.g08.bks.cpg/sg6_3_cif.got.tgz:4157.got - 2010.06.03 19:42:10.
