data_PCOD9131755
_publ_section_title
;
Structure prediction by ZEFSAII (Michael W. Deem and Ramdas Pophale) SiO2 
 PCOD9131755
Probable space group: C M
;
_chemical_formula_sum "Si O2"
_cell_formula_units_Z 22
_cell_length_a 20.080684
_cell_length_b 11.100779
_cell_length_c 15.741164
_cell_angle_alpha 90.000000
_cell_angle_beta 161.745646
_cell_angle_gamma 90.000000
_cell_volume 1099.108171
_symmetry_space_group_name_H-M "C M"
_symmetry_group_IT_number 8
_symmetry_cell_setting 'monoclinic'
loop_
_space_group_symop_operation_xyz
x,y,z
x,-y,z
1/2+x,1/2+y,z
1/2+x,1/2-y,z
loop_
_atom_site_type_symbol
_atom_site_label
_atom_site_fract_x
_atom_site_fract_y
_atom_site_fract_z
Si Si1 0.765130 0.251851 0.612270
Si Si2 0.850795 0.500000 0.653968
Si Si3 0.482629 0.229867 0.103387
Si Si4 0.941719 0.500000 0.566103
Si Si5 0.398965 0.500000 0.040384
Si Si6 0.051021 0.142325 0.518114
Si Si7 0.190472 0.773746 0.187731
O O1 0.897337 0.375559 0.754342
O O2 0.624026 0.217663 0.359744
O O3 0.615811 0.283495 0.511407
O O4 0.970388 0.171917 0.882374
O O5 0.926143 0.500000 0.648777
O O6 0.594612 0.500000 0.341814
O O7 0.616388 0.198559 0.181426
O O8 0.425655 0.372977 0.025299
O O9 0.259660 0.160205 0.830818
O O10 0.829293 0.382688 0.393049
O O11 0.181756 0.500000 0.826751
O O12 0.845531 0.200715 0.312971
O O13 0.021257 0.000000 0.465038
#
# Coordination Sequence:
#
# PCOD9131755 Si02
#       7
#     4   2   4   2   2   4   4
#     4  10  22  40  62  91 120 157 200 251 302 350
#     4  10  20  38  64  91 116 151 205 258 297 343
#     4  10  21  42  63  87 122 160 198 250 303 352
#     4  12  20  38  66  93 113 156 207 251 300 353
#     4  10  18  34  66  90 109 149 202 253 299 342
#     4  11  24  39  62  91 123 160 200 244 302 362
#     4  11  23  37  64  92 122 154 202 251 301 353
#
# _framework density 20.016228000000002
#
# number of rings (size 3 to 8) (size 9 to 14) (size 15 to 20)
#    0.000    1.455    6.364    0.000    1.273    5.091 
#    1.636    0.000    4.000    0.000    0.000    0.000 
#    0.000    0.000    0.000    0.000    0.000    0.000 
#
# Total GULP energy -61328.836755 kJ/mol
# GULP energy per Si atom -5575.348796 kJ/mol
# Density = 1.997067 g / cm^3
# Si number density = 20.016228 Si / 1000 Ang^3
#
#
#
# Elastic Constant Matrix: (Units=GPa)
#
#
# Indices 1 2 3 4 5 6 
#
# 1 151.4750 16.2585 94.7072 0.0004 12.2862 0.0002
# 2 16.2585 28.3414 0.7728 0.0013 13.1195 0.0009
# 3 94.7072 0.7728 120.6993 0.0007 25.3542 0.0004
# 4 0.0004 0.0013 0.0007 20.4395 0.0006 1.5659
# 5 12.2862 13.1195 25.3542 0.0006 40.9208 0.0004
# 6 0.0002 0.0009 0.0004 1.5659 0.0004 24.4720
#
#
#
# Elastic Compliance Matrix: (Units=1/GPa)
#
#
# Indices 1 2 3 4 5 6 
#
# 1 0.016348 -0.012750 -0.014455 0.000001 0.008136 0.000000
# 2 -0.012750 0.052282 0.014240 -0.000003 -0.021757 -0.000002
# 3 -0.014455 0.014240 0.022514 -0.000001 -0.014175 0.000000
# 4 0.000001 -0.000003 -0.000001 0.049166 0.000001 -0.003146
# 5 0.008136 -0.021757 -0.014175 0.000001 0.037753 0.000000
# 6 0.000000 -0.000002 0.000000 -0.003146 0.000000 0.041064
#
#
# Mechanical properties :
#
#
# Convention : Reuss Voigt Hill
#
# Bulk Modulus (GPa) = 15.33436 58.22140 36.77788
# Shear Modulus (GPa) = 18.74102 29.75159 24.24630
#
# Velocity S-wave (km/s) = 3.06321 3.85953 3.48420
# Velocity P-wave (km/s) = 4.49317 7.00083 5.88218
#
# Compressibility (1/GPa) = 0.06521301
#
# Stress axis : x y z
#
# Youngs Moduli (GPa) = 61.16907 19.12716 44.41766
#
# Poissons Ratio (x) = 0.24388 0.64206
# Poissons Ratio (y) = 0.77992 -0.63251
# Poissons Ratio (z) = 0.88420 -0.27237
#
# Static dielectric constant tensor:
#      x y z
#    x 1.710080 0.000000 -0.023750 
#    y 0.000000 1.813590 0.000000 
#    z -0.023750 0.000000 1.714470 
# 
# From -- ./inp_files/3713.got.cif
#   From: 2010.05.17/outbox.cif.g08.bks.cpg/sg8_2_cif.got.tgz:3713.got - 2010.06.03 19:46:02.
