data_PCOD9131713
_publ_section_title
;
Structure prediction by ZEFSAII (Michael W. Deem and Ramdas Pophale) SiO2 
 PCOD9131713
Probable space group: C M
;
_chemical_formula_sum "Si O2"
_cell_formula_units_Z 32
_cell_length_a 16.042129
_cell_length_b 7.601707
_cell_length_c 27.067810
_cell_angle_alpha 90.000000
_cell_angle_beta 26.718128
_cell_angle_gamma 90.000000
_cell_volume 1484.069124
_symmetry_space_group_name_H-M "C M"
_symmetry_group_IT_number 8
_symmetry_cell_setting 'monoclinic'
loop_
_space_group_symop_operation_xyz
x,y,z
x,-y,z
1/2+x,1/2+y,z
1/2+x,1/2-y,z
loop_
_atom_site_type_symbol
_atom_site_label
_atom_site_fract_x
_atom_site_fract_y
_atom_site_fract_z
Si Si1 0.195140 0.709712 0.730680
Si Si2 0.491728 0.204812 0.745734
Si Si3 0.286186 0.704699 0.122862
Si Si4 0.301228 0.212787 0.503940
Si Si5 0.115353 0.786695 0.498265
Si Si6 0.133935 0.213296 0.876834
Si Si7 0.922048 0.204193 0.257206
Si Si8 0.722909 0.216119 0.267133
O O1 0.205224 0.500000 0.717036
O O2 0.403589 0.776850 0.610544
O O3 0.140890 0.736820 0.815916
O O4 0.049177 0.782009 0.768191
O O5 0.673121 0.217070 0.615364
O O6 0.317833 0.279758 0.807747
O O7 0.444523 0.000000 0.778571
O O8 0.332305 0.500000 0.106012
O O9 0.264085 0.778370 0.189800
O O10 0.092590 0.712575 0.196186
O O11 0.451814 0.778343 0.001881
O O12 0.212118 0.264862 0.498605
O O13 0.514636 0.269554 0.392397
O O14 0.296286 0.000000 0.509111
O O15 0.238745 0.720518 0.387854
O O16 0.117214 0.000000 0.495391
O O17 0.134911 0.000000 0.876598
O O18 0.868753 0.274496 0.231377
O O19 0.970697 0.000000 0.226079
O O20 0.722212 0.000000 0.267658
#
# Coordination Sequence:
#
# PCOD9131713 Si02
#       8
#     4   4   4   4   4   4   4   4
#     4  10  21  37  58  84 115 148 180 222 278 329
#     4  10  21  36  55  84 115 144 180 226 276 323
#     4  10  21  41  60  75 107 152 189 224 275 336
#     4  10  18  33  58  83 109 148 184 215 268 334
#     4  10  19  34  57  83 114 152 180 211 275 341
#     4  10  22  38  58  81 107 146 191 231 272 321
#     4  11  22  35  57  88 112 139 184 235 275 315
#     4   9  19  36  57  80 109 145 182 218 271 337
#
# _framework density 21.562339000000001
#
# number of rings (size 3 to 8) (size 9 to 14) (size 15 to 20)
#    0.000    2.000    2.500    1.125    0.000    3.000 
#    0.000    4.375    0.000    0.000    0.000    0.000 
#    0.000    0.000    0.000    0.000    0.000    0.000 
#
# Total GULP energy -89394.424049 kJ/mol
# GULP energy per Si atom -5587.151503 kJ/mol
# Density = 2.151326 g / cm^3
# Si number density = 21.562339 Si / 1000 Ang^3
#
#
#
# Elastic Constant Matrix: (Units=GPa)
#
#
# Indices 1 2 3 4 5 6 
#
# 1 185.5051 -5.7852 64.4764 0.0003 25.2913 -0.0008
# 2 -5.7852 39.9224 -16.7001 0.0006 -2.1398 -0.0004
# 3 64.4764 -16.7001 129.2905 -0.0004 13.6463 -0.0034
# 4 0.0003 0.0006 -0.0004 18.3343 -0.0006 11.8667
# 5 25.2913 -2.1398 13.6463 -0.0006 -0.3134 -0.0013
# 6 -0.0008 -0.0004 -0.0034 11.8667 -0.0013 -119.3479
#
#
#
# Elastic Compliance Matrix: (Units=1/GPa)
#
#
# Indices 1 2 3 4 5 6 
#
# 1 0.002872 0.000109 -0.004611 0.000001 0.030253 0.000000
# 2 0.000109 0.026427 0.003838 -0.000001 -0.004537 0.000000
# 3 -0.004611 0.003838 0.009395 0.000001 0.010750 0.000000
# 4 0.000001 -0.000001 0.000001 0.051245 -0.000009 0.005095
# 5 0.030253 -0.004537 0.010750 -0.000009 -0.250343 0.000001
# 6 0.000000 0.000000 0.000000 0.005095 0.000001 -0.007872
#
#
# Mechanical properties :
#
#
# Convention : Reuss Voigt Hill
#
# Bulk Modulus (GPa) = 26.76303 48.74449 37.75376
# Shear Modulus (GPa) = -32.36415 0.58307 -15.89054
#
# Velocity S-wave (km/s) = -3.87842 0.52057 -2.71764
# Velocity P-wave (km/s) = 2.75995 4.79757 2.77483
#
# Compressibility (1/GPa) = 0.03736498
#
# Stress axis : x y z
#
# Youngs Moduli (GPa) = 348.16074 37.84054 106.43524
#
# Poissons Ratio (x) = -0.00411 0.49083
# Poissons Ratio (y) = -0.03784 -0.40851
# Poissons Ratio (z) = 1.60554 -0.14524
#
# Static dielectric constant tensor:
#      x y z
#    x 1.781860 0.000000 -0.005800 
#    y 0.000000 1.814970 0.000000 
#    z -0.005800 0.000000 1.738550 
# 
# From -- ./inp_files/26535.got.cif
#   From: 2010.05.17/outbox.cif.g08.bks.cpg/sg8_14_cif.got.tgz:26535.got - 2010.06.03 19:46:02.
