data_PCOD9131913
_publ_section_title
;
Structure prediction by ZEFSAII (Michael W. Deem and Ramdas Pophale) SiO2 
 PCOD9131913
Probable space group: C M
;
_chemical_formula_sum "Si O2"
_cell_formula_units_Z 32
_cell_length_a 22.894831
_cell_length_b 7.528221
_cell_length_c 28.038827
_cell_angle_alpha 90.000000
_cell_angle_beta 18.169628
_cell_angle_gamma 90.000000
_cell_volume 1506.986466
_symmetry_space_group_name_H-M "C M"
_symmetry_group_IT_number 8
_symmetry_cell_setting 'monoclinic'
loop_
_space_group_symop_operation_xyz
x,y,z
x,-y,z
1/2+x,1/2+y,z
1/2+x,1/2-y,z
loop_
_atom_site_type_symbol
_atom_site_label
_atom_site_fract_x
_atom_site_fract_y
_atom_site_fract_z
Si Si1 0.279960 0.782296 0.950180
Si Si2 0.630616 0.216552 0.865911
Si Si3 0.028118 0.782812 0.325791
Si Si4 0.535876 0.704169 0.581204
Si Si5 0.859308 0.205518 0.259010
Si Si6 0.616495 0.794905 0.624897
Si Si7 0.849364 0.283703 0.003960
Si Si8 0.810175 0.285442 0.187946
O O1 0.432816 0.720015 0.793233
O O2 0.273128 0.000000 0.953685
O O3 0.342215 0.728153 0.954878
O O4 0.068694 0.721058 0.103826
O O5 0.841958 0.277708 0.710163
O O6 0.631324 0.000000 0.863743
O O7 0.526655 0.274559 0.898127
O O8 0.496132 0.268272 0.014288
O O9 0.162995 0.729212 0.177450
O O10 0.133678 0.730528 0.292445
O O11 0.817365 0.716513 0.483434
O O12 0.025931 0.000000 0.326613
O O13 0.498847 0.500000 0.622752
O O14 0.700824 0.710068 0.414792
O O15 0.594238 0.791949 0.585403
O O16 0.809929 0.218244 0.241689
O O17 0.863055 0.000000 0.270857
O O18 0.624949 0.000000 0.634104
O O19 0.851074 0.500000 0.002539
O O20 0.809874 0.500000 0.190094
#
# Coordination Sequence:
#
# PCOD9131913 Si02
#       8
#     4   4   4   4   4   4   4   4
#     4   9  18  30  49  75 102 130 165 206 251 296
#     4   8  16  30  51  76 102 129 163 205 250 295
#     4   8  15  28  51  78 103 130 165 204 245 293
#     4  11  22  35  51  74 101 134 171 210 252 298
#     4  11  22  35  50  73 103 136 170 209 251 297
#     4  10  19  33  53  78 103 131 166 208 252 299
#     4   8  13  26  47  73 101 129 161 203 247 292
#     4   9  17  33  55  79 103 131 165 205 250 300
#
# _framework density 21.23443
#
# number of rings (size 3 to 8) (size 9 to 14) (size 15 to 20)
#    0.000    2.750    0.000    3.750    0.000    3.000 
#    0.000    5.625    0.000    0.000    0.000    6.125 
#    0.000    0.000    0.000    0.000    0.000    0.000 
#
# Total GULP energy -89326.728758 kJ/mol
# GULP energy per Si atom -5582.920547 kJ/mol
# Density = 2.118610 g / cm^3
# Si number density = 21.234430 Si / 1000 Ang^3
#
#
#
# Elastic Constant Matrix: (Units=GPa)
#
#
# Indices 1 2 3 4 5 6 
#
# 1 143.1656 -11.0020 98.2677 0.0006 4.1357 -0.0045
# 2 -11.0020 51.2794 0.6978 0.0243 -3.5782 -0.0148
# 3 98.2677 0.6978 188.6433 0.0029 -22.2804 -0.0140
# 4 0.0006 0.0243 0.0029 5.1957 0.0057 1.6145
# 5 4.1357 -3.5782 -22.2804 0.0057 29.8910 -0.0015
# 6 -0.0045 -0.0148 -0.0140 1.6145 -0.0015 18.1221
#
#
#
# Elastic Compliance Matrix: (Units=1/GPa)
#
#
# Indices 1 2 3 4 5 6 
#
# 1 0.012320 0.002266 -0.007232 0.000000 -0.006824 -0.000001
# 2 0.002266 0.020091 -0.001105 -0.000103 0.001268 0.000025
# 3 -0.007232 -0.001105 0.010061 -0.000011 0.008368 0.000007
# 4 0.000000 -0.000103 -0.000011 0.197946 -0.000059 -0.017635
# 5 -0.006824 0.001268 0.008368 -0.000059 0.040788 0.000014
# 6 -0.000001 0.000025 0.000007 -0.017635 0.000014 0.056752
#
#
# Mechanical properties :
#
#
# Convention : Reuss Voigt Hill
#
# Bulk Modulus (GPa) = 32.97180 62.11281 47.54231
# Shear Modulus (GPa) = 13.88077 30.31676 22.09876
#
# Velocity S-wave (km/s) = 2.55951 3.78261 3.22949
# Velocity P-wave (km/s) = 4.92910 6.95644 6.02860
#
# Compressibility (1/GPa) = 0.03032894
#
# Stress axis : x y z
#
# Youngs Moduli (GPa) = 81.16657 49.77441 99.39551
#
# Poissons Ratio (x) = -0.11277 0.71886
# Poissons Ratio (y) = -0.18389 0.10980
# Poissons Ratio (z) = 0.58702 0.05499
#
# Static dielectric constant tensor:
#      x y z
#    x 1.715460 -0.000010 -0.024330 
#    y -0.000010 1.827570 0.000010 
#    z -0.024330 0.000010 1.748150 
# 
# From -- ./inp_files/16876.got.cif
#   From: 2010.05.17/outbox.cif.g08.bks.cpg/sg8_9_cif.got.tgz:16876.got - 2010.06.03 19:46:02.
