data_PCOD9131245
_publ_section_title
;
Structure prediction by ZEFSAII (Michael W. Deem and Ramdas Pophale) SiO2 
 PCOD9131245
Probable space group: P C
;
_chemical_formula_sum "Si O2"
_cell_formula_units_Z 12
_cell_length_a 13.328921
_cell_length_b 8.908900
_cell_length_c 5.438341
_cell_angle_alpha 90.000000
_cell_angle_beta 126.435005
_cell_angle_gamma 90.000000
_cell_volume 519.551196
_symmetry_space_group_name_H-M "P C"
_symmetry_group_IT_number 7
_symmetry_cell_setting 'monoclinic'
loop_
_space_group_symop_operation_xyz
x,y,z
x,-y,1/2+z
loop_
_atom_site_type_symbol
_atom_site_label
_atom_site_fract_x
_atom_site_fract_y
_atom_site_fract_z
Si Si1 0.834300 0.412859 0.175390
Si Si2 0.427587 0.078561 0.491589
Si Si3 0.694978 0.099668 0.986322
Si Si4 0.157553 0.786904 0.693133
Si Si5 0.086972 0.737404 0.088587
Si Si6 0.305981 0.481519 0.929794
O O1 0.799278 0.501993 0.372800
O O2 0.783188 0.243310 0.105275
O O3 0.983874 0.388832 0.398041
O O4 0.291441 0.138820 0.353290
O O5 0.435961 0.054846 0.209650
O O6 0.552838 0.163449 0.755080
O O7 0.709505 0.008302 0.265684
O O8 0.070345 0.808081 0.331297
O O9 0.092749 0.834596 0.851251
O O10 0.198407 0.610713 0.775277
O O11 0.227548 0.670621 0.312266
O O12 0.379459 0.497980 0.287089
#
# Coordination Sequence:
#
# PCOD9131245 Si02
#       6
#     2   2   2   2   2   2
#     4  12  23  40  67  97 129 166 219 274 319 379
#     4  10  21  39  60  80 112 160 210 261 315 374
#     4  10  23  45  67  89 126 175 219 264 331 392
#     4  10  18  32  53  80 108 145 192 233 292 375
#     4  10  19  33  55  83 120 156 187 241 321 377
#     4   8  14  25  42  67  97 132 165 201 268 343
#
# _framework density 23.096858999999998
#
# number of rings (size 3 to 8) (size 9 to 14) (size 15 to 20)
#    0.000    2.000    0.000    6.000    0.000    0.000 
#    0.000   10.000    0.000    0.000    0.000    0.000 
#    0.000    0.000    0.000    0.000    0.000    0.000 
#
# Total GULP energy -66873.231189 kJ/mol
# GULP energy per Si atom -5572.769266 kJ/mol
# Density = 2.304429 g / cm^3
# Si number density = 23.096859 Si / 1000 Ang^3
#
#
#
# Elastic Constant Matrix: (Units=GPa)
#
#
# Indices 1 2 3 4 5 6 
#
# 1 65.9317 5.9758 47.5626 0.0000 -46.0400 0.0000
# 2 5.9758 51.4681 22.5496 0.0000 -10.9675 0.0000
# 3 47.5626 22.5496 99.2335 0.0000 -52.4847 0.0000
# 4 0.0000 0.0000 0.0000-1396.3602 0.0000-2629.1956
# 5 -46.0400 -10.9675 -52.4847 0.0000 58.5566 0.0000
# 6 0.0000 0.0000 0.0000-2629.1956 0.0000-4887.2772
#
#
#
# Elastic Compliance Matrix: (Units=1/GPa)
#
#
# Indices 1 2 3 4 5 6 
#
# 1 0.034970 0.003158 -0.004989 0.000000 0.023616 0.000000
# 2 0.003158 0.021877 -0.005713 0.000000 0.001460 0.000000
# 3 -0.004989 -0.005713 0.021154 0.000000 0.013969 0.000000
# 4 0.000000 0.000000 0.000000 0.055367 0.000000 -0.029786
# 5 0.023616 0.001460 0.013969 0.000000 0.048439 0.000000
# 6 0.000000 0.000000 0.000000 -0.029786 0.000000 0.015819
#
#
# Mechanical properties :
#
#
# Convention : Reuss Voigt Hill
#
# Bulk Modulus (GPa) = 15.89450 40.97881 28.43665
# Shear Modulus (GPa) = 21.39628 -1235.64647 -607.12510
#
# Velocity S-wave (km/s) = 3.04694 -23.15483 -16.23056
# Velocity P-wave (km/s) = 4.39034 26.40229 18.40931
#
# Compressibility (1/GPa) = 0.06291486
#
# Stress axis : x y z
#
# Youngs Moduli (GPa) = 28.59555 45.71053 47.27143
#
# Poissons Ratio (x) = -0.14434 0.23582
# Poissons Ratio (y) = -0.09029 0.27004
# Poissons Ratio (z) = 0.14265 0.26112
#
# Static dielectric constant tensor:
#      x y z
#    x 1.944910 0.000000 -0.116460 
#    y 0.000000 6.020430 0.000000 
#    z -0.116460 0.000000 1.939460 
# 
# From -- ./inp_files/1045.got.cif
#   From: 2010.05.17/outbox.cif.g08.bks.cpg/sg7_cif.got.tgz:1045.got - 2010.06.03 19:44:50.
