data_PCOD9131846
_publ_section_title
;
Structure prediction by ZEFSAII (Michael W. Deem and Ramdas Pophale) SiO2 
 PCOD9131846
Probable space group: C M
;
_chemical_formula_sum "Si O2"
_cell_formula_units_Z 24
_cell_length_a 5.110094
_cell_length_b 19.019560
_cell_length_c 12.002233
_cell_angle_alpha 90.000000
_cell_angle_beta 116.227488
_cell_angle_gamma 90.000000
_cell_volume 1046.420745
_symmetry_space_group_name_H-M "C M"
_symmetry_group_IT_number 8
_symmetry_cell_setting 'monoclinic'
loop_
_space_group_symop_operation_xyz
x,y,z
x,-y,z
1/2+x,1/2+y,z
1/2+x,1/2-y,z
loop_
_atom_site_type_symbol
_atom_site_label
_atom_site_fract_x
_atom_site_fract_y
_atom_site_fract_z
Si Si1 0.096400 0.924455 0.598100
Si Si2 0.171832 0.418163 0.322668
Si Si3 0.673281 0.143735 0.675290
Si Si4 0.745320 0.083251 0.086169
Si Si5 0.576048 0.585313 0.931505
Si Si6 0.447731 0.792776 0.416325
O O1 0.352579 0.869778 0.663038
O O2 0.970249 0.918438 0.450443
O O3 0.819483 0.916929 0.625695
O O4 0.234379 0.000000 0.642314
O O5 0.067210 0.500000 0.300181
O O6 0.230269 0.390707 0.209792
O O7 0.965116 0.366032 0.353226
O O8 0.897020 0.138584 0.819107
O O9 0.620422 0.200070 0.567458
O O10 0.790816 0.000000 0.108148
O O11 0.985472 0.104618 0.041082
O O12 0.419829 0.093286 0.976200
O O13 0.508481 0.500000 0.903456
O O14 0.131735 0.763395 0.381345
#
# Coordination Sequence:
#
# PCOD9131846 Si02
#       6
#     4   4   4   4   4   4
#     4  10  19  31  53  85 116 146 187 244 294 336
#     4   9  20  39  63  91 122 156 200 247 295 355
#     4  11  21  35  55  81 114 157 199 236 289 356
#     4   9  19  33  53  83 118 154 192 240 292 340
#     4  10  19  32  53  83 119 155 192 239 291 345
#     4  11  24  42  62  87 121 158 194 246 309 360
#
# _framework density 22.935321999999999
#
# number of rings (size 3 to 8) (size 9 to 14) (size 15 to 20)
#    0.000    2.000    0.000    4.500    0.000    6.667 
#    0.000   10.833    0.000    6.000    0.000    0.000 
#    0.000    0.000    0.000    0.000    0.000    0.000 
#
# Total GULP energy -66930.345076 kJ/mol
# GULP energy per Si atom -5577.528756 kJ/mol
# Density = 2.288312 g / cm^3
# Si number density = 22.935322 Si / 1000 Ang^3
#
#
#
# Elastic Constant Matrix: (Units=GPa)
#
#
# Indices 1 2 3 4 5 6 
#
# 1 67.7570 17.2582 -3.4190 0.0000 -9.7836 0.0000
# 2 17.2582 58.2436 2.9056 0.0000 -7.9696 0.0000
# 3 -3.4190 2.9056 72.8300 0.0000 -16.1277 0.0000
# 4 0.0000 0.0000 0.0000 21.8367 0.0000 -4.1092
# 5 -9.7836 -7.9696 -16.1277 0.0000 30.7677 0.0000
# 6 0.0000 0.0000 0.0000 -4.1092 0.0000 15.3769
#
#
#
# Elastic Compliance Matrix: (Units=1/GPa)
#
#
# Indices 1 2 3 4 5 6 
#
# 1 0.016740 -0.004339 0.002137 0.000000 0.005319 0.000000
# 2 -0.004339 0.018933 -0.000202 0.000000 0.003418 0.000000
# 3 0.002137 -0.000202 0.015813 0.000000 0.008916 0.000000
# 4 0.000000 0.000000 0.000000 0.048219 0.000000 0.012886
# 5 0.005319 0.003418 0.008916 0.000000 0.039752 0.000000
# 6 0.000000 0.000000 0.000000 0.012886 0.000000 0.068476
#
#
# Mechanical properties :
#
#
# Convention : Reuss Voigt Hill
#
# Bulk Modulus (GPa) = 21.42357 25.81338 23.61847
# Shear Modulus (GPa) = 21.90093 25.73531 23.81812
#
# Velocity S-wave (km/s) = 3.09350 3.35338 3.22606
# Velocity P-wave (km/s) = 4.70327 5.12571 4.91903
#
# Compressibility (1/GPa) = 0.04667756
#
# Stress axis : x y z
#
# Youngs Moduli (GPa) = 59.73848 52.81850 63.23753
#
# Poissons Ratio (x) = 0.22917 -0.13513
# Poissons Ratio (y) = 0.25920 0.01278
# Poissons Ratio (z) = -0.12765 0.01067
#
# Static dielectric constant tensor:
#      x y z
#    x 1.831330 0.000000 -0.018600 
#    y 0.000000 1.898180 0.000000 
#    z -0.018600 0.000000 1.924030 
# 
# From -- ./inp_files/18070.got.cif
#   From: 2010.05.17/outbox.cif.g08.bks.cpg/sg8_10_cif.got.tgz:18070.got - 2010.06.03 19:46:02.
