data_PCOD9131985
_publ_section_title
;
Structure prediction by ZEFSAII (Michael W. Deem and Ramdas Pophale) SiO2 
 PCOD9131985
Probable space group: C M
;
_chemical_formula_sum "Si O2"
_cell_formula_units_Z 32
_cell_length_a 21.099093
_cell_length_b 8.624488
_cell_length_c 25.958455
_cell_angle_alpha 90.000000
_cell_angle_beta 157.383048
_cell_angle_gamma 90.000000
_cell_volume 1816.559410
_symmetry_space_group_name_H-M "C M"
_symmetry_group_IT_number 8
_symmetry_cell_setting 'monoclinic'
loop_
_space_group_symop_operation_xyz
x,y,z
x,-y,z
1/2+x,1/2+y,z
1/2+x,1/2-y,z
loop_
_atom_site_type_symbol
_atom_site_label
_atom_site_fract_x
_atom_site_fract_y
_atom_site_fract_z
Si Si1 0.475890 0.314277 0.620050
Si Si2 0.996901 0.685174 0.913598
Si Si3 0.833852 0.186079 0.895176
Si Si4 0.734939 0.314288 0.633633
Si Si5 0.666528 0.687939 0.193021
Si Si6 0.321521 0.187025 0.199395
Si Si7 0.694716 0.187558 0.488911
Si Si8 0.430028 0.813508 0.471243
O O1 0.476946 0.500000 0.618978
O O2 0.655822 0.256168 0.771834
O O3 0.334005 0.263145 0.553089
O O4 0.442104 0.251101 0.537602
O O5 0.990562 0.500000 0.915415
O O6 0.897504 0.761744 0.886536
O O7 0.902471 0.725279 0.790163
O O8 0.184539 0.741819 0.059187
O O9 0.823704 0.000000 0.888112
O O10 0.978321 0.237450 0.042836
O O11 0.718124 0.500000 0.620690
O O12 0.729604 0.251610 0.571869
O O13 0.584730 0.243335 0.553656
O O14 0.665678 0.500000 0.193296
O O15 0.766791 0.732090 0.216531
O O16 0.765719 0.739574 0.317542
O O17 0.510300 0.234507 0.333312
O O18 0.310655 0.000000 0.188041
O O19 0.694977 0.000000 0.491990
O O20 0.432834 0.000000 0.475049
#
# Coordination Sequence:
#
# PCOD9131985 Si02
#       8
#     4   4   4   4   4   4   4   4
#     4  11  23  38  55  82 116 148 186 234 279 326
#     4  10  20  33  52  83 116 141 175 232 283 323
#     4  10  19  34  56  80 109 149 186 223 275 335
#     4  11  22  35  55  85 116 141 182 236 279 325
#     4   8  16  31  54  82 106 133 183 232 267 320
#     4   9  17  34  56  79 106 143 188 227 270 331
#     4  10  22  40  59  78 111 153 189 228 278 335
#     4  11  20  35  59  83 110 146 187 228 277 335
#
# _framework density 17.615718999999999
#
# number of rings (size 3 to 8) (size 9 to 14) (size 15 to 20)
#    0.000    2.000    2.500    2.625    0.000    3.000 
#    0.000    3.125    0.000    6.000    0.000    0.000 
#    0.000    0.000    0.000    0.000    0.000    0.000 
#
# Total GULP energy -89286.911647 kJ/mol
# GULP energy per Si atom -5580.431978 kJ/mol
# Density = 1.757562 g / cm^3
# Si number density = 17.615719 Si / 1000 Ang^3
#
#
#
# Elastic Constant Matrix: (Units=GPa)
#
#
# Indices 1 2 3 4 5 6 
#
# 1 114.2504 32.0403 89.7158 -0.0008 6.6795 0.0002
# 2 32.0403 34.4418 41.5603 -0.0006 1.2529 0.0000
# 3 89.7158 41.5603 197.1390 -0.0019 2.6070 0.0000
# 4 -0.0008 -0.0006 -0.0019 -7.7050 0.0000 6.5800
# 5 6.6795 1.2529 2.6070 0.0000 25.7052 -0.0002
# 6 0.0002 0.0000 0.0000 6.5800 -0.0002 21.4891
#
#
#
# Elastic Compliance Matrix: (Units=1/GPa)
#
#
# Indices 1 2 3 4 5 6 
#
# 1 0.015224 -0.007699 -0.005265 0.000000 -0.003047 0.000000
# 2 -0.007699 0.042863 -0.005539 -0.000001 0.000473 0.000000
# 3 -0.005265 -0.005539 0.008626 -0.000001 0.000763 0.000000
# 4 0.000000 -0.000001 -0.000001 -0.102883 0.000000 0.031503
# 5 -0.003047 0.000473 0.000763 0.000000 0.039594 0.000000
# 6 0.000000 0.000000 0.000000 0.031503 0.000000 0.036889
#
#
# Mechanical properties :
#
#
# Convention : Reuss Voigt Hill
#
# Bulk Modulus (GPa) = 33.66089 74.71823 54.18956
# Shear Modulus (GPa) = 57.32534 20.06551 38.69543
#
# Velocity S-wave (km/s) = 5.71076 3.37867 4.69192
# Velocity P-wave (km/s) = 7.91414 7.59791 7.75764
#
# Compressibility (1/GPa) = 0.02970807
#
# Stress axis : x y z
#
# Youngs Moduli (GPa) = 65.68446 23.33026 115.92497
#
# Poissons Ratio (x) = 0.17961 0.61036
# Poissons Ratio (y) = 0.50568 0.64210
# Poissons Ratio (z) = 0.34584 0.12922
#
# Static dielectric constant tensor:
#      x y z
#    x 1.561090 0.000000 -0.006760 
#    y 0.000000 1.596840 0.000000 
#    z -0.006760 0.000000 1.624700 
# 
# From -- ./inp_files/31339.got.cif
#   From: 2010.05.17/outbox.cif.g08.bks.cpg/sg8_16_cif.got.tgz:31339.got - 2010.06.03 19:46:02.
