data_PCOD9131177
_publ_section_title
;
Structure prediction by ZEFSAII (Michael W. Deem and Ramdas Pophale) SiO2 
 PCOD9131177
Probable space group: P M
;
_chemical_formula_sum "Si O2"
_cell_formula_units_Z 16
_cell_length_a 4.917030
_cell_length_b 18.871035
_cell_length_c 7.273554
_cell_angle_alpha 90.000000
_cell_angle_beta 107.298875
_cell_angle_gamma 90.000000
_cell_volume 644.380636
_symmetry_space_group_name_H-M "P M"
_symmetry_group_IT_number 6
_symmetry_cell_setting 'monoclinic'
loop_
_space_group_symop_operation_xyz
x,y,z
x,-y,z
loop_
_atom_site_type_symbol
_atom_site_label
_atom_site_fract_x
_atom_site_fract_y
_atom_site_fract_z
Si Si1 0.172530 0.325801 0.016830
Si Si2 0.167424 0.581184 0.499239
Si Si3 0.718828 0.678587 0.559026
Si Si4 0.325252 0.922312 0.912793
Si Si5 0.947950 0.921572 0.189169
Si Si6 0.719690 0.419951 0.071524
Si Si7 0.475445 0.776276 0.829399
Si Si8 0.931644 0.769723 0.254423
O O1 0.806077 0.273826 0.398052
O O2 0.426172 0.382573 0.065326
O O3 0.221966 0.270498 0.863416
O O4 0.169804 0.277316 0.200528
O O5 0.229782 0.500000 0.563768
O O6 0.991406 0.624609 0.615058
O O7 0.454451 0.622621 0.505377
O O8 0.944878 0.578219 0.284074
O O9 0.608041 0.737571 0.682146
O O10 0.607573 0.923979 0.097458
O O11 0.366789 0.856267 0.787057
O O12 0.070772 0.911678 0.006674
O O13 0.297124 0.000000 0.819846
O O14 0.024911 0.850132 0.313493
O O15 0.043367 0.000000 0.272440
O O16 0.674671 0.500000 0.999787
O O17 0.876503 0.368312 0.961477
O O18 0.699854 0.776220 0.043709
#
# Coordination Sequence:
#
# PCOD9131177 Si02
#       8
#     2   2   2   2   2   2   2   2
#     4  12  21  39  64  93 123 167 214 260 325 377
#     4  11  24  45  65  92 129 170 214 273 326 388
#     4  12  27  41  68  98 126 169 222 263 330 386
#     4   9  18  34  60  92 125 170 214 252 313 379
#     4   9  18  33  60  92 127 171 211 254 314 376
#     4  11  23  40  66  95 123 167 216 268 324 386
#     4  11  24  42  67  96 133 172 210 273 316 381
#     4  11  23  42  66  98 132 170 215 269 314 383
#
# _framework density 24.830041999999999
#
# number of rings (size 3 to 8) (size 9 to 14) (size 15 to 20)
#    0.000    1.250    3.750    2.250    1.750    2.000 
#    0.000    4.375    0.000    0.000    0.000   10.500 
#    0.000    0.000    0.000    0.000    0.000    0.000 
#
# Total GULP energy -89503.104703 kJ/mol
# GULP energy per Si atom -5593.944044 kJ/mol
# Density = 2.477353 g / cm^3
# Si number density = 24.830042 Si / 1000 Ang^3
#
#
#
# Elastic Constant Matrix: (Units=GPa)
#
#
# Indices 1 2 3 4 5 6 
#
# 1 143.0132 72.0606 20.5660 0.0000 -30.9535 0.0000
# 2 72.0606 300.8053 48.7430 0.0000 -29.4697 0.0000
# 3 20.5660 48.7430 78.8225 0.0000 -29.6739 0.0000
# 4 0.0000 0.0000 0.0000 18.9722 0.0000 -2.7715
# 5 -30.9535 -29.4697 -29.6739 0.0000 42.4002 0.0000
# 6 0.0000 0.0000 0.0000 -2.7715 0.0000 30.0924
#
#
#
# Elastic Compliance Matrix: (Units=1/GPa)
#
#
# Indices 1 2 3 4 5 6 
#
# 1 0.009041 -0.001731 0.001009 0.000000 0.006103 0.000000
# 2 -0.001731 0.004081 -0.002009 0.000000 0.000166 0.000000
# 3 0.001009 -0.002009 0.018217 0.000000 0.012090 0.000000
# 4 0.000000 0.000000 0.000000 0.053427 0.000000 0.004921
# 5 0.006103 0.000166 0.012090 0.000000 0.036617 0.000000
# 6 0.000000 0.000000 0.000000 0.004921 0.000000 0.033684
#
#
# Mechanical properties :
#
#
# Convention : Reuss Voigt Hill
#
# Bulk Modulus (GPa) = 38.64562 89.48669 64.06615
# Shear Modulus (GPa) = 29.55864 43.71106 36.63485
#
# Velocity S-wave (km/s) = 3.45402 4.20028 3.84529
# Velocity P-wave (km/s) = 5.61292 7.72276 6.75077
#
# Compressibility (1/GPa) = 0.02587616
#
# Stress axis : x y z
#
# Youngs Moduli (GPa) = 110.61319 245.03390 54.89296
#
# Poissons Ratio (x) = 0.42425 -0.05541
# Poissons Ratio (y) = 0.19152 0.11030
# Poissons Ratio (z) = -0.11165 0.49236
#
# Static dielectric constant tensor:
#      x y z
#    x 1.973600 0.000000 0.123560 
#    y 0.000000 1.996570 0.000000 
#    z 0.123560 0.000000 2.202320 
# 
# From -- ./inp_files/2268.got.cif
#   From: 2010.05.17/outbox.cif.g08.bks.cpg/sg6_2_cif.got.tgz:2268.got - 2010.06.03 19:42:10.
