data_PCOD9131867
_publ_section_title
;
Structure prediction by ZEFSAII (Michael W. Deem and Ramdas Pophale) SiO2 
 PCOD9131867
Probable space group: C M
;
_chemical_formula_sum "Si O2"
_cell_formula_units_Z 28
_cell_length_a 28.996570
_cell_length_b 10.522875
_cell_length_c 23.412934
_cell_angle_alpha 90.000000
_cell_angle_beta 11.564453
_cell_angle_gamma 90.000000
_cell_volume 1432.143640
_symmetry_space_group_name_H-M "C M"
_symmetry_group_IT_number 8
_symmetry_cell_setting 'monoclinic'
loop_
_space_group_symop_operation_xyz
x,y,z
x,-y,z
1/2+x,1/2+y,z
1/2+x,1/2-y,z
loop_
_atom_site_type_symbol
_atom_site_label
_atom_site_fract_x
_atom_site_fract_y
_atom_site_fract_z
Si Si1 0.289930 0.355420 0.803580
Si Si2 0.739670 0.348993 0.187116
Si Si3 0.485306 0.146204 0.057479
Si Si4 0.592327 0.780094 0.154283
Si Si5 0.567703 0.351875 0.630325
Si Si6 0.096804 0.145194 0.725387
Si Si7 0.916602 0.851117 0.473275
O O1 0.275537 0.500000 0.845070
O O2 0.550192 0.335210 0.466938
O O3 0.193998 0.260600 0.967581
O O4 0.132264 0.355076 0.938309
O O5 0.804009 0.500000 0.106533
O O6 0.603879 0.311599 0.293453
O O7 0.945525 0.249532 0.941711
O O8 0.242549 0.205414 0.371176
O O9 0.438394 0.000000 0.095406
O O10 0.665918 0.205413 0.793550
O O11 0.358306 0.857716 0.429584
O O12 0.507305 0.670087 0.299819
O O13 0.806004 0.840711 0.928566
O O14 0.631798 0.500000 0.555696
O O15 0.602533 0.306270 0.652572
O O16 0.003987 0.000000 0.839586
O O17 0.890508 0.000000 0.515608
#
# Coordination Sequence:
#
# PCOD9131867 Si02
#       7
#     4   4   4   4   4   4   4
#     4   9  17  32  56  84 108 139 191 244 279 327
#     4   9  19  39  62  83 113 155 194 234 284 338
#     4   8  15  32  55  76 107 144 186 239 285 325
#     4  12  21  32  55  86 114 145 187 239 287 333
#     4  10  19  32  52  80 113 146 180 231 288 332
#     4  11  22  36  55  87 121 150 186 236 290 340
#     4   9  19  35  56  84 115 151 193 235 282 345
#
# _framework density 19.551110999999999
#
# number of rings (size 3 to 8) (size 9 to 14) (size 15 to 20)
#    0.000    2.286    2.857    3.000    0.000    1.714 
#    0.000    3.571    0.000    0.000    0.000    3.000 
#    0.000    0.000    0.000    0.000    0.000    0.000 
#
# Total GULP energy -77941.964335 kJ/mol
# GULP energy per Si atom -5567.283167 kJ/mol
# Density = 1.950661 g / cm^3
# Si number density = 19.551111 Si / 1000 Ang^3
#
#
#
# Elastic Constant Matrix: (Units=GPa)
#
#
# Indices 1 2 3 4 5 6 
#
# 1 79.8269 11.3409 32.5485 -0.0115 1.5106 0.0050
# 2 11.3409 29.2808 41.9106 -0.0391 2.1197 -0.0110
# 3 32.5485 41.9106 150.2331 -0.0081 4.8440 0.0069
# 4 -0.0115 -0.0391 -0.0081 22.2464 -0.0061 4.8187
# 5 1.5106 2.1197 4.8440 -0.0061 28.3132 0.0048
# 6 0.0050 -0.0110 0.0069 4.8187 0.0048 16.7793
#
#
#
# Elastic Compliance Matrix: (Units=1/GPa)
#
#
# Indices 1 2 3 4 5 6 
#
# 1 0.013797 -0.001766 -0.002491 0.000004 -0.000178 -0.000005
# 2 -0.001766 0.057148 -0.015511 0.000089 -0.001531 0.000019
# 3 -0.002491 -0.015511 0.011545 -0.000023 -0.000681 -0.000007
# 4 0.000004 0.000089 -0.000023 0.047933 0.000010 -0.013765
# 5 -0.000178 -0.001531 -0.000681 0.000010 0.035560 -0.000014
# 6 -0.000005 0.000019 -0.000007 -0.013765 -0.000014 0.063550
#
#
# Mechanical properties :
#
#
# Convention : Reuss Voigt Hill
#
# Bulk Modulus (GPa) = 23.28005 47.88232 35.58118
# Shear Modulus (GPa) = 17.64384 25.03718 21.34051
#
# Velocity S-wave (km/s) = 3.00733 3.58243 3.30741
# Velocity P-wave (km/s) = 4.89815 6.45413 5.72921
#
# Compressibility (1/GPa) = 0.04295524
#
# Stress axis : x y z
#
# Youngs Moduli (GPa) = 72.47988 17.49856 86.61819
#
# Poissons Ratio (x) = 0.03090 0.21575
# Poissons Ratio (y) = 0.12797 1.34350
# Poissons Ratio (z) = 0.18054 0.27141
#
# Static dielectric constant tensor:
#      x y z
#    x 1.741580 0.000000 0.005980 
#    y 0.000000 1.648060 0.000000 
#    z 0.005980 0.000000 1.758070 
# 
# From -- ./inp_files/16056.got.cif
#   From: 2010.05.17/outbox.cif.g08.bks.cpg/sg8_9_cif.got.tgz:16056.got - 2010.06.03 19:46:02.
