data_PCOD9131435
_publ_section_title
;
Structure prediction by ZEFSAII (Michael W. Deem and Ramdas Pophale) SiO2 
 PCOD9131435
Probable space group: P C
;
_chemical_formula_sum "Si O2"
_cell_formula_units_Z 12
_cell_length_a 13.677039
_cell_length_b 8.386239
_cell_length_c 5.284013
_cell_angle_alpha 90.000000
_cell_angle_beta 114.148028
_cell_angle_gamma 90.000000
_cell_volume 553.034292
_symmetry_space_group_name_H-M "P C"
_symmetry_group_IT_number 7
_symmetry_cell_setting 'monoclinic'
loop_
_space_group_symop_operation_xyz
x,y,z
x,-y,1/2+z
loop_
_atom_site_type_symbol
_atom_site_label
_atom_site_fract_x
_atom_site_fract_y
_atom_site_fract_z
Si Si1 0.900010 0.042543 0.486140
Si Si2 0.580215 0.404804 0.484092
Si Si3 0.436332 0.897985 0.949311
Si Si4 0.816352 0.725844 0.239766
Si Si5 0.188610 0.101643 0.135017
Si Si6 0.043973 0.596152 0.622316
O O1 0.854329 0.215006 0.499754
O O2 0.962475 0.980140 0.796202
O O3 0.809770 0.903516 0.360038
O O4 0.555593 0.531490 0.678337
O O5 0.515553 0.246336 0.479000
O O6 0.706958 0.365752 0.630956
O O7 0.312743 0.843827 0.795385
O O8 0.453223 0.028222 0.745186
O O9 0.917316 0.637246 0.465844
O O10 0.177498 0.964606 0.337887
O O11 0.111058 0.248240 0.117047
O O12 0.066988 0.534174 0.928118
#
# Coordination Sequence:
#
# PCOD9131435 Si02
#       6
#     2   2   2   2   2   2
#     4   8  20  32  58  86 106 160 206 262 280 346
#     4  12  27  40  63  95 134 169 202 260 318 379
#     4  10  23  44  70  94 122 163 216 266 309 371
#     4  10  24  38  62  88 132 162 216 246 318 358
#     4  10  23  44  70  94 122 163 216 266 309 371
#     4  12  27  40  63  95 134 169 202 260 318 379
#
# _framework density 21.698473
#
# number of rings (size 3 to 8) (size 9 to 14) (size 15 to 20)
#    1.000    0.667    0.000    3.000    9.333    1.333 
#    0.000    0.000    0.000    0.000    0.000    0.000 
#    0.000    0.000    0.000    0.000    0.000    0.000 
#
# Total GULP energy -67001.860731 kJ/mol
# GULP energy per Si atom -5583.488394 kJ/mol
# Density = 2.164909 g / cm^3
# Si number density = 21.698473 Si / 1000 Ang^3
#
#
#
# Elastic Constant Matrix: (Units=GPa)
#
#
# Indices 1 2 3 4 5 6 
#
# 1 103.3042 24.6646 16.0795 0.0000 0.3408 0.0000
# 2 24.6646 49.8523 -8.0408 0.0000 8.3570 0.0000
# 3 16.0795 -8.0408 56.4877 0.0000 -22.7243 0.0000
# 4 0.0000 0.0000 0.0000 38.0867 0.0000 -7.0808
# 5 0.3408 8.3570 -22.7243 0.0000 32.2692 0.0000
# 6 0.0000 0.0000 0.0000 -7.0808 0.0000 18.4614
#
#
#
# Elastic Compliance Matrix: (Units=1/GPa)
#
#
# Indices 1 2 3 4 5 6 
#
# 1 0.012032 -0.006435 -0.005193 0.000000 -0.002117 0.000000
# 2 -0.006435 0.024462 0.003897 0.000000 -0.003523 0.000000
# 3 -0.005193 0.003897 0.027001 0.000000 0.018060 0.000000
# 4 0.000000 0.000000 0.000000 0.028272 0.000000 0.010843
# 5 -0.002117 -0.003523 0.018060 0.000000 0.044642 0.000000
# 6 0.000000 0.000000 0.000000 0.010843 0.000000 0.058326
#
#
# Mechanical properties :
#
#
# Convention : Reuss Voigt Hill
#
# Bulk Modulus (GPa) = 20.81925 30.56117 25.69021
# Shear Modulus (GPa) = 22.10344 29.55953 25.83149
#
# Velocity S-wave (km/s) = 3.19511 3.69492 3.45407
# Velocity P-wave (km/s) = 4.81947 5.68492 5.26999
#
# Compressibility (1/GPa) = 0.04803246
#
# Stress axis : x y z
#
# Youngs Moduli (GPa) = 83.11236 40.87916 37.03543
#
# Poissons Ratio (x) = 0.26308 0.19231
# Poissons Ratio (y) = 0.53487 -0.14432
# Poissons Ratio (z) = 0.43158 -0.15929
#
# Static dielectric constant tensor:
#      x y z
#    x 1.787960 0.000000 -0.054470 
#    y 0.000000 1.781680 0.000000 
#    z -0.054470 0.000000 1.873930 
# 
# From -- ./inp_files/1281.got.cif
#   From: 2010.05.17/outbox.cif.g08.bks.cpg/sg7_cif.got.tgz:1281.got - 2010.06.03 19:44:50.
