data_PCOD9131712
_publ_section_title
;
Structure prediction by ZEFSAII (Michael W. Deem and Ramdas Pophale) SiO2 
 PCOD9131712
Probable space group: C M
;
_chemical_formula_sum "Si O2"
_cell_formula_units_Z 32
_cell_length_a 15.732868
_cell_length_b 13.343780
_cell_length_c 9.346592
_cell_angle_alpha 90.000000
_cell_angle_beta 63.672613
_cell_angle_gamma 90.000000
_cell_volume 1758.656892
_symmetry_space_group_name_H-M "C M"
_symmetry_group_IT_number 8
_symmetry_cell_setting 'monoclinic'
loop_
_space_group_symop_operation_xyz
x,y,z
x,-y,z
1/2+x,1/2+y,z
1/2+x,1/2-y,z
loop_
_atom_site_type_symbol
_atom_site_label
_atom_site_fract_x
_atom_site_fract_y
_atom_site_fract_z
Si Si1 0.265390 0.109827 0.882100
Si Si2 0.527658 0.113873 0.902611
Si Si3 0.113938 0.817284 0.805994
Si Si4 0.906428 0.115642 0.868493
Si Si5 0.055236 0.385048 0.545136
Si Si6 0.827055 0.294478 0.109999
Si Si7 0.392865 0.260798 0.600583
Si Si8 0.241804 0.266277 0.471344
O O1 0.162826 0.116896 0.889047
O O2 0.327317 0.184633 0.740576
O O3 0.306970 0.000000 0.836986
O O4 0.265266 0.141370 0.046083
O O5 0.602599 0.202827 0.873178
O O6 0.516531 0.116870 0.738038
O O7 0.553279 0.000000 0.923384
O O8 0.428506 0.149393 0.042727
O O9 0.178408 0.808111 0.616330
O O10 0.012775 0.860043 0.840155
O O11 0.904327 0.148487 0.703692
O O12 0.881977 0.000000 0.904125
O O13 0.843852 0.189112 0.014601
O O14 0.047607 0.500000 0.498024
O O15 0.165264 0.351546 0.482511
O O16 0.991308 0.302341 0.509202
O O17 0.781704 0.280285 0.297059
O O18 0.332394 0.291306 0.505664
#
# Coordination Sequence:
#
# PCOD9131712 Si02
#       8
#     4   4   4   4   4   4   4   4
#     4  10  18  33  58  81 107 149 195 233 280 340
#     4   9  16  33  58  79 103 144 189 228 276 331
#     4   9  18  35  55  83 108 145 191 237 274 333
#     4  10  19  36  58  79 109 151 193 229 277 341
#     4  10  18  36  63  84 106 147 198 236 279 343
#     4  10  20  35  53  80 116 146 179 236 289 339
#     4  10  19  36  60  84 111 150 194 241 282 338
#     4  10  21  36  56  84 120 146 178 240 300 337
#
# _framework density 18.195703000000002
#
# number of rings (size 3 to 8) (size 9 to 14) (size 15 to 20)
#    0.000    2.250    5.000    1.125    0.000    1.000 
#    4.500   13.750    0.000    0.000    0.000    0.000 
#    0.000    0.000    0.000    0.000    0.000    0.000 
#
# Total GULP energy -89099.017078 kJ/mol
# GULP energy per Si atom -5568.688567 kJ/mol
# Density = 1.815429 g / cm^3
# Si number density = 18.195703 Si / 1000 Ang^3
#
#
#
# Elastic Constant Matrix: (Units=GPa)
#
#
# Indices 1 2 3 4 5 6 
#
# 1 82.4347 14.5444 20.8289 0.0000 3.4603 0.0000
# 2 14.5444 87.4265 11.5927 0.0000 -2.9536 0.0000
# 3 20.8289 11.5927 81.4627 0.0000 -2.9951 0.0000
# 4 0.0000 0.0000 0.0000 7.3297 0.0000 -2.2205
# 5 3.4603 -2.9536 -2.9951 0.0000 15.8773 0.0000
# 6 0.0000 0.0000 0.0000 -2.2205 0.0000 12.0400
#
#
#
# Elastic Compliance Matrix: (Units=1/GPa)
#
#
# Indices 1 2 3 4 5 6 
#
# 1 0.013474 -0.001935 -0.003314 0.000000 -0.003922 0.000000
# 2 -0.001935 0.011991 -0.001122 0.000000 0.002441 0.000000
# 3 -0.003314 -0.001122 0.013394 0.000000 0.003040 0.000000
# 4 0.000000 0.000000 0.000000 0.144505 0.000000 0.026651
# 5 -0.003922 0.002441 0.003040 0.000000 0.064865 0.000000
# 6 0.000000 0.000000 0.000000 0.026651 0.000000 0.087972
#
#
# Mechanical properties :
#
#
# Convention : Reuss Voigt Hill
#
# Bulk Modulus (GPa) = 38.28726 38.36179 38.32453
# Shear Modulus (GPa) = 13.98015 20.67324 17.32670
#
# Velocity S-wave (km/s) = 2.77487 3.37435 3.08919
# Velocity P-wave (km/s) = 5.59948 6.02581 5.81655
#
# Compressibility (1/GPa) = 0.02611835
#
# Stress axis : x y z
#
# Youngs Moduli (GPa) = 74.21636 83.39400 74.65828
#
# Poissons Ratio (x) = 0.16134 0.24742
# Poissons Ratio (y) = 0.14358 0.08377
# Poissons Ratio (z) = 0.24595 0.09357
#
# Static dielectric constant tensor:
#      x y z
#    x 1.681460 0.000000 -0.012950 
#    y 0.000000 1.650830 0.000000 
#    z -0.012950 0.000000 1.586710 
# 
# From -- ./inp_files/13266.got.cif
#   From: 2010.05.17/outbox.cif.g08.bks.cpg/sg8_7_cif.got.tgz:13266.got - 2010.06.03 19:46:02.
