data_PCOD9131244
_publ_section_title
;
Structure prediction by ZEFSAII (Michael W. Deem and Ramdas Pophale) SiO2 
 PCOD9131244
Probable space group: P C
;
_chemical_formula_sum "Si O2"
_cell_formula_units_Z 16
_cell_length_a 8.342567
_cell_length_b 16.055242
_cell_length_c 5.529349
_cell_angle_alpha 90.000000
_cell_angle_beta 56.159649
_cell_angle_gamma 90.000000
_cell_volume 615.146505
_symmetry_space_group_name_H-M "P C"
_symmetry_group_IT_number 7
_symmetry_cell_setting 'monoclinic'
loop_
_space_group_symop_operation_xyz
x,y,z
x,-y,1/2+z
loop_
_atom_site_type_symbol
_atom_site_label
_atom_site_fract_x
_atom_site_fract_y
_atom_site_fract_z
Si Si1 0.318210 0.811001 0.736640
Si Si2 0.606214 0.517822 0.256592
Si Si3 0.041412 0.544310 0.394797
Si Si4 0.065423 0.873042 0.324650
Si Si5 0.399637 0.013700 0.009052
Si Si6 0.149739 0.294994 0.053269
Si Si7 0.764040 0.297264 0.646718
Si Si8 0.688264 0.199666 0.212546
O O1 0.362437 0.888688 0.531710
O O2 0.327980 0.726178 0.578999
O O3 0.465531 0.815636 0.836210
O O4 0.111663 0.834469 0.022333
O O5 0.501577 0.496999 0.592466
O O6 0.803499 0.460806 0.093051
O O7 0.664602 0.613488 0.218142
O O8 0.093014 0.507449 0.092218
O O9 0.133768 0.634735 0.365480
O O10 0.112252 0.794614 0.461102
O O11 0.836666 0.878063 0.565235
O O12 0.203739 0.955752 0.208809
O O13 0.504708 0.004120 0.173655
O O14 0.983325 0.317376 0.383875
O O15 0.745574 0.257914 0.930774
O O16 0.701383 0.239945 0.468119
#
# Coordination Sequence:
#
# PCOD9131244 Si02
#       8
#     2   2   2   2   2   2   2   2
#     4  11  24  43  68  99 137 184 216 288 338 410
#     4  10  18  31  57  92 126 169 225 273 334 390
#     4  10  21  32  57 100 128 168 234 277 330 399
#     4  10  23  42  69  99 133 177 225 278 333 410
#     4  10  21  41  65  96 132 171 219 270 336 400
#     4  11  21  38  70  95 133 180 233 272 343 398
#     4  11  22  39  62  99 130 174 229 284 323 411
#     4  11  26  40  66 100 135 171 229 274 341 396
#
# _framework density 26.010061
#
# number of rings (size 3 to 8) (size 9 to 14) (size 15 to 20)
#    0.000    1.500    5.000    0.750    8.750    0.000 
#    0.000    5.000    0.000    4.500    0.000    0.000 
#    0.000    0.000    0.000    0.000    0.000    0.000 
#
# Total GULP energy -89308.683691 kJ/mol
# GULP energy per Si atom -5581.792731 kJ/mol
# Density = 2.595086 g / cm^3
# Si number density = 26.010061 Si / 1000 Ang^3
#
#
#
# Elastic Constant Matrix: (Units=GPa)
#
#
# Indices 1 2 3 4 5 6 
#
# 1 83.2183 42.8194 35.6427 0.0000 10.0258 0.0000
# 2 42.8194 92.8116 19.8398 0.0000 8.0862 0.0000
# 3 35.6427 19.8398 149.8241 0.0000 30.9843 0.0000
# 4 0.0000 0.0000 0.0000 36.0768 0.0000 16.7777
# 5 10.0258 8.0862 30.9843 0.0000 48.0895 0.0000
# 6 0.0000 0.0000 0.0000 16.7777 0.0000 32.2473
#
#
#
# Elastic Compliance Matrix: (Units=1/GPa)
#
#
# Indices 1 2 3 4 5 6 
#
# 1 0.017059 -0.007189 -0.003024 0.000000 -0.000399 0.000000
# 2 -0.007189 0.014165 0.000020 0.000000 -0.000896 0.000000
# 3 -0.003024 0.000020 0.008378 0.000000 -0.004771 0.000000
# 4 0.000000 0.000000 0.000000 0.036566 0.000000 -0.019025
# 5 -0.000399 -0.000896 -0.004771 0.000000 0.024102 0.000000
# 6 0.000000 0.000000 0.000000 -0.019025 0.000000 0.040909
#
#
# Mechanical properties :
#
#
# Convention : Reuss Voigt Hill
#
# Bulk Modulus (GPa) = 52.04050 58.05086 55.04568
# Shear Modulus (GPa) = 29.76722 38.45287 34.11004
#
# Velocity S-wave (km/s) = 3.38664 3.84915 3.62528
# Velocity P-wave (km/s) = 5.94506 6.49012 6.22356
#
# Compressibility (1/GPa) = 0.01921580
#
# Stress axis : x y z
#
# Youngs Moduli (GPa) = 58.62059 70.59612 119.36271
#
# Poissons Ratio (x) = 0.50752 0.36091
# Poissons Ratio (y) = 0.42143 -0.00236
# Poissons Ratio (z) = 0.17725 -0.00140
#
# Static dielectric constant tensor:
#      x y z
#    x 2.196240 0.000000 -0.005680 
#    y 0.000000 2.051870 0.000000 
#    z -0.005680 0.000000 2.032860 
# 
# From -- ./inp_files/809.got.cif
#   From: 2010.05.17/outbox.cif.g08.bks.cpg/sg7_cif.got.tgz:809.got - 2010.06.03 19:44:50.
