data_PCOD9131047
_publ_section_title
;
Structure prediction by ZEFSAII (Michael W. Deem and Ramdas Pophale) SiO2 
 PCOD9131047
Probable space group: P M
;
_chemical_formula_sum "Si O2"
_cell_formula_units_Z 12
_cell_length_a 13.334231
_cell_length_b 7.925896
_cell_length_c 7.869901
_cell_angle_alpha 90.000000
_cell_angle_beta 41.138834
_cell_angle_gamma 90.000000
_cell_volume 547.187485
_symmetry_space_group_name_H-M "P M"
_symmetry_group_IT_number 6
_symmetry_cell_setting 'monoclinic'
loop_
_space_group_symop_operation_xyz
x,y,z
x,-y,z
loop_
_atom_site_type_symbol
_atom_site_label
_atom_site_fract_x
_atom_site_fract_y
_atom_site_fract_z
Si Si1 0.613230 0.000000 0.555580
Si Si2 0.303168 0.000000 0.774691
Si Si3 0.797475 0.688796 0.427680
Si Si4 0.960036 0.693660 0.720703
Si Si5 0.120285 0.308995 0.882848
Si Si6 0.452015 0.000000 0.133798
Si Si7 0.640599 0.690448 0.999822
Si Si8 0.140548 0.000000 0.348006
O O1 0.716433 0.834113 0.424782
O O2 0.530726 0.000000 0.846227
O O3 0.482167 0.000000 0.583173
O O4 0.243557 0.166352 0.757032
O O5 0.220853 0.000000 0.063777
O O6 0.770068 0.500000 0.393127
O O7 0.727813 0.693746 0.705493
O O8 0.978505 0.715139 0.192817
O O9 0.980677 0.500000 0.632837
O O10 0.039281 0.705320 0.802935
O O11 0.039091 0.834637 0.505657
O O12 0.778438 0.724235 0.954065
O O13 0.179619 0.500000 0.825842
O O14 0.513910 0.833778 0.148815
O O15 0.273875 0.000000 0.320285
O O16 0.580769 0.500000 0.101049
#
# Coordination Sequence:
#
# PCOD9131047 Si02
#       8
#     1   1   2   2   2   1   2   1
#     4   9  19  33  50  76 106 135 170 215 264 310
#     4  11  22  35  54  80 110 143 178 217 262 314
#     4   9  17  32  55  79 102 132 173 219 264 311
#     4  10  21  37  56  79 108 141 178 220 264 312
#     4  10  21  37  56  79 108 141 178 220 264 312
#     4   9  19  33  50  76 106 135 170 215 264 310
#     4   9  17  32  55  79 102 132 173 219 264 311
#     4  11  22  35  54  80 110 143 178 217 262 314
#
# _framework density 21.930326999999998
#
# number of rings (size 3 to 8) (size 9 to 14) (size 15 to 20)
#    0.000    2.333    0.000    2.500    0.000    4.667 
#    0.000    6.667    0.000    4.000    0.000    0.000 
#    0.000    0.000    0.000    0.000    0.000    0.000 
#
# Total GULP energy -67103.608700 kJ/mol
# GULP energy per Si atom -5591.967392 kJ/mol
# Density = 2.188041 g / cm^3
# Si number density = 21.930327 Si / 1000 Ang^3
#
#
#
# Elastic Constant Matrix: (Units=GPa)
#
#
# Indices 1 2 3 4 5 6 
#
# 1 121.5744 99.7555 17.8378 0.0000 -25.4063 0.0000
# 2 99.7555 165.9556 42.0032 0.0000 -35.5460 0.0000
# 3 17.8378 42.0032 48.7378 0.0000 3.1757 0.0000
# 4 0.0000 0.0000 0.0000 -39.6052 0.0000 20.2227
# 5 -25.4063 -35.5460 3.1757 0.0000 37.1010 0.0000
# 6 0.0000 0.0000 0.0000 20.2227 0.0000 -8.0435
#
#
#
# Elastic Compliance Matrix: (Units=1/GPa)
#
#
# Indices 1 2 3 4 5 6 
#
# 1 0.016650 -0.010507 0.002890 0.000000 0.001088 0.000000
# 2 -0.010507 0.017737 -0.012147 0.000000 0.010839 0.000000
# 3 0.002890 -0.012147 0.030730 0.000000 -0.012289 0.000000
# 4 0.000000 0.000000 0.000000 0.088984 0.000000 0.223720
# 5 0.001088 0.010839 -0.012289 0.000000 0.039135 0.000000
# 6 0.000000 0.000000 0.000000 0.223720 0.000000 0.438146
#
#
# Mechanical properties :
#
#
# Convention : Reuss Voigt Hill
#
# Bulk Modulus (GPa) = 39.07874 72.82898 55.95386
# Shear Modulus (GPa) = 7.35903 9.66854 8.51378
#
# Velocity S-wave (km/s) = 1.83383 2.10198 1.97247
# Velocity P-wave (km/s) = 4.72674 6.25879 5.54592
#
# Compressibility (1/GPa) = 0.02558936
#
# Stress axis : x y z
#
# Youngs Moduli (GPa) = 60.06132 56.37890 32.54193
#
# Poissons Ratio (x) = 0.59235 -0.09405
# Poissons Ratio (y) = 0.63104 0.39529
# Poissons Ratio (z) = -0.17359 0.68484
#
# Static dielectric constant tensor:
#      x y z
#    x 1.804430 0.000000 0.048180 
#    y 0.000000 1.766050 0.000000 
#    z 0.048180 0.000000 1.789900 
# 
# From -- ./inp_files/2552.got.cif
#   From: 2010.05.17/outbox.cif.g08.bks.cpg/sg6_2_cif.got.tgz:2552.got - 2010.06.03 19:42:10.
