data_PCOD9131497
_publ_section_title
;
Structure prediction by ZEFSAII (Michael W. Deem and Ramdas Pophale) SiO2 
 PCOD9131497
Probable space group: C M
;
_chemical_formula_sum "Si O2"
_cell_formula_units_Z 26
_cell_length_a 10.684573
_cell_length_b 24.976198
_cell_length_c 8.120309
_cell_angle_alpha 90.000000
_cell_angle_beta 153.872036
_cell_angle_gamma 90.000000
_cell_volume 954.291576
_symmetry_space_group_name_H-M "C M"
_symmetry_group_IT_number 8
_symmetry_cell_setting 'monoclinic'
loop_
_space_group_symop_operation_xyz
x,y,z
x,-y,z
1/2+x,1/2+y,z
1/2+x,1/2-y,z
loop_
_atom_site_type_symbol
_atom_site_label
_atom_site_fract_x
_atom_site_fract_y
_atom_site_fract_z
Si Si1 0.367000 0.387847 0.247250
Si Si2 0.297594 0.500000 0.516069
Si Si3 0.730615 0.272363 0.336934
Si Si4 0.177846 0.669835 0.681615
Si Si5 0.011090 0.500000 0.622487
Si Si6 0.911364 0.329286 0.889325
Si Si7 0.089526 0.000000 0.387683
Si Si8 0.837884 0.425151 0.148437
O O1 0.623286 0.352513 0.622052
O O2 0.491696 0.446455 0.362026
O O3 0.274056 0.363867 0.958758
O O4 0.096173 0.378875 0.040626
O O5 0.062865 0.454734 0.298328
O O6 0.532108 0.451511 0.751486
O O7 0.819942 0.297216 0.616021
O O8 0.999372 0.279027 0.535450
O O9 0.476970 0.309697 0.966372
O O10 0.606355 0.213397 0.211278
O O11 0.967261 0.634119 0.323702
O O12 0.904308 0.500000 0.685335
O O13 0.874427 0.448527 0.378900
O O14 0.339919 0.500000 0.952420
#
# Coordination Sequence:
#
# PCOD9131497 Si02
#       8
#     4   2   4   4   2   4   2   4
#     4  10  21  31  49  74 112 138 174 213 271 320
#     4   8  17  22  34  54  90 138 159 194 245 316
#     4  10  21  35  55  73 103 140 177 222 273 307
#     4  10  19  29  47  73  99 140 174 215 256 312
#     4  10  18  22  40  60 104 141 162 196 252 337
#     4  10  21  39  53  78 107 141 178 225 263 311
#     4  12  19  28  44  74 106 143 165 204 273 333
#     4  10  16  25  35  61  95 133 177 192 246 312
#
# _framework density 27.245342000000001
#
# number of rings (size 3 to 8) (size 9 to 14) (size 15 to 20)
#    0.000    2.154    1.538    4.615    4.308    0.000 
#    0.000    0.000    0.000    0.000    0.000    0.000 
#    0.000   61.538    0.000    0.000    0.000    0.000 
#
# Total GULP energy -72482.376441 kJ/mol
# GULP energy per Si atom -5575.567419 kJ/mol
# Density = 2.718333 g / cm^3
# Si number density = 27.245342 Si / 1000 Ang^3
#
#
#
# Elastic Constant Matrix: (Units=GPa)
#
#
# Indices 1 2 3 4 5 6 
#
# 1 56.0460 28.1509 63.6118 0.0000 31.4327 0.0000
# 2 28.1509 141.4205 26.9825 0.0000 6.7412 0.0000
# 3 63.6118 26.9825 135.9001 0.0000 29.0118 0.0000
# 4 0.0000 0.0000 0.0000 11.3990 0.0000 24.2681
# 5 31.4327 6.7412 29.0118 0.0000 57.9444 0.0000
# 6 0.0000 0.0000 0.0000 24.2681 0.0000 59.3623
#
#
#
# Elastic Compliance Matrix: (Units=1/GPa)
#
#
# Indices 1 2 3 4 5 6 
#
# 1 0.054296 -0.006059 -0.020238 0.000000 -0.018616 0.000000
# 2 -0.006059 0.008027 0.000829 0.000000 0.001938 0.000000
# 3 -0.020238 0.000829 0.016060 0.000000 0.002841 0.000000
# 4 0.000000 0.000000 0.000000 0.676685 0.000000 -0.276638
# 5 -0.018616 0.001938 0.002841 0.000000 0.025709 0.000000
# 6 0.000000 0.000000 0.000000 -0.276638 0.000000 0.129939
#
#
# Mechanical properties :
#
#
# Convention : Reuss Voigt Hill
#
# Bulk Modulus (GPa) = 36.43434 63.42855 49.93144
# Shear Modulus (GPa) = 5.15038 40.04922 22.59980
#
# Velocity S-wave (km/s) = 1.37640 3.83815 2.88322
# Velocity P-wave (km/s) = 3.99095 6.55537 5.42681
#
# Compressibility (1/GPa) = 0.02744663
#
# Stress axis : x y z
#
# Youngs Moduli (GPa) = 18.41750 124.58326 62.26592
#
# Poissons Ratio (x) = 0.75490 1.26011
# Poissons Ratio (y) = 0.11160 -0.05161
# Poissons Ratio (z) = 0.37273 -0.10326
#
# Static dielectric constant tensor:
#      x y z
#    x 2.132950 0.000000 -0.200990 
#    y 0.000000 2.129650 0.000000 
#    z -0.200990 0.000000 2.191370 
# 
# From -- ./inp_files/20945.got.cif
#   From: 2010.05.17/outbox.cif.g08.bks.cpg/sg8_11_cif.got.tgz:20945.got - 2010.06.03 19:46:02.
