data_PCOD9131438
_publ_section_title
;
Structure prediction by ZEFSAII (Michael W. Deem and Ramdas Pophale) SiO2 
 PCOD9131438
Probable space group: P C
;
_chemical_formula_sum "Si O2"
_cell_formula_units_Z 12
_cell_length_a 10.483380
_cell_length_b 8.199096
_cell_length_c 5.519711
_cell_angle_alpha 90.000000
_cell_angle_beta 100.669746
_cell_angle_gamma 90.000000
_cell_volume 466.239778
_symmetry_space_group_name_H-M "P C"
_symmetry_group_IT_number 7
_symmetry_cell_setting 'monoclinic'
loop_
_space_group_symop_operation_xyz
x,y,z
x,-y,1/2+z
loop_
_atom_site_type_symbol
_atom_site_label
_atom_site_fract_x
_atom_site_fract_y
_atom_site_fract_z
Si Si1 0.640620 0.579583 0.178450
Si Si2 0.931468 0.912369 0.847477
Si Si3 0.924118 0.458801 0.270059
Si Si4 0.310283 0.466416 0.848394
Si Si5 0.220695 0.207968 0.497323
Si Si6 0.504833 0.086720 0.487043
O O1 0.611051 0.546548 0.449598
O O2 0.798110 0.575151 0.228752
O O3 0.578922 0.747470 0.071971
O O4 0.884400 0.270478 0.275970
O O5 0.893842 0.980723 0.098982
O O6 0.089177 0.890432 0.921772
O O7 0.993532 0.501632 0.544216
O O8 0.214661 0.378230 0.345745
O O9 0.382493 0.516834 0.627435
O O10 0.252367 0.288108 0.773464
O O11 0.349292 0.117102 0.453313
O O12 0.536807 0.029254 0.227128
#
# Coordination Sequence:
#
# PCOD9131438 Si02
#       6
#     2   2   2   2   2   2
#     4  10  23  46  72  97 128 178 235 284 326 400
#     4  12  27  42  67 104 144 178 217 278 354 401
#     4  10  23  46  72  97 128 178 235 284 326 400
#     4   8  20  32  58  94 118 176 230 258 296 382
#     4  10  24  38  66  96 148 172 228 260 338 398
#     4  12  27  42  67 104 144 178 217 278 354 401
#
# _framework density 25.737829999999999
#
# number of rings (size 3 to 8) (size 9 to 14) (size 15 to 20)
#    1.000    0.667    0.000    3.000    9.333    0.000 
#    0.000   20.000    0.000    0.000    0.000    0.000 
#    0.000    0.000    0.000    0.000    0.000    0.000 
#
# Total GULP energy -67038.753626 kJ/mol
# GULP energy per Si atom -5586.562802 kJ/mol
# Density = 2.567925 g / cm^3
# Si number density = 25.737830 Si / 1000 Ang^3
#
#
#
# Elastic Constant Matrix: (Units=GPa)
#
#
# Indices 1 2 3 4 5 6 
#
# 1 56.8278 4.2338 29.5263 0.0000 5.2187 0.0000
# 2 4.2338 96.0979 31.5831 0.0000 -1.7515 0.0000
# 3 29.5263 31.5831 195.9040 0.0000 -10.0808 0.0000
# 4 0.0000 0.0000 0.0000 525.4160 0.0000 781.1896
# 5 5.2187 -1.7515 -10.0808 0.0000 28.4317 0.0000
# 6 0.0000 0.0000 0.0000 781.1896 0.0000 1356.7866
#
#
#
# Elastic Compliance Matrix: (Units=1/GPa)
#
#
# Indices 1 2 3 4 5 6 
#
# 1 0.019705 0.000107 -0.003232 0.000000 -0.004756 0.000000
# 2 0.000107 0.010989 -0.001787 0.000000 0.000024 0.000000
# 3 -0.003232 -0.001787 0.006014 0.000000 0.002616 0.000000
# 4 0.000000 0.000000 0.000000 0.013221 0.000000 -0.007612
# 5 -0.004756 0.000024 0.002616 0.000000 0.036974 0.000000
# 6 0.000000 0.000000 0.000000 -0.007612 0.000000 0.005120
#
#
# Mechanical properties :
#
#
# Convention : Reuss Voigt Hill
#
# Bulk Modulus (GPa) = 37.19417 53.27957 45.23687
# Shear Modulus (GPa) = 45.12312 401.02595 223.07454
#
# Velocity S-wave (km/s) = 4.19165 12.49600 9.31987
# Velocity P-wave (km/s) = 6.15703 15.13096 11.55108
#
# Compressibility (1/GPa) = 0.02688593
#
# Stress axis : x y z
#
# Youngs Moduli (GPa) = 50.74839 91.00071 166.27108
#
# Poissons Ratio (x) = -0.00977 0.53738
# Poissons Ratio (y) = -0.00545 0.29705
# Poissons Ratio (z) = 0.16402 0.16258
#
# Static dielectric constant tensor:
#      x y z
#    x 2.080700 0.000000 -0.038160 
#    y 0.000000 1.923450 0.000000 
#    z -0.038160 0.000000 2.070990 
# 
# From -- ./inp_files/1053.got.cif
#   From: 2010.05.17/outbox.cif.g08.bks.cpg/sg7_cif.got.tgz:1053.got - 2010.06.03 19:44:50.
