data_PCOD9131573
_publ_section_title
;
Structure prediction by ZEFSAII (Michael W. Deem and Ramdas Pophale) SiO2 
 PCOD9131573
Probable space group: C M
;
_chemical_formula_sum "Si O2"
_cell_formula_units_Z 22
_cell_length_a 14.115508
_cell_length_b 11.870685
_cell_length_c 12.206366
_cell_angle_alpha 90.000000
_cell_angle_beta 30.687025
_cell_angle_gamma 90.000000
_cell_volume 1043.819141
_symmetry_space_group_name_H-M "C M"
_symmetry_group_IT_number 8
_symmetry_cell_setting 'monoclinic'
loop_
_space_group_symop_operation_xyz
x,y,z
x,-y,z
1/2+x,1/2+y,z
1/2+x,1/2-y,z
loop_
_atom_site_type_symbol
_atom_site_label
_atom_site_fract_x
_atom_site_fract_y
_atom_site_fract_z
Si Si1 0.970170 0.250237 0.007150
Si Si2 0.338825 0.725967 0.538440
Si Si3 0.366465 0.000000 0.082660
Si Si4 0.507836 0.500000 0.306480
Si Si5 0.385950 0.000000 0.815885
Si Si6 0.184784 0.633519 0.143774
Si Si7 0.803190 0.269498 0.814371
O O1 0.924268 0.381439 0.077102
O O2 0.793130 0.183609 0.141286
O O3 0.121246 0.247360 0.757354
O O4 0.091935 0.201478 0.984748
O O5 0.389440 0.612142 0.427063
O O6 0.472918 0.823759 0.362883
O O7 0.378262 0.709892 0.630131
O O8 0.147357 0.000000 0.273523
O O9 0.457540 0.000000 0.869505
O O10 0.662805 0.500000 0.058878
O O11 0.418789 0.117367 0.723134
O O12 0.197586 0.500000 0.125668
O O13 0.277993 0.692998 0.945566
#
# Coordination Sequence:
#
# PCOD9131573 Si02
#       7
#     4   4   2   2   2   4   4
#     4  10  23  40  67  91 126 167 208 252 319 371
#     4  10  23  40  67  91 126 167 208 252 319 371
#     4  10  17  39  70  87 122 165 208 267 297 362
#     4  10  17  39  70  87 122 165 208 267 297 362
#     4  10  18  40  70  82 128 164 210 264 302 356
#     4  12  24  46  61  93 134 162 206 270 308 367
#     4  10  24  40  67  91 126 168 209 252 319 371
#
# _framework density 21.076447000000002
#
# number of rings (size 3 to 8) (size 9 to 14) (size 15 to 20)
#    1.636    0.000    5.455    0.545    5.091    0.727 
#    3.273    0.000    0.000    0.000    0.000    0.000 
#    0.000    0.000    0.000    0.000    0.000    0.000 
#
# Total GULP energy -61248.211543 kJ/mol
# GULP energy per Si atom -5568.019231 kJ/mol
# Density = 2.102848 g / cm^3
# Si number density = 21.076447 Si / 1000 Ang^3
#
#
#
# Elastic Constant Matrix: (Units=GPa)
#
#
# Indices 1 2 3 4 5 6 
#
# 1 38.2975 7.7978 -15.3500 0.0000 6.1257 0.0000
# 2 7.7978 111.5714 14.2699 0.0000 1.3362 0.0000
# 3 -15.3500 14.2699 59.1970 0.0000 -5.4370 0.0000
# 4 0.0000 0.0000 0.0000 16.3295 0.0000 1.1954
# 5 6.1257 1.3362 -5.4370 0.0000 22.9535 0.0000
# 6 0.0000 0.0000 0.0000 1.1954 0.0000 24.5302
#
#
#
# Elastic Compliance Matrix: (Units=1/GPa)
#
#
# Indices 1 2 3 4 5 6 
#
# 1 0.031040 -0.003150 0.008244 0.000000 -0.006148 0.000000
# 2 -0.003150 0.009594 -0.003173 0.000000 -0.000469 0.000000
# 3 0.008244 -0.003173 0.020046 0.000000 0.002733 0.000000
# 4 0.000000 0.000000 0.000000 0.061458 0.000000 -0.002995
# 5 -0.006148 -0.000469 0.002733 0.000000 0.045882 0.000000
# 6 0.000000 0.000000 0.000000 -0.002995 0.000000 0.040912
#
#
# Mechanical properties :
#
#
# Convention : Reuss Voigt Hill
#
# Bulk Modulus (GPa) = 15.49857 24.72237 20.11047
# Shear Modulus (GPa) = 22.06545 26.25254 24.15899
#
# Velocity S-wave (km/s) = 3.23913 3.53312 3.38931
# Velocity P-wave (km/s) = 4.62155 5.32909 4.98788
#
# Compressibility (1/GPa) = 0.06452208
#
# Stress axis : x y z
#
# Youngs Moduli (GPa) = 32.21631 104.22691 49.88488
#
# Poissons Ratio (x) = 0.32833 -0.41123
# Poissons Ratio (y) = 0.10149 0.15827
# Poissons Ratio (z) = -0.26558 0.33069
#
# Static dielectric constant tensor:
#      x y z
#    x 1.767080 0.000000 0.012850 
#    y 0.000000 1.734640 0.000000 
#    z 0.012850 0.000000 1.791230 
# 
# From -- ./inp_files/26704.got.cif
#   From: 2010.05.17/outbox.cif.g08.bks.cpg/sg8_14_cif.got.tgz:26704.got - 2010.06.03 19:46:02.
