data_PCOD9131506
_publ_section_title
;
Structure prediction by ZEFSAII (Michael W. Deem and Ramdas Pophale) SiO2 
 PCOD9131506
Probable space group: C M
;
_chemical_formula_sum "Si O2"
_cell_formula_units_Z 24
_cell_length_a 20.236111
_cell_length_b 8.157976
_cell_length_c 22.166547
_cell_angle_alpha 90.000000
_cell_angle_beta 20.141631
_cell_angle_gamma 90.000000
_cell_volume 1260.078072
_symmetry_space_group_name_H-M "C M"
_symmetry_group_IT_number 8
_symmetry_cell_setting 'monoclinic'
loop_
_space_group_symop_operation_xyz
x,y,z
x,-y,z
1/2+x,1/2+y,z
1/2+x,1/2-y,z
loop_
_atom_site_type_symbol
_atom_site_label
_atom_site_fract_x
_atom_site_fract_y
_atom_site_fract_z
Si Si1 0.612178 0.000000 0.081978
Si Si2 0.019960 0.000000 0.613527
Si Si3 0.305002 0.000000 0.250985
Si Si4 0.412833 0.321969 0.303052
Si Si5 0.065553 0.000000 0.707490
Si Si6 0.106348 0.688196 0.373026
Si Si7 0.796965 0.188479 0.541953
Si Si8 0.483810 0.827672 0.613680
O O1 0.532663 0.834059 0.180536
O O2 0.513566 0.000000 0.101024
O O3 0.838846 0.000000 0.893934
O O4 0.897048 0.835657 0.714868
O O5 0.135712 0.000000 0.577064
O O6 0.157181 0.000000 0.436186
O O7 0.259777 0.166693 0.253265
O O8 0.501895 0.500000 0.211692
O O9 0.375183 0.316896 0.406615
O O10 0.204752 0.321471 0.448255
O O11 0.139433 0.166056 0.675718
O O12 0.174024 0.500000 0.303340
O O13 0.992009 0.678915 0.534629
O O14 0.963552 0.751219 0.443911
O O15 0.736613 0.000000 0.608625
O O16 0.399013 0.000000 0.706632
#
# Coordination Sequence:
#
# PCOD9131506 Si02
#       8
#     2   2   2   4   2   4   4   4
#     4  12  22  36  56  78 120 149 179 220 274 349
#     4  10  16  32  54  74 106 134 185 226 257 313
#     4  10  18  34  56  84 103 138 187 231 277 307
#     4  10  19  34  57  81 105 141 191 236 270 311
#     4  12  24  34  52  84 119 151 175 217 280 341
#     4  10  18  29  54  87 105 130 175 245 274 306
#     4  11  21  35  56  86 110 139 189 234 275 316
#     4   9  16  28  52  82 103 126 171 232 272 301
#
# _framework density 19.046437999999998
#
# number of rings (size 3 to 8) (size 9 to 14) (size 15 to 20)
#    0.000    1.667    6.667    0.500    0.000    0.667 
#    0.000    0.000    0.000    4.000    0.000    0.000 
#    0.000    0.000    0.000    0.000    0.000    0.000 
#
# Total GULP energy -66834.198383 kJ/mol
# GULP energy per Si atom -5569.516532 kJ/mol
# Density = 1.900309 g / cm^3
# Si number density = 19.046438 Si / 1000 Ang^3
#
#
#
# Elastic Constant Matrix: (Units=GPa)
#
#
# Indices 1 2 3 4 5 6 
#
# 1 91.3521 31.2516 24.6057 0.0009 -31.4539 -0.0002
# 2 31.2516 244.2540 51.4008 -0.0015 -19.0981 -0.0001
# 3 24.6057 51.4008 72.1008 -0.0047 -20.0748 0.0003
# 4 0.0009 -0.0015 -0.0047 13.6247 -0.0006 -7.5589
# 5 -31.4539 -19.0981 -20.0748 -0.0006 20.9323 0.0002
# 6 -0.0002 -0.0001 0.0003 -7.5589 0.0002 28.1827
#
#
#
# Elastic Compliance Matrix: (Units=1/GPa)
#
#
# Indices 1 2 3 4 5 6 
#
# 1 0.023081 -0.000676 0.002851 0.000001 0.036800 0.000000
# 2 -0.000676 0.004871 -0.003121 -0.000001 0.000436 0.000000
# 3 0.002851 -0.003121 0.021176 0.000009 0.021745 0.000002
# 4 0.000001 -0.000001 0.000009 0.086226 0.000012 0.023127
# 5 0.036800 0.000436 0.021745 0.000012 0.124323 0.000002
# 6 0.000000 0.000000 0.000002 0.023127 0.000002 0.041686
#
#
# Mechanical properties :
#
#
# Convention : Reuss Voigt Hill
#
# Bulk Modulus (GPa) = 21.16983 69.13588 45.15285
# Shear Modulus (GPa) = 15.67405 32.57789 24.12597
#
# Velocity S-wave (km/s) = 2.87180 4.14024 3.56292
# Velocity P-wave (km/s) = 4.70482 7.69629 6.37841
#
# Compressibility (1/GPa) = 0.04723704
#
# Stress axis : x y z
#
# Youngs Moduli (GPa) = 43.32645 205.27991 47.22388
#
# Poissons Ratio (x) = 0.13871 -0.13464
# Poissons Ratio (y) = 0.02928 0.14737
# Poissons Ratio (z) = -0.12353 0.64063
#
# Static dielectric constant tensor:
#      x y z
#    x 1.658430 0.000000 -0.000160 
#    y 0.000000 1.786690 0.000000 
#    z -0.000160 0.000000 1.616020 
# 
# From -- ./inp_files/15595.got.cif
#   From: 2010.05.17/outbox.cif.g08.bks.cpg/sg8_8_cif.got.tgz:15595.got - 2010.06.03 19:46:02.
