data_PCOD9131880
_publ_section_title
;
Structure prediction by ZEFSAII (Michael W. Deem and Ramdas Pophale) SiO2 
 PCOD9131880
Probable space group: C M
;
_chemical_formula_sum "Si O2"
_cell_formula_units_Z 32
_cell_length_a 5.210840
_cell_length_b 33.491916
_cell_length_c 9.754949
_cell_angle_alpha 90.000000
_cell_angle_beta 82.623258
_cell_angle_gamma 90.000000
_cell_volume 1688.353098
_symmetry_space_group_name_H-M "C M"
_symmetry_group_IT_number 8
_symmetry_cell_setting 'monoclinic'
loop_
_space_group_symop_operation_xyz
x,y,z
x,-y,z
1/2+x,1/2+y,z
1/2+x,1/2-y,z
loop_
_atom_site_type_symbol
_atom_site_label
_atom_site_fract_x
_atom_site_fract_y
_atom_site_fract_z
Si Si1 0.951690 0.410640 0.673700
Si Si2 0.996975 0.723465 0.664910
Si Si3 0.508894 0.153325 0.871195
Si Si4 0.531882 0.545602 0.828968
Si Si5 0.451746 0.620839 0.008346
Si Si6 0.445509 0.620223 0.333780
Si Si7 0.887841 0.651959 0.472291
Si Si8 0.375754 0.454389 0.517065
O O1 0.115492 0.377724 0.746884
O O2 0.827416 0.439538 0.794604
O O3 0.785162 0.378778 0.597736
O O4 0.080402 0.439808 0.554898
O O5 0.778729 0.757038 0.660838
O O6 0.967922 0.695610 0.801408
O O7 0.951555 0.693549 0.540521
O O8 0.722230 0.150091 0.974592
O O9 0.229352 0.137428 0.938586
O O10 0.500616 0.500000 0.873949
O O11 0.456993 0.548555 0.672377
O O12 0.407439 0.577817 0.938354
O O13 0.455160 0.616394 0.170609
O O14 0.665980 0.650334 0.373712
O O15 0.494561 0.577508 0.404801
O O16 0.161092 0.635166 0.398611
O O17 0.406000 0.500000 0.472019
#
# Coordination Sequence:
#
# PCOD9131880 Si02
#       8
#     4   4   4   4   4   4   4   4
#     4   9  17  32  55  78 110 148 196 244 295 336
#     4  11  22  38  67 100 123 140 181 244 293 340
#     4  10  21  37  61  85 117 150 193 235 284 348
#     4  10  19  32  53  80 115 152 198 255 301 331
#     4  11  22  38  58  83 118 162 201 235 281 345
#     4  11  22  38  58  83 118 162 201 235 281 345
#     4  10  21  37  61  85 117 150 193 235 284 348
#     4  10  19  32  53  80 115 152 198 255 301 331
#
# _framework density 18.953382000000001
#
# number of rings (size 3 to 8) (size 9 to 14) (size 15 to 20)
#    0.000    1.750    2.500    2.625    0.000    0.500 
#    0.000    0.000    0.000   19.500    0.000    0.000 
#    0.000    0.000    0.000    0.000    0.000    0.000 
#
# Total GULP energy -89083.507679 kJ/mol
# GULP energy per Si atom -5567.719230 kJ/mol
# Density = 1.891024 g / cm^3
# Si number density = 18.953382 Si / 1000 Ang^3
#
#
#
# Elastic Constant Matrix: (Units=GPa)
#
#
# Indices 1 2 3 4 5 6 
#
# 1 63.2978 2.7385 12.9494 0.0000 11.7279 0.0000
# 2 2.7385 60.0541 30.8055 0.0000 -1.8765 0.0000
# 3 12.9494 30.8055 100.6238 0.0000 16.2525 0.0000
# 4 0.0000 0.0000 0.0000 17.1741 0.0000 2.3999
# 5 11.7279 -1.8765 16.2525 0.0000 26.1042 0.0000
# 6 0.0000 0.0000 0.0000 2.3999 0.0000 22.9837
#
#
#
# Elastic Compliance Matrix: (Units=1/GPa)
#
#
# Indices 1 2 3 4 5 6 
#
# 1 0.017354 -0.000566 -0.000883 0.000000 -0.007288 0.000000
# 2 -0.000566 0.020585 -0.007237 0.000000 0.006240 0.000000
# 3 -0.000883 -0.007237 0.013661 0.000000 -0.008629 0.000000
# 4 0.000000 0.000000 0.000000 0.059089 0.000000 -0.006170
# 5 -0.007288 0.006240 -0.008629 0.000000 0.047403 0.000000
# 6 0.000000 0.000000 0.000000 -0.006170 0.000000 0.044153
#
#
# Mechanical properties :
#
#
# Convention : Reuss Voigt Hill
#
# Bulk Modulus (GPa) = 29.21632 35.21804 32.21718
# Shear Modulus (GPa) = 21.64259 25.08456 23.36358
#
# Velocity S-wave (km/s) = 3.38285 3.64192 3.51477
# Velocity P-wave (km/s) = 5.54134 6.02549 5.78848
#
# Compressibility (1/GPa) = 0.03422744
#
# Stress axis : x y z
#
# Youngs Moduli (GPa) = 57.62460 48.57977 73.20179
#
# Poissons Ratio (x) = 0.02751 0.06463
# Poissons Ratio (y) = 0.03263 0.52975
# Poissons Ratio (z) = 0.05087 0.35157
#
# Static dielectric constant tensor:
#      x y z
#    x 1.808390 0.000000 0.019990 
#    y 0.000000 1.649550 0.000000 
#    z 0.019990 0.000000 1.672150 
# 
# From -- ./inp_files/7207.got.cif
#   From: 2010.05.17/outbox.cif.g08.bks.cpg/sg8_4_cif.got.tgz:7207.got - 2010.06.03 19:46:02.
