data_PCOD9131938
_publ_section_title
;
Structure prediction by ZEFSAII (Michael W. Deem and Ramdas Pophale) SiO2 
 PCOD9131938
Probable space group: C M
;
_chemical_formula_sum "Si O2"
_cell_formula_units_Z 32
_cell_length_a 20.893637
_cell_length_b 8.949474
_cell_length_c 21.871447
_cell_angle_alpha 90.000000
_cell_angle_beta 157.162859
_cell_angle_gamma 90.000000
_cell_volume 1587.257396
_symmetry_space_group_name_H-M "C M"
_symmetry_group_IT_number 8
_symmetry_cell_setting 'monoclinic'
loop_
_space_group_symop_operation_xyz
x,y,z
x,-y,z
1/2+x,1/2+y,z
1/2+x,1/2-y,z
loop_
_atom_site_type_symbol
_atom_site_label
_atom_site_fract_x
_atom_site_fract_y
_atom_site_fract_z
Si Si1 0.063330 0.320721 0.239260
Si Si2 0.771451 0.320638 0.887829
Si Si3 0.961918 0.832971 0.275302
Si Si4 0.902800 0.325377 0.557601
Si Si5 0.813622 0.324168 0.787456
Si Si6 0.578433 0.166252 0.917336
Si Si7 0.890576 0.836559 0.664712
Si Si8 0.597208 0.833227 0.504566
O O1 0.076988 0.500000 0.247369
O O2 0.021115 0.273029 0.271955
O O3 0.244883 0.249842 0.384056
O O4 0.907780 0.272811 0.058878
O O5 0.750178 0.500000 0.876564
O O6 0.587566 0.247909 0.720754
O O7 0.846710 0.290154 0.886949
O O8 0.988818 0.773704 0.367513
O O9 0.767323 0.842193 0.097708
O O10 0.032162 0.000000 0.329423
O O11 0.913493 0.500000 0.552550
O O12 0.854967 0.292377 0.585823
O O13 0.773125 0.500000 0.747485
O O14 0.662257 0.232402 0.625264
O O15 0.970453 0.297558 0.881956
O O16 0.521729 0.000000 0.846195
O O17 0.554229 0.289860 0.844063
O O18 0.756194 0.841471 0.599640
O O19 0.897046 0.000000 0.640876
O O20 0.529481 0.000000 0.451991
#
# Coordination Sequence:
#
# PCOD9131938 Si02
#       8
#     4   4   4   4   4   4   4   4
#     4  11  23  40  62  91 125 161 206 257 307 366
#     4  10  23  43  66  89 119 164 212 257 305 361
#     4  11  21  34  55  88 122 154 193 244 307 366
#     4  12  24  38  61  90 124 163 204 253 310 368
#     4   9  19  40  63  83 112 154 202 248 294 353
#     4   9  19  34  56  86 118 151 195 243 299 360
#     4  10  19  33  55  82 114 150 191 238 295 357
#     4  10  20  34  56  83 116 153 189 238 293 351
#
# _framework density 20.160561999999999
#
# number of rings (size 3 to 8) (size 9 to 14) (size 15 to 20)
#    0.000    1.750    1.250    3.375    0.000    5.500 
#    2.250    0.000    0.000    0.000    0.000    0.000 
#    0.000    0.000    0.000    0.000    0.000    0.000 
#
# Total GULP energy -89122.973623 kJ/mol
# GULP energy per Si atom -5570.185851 kJ/mol
# Density = 2.011468 g / cm^3
# Si number density = 20.160562 Si / 1000 Ang^3
#
#
#
# Elastic Constant Matrix: (Units=GPa)
#
#
# Indices 1 2 3 4 5 6 
#
# 1 33.5589 6.5630 19.6926 -0.0001 -7.2985 -0.0001
# 2 6.5630 63.5770 35.3348 0.0000 6.0307 0.0000
# 3 19.6926 35.3348 122.3581 -0.0003 4.0222 -0.0001
# 4 -0.0001 0.0000 -0.0003 30.4882 -0.0001 -1.3717
# 5 -7.2985 6.0307 4.0222 -0.0001 27.3415 -0.0001
# 6 -0.0001 0.0000 -0.0001 -1.3717 -0.0001 19.7216
#
#
#
# Elastic Compliance Matrix: (Units=1/GPa)
#
#
# Indices 1 2 3 4 5 6 
#
# 1 0.035754 -0.001565 -0.005655 0.000000 0.010721 0.000000
# 2 -0.001565 0.019116 -0.005141 0.000000 -0.003878 0.000000
# 3 -0.005655 -0.005141 0.010631 0.000000 -0.001940 0.000000
# 4 0.000000 0.000000 0.000000 0.032903 0.000000 0.002288
# 5 0.010721 -0.003878 -0.001940 0.000000 0.040577 0.000000
# 6 0.000000 0.000000 0.000000 0.002288 0.000000 0.050865
#
#
# Mechanical properties :
#
#
# Convention : Reuss Voigt Hill
#
# Bulk Modulus (GPa) = 24.52205 38.07498 31.29851
# Shear Modulus (GPa) = 21.91439 26.03716 23.97578
#
# Velocity S-wave (km/s) = 3.30053 3.59763 3.45228
# Velocity P-wave (km/s) = 5.16861 6.01532 5.60797
#
# Compressibility (1/GPa) = 0.04077963
#
# Stress axis : x y z
#
# Youngs Moduli (GPa) = 27.96853 52.31345 94.06286
#
# Poissons Ratio (x) = 0.08187 0.53192
# Poissons Ratio (y) = 0.04377 0.48356
# Poissons Ratio (z) = 0.15816 0.26894
#
# Static dielectric constant tensor:
#      x y z
#    x 1.721400 0.000000 0.021710 
#    y 0.000000 1.748120 0.000000 
#    z 0.021710 0.000000 1.758140 
# 
# From -- ./inp_files/32398.got.cif
#   From: 2010.05.17/outbox.cif.g08.bks.cpg/sg8_17_cif.got.tgz:32398.got - 2010.06.03 19:46:02.
