data_PCOD9131932
_publ_section_title
;
Structure prediction by ZEFSAII (Michael W. Deem and Ramdas Pophale) SiO2 
 PCOD9131932
Probable space group: C M
;
_chemical_formula_sum "Si O2"
_cell_formula_units_Z 32
_cell_length_a 22.890933
_cell_length_b 7.667118
_cell_length_c 11.419036
_cell_angle_alpha 90.000000
_cell_angle_beta 49.849522
_cell_angle_gamma 90.000000
_cell_volume 1531.861192
_symmetry_space_group_name_H-M "C M"
_symmetry_group_IT_number 8
_symmetry_cell_setting 'monoclinic'
loop_
_space_group_symop_operation_xyz
x,y,z
x,-y,z
1/2+x,1/2+y,z
1/2+x,1/2-y,z
loop_
_atom_site_type_symbol
_atom_site_label
_atom_site_fract_x
_atom_site_fract_y
_atom_site_fract_z
Si Si1 0.790000 0.711739 0.170780
Si Si2 0.635836 0.794979 0.497797
Si Si3 0.681716 0.200371 0.929203
Si Si4 0.021227 0.286313 0.236242
Si Si5 0.868109 0.286974 0.307481
Si Si6 0.989706 0.286076 0.543215
Si Si7 0.334189 0.796660 0.858798
Si Si8 0.215829 0.798421 0.630678
O O1 0.788306 0.500000 0.171546
O O2 0.705106 0.769783 0.316661
O O3 0.845600 0.766093 0.205155
O O4 0.816301 0.777509 0.010453
O O5 0.557757 0.729785 0.541342
O O6 0.662388 0.712018 0.585492
O O7 0.627265 0.000000 0.532075
O O8 0.758155 0.286387 0.879699
O O9 0.682622 0.207846 0.787632
O O10 0.686312 0.000000 0.961765
O O11 0.602969 0.274080 0.082542
O O12 0.021694 0.500000 0.232647
O O13 0.006570 0.231746 0.388622
O O14 0.949970 0.229978 0.248408
O O15 0.866751 0.500000 0.310988
O O16 0.798554 0.229320 0.481697
O O17 0.990177 0.500000 0.540240
O O18 0.907780 0.224513 0.696281
O O19 0.352165 0.000000 0.855374
O O20 0.226107 0.000000 0.650198
#
# Coordination Sequence:
#
# PCOD9131932 Si02
#       8
#     4   4   4   4   4   4   4   4
#     4   9  18  32  52  79 107 137 174 215 263 314
#     4  10  19  33  55  80 107 138 175 219 262 307
#     4  11  22  34  52  79 107 135 172 220 272 317
#     4   9  17  30  50  76 104 133 170 217 262 304
#     4   8  15  30  53  76  98 131 174 214 251 301
#     4   9  18  32  52  78 104 137 181 220 255 303
#     4  10  20  35  55  76 103 141 183 221 257 307
#     4  10  20  36  57  78 104 138 175 214 260 317
#
# _framework density 20.889621000000002
#
# number of rings (size 3 to 8) (size 9 to 14) (size 15 to 20)
#    0.000    2.500    0.000    3.375    0.000    4.500 
#    0.000    5.000    0.000   16.500    0.000    0.000 
#    0.000    0.000    0.000    0.000    0.000    0.000 
#
# Total GULP energy -89343.407118 kJ/mol
# GULP energy per Si atom -5583.962945 kJ/mol
# Density = 2.084208 g / cm^3
# Si number density = 20.889621 Si / 1000 Ang^3
#
#
#
# Elastic Constant Matrix: (Units=GPa)
#
#
# Indices 1 2 3 4 5 6 
#
# 1 142.2197 -7.2513 102.3252 0.0000 -24.1220 0.0000
# 2 -7.2513 37.5725 -3.7683 0.0000 -0.6631 0.0000
# 3 102.3252 -3.7683 180.7057 0.0000 -1.3679 0.0000
# 4 0.0000 0.0000 0.0000 8.5186 0.0000 1.9886
# 5 -24.1220 -0.6631 -1.3679 0.0000 31.6063 0.0000
# 6 0.0000 0.0000 0.0000 1.9886 0.0000 16.1819
#
#
#
# Elastic Compliance Matrix: (Units=1/GPa)
#
#
# Indices 1 2 3 4 5 6 
#
# 1 0.015110 0.002269 -0.008424 0.000000 0.011215 0.000000
# 2 0.002269 0.027023 -0.000704 0.000000 0.002268 0.000000
# 3 -0.008424 -0.000704 0.010244 0.000000 -0.006001 0.000000
# 4 0.000000 0.000000 0.000000 0.120858 0.000000 -0.014852
# 5 0.011215 0.002268 -0.006001 0.000000 0.039987 0.000000
# 6 0.000000 0.000000 0.000000 -0.014852 0.000000 0.063623
#
#
# Mechanical properties :
#
#
# Convention : Reuss Voigt Hill
#
# Bulk Modulus (GPa) = 25.86746 60.34543 43.10645
# Shear Modulus (GPa) = 16.47728 29.20751 22.84239
#
# Velocity S-wave (km/s) = 2.81157 3.74328 3.31037
# Velocity P-wave (km/s) = 4.79058 6.90169 5.94067
#
# Compressibility (1/GPa) = 0.03865860
#
# Stress axis : x y z
#
# Youngs Moduli (GPa) = 66.18015 37.00614 97.61930
#
# Poissons Ratio (x) = -0.08398 0.82235
# Poissons Ratio (y) = -0.15018 0.06875
# Poissons Ratio (z) = 0.55750 0.02606
#
# Static dielectric constant tensor:
#      x y z
#    x 1.713520 0.000000 -0.001330 
#    y 0.000000 1.787870 0.000000 
#    z -0.001330 0.000000 1.724440 
# 
# From -- ./inp_files/23867.got.cif
#   From: 2010.05.17/outbox.cif.g08.bks.cpg/sg8_12_cif.got.tgz:23867.got - 2010.06.03 19:46:02.
