data_PCOD9131279
_publ_section_title
;
Structure prediction by ZEFSAII (Michael W. Deem and Ramdas Pophale) SiO2 
 PCOD9131279
Probable space group: P C
;
_chemical_formula_sum "Si O2"
_cell_formula_units_Z 16
_cell_length_a 10.050031
_cell_length_b 15.995488
_cell_length_c 5.416687
_cell_angle_alpha 90.000000
_cell_angle_beta 123.401713
_cell_angle_gamma 90.000000
_cell_volume 726.938072
_symmetry_space_group_name_H-M "P C"
_symmetry_group_IT_number 7
_symmetry_cell_setting 'monoclinic'
loop_
_space_group_symop_operation_xyz
x,y,z
x,-y,1/2+z
loop_
_atom_site_type_symbol
_atom_site_label
_atom_site_fract_x
_atom_site_fract_y
_atom_site_fract_z
Si Si1 0.956930 0.399947 0.476470
Si Si2 0.632112 0.048769 0.011486
Si Si3 0.920420 0.793230 0.276868
Si Si4 0.584153 0.699356 0.960558
Si Si5 0.459850 0.773047 0.333427
Si Si6 0.982971 0.985478 0.371375
Si Si7 0.831831 0.411193 0.851596
Si Si8 0.103179 0.252222 0.463835
O O1 0.935509 0.371441 0.736098
O O2 0.912340 0.497740 0.459588
O O3 0.111842 0.353754 0.525293
O O4 0.835776 0.373866 0.132005
O O5 0.563900 0.142363 0.944115
O O6 0.582925 0.999555 0.210554
O O7 0.826338 0.044906 0.209775
O O8 0.990606 0.777012 0.073983
O O9 0.742873 0.757198 0.127168
O O10 0.914851 0.892808 0.297483
O O11 0.030163 0.765507 0.621473
O O12 0.485133 0.725927 0.098638
O O13 0.654934 0.605233 0.068721
O O14 0.505065 0.716880 0.617408
O O15 0.272582 0.790684 0.161958
O O16 0.077075 0.999191 0.717763
#
# Coordination Sequence:
#
# PCOD9131279 Si02
#       8
#     2   2   2   2   2   2   2   2
#     4  10  19  39  62  94 129 169 213 262 323 382
#     4  10  20  39  59  84 122 177 213 256 326 395
#     4  12  23  39  68  95 122 169 234 270 315 384
#     4  12  21  40  65 103 122 170 226 277 308 393
#     4  12  26  40  66  97 144 172 214 271 349 394
#     4  10  19  35  57  86 119 155 213 280 319 360
#     4  10  20  35  67  96 120 168 223 265 311 378
#     4  12  24  43  62 101 136 174 212 271 335 404
#
# _framework density 22.010127000000001
#
# number of rings (size 3 to 8) (size 9 to 14) (size 15 to 20)
#    0.000    1.000    2.500    6.750    0.000    0.000 
#    0.000    3.750    0.000   18.000    0.000    0.000 
#    0.000    0.000    0.000    0.000    0.000    0.000 
#
# Total GULP energy -89128.125218 kJ/mol
# GULP energy per Si atom -5570.507826 kJ/mol
# Density = 2.196003 g / cm^3
# Si number density = 22.010127 Si / 1000 Ang^3
#
#
#
# Elastic Constant Matrix: (Units=GPa)
#
#
# Indices 1 2 3 4 5 6 
#
# 1 67.5251 11.1844 52.7124 0.0000 -30.8294 0.0000
# 2 11.1844 69.9401 13.4432 0.0000 -10.9528 0.0000
# 3 52.7124 13.4432 138.7154 0.0000 -46.7688 0.0000
# 4 0.0000 0.0000 0.0000 8.1751 0.0000 3.6945
# 5 -30.8294 -10.9528 -46.7688 0.0000 43.3675 0.0000
# 6 0.0000 0.0000 0.0000 3.6945 0.0000 14.0921
#
#
#
# Elastic Compliance Matrix: (Units=1/GPa)
#
#
# Indices 1 2 3 4 5 6 
#
# 1 0.024284 -0.001099 -0.005334 0.000000 0.011233 0.000000
# 2 -0.001099 0.014943 -0.000034 0.000000 0.002956 0.000000
# 3 -0.005334 -0.000034 0.012505 0.000000 0.009685 0.000000
# 4 0.000000 0.000000 0.000000 0.138762 0.000000 -0.036379
# 5 0.011233 0.002956 0.009685 0.000000 0.042235 0.000000
# 6 0.000000 0.000000 0.000000 -0.036379 0.000000 0.080499
#
#
# Mechanical properties :
#
#
# Convention : Reuss Voigt Hill
#
# Bulk Modulus (GPa) = 25.77474 47.87341 36.82407
# Shear Modulus (GPa) = 14.74514 26.38300 20.56407
#
# Velocity S-wave (km/s) = 2.59110 3.46595 3.05995
# Velocity P-wave (km/s) = 4.54836 6.14938 5.40844
#
# Compressibility (1/GPa) = 0.03879768
#
# Stress axis : x y z
#
# Youngs Moduli (GPa) = 41.17938 66.92031 79.97078
#
# Poissons Ratio (x) = 0.07354 0.42658
# Poissons Ratio (y) = 0.04525 0.00271
# Poissons Ratio (z) = 0.21966 0.00226
#
# Static dielectric constant tensor:
#      x y z
#    x 1.805690 0.000000 -0.065530 
#    y 0.000000 2.256610 0.000000 
#    z -0.065530 0.000000 1.856360 
# 
# From -- ./inp_files/926.got.cif
#   From: 2010.05.17/outbox.cif.g08.bks.cpg/sg7_cif.got.tgz:926.got - 2010.06.03 19:44:50.
