data_PCOD9131460
_publ_section_title
;
Structure prediction by ZEFSAII (Michael W. Deem and Ramdas Pophale) SiO2 
 PCOD9131460
Probable space group: P C
;
_chemical_formula_sum "Si O2"
_cell_formula_units_Z 12
_cell_length_a 4.929212
_cell_length_b 17.687423
_cell_length_c 5.747803
_cell_angle_alpha 90.000000
_cell_angle_beta 70.639295
_cell_angle_gamma 90.000000
_cell_volume 472.784178
_symmetry_space_group_name_H-M "P C"
_symmetry_group_IT_number 7
_symmetry_cell_setting 'monoclinic'
loop_
_space_group_symop_operation_xyz
x,y,z
x,-y,1/2+z
loop_
_atom_site_type_symbol
_atom_site_label
_atom_site_fract_x
_atom_site_fract_y
_atom_site_fract_z
Si Si1 0.823240 0.357671 0.927830
Si Si2 0.281835 0.543039 0.493354
Si Si3 0.805296 0.777448 0.756432
Si Si4 0.186788 0.746027 0.040881
Si Si5 0.189446 0.093073 0.635093
Si Si6 0.151634 0.074822 0.137037
O O1 0.551026 0.399904 0.903628
O O2 0.979367 0.412819 0.064526
O O3 0.070986 0.330722 0.680535
O O4 0.738502 0.278161 0.065137
O O5 0.294735 0.504619 0.746644
O O6 0.519894 0.764257 0.991010
O O7 0.898364 0.863722 0.695672
O O8 0.087572 0.744458 0.802898
O O9 0.042698 0.824762 0.172599
O O10 0.311302 0.090135 0.336060
O O11 0.035307 0.011108 0.678276
O O12 0.335041 0.087689 0.848830
#
# Coordination Sequence:
#
# PCOD9131460 Si02
#       6
#     2   2   2   2   2   2
#     4  12  26  48  80 106 150 190 242 304 358 450
#     4  12  30  52  80 112 148 190 236 298 378 448
#     4  11  24  43  71 106 146 194 248 301 362 426
#     4  11  24  43  71 106 146 194 248 301 362 426
#     4   9  18  38  62  95 141 187 240 296 352 412
#     4   9  18  38  62  95 141 187 240 296 352 412
#
# _framework density 25.381558999999999
#
# number of rings (size 3 to 8) (size 9 to 14) (size 15 to 20)
#    0.000    1.333    1.667    3.000    7.000    0.000 
#    0.000   15.000    0.000    0.000    0.000    0.000 
#    0.000    0.000    0.000    0.000    0.000    0.000 
#
# Total GULP energy -66819.941206 kJ/mol
# GULP energy per Si atom -5568.328434 kJ/mol
# Density = 2.532379 g / cm^3
# Si number density = 25.381559 Si / 1000 Ang^3
#
#
#
# Elastic Constant Matrix: (Units=GPa)
#
#
# Indices 1 2 3 4 5 6 
#
# 1 116.8155 24.4081 25.3167 0.0000 -0.7302 0.0000
# 2 24.4081 90.8005 32.3377 0.0000 7.6812 0.0000
# 3 25.3167 32.3377 136.6217 0.0000 32.7581 0.0000
# 4 0.0000 0.0000 0.0000 37.4043 0.0000 9.4865
# 5 -0.7302 7.6812 32.7581 0.0000 27.4835 0.0000
# 6 0.0000 0.0000 0.0000 9.4865 0.0000 21.8697
#
#
#
# Elastic Compliance Matrix: (Units=1/GPa)
#
#
# Indices 1 2 3 4 5 6 
#
# 1 0.009461 -0.002093 -0.002042 0.000000 0.003270 0.000000
# 2 -0.002093 0.012490 -0.002406 0.000000 -0.000679 0.000000
# 3 -0.002042 -0.002406 0.011368 0.000000 -0.012931 0.000000
# 4 0.000000 0.000000 0.000000 0.030040 0.000000 -0.013030
# 5 0.003270 -0.000679 -0.012931 0.000000 0.052075 0.000000
# 6 0.000000 0.000000 0.000000 -0.013030 0.000000 0.051378
#
#
# Mechanical properties :
#
#
# Convention : Reuss Voigt Hill
#
# Bulk Modulus (GPa) = 49.41174 56.48476 52.94825
# Shear Modulus (GPa) = 26.78989 34.82984 30.80986
#
# Velocity S-wave (km/s) = 3.25235 3.70841 3.48784
# Velocity P-wave (km/s) = 5.79772 6.37487 6.09313
#
# Compressibility (1/GPa) = 0.02023811
#
# Stress axis : x y z
#
# Youngs Moduli (GPa) = 105.70047 80.06488 87.96710
#
# Poissons Ratio (x) = 0.16754 0.17962
# Poissons Ratio (y) = 0.22119 0.21163
# Poissons Ratio (z) = 0.21582 0.19262
#
# Static dielectric constant tensor:
#      x y z
#    x 1.937130 0.000000 -0.006540 
#    y 0.000000 2.016060 0.000000 
#    z -0.006540 0.000000 2.249300 
# 
# From -- ./inp_files/190.got.cif
#   From: 2010.05.17/outbox.cif.g08.bks.cpg/sg7_cif.got.tgz:190.got - 2010.06.03 19:44:50.
