data_PCOD9131450
_publ_section_title
;
Structure prediction by ZEFSAII (Michael W. Deem and Ramdas Pophale) SiO2 
 PCOD9131450
Probable space group: P C
;
_chemical_formula_sum "Si O2"
_cell_formula_units_Z 12
_cell_length_a 7.332376
_cell_length_b 18.244126
_cell_length_c 5.464431
_cell_angle_alpha 90.000000
_cell_angle_beta 135.224454
_cell_angle_gamma 90.000000
_cell_volume 514.860678
_symmetry_space_group_name_H-M "P C"
_symmetry_group_IT_number 7
_symmetry_cell_setting 'monoclinic'
loop_
_space_group_symop_operation_xyz
x,y,z
x,-y,1/2+z
loop_
_atom_site_type_symbol
_atom_site_label
_atom_site_fract_x
_atom_site_fract_y
_atom_site_fract_z
Si Si1 0.977110 0.663292 0.901080
Si Si2 0.413281 0.144468 0.392701
Si Si3 0.355803 0.586833 0.943127
Si Si4 0.571676 0.577899 0.655484
Si Si5 0.913391 0.046181 0.893061
Si Si6 0.470635 0.236462 0.949399
O O1 0.879746 0.592356 0.969799
O O2 0.747020 0.722375 0.696514
O O3 0.082306 0.622029 0.755725
O O4 0.221113 0.710246 0.223779
O O5 0.627876 0.080947 0.618878
O O6 0.436952 0.192582 0.662020
O O7 0.467708 0.188164 0.193052
O O8 0.128437 0.109771 0.105404
O O9 0.529377 0.606647 0.341340
O O10 0.425258 0.500039 0.997430
O O11 0.456616 0.615785 0.783558
O O12 0.947512 0.001097 0.673342
#
# Coordination Sequence:
#
# PCOD9131450 Si02
#       6
#     2   2   2   2   2   2
#     4  12  26  49  70 105 138 196 254 294 382 448
#     4  12  26  49  70 113 150 192 240 286 352 412
#     4  10  24  44  69 100 134 178 236 318 379 436
#     4  10  24  44  69 100 134 178 236 318 379 436
#     4  12  24  45  80 113 148 190 234 292 346 414
#     4  12  28  45  72  99 150 200 238 298 344 448
#
# _framework density 23.307276999999999
#
# number of rings (size 3 to 8) (size 9 to 14) (size 15 to 20)
#    0.000    0.667    1.667    5.000    2.333    9.333 
#    0.000    0.000    0.000    0.000    0.000    0.000 
#    0.000    0.000    0.000    0.000    0.000    0.000 
#
# Total GULP energy -66875.013797 kJ/mol
# GULP energy per Si atom -5572.917816 kJ/mol
# Density = 2.325423 g / cm^3
# Si number density = 23.307277 Si / 1000 Ang^3
#
#
#
# Elastic Constant Matrix: (Units=GPa)
#
#
# Indices 1 2 3 4 5 6 
#
# 1 181.4321 36.9581 64.1833 0.0000 -29.8918 0.0000
# 2 36.9581 66.6979 30.6310 0.0000 -16.2631 0.0000
# 3 64.1833 30.6310 91.4916 0.0000 -19.6310 0.0000
# 4 0.0000 0.0000 0.0000 3.0267 0.0000 -25.2429
# 5 -29.8918 -16.2631 -19.6310 0.0000 58.5701 0.0000
# 6 0.0000 0.0000 0.0000 -25.2429 0.0000 21.1916
#
#
#
# Elastic Compliance Matrix: (Units=1/GPa)
#
#
# Indices 1 2 3 4 5 6 
#
# 1 0.007768 -0.001788 -0.004425 0.000000 0.001985 0.000000
# 2 -0.001788 0.018688 -0.004401 0.000000 0.002801 0.000000
# 3 -0.004425 -0.004401 0.015905 0.000000 0.001850 0.000000
# 4 0.000000 0.000000 0.000000 -0.036979 0.000000 -0.044049
# 5 0.001985 0.002801 0.001850 0.000000 0.019485 0.000000
# 6 0.000000 0.000000 0.000000 -0.044049 0.000000 -0.005282
#
#
# Mechanical properties :
#
#
# Convention : Reuss Voigt Hill
#
# Bulk Modulus (GPa) = 47.32092 67.01848 57.16970
# Shear Modulus (GPa) = 104.47553 30.41430 67.44492
#
# Velocity S-wave (km/s) = 6.70243 3.61630 5.38517
# Velocity P-wave (km/s) = 8.95790 6.80100 7.95291
#
# Compressibility (1/GPa) = 0.02113230
#
# Stress axis : x y z
#
# Youngs Moduli (GPa) = 128.72596 53.50983 62.87428
#
# Poissons Ratio (x) = 0.09570 0.27822
# Poissons Ratio (y) = 0.23021 0.27671
# Poissons Ratio (z) = 0.56962 0.23550
#
# Static dielectric constant tensor:
#      x y z
#    x 1.921330 0.000000 0.048040 
#    y 0.000000 2.150500 0.000000 
#    z 0.048040 0.000000 1.974400 
# 
# From -- ./inp_files/369.got.cif
#   From: 2010.05.17/outbox.cif.g08.bks.cpg/sg7_cif.got.tgz:369.got - 2010.06.03 19:44:50.
