data_PCOD9131264
_publ_section_title
;
Structure prediction by ZEFSAII (Michael W. Deem and Ramdas Pophale) SiO2 
 PCOD9131264
Probable space group: P C
;
_chemical_formula_sum "Si O2"
_cell_formula_units_Z 14
_cell_length_a 9.072612
_cell_length_b 15.506581
_cell_length_c 5.174177
_cell_angle_alpha 90.000000
_cell_angle_beta 59.842548
_cell_angle_gamma 90.000000
_cell_volume 629.403374
_symmetry_space_group_name_H-M "P C"
_symmetry_group_IT_number 7
_symmetry_cell_setting 'monoclinic'
loop_
_space_group_symop_operation_xyz
x,y,z
x,-y,1/2+z
loop_
_atom_site_type_symbol
_atom_site_label
_atom_site_fract_x
_atom_site_fract_y
_atom_site_fract_z
Si Si1 0.069820 0.264178 0.529310
Si Si2 0.683697 0.944446 0.713432
Si Si3 0.591549 0.523002 0.238928
Si Si4 0.526913 0.278679 0.782743
Si Si5 0.215544 0.548755 0.021285
Si Si6 0.395889 0.809285 0.918919
Si Si7 0.873029 0.223622 0.192626
O O1 0.164692 0.356149 0.474672
O O2 0.201593 0.189389 0.499067
O O3 0.011549 0.243443 0.290979
O O4 0.920724 0.265903 0.876037
O O5 0.501563 0.894975 0.893400
O O6 0.828206 0.875018 0.660254
O O7 0.695770 0.979906 0.412895
O O8 0.695272 0.492723 0.391073
O O9 0.528341 0.619631 0.312798
O O10 0.422225 0.463070 0.363496
O O11 0.395068 0.247795 0.680407
O O12 0.703221 0.256073 0.485651
O O13 0.495542 0.233408 0.085850
O O14 0.155648 0.519113 0.356263
#
# Coordination Sequence:
#
# PCOD9131264 Si02
#       7
#     2   2   2   2   2   2   2
#     4  12  23  41  64  98 134 169 214 264 323 388
#     4  11  23  45  70  95 124 164 211 260 317 393
#     4  10  19  32  55  85 114 158 218 270 303 339
#     4  11  21  41  63  90 124 171 223 258 303 389
#     4  10  19  34  56  85 121 167 212 260 311 353
#     4  11  22  39  69  95 121 163 212 262 311 378
#     4  11  25  42  65  94 132 174 204 256 334 396
#
# _framework density 22.243286999999999
#
# number of rings (size 3 to 8) (size 9 to 14) (size 15 to 20)
#    0.000    1.143    0.000   10.286    0.000    0.000 
#    0.000    8.571    0.000    0.000    0.000    0.000 
#    0.000    0.000    0.000    0.000    0.000    0.000 
#
# Total GULP energy -78197.656270 kJ/mol
# GULP energy per Si atom -5585.546876 kJ/mol
# Density = 2.219266 g / cm^3
# Si number density = 22.243287 Si / 1000 Ang^3
#
#
#
# Elastic Constant Matrix: (Units=GPa)
#
#
# Indices 1 2 3 4 5 6 
#
# 1 61.3932 4.6282 18.9740 0.0000 17.1626 0.0000
# 2 4.6282 59.0226 7.7455 0.0000 3.1603 0.0000
# 3 18.9740 7.7455 103.6711 0.0000 23.7954 0.0000
# 4 0.0000 0.0000 0.0000 35.2742 0.0000 7.6113
# 5 17.1626 3.1603 23.7954 0.0000 45.2187 0.0000
# 6 0.0000 0.0000 0.0000 7.6113 0.0000 28.9719
#
#
#
# Elastic Compliance Matrix: (Units=1/GPa)
#
#
# Indices 1 2 3 4 5 6 
#
# 1 0.018635 -0.000882 -0.001974 0.000000 -0.005972 0.000000
# 2 -0.000882 0.017166 -0.001049 0.000000 -0.000313 0.000000
# 3 -0.001974 -0.001049 0.011256 0.000000 -0.005101 0.000000
# 4 0.000000 0.000000 0.000000 0.030053 0.000000 -0.007895
# 5 -0.005972 -0.000313 -0.005101 0.000000 0.027088 0.000000
# 6 0.000000 0.000000 0.000000 -0.007895 0.000000 0.036590
#
#
# Mechanical properties :
#
#
# Convention : Reuss Voigt Hill
#
# Bulk Modulus (GPa) = 25.48013 31.86470 28.67241
# Shear Modulus (GPa) = 30.92505 34.74224 32.83364
#
# Velocity S-wave (km/s) = 3.73273 3.95640 3.84619
# Velocity P-wave (km/s) = 5.48250 5.93527 5.71337
#
# Compressibility (1/GPa) = 0.03924627
#
# Stress axis : x y z
#
# Youngs Moduli (GPa) = 53.66374 58.25372 88.83889
#
# Poissons Ratio (x) = 0.05140 0.17535
# Poissons Ratio (y) = 0.04735 0.09322
# Poissons Ratio (z) = 0.10592 0.06112
#
# Static dielectric constant tensor:
#      x y z
#    x 1.887250 0.000000 0.021420 
#    y 0.000000 1.810180 0.000000 
#    z 0.021420 0.000000 1.914830 
# 
# From -- ./inp_files/603.got.cif
#   From: 2010.05.17/outbox.cif.g08.bks.cpg/sg7_cif.got.tgz:603.got - 2010.06.03 19:44:50.
