data_PCOD9131662
_publ_section_title
;
Structure prediction by ZEFSAII (Michael W. Deem and Ramdas Pophale) SiO2 
 PCOD9131662
Probable space group: C M
;
_chemical_formula_sum "Si O2"
_cell_formula_units_Z 32
_cell_length_a 12.687659
_cell_length_b 18.390431
_cell_length_c 9.904181
_cell_angle_alpha 90.000000
_cell_angle_beta 33.565977
_cell_angle_gamma 90.000000
_cell_volume 1277.721172
_symmetry_space_group_name_H-M "C M"
_symmetry_group_IT_number 8
_symmetry_cell_setting 'monoclinic'
loop_
_space_group_symop_operation_xyz
x,y,z
x,-y,z
1/2+x,1/2+y,z
1/2+x,1/2-y,z
loop_
_atom_site_type_symbol
_atom_site_label
_atom_site_fract_x
_atom_site_fract_y
_atom_site_fract_z
Si Si1 0.143530 0.585859 0.649190
Si Si2 0.466992 0.421838 0.496296
Si Si3 0.865103 0.916217 0.147629
Si Si4 0.099358 0.581327 0.172194
Si Si5 0.269127 0.142394 0.673202
Si Si6 0.244287 0.118564 0.990012
Si Si7 0.789163 0.227790 0.987039
Si Si8 0.551156 0.262763 0.482422
O O1 0.119942 0.500000 0.648955
O O2 0.254980 0.593022 0.669788
O O3 0.266990 0.612754 0.389282
O O4 0.932766 0.616893 0.878635
O O5 0.483254 0.500000 0.550348
O O6 0.584705 0.427246 0.230978
O O7 0.552611 0.349570 0.466870
O O8 0.703327 0.922870 0.206971
O O9 0.933570 0.000000 0.096585
O O10 0.042388 0.868130 0.903517
O O11 0.110861 0.500000 0.099507
O O12 0.210337 0.653614 0.003883
O O13 0.882523 0.604974 0.430731
O O14 0.377421 0.219299 0.589351
O O15 0.304263 0.098330 0.775880
O O16 0.171568 0.201676 0.060489
O O17 0.734065 0.232335 0.205211
O O18 0.996137 0.244359 0.699675
#
# Coordination Sequence:
#
# PCOD9131662 Si02
#       8
#     4   4   4   4   4   4   4   4
#     4  10  19  29  48  81 113 143 183 226 274 331
#     4  10  20  33  52  78 109 146 184 226 276 328
#     4  10  19  29  48  81 113 143 183 226 274 331
#     4  10  20  33  52  78 109 146 184 226 276 328
#     4  10  18  32  53  76 110 146 181 230 278 320
#     4  10  18  32  53  76 110 146 181 230 278 320
#     4   9  20  37  58  83 110 146 189 228 273 334
#     4   9  20  37  58  83 110 146 189 228 273 334
#
# _framework density 25.044587
#
# number of rings (size 3 to 8) (size 9 to 14) (size 15 to 20)
#    0.000    2.250    2.500    0.750    0.000    2.500 
#    0.000    0.000    0.000    0.000    0.000   15.750 
#    0.000    0.000    0.000    0.000    0.000    0.000 
#
# Total GULP energy -89121.177384 kJ/mol
# GULP energy per Si atom -5570.073586 kJ/mol
# Density = 2.498758 g / cm^3
# Si number density = 25.044587 Si / 1000 Ang^3
#
#
#
# Elastic Constant Matrix: (Units=GPa)
#
#
# Indices 1 2 3 4 5 6 
#
# 1 19.8903 14.3386 25.2959 0.0041 -8.0823 -0.0270
# 2 14.3386 130.8717 27.0771 -0.0029 4.5070 -0.0169
# 3 25.2959 27.0771 157.9245 0.0024 9.5053 -0.0136
# 4 0.0041 -0.0029 0.0024 21.6745 -0.0026 -0.8098
# 5 -8.0823 4.5070 9.5053 -0.0026 41.3347 0.0207
# 6 -0.0270 -0.0169 -0.0136 -0.8098 0.0207 18.1673
#
#
#
# Elastic Compliance Matrix: (Units=1/GPa)
#
#
# Indices 1 2 3 4 5 6 
#
# 1 0.078925 -0.006688 -0.012643 -0.000009 0.019069 0.000079
# 2 -0.006688 0.008502 -0.000255 0.000002 -0.002176 0.000000
# 3 -0.012643 -0.000255 0.008668 0.000001 -0.004438 -0.000007
# 4 -0.000009 0.000002 0.000001 0.046214 0.000000 0.002060
# 5 0.019069 -0.002176 -0.004438 0.000000 0.029179 -0.000010
# 6 0.000079 0.000000 -0.000007 0.002060 -0.000010 0.055136
#
#
# Mechanical properties :
#
#
# Convention : Reuss Voigt Hill
#
# Bulk Modulus (GPa) = 17.56802 49.12331 33.34566
# Shear Modulus (GPa) = 17.55801 32.36696 24.96249
#
# Velocity S-wave (km/s) = 2.65065 3.59886 3.16052
# Velocity P-wave (km/s) = 4.04942 6.07667 5.16352
#
# Compressibility (1/GPa) = 0.05692162
#
# Stress axis : x y z
#
# Youngs Moduli (GPa) = 12.67030 117.62474 115.36504
#
# Poissons Ratio (x) = 0.78668 1.45856
# Poissons Ratio (y) = 0.08474 0.02947
# Poissons Ratio (z) = 0.16019 0.03004
#
# Static dielectric constant tensor:
#      x y z
#    x 1.974460 0.000000 0.042340 
#    y 0.000000 2.040340 0.000000 
#    z 0.042340 0.000000 2.026190 
# 
# From -- ./inp_files/22379.got.cif
#   From: 2010.05.17/outbox.cif.g08.bks.cpg/sg8_12_cif.got.tgz:22379.got - 2010.06.03 19:46:02.
