data_PCOD9131554
_publ_section_title
;
Structure prediction by ZEFSAII (Michael W. Deem and Ramdas Pophale) SiO2 
 PCOD9131554
Probable space group: C M
;
_chemical_formula_sum "Si O2"
_cell_formula_units_Z 32
_cell_length_a 9.361717
_cell_length_b 22.734343
_cell_length_c 11.455720
_cell_angle_alpha 90.000000
_cell_angle_beta 50.094207
_cell_angle_gamma 90.000000
_cell_volume 1870.305087
_symmetry_space_group_name_H-M "C M"
_symmetry_group_IT_number 8
_symmetry_cell_setting 'monoclinic'
loop_
_space_group_symop_operation_xyz
x,y,z
x,-y,z
1/2+x,1/2+y,z
1/2+x,1/2-y,z
loop_
_atom_site_type_symbol
_atom_site_label
_atom_site_fract_x
_atom_site_fract_y
_atom_site_fract_z
Si Si1 0.837950 0.866806 0.700570
Si Si2 0.627141 0.677413 0.207888
Si Si3 0.396831 0.431366 0.428386
Si Si4 0.464668 0.067721 0.621489
Si Si5 0.932534 0.346844 0.856214
Si Si6 0.216800 0.145331 0.604576
Si Si7 0.421963 0.768486 0.649426
Si Si8 0.787844 0.266410 0.354285
O O1 0.879678 0.910594 0.572176
O O2 0.615709 0.865510 0.834589
O O3 0.875691 0.798805 0.648243
O O4 0.002995 0.875643 0.707571
O O5 0.527857 0.616942 0.299921
O O6 0.747114 0.703997 0.251761
O O7 0.472352 0.727224 0.262000
O O8 0.758782 0.663145 0.030226
O O9 0.454182 0.500000 0.389521
O O10 0.186737 0.426092 0.489492
O O11 0.413146 0.103938 0.765390
O O12 0.352970 0.093079 0.570110
O O13 0.421396 0.000000 0.662343
O O14 0.955951 0.287873 0.764607
O O15 0.256791 0.192536 0.684969
O O16 0.277602 0.181189 0.456411
O O17 0.616320 0.776950 0.479353
#
# Coordination Sequence:
#
# PCOD9131554 Si02
#       8
#     4   4   4   4   4   4   4   4
#     4  10  18  34  54  83 110 143 190 234 283 331
#     4  12  23  38  54  91 121 154 187 237 295 350
#     4  10  20  37  61  83 109 151 199 236 276 341
#     4   9  20  39  61  83 108 150 201 240 279 343
#     4  10  23  34  55  84 117 151 187 232 292 350
#     4  10  17  31  59  82 105 142 190 244 280 322
#     4  10  18  35  56  78 112 150 186 230 281 352
#     4  11  21  36  56  82 118 153 186 237 288 339
#
# _framework density 17.109507000000001
#
# number of rings (size 3 to 8) (size 9 to 14) (size 15 to 20)
#    0.000    1.750    3.750    3.750    1.750    1.000 
#    0.000    0.000    0.000    0.000    0.000    0.000 
#    0.000    0.000    0.000    0.000    0.000    0.000 
#
# Total GULP energy -89081.539946 kJ/mol
# GULP energy per Si atom -5567.596247 kJ/mol
# Density = 1.707057 g / cm^3
# Si number density = 17.109507 Si / 1000 Ang^3
#
#
#
# Elastic Constant Matrix: (Units=GPa)
#
#
# Indices 1 2 3 4 5 6 
#
# 1 119.4272 41.8841 26.0683 0.0000 -11.8034 0.0000
# 2 41.8841 102.2631 29.8683 0.0000 -6.2769 0.0000
# 3 26.0683 29.8683 86.8753 0.0000 -8.7015 0.0000
# 4 0.0000 0.0000 0.0000 9.6721 0.0000 -2.9578
# 5 -11.8034 -6.2769 -8.7015 0.0000 13.7953 0.0000
# 6 0.0000 0.0000 0.0000 -2.9578 0.0000 22.2684
#
#
#
# Elastic Compliance Matrix: (Units=1/GPa)
#
#
# Indices 1 2 3 4 5 6 
#
# 1 0.010548 -0.003539 -0.001287 0.000000 0.006603 0.000000
# 2 -0.003539 0.012157 -0.003060 0.000000 0.000573 0.000000
# 3 -0.001287 -0.003060 0.013556 0.000000 0.006057 0.000000
# 4 0.000000 0.000000 0.000000 0.107767 0.000000 0.014314
# 5 0.006603 0.000573 0.006057 0.000000 0.082219 0.000000
# 6 0.000000 0.000000 0.000000 0.014314 0.000000 0.046808
#
#
# Mechanical properties :
#
#
# Convention : Reuss Voigt Hill
#
# Bulk Modulus (GPa) = 48.80857 56.02301 52.41579
# Shear Modulus (GPa) = 16.91149 23.19683 20.05416
#
# Velocity S-wave (km/s) = 3.14734 3.68609 3.42732
# Velocity P-wave (km/s) = 6.46504 7.13661 6.80911
#
# Compressibility (1/GPa) = 0.02048821
#
# Stress axis : x y z
#
# Youngs Moduli (GPa) = 94.80502 82.25577 73.76930
#
# Poissons Ratio (x) = 0.29110 0.09494
# Poissons Ratio (y) = 0.33551 0.22576
# Poissons Ratio (z) = 0.12202 0.25173
#
# Static dielectric constant tensor:
#      x y z
#    x 1.641150 0.000000 -0.011740 
#    y 0.000000 1.593170 0.000000 
#    z -0.011740 0.000000 1.560990 
# 
# From -- ./inp_files/19342.got.cif
#   From: 2010.05.17/outbox.cif.g08.bks.cpg/sg8_10_cif.got.tgz:19342.got - 2010.06.03 19:46:02.
