data_PCOD9131701
_publ_section_title
;
Structure prediction by ZEFSAII (Michael W. Deem and Ramdas Pophale) SiO2 
 PCOD9131701
Probable space group: C M
;
_chemical_formula_sum "Si O2"
_cell_formula_units_Z 32
_cell_length_a 25.743996
_cell_length_b 8.071397
_cell_length_c 24.626665
_cell_angle_alpha 90.000000
_cell_angle_beta 162.135421
_cell_angle_gamma 90.000000
_cell_volume 1569.786933
_symmetry_space_group_name_H-M "C M"
_symmetry_group_IT_number 8
_symmetry_cell_setting 'monoclinic'
loop_
_space_group_symop_operation_xyz
x,y,z
x,-y,z
1/2+x,1/2+y,z
1/2+x,1/2-y,z
loop_
_atom_site_type_symbol
_atom_site_label
_atom_site_fract_x
_atom_site_fract_y
_atom_site_fract_z
Si Si1 0.727420 0.189888 0.592000
Si Si2 0.570021 0.297286 0.255778
Si Si3 0.902366 0.693752 0.398856
Si Si4 0.283201 0.807270 0.763533
Si Si5 0.388918 0.799796 0.642290
Si Si6 0.073462 0.200679 0.135012
Si Si7 0.857868 0.190668 0.236255
Si Si8 0.759384 0.202482 0.021259
O O1 0.810098 0.213334 0.733257
O O2 0.842680 0.237723 0.656260
O O3 0.558789 0.301320 0.423517
O O4 0.671745 0.000000 0.531399
O O5 0.568197 0.500000 0.253946
O O6 0.745846 0.243796 0.458008
O O7 0.552615 0.243752 0.176351
O O8 0.416608 0.241360 0.141596
O O9 0.929013 0.500000 0.436576
O O10 0.753522 0.758310 0.289529
O O11 0.837013 0.715083 0.271963
O O12 0.087578 0.776059 0.586227
O O13 0.304425 0.000000 0.773148
O O14 0.417562 0.754343 0.942337
O O15 0.384265 0.000000 0.639000
O O16 0.579185 0.748994 0.817591
O O17 0.077758 0.000000 0.138675
O O18 0.771320 0.257738 0.095775
O O19 0.806316 0.000000 0.193561
O O20 0.767869 0.000000 0.031660
#
# Coordination Sequence:
#
# PCOD9131701 Si02
#       8
#     4   4   4   4   4   4   4   4
#     4  11  21  35  56  84 118 153 188 237 294 347
#     4   9  18  36  59  84 115 149 193 240 282 336
#     4  10  21  37  57  87 122 154 190 239 295 351
#     4  11  23  39  60  85 116 157 198 243 290 345
#     4  10  19  34  57  85 114 149 190 235 286 342
#     4  10  22  39  62  89 117 155 198 243 293 345
#     4  10  18  33  56  84 117 152 191 235 283 342
#     4   9  18  31  55  88 113 143 190 236 279 334
#
# _framework density 20.384933
#
# number of rings (size 3 to 8) (size 9 to 14) (size 15 to 20)
#    0.000    2.000    1.250    4.500    1.750    2.000 
#    0.000    5.000    0.000    1.500    0.000    0.000 
#    0.000    0.000    0.000    0.000    0.000    0.000 
#
# Total GULP energy -89356.965504 kJ/mol
# GULP energy per Si atom -5584.810344 kJ/mol
# Density = 2.033854 g / cm^3
# Si number density = 20.384933 Si / 1000 Ang^3
#
#
#
# Elastic Constant Matrix: (Units=GPa)
#
#
# Indices 1 2 3 4 5 6 
#
# 1 64.9158 -9.5037 43.1377 -0.0001 -17.9515 -0.0002
# 2 -9.5037 27.8988 -2.7645 0.0012 -1.3085 0.0006
# 3 43.1377 -2.7645 110.3004 0.0015 -24.6830 0.0009
# 4 -0.0001 0.0012 0.0015 15.1220 0.0006 -3.5939
# 5 -17.9515 -1.3085 -24.6830 0.0006 21.9537 0.0002
# 6 -0.0002 0.0006 0.0009 -3.5939 0.0002 17.7735
#
#
#
# Elastic Compliance Matrix: (Units=1/GPa)
#
#
# Indices 1 2 3 4 5 6 
#
# 1 0.024597 0.008372 -0.006410 0.000000 0.013405 0.000000
# 2 0.008372 0.039077 -0.000323 -0.000004 0.008812 -0.000002
# 3 -0.006410 -0.000323 0.013880 -0.000002 0.010345 -0.000001
# 4 0.000000 -0.000004 -0.000002 0.069467 -0.000005 0.014047
# 5 0.013405 0.008812 0.010345 -0.000005 0.068667 -0.000003
# 6 0.000000 -0.000002 -0.000001 0.014047 -0.000003 0.059104
#
#
# Mechanical properties :
#
#
# Convention : Reuss Voigt Hill
#
# Bulk Modulus (GPa) = 12.37124 29.42821 20.89972
# Shear Modulus (GPa) = 16.75276 22.45287 19.60282
#
# Velocity S-wave (km/s) = 2.86985 3.32240 3.10438
# Velocity P-wave (km/s) = 4.13079 5.40235 4.80878
#
# Compressibility (1/GPa) = 0.08083265
#
# Stress axis : x y z
#
# Youngs Moduli (GPa) = 40.65568 25.59035 72.04641
#
# Poissons Ratio (x) = -0.21425 0.46182
# Poissons Ratio (y) = -0.34039 0.02327
# Poissons Ratio (z) = 0.26061 0.00827
#
# Static dielectric constant tensor:
#      x y z
#    x 1.704840 0.000000 0.005140 
#    y 0.000000 1.716510 0.000000 
#    z 0.005140 0.000000 1.721540 
# 
# From -- ./inp_files/32442.got.cif
#   From: 2010.05.17/outbox.cif.g08.bks.cpg/sg8_17_cif.got.tgz:32442.got - 2010.06.03 19:46:02.
