data_PCOD9131179
_publ_section_title
;
Structure prediction by ZEFSAII (Michael W. Deem and Ramdas Pophale) SiO2 
 PCOD9131179
Probable space group: P M
;
_chemical_formula_sum "Si O2"
_cell_formula_units_Z 12
_cell_length_a 6.757957
_cell_length_b 16.753242
_cell_length_c 4.899593
_cell_angle_alpha 90.000000
_cell_angle_beta 105.214694
_cell_angle_gamma 90.000000
_cell_volume 535.277208
_symmetry_space_group_name_H-M "P M"
_symmetry_group_IT_number 6
_symmetry_cell_setting 'monoclinic'
loop_
_space_group_symop_operation_xyz
x,y,z
x,-y,z
loop_
_atom_site_type_symbol
_atom_site_label
_atom_site_fract_x
_atom_site_fract_y
_atom_site_fract_z
Si Si1 0.481040 0.000000 0.284330
Si Si2 0.691887 0.154442 0.105473
Si Si3 0.957765 0.843354 0.679614
Si Si4 0.319275 0.269075 0.990147
Si Si5 0.204410 0.000000 0.688425
Si Si6 0.341527 0.374232 0.497896
Si Si7 0.001558 0.500000 0.193621
Si Si8 0.704134 0.500000 0.580707
O O1 0.603580 0.922114 0.234121
O O2 0.403961 0.000000 0.566747
O O3 0.275503 0.000000 0.027521
O O4 0.840391 0.194891 0.381730
O O5 0.808221 0.131612 0.871555
O O6 0.508172 0.213714 0.970239
O O7 0.117493 0.782468 0.868591
O O8 0.074514 0.920264 0.600829
O O9 0.310373 0.346702 0.796059
O O10 0.350942 0.296373 0.310992
O O11 0.550919 0.424854 0.557225
O O12 0.150696 0.425744 0.315987
O O13 0.807859 0.500000 0.324308
O O14 0.895016 0.500000 0.859761
#
# Coordination Sequence:
#
# PCOD9131179 Si02
#       8
#     1   2   2   2   1   2   1   1
#     4  12  24  44  72  93 133 180 234 291 338 394
#     4  12  26  44  68  98 134 182 231 284 344 400
#     4  12  26  44  68  98 134 182 231 284 344 400
#     4  12  26  44  68  98 146 172 224 278 340 404
#     4  12  24  44  72  93 133 180 234 291 338 394
#     4  11  26  44  68 105 134 178 220 275 330 402
#     4  11  24  45  74 100 136 175 224 269 327 399
#     4  11  24  45  74 100 136 175 224 269 327 399
#
# _framework density 22.418293999999999
#
# number of rings (size 3 to 8) (size 9 to 14) (size 15 to 20)
#    0.000    0.333    1.667    7.000    2.333   10.667 
#    0.000    0.000    0.000    0.000    0.000    0.000 
#    0.000    0.000    0.000    0.000    0.000    0.000 
#
# Total GULP energy -67215.303168 kJ/mol
# GULP energy per Si atom -5601.275264 kJ/mol
# Density = 2.236727 g / cm^3
# Si number density = 22.418294 Si / 1000 Ang^3
#
#
#
# Elastic Constant Matrix: (Units=GPa)
#
#
# Indices 1 2 3 4 5 6 
#
# 1 96.6563 28.2770 9.1815 0.0000 -5.4249 0.0000
# 2 28.2770 63.1536 -2.6893 0.0000 5.8727 0.0000
# 3 9.1815 -2.6893 92.9442 0.0000 5.5468 0.0000
# 4 0.0000 0.0000 0.0000 39.2716 0.0000 22.1447
# 5 -5.4249 5.8727 5.5468 0.0000 51.3063 0.0000
# 6 0.0000 0.0000 0.0000 22.1447 0.0000 113.3059
#
#
#
# Elastic Compliance Matrix: (Units=1/GPa)
#
#
# Indices 1 2 3 4 5 6 
#
# 1 0.012295 -0.005767 -0.001508 0.000000 0.002123 0.000000
# 2 -0.005767 0.018740 0.001285 0.000000 -0.002894 0.000000
# 3 -0.001508 0.001285 0.011035 0.000000 -0.001499 0.000000
# 4 0.000000 0.000000 0.000000 0.028618 0.000000 -0.005593
# 5 0.002123 -0.002894 -0.001499 0.000000 0.020209 0.000000
# 6 0.000000 0.000000 0.000000 -0.005593 0.000000 0.009919
#
#
# Mechanical properties :
#
#
# Convention : Reuss Voigt Hill
#
# Bulk Modulus (GPa) = 33.23408 35.81027 34.52217
# Shear Modulus (GPa) = 40.70783 55.30908 48.00845
#
# Velocity S-wave (km/s) = 4.26588 4.97242 4.63264
# Velocity P-wave (km/s) = 6.25463 6.99821 6.63684
#
# Compressibility (1/GPa) = 0.03008960
#
# Stress axis : x y z
#
# Youngs Moduli (GPa) = 81.33058 53.36078 90.62246
#
# Poissons Ratio (x) = 0.30773 0.13668
# Poissons Ratio (y) = 0.46903 -0.11642
# Poissons Ratio (z) = 0.12266 -0.06855
#
# Static dielectric constant tensor:
#      x y z
#    x 1.803670 0.000000 0.034740 
#    y 0.000000 1.828190 0.000000 
#    z 0.034740 0.000000 1.794990 
# 
# From -- ./inp_files/344.got.cif
#   From: 2010.05.17/outbox.cif.g08.bks.cpg/sg6_1_cif.got.tgz:344.got - 2010.06.03 19:42:10.
