data_PCOD9131611
_publ_section_title
;
Structure prediction by ZEFSAII (Michael W. Deem and Ramdas Pophale) SiO2 
 PCOD9131611
Probable space group: C M
;
_chemical_formula_sum "Si O2"
_cell_formula_units_Z 32
_cell_length_a 21.223989
_cell_length_b 7.690937
_cell_length_c 26.063832
_cell_angle_alpha 90.000000
_cell_angle_beta 157.466683
_cell_angle_gamma 90.000000
_cell_volume 1630.397028
_symmetry_space_group_name_H-M "C M"
_symmetry_group_IT_number 8
_symmetry_cell_setting 'monoclinic'
loop_
_space_group_symop_operation_xyz
x,y,z
x,-y,z
1/2+x,1/2+y,z
1/2+x,1/2-y,z
loop_
_atom_site_type_symbol
_atom_site_label
_atom_site_fract_x
_atom_site_fract_y
_atom_site_fract_z
Si Si1 0.947490 0.794737 0.803280
Si Si2 0.053966 0.700772 0.376984
Si Si3 0.425609 0.712300 0.096136
Si Si4 0.788758 0.797338 0.103217
Si Si5 0.590402 0.210879 0.799179
Si Si6 0.583019 0.786781 0.515627
Si Si7 0.855837 0.297492 0.535335
Si Si8 0.295280 0.786625 0.375156
O O1 0.761819 0.729439 0.670320
O O2 0.997000 0.762200 0.781196
O O3 0.947480 0.000000 0.812252
O O4 0.094043 0.720596 0.948228
O O5 0.105146 0.500000 0.417810
O O6 0.061115 0.770219 0.440166
O O7 0.184161 0.788587 0.436847
O O8 0.874572 0.711852 0.216484
O O9 0.423653 0.500000 0.095619
O O10 0.372487 0.770002 0.113458
O O11 0.609634 0.768231 0.222195
O O12 0.279133 0.767243 0.948199
O O13 0.828589 0.000000 0.136956
O O14 0.493978 0.277979 0.677105
O O15 0.587861 0.000000 0.796032
O O16 0.433443 0.730914 0.439019
O O17 0.583108 0.000000 0.515559
O O18 0.898138 0.500000 0.559995
O O19 0.835657 0.224910 0.463192
O O20 0.293951 0.000000 0.374560
#
# Coordination Sequence:
#
# PCOD9131611 Si02
#       8
#     4   4   4   4   4   4   4   4
#     4  10  18  31  49  75 105 137 168 205 259 309
#     4  11  20  32  50  77 107 135 169 211 260 310
#     4   8  14  26  46  71  97 122 159 207 253 291
#     4  10  19  33  52  78 101 129 172 219 258 297
#     4   9  17  28  46  75 102 127 166 214 256 298
#     4   9  19  32  48  74 109 140 168 205 256 312
#     4  10  18  30  51  76 100 131 176 220 253 289
#     4   9  16  30  50  72 101 135 170 213 255 296
#
# _framework density 19.627120999999999
#
# number of rings (size 3 to 8) (size 9 to 14) (size 15 to 20)
#    0.000    2.500    2.500    1.875    0.000    0.000 
#    0.000    1.250    0.000    9.000    0.000    3.500 
#    0.000    0.000    0.000    0.000    0.000    0.000 
#
# Total GULP energy -89247.644708 kJ/mol
# GULP energy per Si atom -5577.977794 kJ/mol
# Density = 1.958245 g / cm^3
# Si number density = 19.627121 Si / 1000 Ang^3
#
#
#
# Elastic Constant Matrix: (Units=GPa)
#
#
# Indices 1 2 3 4 5 6 
#
# 1 85.2991 -3.4381 61.9165 -0.0005 6.6523 0.0000
# 2 -3.4381 33.8209 -3.9243 -0.0011 -0.2756 0.0001
# 3 61.9165 -3.9243 171.8785 -0.0021 5.7513 0.0003
# 4 -0.0005 -0.0011 -0.0021 15.5242 0.0003 1.3771
# 5 6.6523 -0.2756 5.7513 0.0003 30.3339 0.0000
# 6 0.0000 0.0001 0.0003 1.3771 0.0000 9.3404
#
#
#
# Elastic Compliance Matrix: (Units=1/GPa)
#
#
# Indices 1 2 3 4 5 6 
#
# 1 0.016082 0.000955 -0.005690 0.000000 -0.002439 0.000000
# 2 0.000955 0.029703 0.000334 0.000002 -0.000003 -0.000001
# 3 -0.005690 0.000334 0.007884 0.000001 -0.000244 0.000000
# 4 0.000000 0.000002 0.000001 0.065269 -0.000001 -0.009623
# 5 -0.002439 -0.000003 -0.000244 -0.000001 0.033548 0.000000
# 6 0.000000 -0.000001 0.000000 -0.009623 0.000000 0.108481
#
#
# Mechanical properties :
#
#
# Convention : Reuss Voigt Hill
#
# Bulk Modulus (GPa) = 22.28782 44.45631 33.37206
# Shear Modulus (GPa) = 17.56084 26.80267 22.18176
#
# Velocity S-wave (km/s) = 2.99444 3.69940 3.36543
# Velocity P-wave (km/s) = 4.83072 6.39899 5.66934
#
# Compressibility (1/GPa) = 0.04486756
#
# Stress axis : x y z
#
# Youngs Moduli (GPa) = 62.17971 33.66624 126.84569
#
# Poissons Ratio (x) = -0.03214 0.72175
# Poissons Ratio (y) = -0.05937 -0.04241
# Poissons Ratio (z) = 0.35380 -0.01126
#
# Static dielectric constant tensor:
#      x y z
#    x 1.649640 0.000000 -0.015190 
#    y 0.000000 1.732610 0.000000 
#    z -0.015190 0.000000 1.713370 
# 
# From -- ./inp_files/29742.got.cif
#   From: 2010.05.17/outbox.cif.g08.bks.cpg/sg8_15_cif.got.tgz:29742.got - 2010.06.03 19:46:02.
