data_PCOD9131329
_publ_section_title
;
Structure prediction by ZEFSAII (Michael W. Deem and Ramdas Pophale) SiO2 
 PCOD9131329
Probable space group: P C
;
_chemical_formula_sum "Si O2"
_cell_formula_units_Z 16
_cell_length_a 6.812964
_cell_length_b 18.057706
_cell_length_c 5.799644
_cell_angle_alpha 90.000000
_cell_angle_beta 126.394290
_cell_angle_gamma 90.000000
_cell_volume 574.341893
_symmetry_space_group_name_H-M "P C"
_symmetry_group_IT_number 7
_symmetry_cell_setting 'monoclinic'
loop_
_space_group_symop_operation_xyz
x,y,z
x,-y,1/2+z
loop_
_atom_site_type_symbol
_atom_site_label
_atom_site_fract_x
_atom_site_fract_y
_atom_site_fract_z
Si Si1 0.990870 0.729750 0.705800
Si Si2 0.835701 0.104019 0.083780
Si Si3 0.846813 0.606441 0.243363
Si Si4 0.480045 0.519243 0.480111
Si Si5 0.247455 0.980328 0.395067
Si Si6 0.791921 0.880527 0.066608
Si Si7 0.589062 0.272045 0.324762
Si Si8 0.280273 0.332039 0.784219
O O1 0.973621 0.817116 0.635916
O O2 0.952935 0.657869 0.519468
O O3 0.769037 0.726533 0.732367
O O4 0.232668 0.713600 0.022925
O O5 0.027507 0.039647 0.248389
O O6 0.705559 0.087181 0.750969
O O7 0.699360 0.105830 0.236915
O O8 0.048376 0.616766 0.184486
O O9 0.735004 0.525161 0.193933
O O10 0.619345 0.654453 0.993175
O O11 0.364801 0.511241 0.658263
O O12 0.489209 0.606012 0.430491
O O13 0.364128 0.004495 0.229954
O O14 0.082841 0.903590 0.262932
O O15 0.695584 0.796715 0.033340
O O16 0.326523 0.273888 0.023249
#
# Coordination Sequence:
#
# PCOD9131329 Si02
#       8
#     2   2   2   2   2   2   2   2
#     4  10  22  40  66  93 131 171 221 276 330 400
#     4   9  16  30  54  87 126 162 211 267 314 375
#     4  11  24  44  68  93 129 170 224 270 335 403
#     4  12  28  49  69  95 131 172 219 277 337 399
#     4   8  14  24  45  85 122 158 212 258 306 376
#     4   9  16  29  55  86 125 166 211 263 314 377
#     4  10  20  42  61  93 131 170 218 274 327 395
#     4  11  26  44  66 100 129 173 222 275 345 399
#
# _framework density 27.857969000000001
#
# number of rings (size 3 to 8) (size 9 to 14) (size 15 to 20)
#    0.000    2.000    2.500    0.750    3.500    2.000 
#    0.000    0.000    0.000    0.000    0.000   35.000 
#    0.000    0.000    0.000    0.000    0.000    0.000 
#
# Total GULP energy -89197.819116 kJ/mol
# GULP energy per Si atom -5574.863695 kJ/mol
# Density = 2.779456 g / cm^3
# Si number density = 27.857969 Si / 1000 Ang^3
#
#
#
# Elastic Constant Matrix: (Units=GPa)
#
#
# Indices 1 2 3 4 5 6 
#
# 1 97.4330 31.2512 4.2580 0.0000 -12.9315 0.0000
# 2 31.2512 156.2699 56.3037 0.0000 7.8006 0.0000
# 3 4.2580 56.3037 202.6828 0.0000 -30.0520 0.0000
# 4 0.0000 0.0000 0.0000 57.5698 0.0000 -5.2028
# 5 -12.9315 7.8006 -30.0520 0.0000 34.3320 0.0000
# 6 0.0000 0.0000 0.0000 -5.2028 0.0000 29.6254
#
#
#
# Elastic Compliance Matrix: (Units=1/GPa)
#
#
# Indices 1 2 3 4 5 6 
#
# 1 0.012186 -0.003392 0.001702 0.000000 0.006851 0.000000
# 2 -0.003392 0.008526 -0.003188 0.000000 -0.006005 0.000000
# 3 0.001702 -0.003188 0.006879 0.000000 0.007387 0.000000
# 4 0.000000 0.000000 0.000000 0.017650 0.000000 0.003100
# 5 0.006851 -0.006005 0.007387 0.000000 0.039538 0.000000
# 6 0.000000 0.000000 0.000000 0.003100 0.000000 0.034299
#
#
# Mechanical properties :
#
#
# Convention : Reuss Voigt Hill
#
# Bulk Modulus (GPa) = 56.06785 71.11239 63.59012
# Shear Modulus (GPa) = 37.09782 48.61031 42.85407
#
# Velocity S-wave (km/s) = 3.65317 4.18177 3.92638
# Velocity P-wave (km/s) = 6.16151 6.99274 6.59025
#
# Compressibility (1/GPa) = 0.01783553
#
# Stress axis : x y z
#
# Youngs Moduli (GPa) = 82.05876 117.29111 145.37556
#
# Poissons Ratio (x) = 0.39789 -0.24745
# Poissons Ratio (y) = 0.27837 0.46339
# Poissons Ratio (z) = -0.13967 0.37387
#
# Static dielectric constant tensor:
#      x y z
#    x 2.278130 0.000000 -0.013090 
#    y 0.000000 2.133990 0.000000 
#    z -0.013090 0.000000 2.333530 
# 
# From -- ./inp_files/961.got.cif
#   From: 2010.05.17/outbox.cif.g08.bks.cpg/sg7_cif.got.tgz:961.got - 2010.06.03 19:44:50.
