data_PCOD9131216
_publ_section_title
;
Structure prediction by ZEFSAII (Michael W. Deem and Ramdas Pophale) SiO2 
 PCOD9131216
Probable space group: P C
;
_chemical_formula_sum "Si O2"
_cell_formula_units_Z 16
_cell_length_a 6.535546
_cell_length_b 15.727843
_cell_length_c 5.625838
_cell_angle_alpha 90.000000
_cell_angle_beta 102.590662
_cell_angle_gamma 90.000000
_cell_volume 564.373815
_symmetry_space_group_name_H-M "P C"
_symmetry_group_IT_number 7
_symmetry_cell_setting 'monoclinic'
loop_
_space_group_symop_operation_xyz
x,y,z
x,-y,1/2+z
loop_
_atom_site_type_symbol
_atom_site_label
_atom_site_fract_x
_atom_site_fract_y
_atom_site_fract_z
Si Si1 0.821990 0.733689 0.190920
Si Si2 0.420151 0.026667 0.018615
Si Si3 0.283128 0.702312 0.811856
Si Si4 0.828649 0.233759 0.193560
Si Si5 0.282670 0.207849 0.811055
Si Si6 0.470315 0.514385 0.871632
Si Si7 0.916374 0.036241 0.182033
Si Si8 0.011498 0.545854 0.251770
O O1 0.714360 0.749905 0.415809
O O2 0.909486 0.638336 0.214398
O O3 0.026017 0.795109 0.241786
O O4 0.712641 0.751474 0.912580
O O5 0.669756 0.010610 0.109357
O O6 0.352667 0.035599 0.281373
O O7 0.379059 0.115761 0.876383
O O8 0.325946 0.741103 0.564275
O O9 0.379724 0.609181 0.852887
O O10 0.026562 0.702160 0.749327
O O11 0.331695 0.752587 0.066964
O O12 0.914636 0.137832 0.207623
O O13 0.582912 0.501305 0.649510
O O14 0.268752 0.451463 0.817586
O O15 0.001423 0.994173 0.446711
O O16 0.968026 0.502256 0.493852
#
# Coordination Sequence:
#
# PCOD9131216 Si02
#       8
#     2   2   2   2   2   2   2   2
#     4  10  19  30  45  72 104 125 151 189 231 283
#     4  10  21  37  54  70  89 118 160 202 234 273
#     4  10  19  30  45  72 104 125 151 189 231 283
#     4  10  18  32  48  67  97 126 148 191 241 276
#     4  10  18  32  48  67  97 126 148 191 241 276
#     4  10  16  25  41  63  96 129 156 182 215 266
#     4  10  21  37  54  70  89 118 160 202 234 273
#     4  10  16  25  41  63  96 129 156 182 215 266
#
# _framework density 28.350004999999999
#
# number of rings (size 3 to 8) (size 9 to 14) (size 15 to 20)
#    0.000    2.000    0.000    9.000    0.000    0.000 
#    0.000   15.000    0.000    0.000    0.000    0.000 
#    0.000   74.000    0.000    0.000    0.000    0.000 
#
# Total GULP energy -89731.644915 kJ/mol
# GULP energy per Si atom -5608.227807 kJ/mol
# Density = 2.828548 g / cm^3
# Si number density = 28.350005 Si / 1000 Ang^3
#
#
#
# Elastic Constant Matrix: (Units=GPa)
#
#
# Indices 1 2 3 4 5 6 
#
# 1 79.4468 -25.8626 71.7305 0.0000 -28.7002 0.0000
# 2 -25.8626 69.7210 43.5510 0.0000 -14.7624 0.0000
# 3 71.7305 43.5510 327.7741 0.0000 -39.8334 0.0000
# 4 0.0000 0.0000 0.0000 60.7002 0.0000 -15.1136
# 5 -28.7002 -14.7624 -39.8334 0.0000 78.9276 0.0000
# 6 0.0000 0.0000 0.0000 -15.1136 0.0000 2.1942
#
#
#
# Elastic Compliance Matrix: (Units=1/GPa)
#
#
# Indices 1 2 3 4 5 6 
#
# 1 0.028248 0.017090 -0.007261 0.000000 0.009803 0.000000
# 2 0.017090 0.026282 -0.006264 0.000000 0.007969 0.000000
# 3 -0.007261 -0.006264 0.005336 0.000000 -0.001119 0.000000
# 4 0.000000 0.000000 0.000000 -0.023040 0.000000 -0.158702
# 5 0.009803 0.007969 -0.001119 0.000000 0.017160 0.000000
# 6 0.000000 0.000000 0.000000 -0.158702 0.000000 -0.637391
#
#
# Mechanical properties :
#
#
# Convention : Reuss Voigt Hill
#
# Bulk Modulus (GPa) = 14.92631 72.86441 43.89536
# Shear Modulus (GPa) = -8.79967 54.19928 22.69980
#
# Velocity S-wave (km/s) = -1.76371 4.37715 2.83273
# Velocity P-wave (km/s) = 1.06248 7.16264 5.12017
#
# Compressibility (1/GPa) = 0.06699581
#
# Stress axis : x y z
#
# Youngs Moduli (GPa) = 35.40125 38.04890 187.40043
#
# Poissons Ratio (x) = -0.65024 1.36072
# Poissons Ratio (y) = -0.60499 1.17379
# Poissons Ratio (z) = 0.25705 0.23832
#
# Static dielectric constant tensor:
#      x y z
#    x 2.312120 0.000000 -0.003760 
#    y 0.000000 2.099790 0.000000 
#    z -0.003760 0.000000 2.191470 
# 
# From -- ./inp_files/628.got.cif
#   From: 2010.05.17/outbox.cif.g08.bks.cpg/sg7_cif.got.tgz:628.got - 2010.06.03 19:44:50.
