data_PCOD9131215
_publ_section_title
;
Structure prediction by ZEFSAII (Michael W. Deem and Ramdas Pophale) SiO2 
 PCOD9131215
Probable space group: P C
;
_chemical_formula_sum "Si O2"
_cell_formula_units_Z 16
_cell_length_a 8.269379
_cell_length_b 15.877552
_cell_length_c 5.425868
_cell_angle_alpha 90.000000
_cell_angle_beta 56.199469
_cell_angle_gamma 90.000000
_cell_volume 591.992054
_symmetry_space_group_name_H-M "P C"
_symmetry_group_IT_number 7
_symmetry_cell_setting 'monoclinic'
loop_
_space_group_symop_operation_xyz
x,y,z
x,-y,1/2+z
loop_
_atom_site_type_symbol
_atom_site_label
_atom_site_fract_x
_atom_site_fract_y
_atom_site_fract_z
Si Si1 0.568300 0.971236 0.978830
Si Si2 0.211831 0.098782 0.288225
Si Si3 0.351471 0.181248 0.674976
Si Si4 0.891395 0.806013 0.233144
Si Si5 0.954627 0.291943 0.172885
Si Si6 0.667327 0.458255 0.850200
Si Si7 0.579689 0.297403 0.207146
Si Si8 0.113219 0.525178 0.505419
O O1 0.660969 0.984555 0.635563
O O2 0.551713 0.872864 0.054400
O O3 0.351212 0.017298 0.136214
O O4 0.289691 0.138841 0.471801
O O5 0.982307 0.106008 0.555110
O O6 0.244764 0.156939 0.018945
O O7 0.403907 0.273248 0.533620
O O8 0.992083 0.772886 0.407781
O O9 0.667808 0.786137 0.492404
O O10 0.939294 0.745138 0.960387
O O11 0.746050 0.324528 0.257162
O O12 0.080722 0.375665 0.064382
O O13 0.608820 0.483653 0.628369
O O14 0.581073 0.368082 0.000095
O O15 0.907284 0.470548 0.655541
O O16 0.213531 0.490429 0.661965
#
# Coordination Sequence:
#
# PCOD9131215 Si02
#       8
#     2   2   2   2   2   2   2   2
#     4   8  16  33  55  75  97 135 180 214 247 317
#     4  10  20  37  57  78 104 148 184 210 263 340
#     4  10  21  34  57  84 108 140 181 225 268 318
#     4  10  20  33  52  77 109 137 174 230 276 314
#     4  10  19  30  49  80 113 134 169 234 281 305
#     4  10  17  28  46  73 107 141 179 216 266 315
#     4  10  22  31  55  84 116 132 181 237 278 303
#     4  10  15  26  43  69 106 133 180 210 267 310
#
# _framework density 27.027388999999999
#
# number of rings (size 3 to 8) (size 9 to 14) (size 15 to 20)
#    0.750    1.500    2.500    3.000    1.750    0.000 
#    0.000    0.000    0.000   13.500    0.000   33.250 
#    0.000    0.000    0.000    0.000    0.000    0.000 
#
# Total GULP energy -89138.067429 kJ/mol
# GULP energy per Si atom -5571.129214 kJ/mol
# Density = 2.696587 g / cm^3
# Si number density = 27.027389 Si / 1000 Ang^3
#
#
#
# Elastic Constant Matrix: (Units=GPa)
#
#
# Indices 1 2 3 4 5 6 
#
# 1 51.9740 9.6002 46.0311 0.0000 19.9286 0.0000
# 2 9.6002 69.7499 57.0529 0.0000 -12.7852 0.0000
# 3 46.0311 57.0529 201.0935 0.0000 24.3722 0.0000
# 4 0.0000 0.0000 0.0000 59.8839 0.0000 11.9913
# 5 19.9286 -12.7852 24.3722 0.0000 56.7994 0.0000
# 6 0.0000 0.0000 0.0000 11.9913 0.0000 13.9108
#
#
#
# Elastic Compliance Matrix: (Units=1/GPa)
#
#
# Indices 1 2 3 4 5 6 
#
# 1 0.026635 -0.001029 -0.004899 0.000000 -0.007475 0.000000
# 2 -0.001029 0.021612 -0.006888 0.000000 0.008181 0.000000
# 3 -0.004899 -0.006888 0.008468 0.000000 -0.003465 0.000000
# 4 0.000000 0.000000 0.000000 0.020183 0.000000 -0.017398
# 5 -0.007475 0.008181 -0.003465 0.000000 0.023557 0.000000
# 6 0.000000 0.000000 0.000000 -0.017398 0.000000 0.086883
#
#
# Mechanical properties :
#
#
# Convention : Reuss Voigt Hill
#
# Bulk Modulus (GPa) = 32.17032 60.90951 46.53992
# Shear Modulus (GPa) = 22.38824 40.12772 31.25798
#
# Velocity S-wave (km/s) = 2.88124 3.85737 3.40447
# Velocity P-wave (km/s) = 4.79556 6.51339 5.71934
#
# Compressibility (1/GPa) = 0.03108455
#
# Stress axis : x y z
#
# Youngs Moduli (GPa) = 37.54399 46.27055 118.08697
#
# Poissons Ratio (x) = 0.04760 0.57852
# Poissons Ratio (y) = 0.03863 0.81334
# Poissons Ratio (z) = 0.18393 0.31870
#
# Static dielectric constant tensor:
#      x y z
#    x 2.315310 0.000000 -0.136140 
#    y 0.000000 2.238780 0.000000 
#    z -0.136140 0.000000 2.114230 
# 
# From -- ./inp_files/1173.got.cif
#   From: 2010.05.17/outbox.cif.g08.bks.cpg/sg7_cif.got.tgz:1173.got - 2010.06.03 19:44:50.
