data_PCOD9131949
_publ_section_title
;
Structure prediction by ZEFSAII (Michael W. Deem and Ramdas Pophale) SiO2 
 PCOD9131949
Probable space group: C M
;
_chemical_formula_sum "Si O2"
_cell_formula_units_Z 32
_cell_length_a 27.904062
_cell_length_b 8.796997
_cell_length_c 13.912387
_cell_angle_alpha 90.000000
_cell_angle_beta 30.297662
_cell_angle_gamma 90.000000
_cell_volume 1722.892352
_symmetry_space_group_name_H-M "C M"
_symmetry_group_IT_number 8
_symmetry_cell_setting 'monoclinic'
loop_
_space_group_symop_operation_xyz
x,y,z
x,-y,z
1/2+x,1/2+y,z
1/2+x,1/2-y,z
loop_
_atom_site_type_symbol
_atom_site_label
_atom_site_fract_x
_atom_site_fract_y
_atom_site_fract_z
Si Si1 0.080520 0.322836 0.166550
Si Si2 0.097408 0.681520 0.480697
Si Si3 0.693158 0.676190 0.815299
Si Si4 0.700754 0.680202 0.121005
Si Si5 0.385959 0.678058 0.485564
Si Si6 0.811760 0.678499 0.434884
Si Si7 0.785772 0.179920 0.272782
Si Si8 0.386960 0.182737 0.914247
O O1 0.061296 0.500000 0.208236
O O2 0.163671 0.270742 0.093689
O O3 0.985536 0.230166 0.355053
O O4 0.115169 0.279254 0.999846
O O5 0.097759 0.500000 0.457519
O O6 0.131719 0.773762 0.328531
O O7 0.178340 0.706856 0.420975
O O8 0.992617 0.723596 0.697808
O O9 0.673407 0.500000 0.869532
O O10 0.796329 0.725386 0.678711
O O11 0.713331 0.696649 0.666578
O O12 0.696536 0.500000 0.110120
O O13 0.806745 0.720153 0.973586
O O14 0.369313 0.500000 0.526475
O O15 0.383528 0.723437 0.376242
O O16 0.836474 0.500000 0.397686
O O17 0.803878 0.734801 0.340938
O O18 0.798121 0.000000 0.264933
O O19 0.854256 0.238476 0.069349
O O20 0.383671 0.000000 0.933967
#
# Coordination Sequence:
#
# PCOD9131949 Si02
#       8
#     4   4   4   4   4   4   4   4
#     4  12  23  37  58  83 113 153 191 231 282 337
#     4   9  19  37  57  81 110 143 183 227 278 337
#     4   9  20  38  57  80 111 148 188 233 278 330
#     4  10  21  36  56  81 110 144 184 233 283 333
#     4  10  20  37  58  81 111 144 186 235 280 332
#     4   9  19  37  58  80 113 151 185 229 282 331
#     4  10  19  33  56  83 112 144 183 229 275 330
#     4   9  19  37  58  79 108 145 182 227 280 334
#
# _framework density 18.573416999999999
#
# number of rings (size 3 to 8) (size 9 to 14) (size 15 to 20)
#    0.750    1.500    0.000    3.375    0.000    2.500 
#    2.250    3.750    0.000    0.000    0.000    0.000 
#    0.000    0.000    0.000    0.000    0.000    0.000 
#
# Total GULP energy -89188.393660 kJ/mol
# GULP energy per Si atom -5574.274604 kJ/mol
# Density = 1.853114 g / cm^3
# Si number density = 18.573417 Si / 1000 Ang^3
#
#
#
# Elastic Constant Matrix: (Units=GPa)
#
#
# Indices 1 2 3 4 5 6 
#
# 1 37.1389 11.4039 1.4980 0.0000 3.1094 0.0000
# 2 11.4039 46.7261 -4.3491 0.0000 1.8041 0.0000
# 3 1.4980 -4.3491 66.5921 0.0000 -16.5298 0.0000
# 4 0.0000 0.0000 0.0000 27.3870 0.0000 5.4323
# 5 3.1094 1.8041 -16.5298 0.0000 15.0569 0.0000
# 6 0.0000 0.0000 0.0000 5.4323 0.0000 28.2071
#
#
#
# Elastic Compliance Matrix: (Units=1/GPa)
#
#
# Indices 1 2 3 4 5 6 
#
# 1 0.030066 -0.007304 -0.003405 0.000000 -0.009072 0.000000
# 2 -0.007304 0.023329 0.001881 0.000000 0.000778 0.000000
# 3 -0.003405 0.001881 0.021079 0.000000 0.023619 0.000000
# 4 0.000000 0.000000 0.000000 0.037964 0.000000 -0.007311
# 5 -0.009072 0.000778 0.023619 0.000000 0.094124 0.000000
# 6 0.000000 0.000000 0.000000 -0.007311 0.000000 0.036860
#
#
# Mechanical properties :
#
#
# Convention : Reuss Voigt Hill
#
# Bulk Modulus (GPa) = 17.60050 18.61808 18.10929
# Shear Modulus (GPa) = 17.85600 23.59049 20.72325
#
# Velocity S-wave (km/s) = 3.10397 3.56774 3.34390
# Velocity P-wave (km/s) = 4.72683 5.19784 4.96792
#
# Compressibility (1/GPa) = 0.05681656
#
# Stress axis : x y z
#
# Youngs Moduli (GPa) = 33.26043 42.86501 47.44058
#
# Poissons Ratio (x) = 0.31311 0.16155
# Poissons Ratio (y) = 0.24295 -0.08924
# Poissons Ratio (z) = 0.11326 -0.08063
#
# Static dielectric constant tensor:
#      x y z
#    x 1.646060 0.000000 0.001300 
#    y 0.000000 1.616080 0.000000 
#    z 0.001300 0.000000 1.640940 
# 
# From -- ./inp_files/26454.got.cif
#   From: 2010.05.17/outbox.cif.g08.bks.cpg/sg8_14_cif.got.tgz:26454.got - 2010.06.03 19:46:02.
