data_PCOD9131202
_publ_section_title
;
Structure prediction by ZEFSAII (Michael W. Deem and Ramdas Pophale) SiO2 
 PCOD9131202
Probable space group: P C
;
_chemical_formula_sum "Si O2"
_cell_formula_units_Z 16
_cell_length_a 18.050668
_cell_length_b 8.278326
_cell_length_c 5.351722
_cell_angle_alpha 90.000000
_cell_angle_beta 109.298483
_cell_angle_gamma 90.000000
_cell_volume 754.768534
_symmetry_space_group_name_H-M "P C"
_symmetry_group_IT_number 7
_symmetry_cell_setting 'monoclinic'
loop_
_space_group_symop_operation_xyz
x,y,z
x,-y,1/2+z
loop_
_atom_site_type_symbol
_atom_site_label
_atom_site_fract_x
_atom_site_fract_y
_atom_site_fract_z
Si Si1 0.272580 0.390187 0.785900
Si Si2 0.690158 0.412326 0.782246
Si Si3 0.928829 0.604939 0.947220
Si Si4 0.880703 0.944846 0.776539
Si Si5 0.441780 0.298644 0.978371
Si Si6 0.506142 0.338386 0.550378
Si Si7 0.105224 0.397933 0.691774
Si Si8 0.705581 0.054137 0.976964
O O1 0.276573 0.482780 0.523193
O O2 0.186945 0.308779 0.724218
O O3 0.348686 0.277567 0.888223
O O4 0.714779 0.467913 0.533676
O O5 0.595404 0.396824 0.668856
O O6 0.715107 0.235261 0.892493
O O7 0.917947 0.492324 0.692130
O O8 0.875691 0.761072 0.858842
O O9 0.018768 0.672269 0.051870
O O10 0.793218 0.012254 0.628033
O O11 0.919491 0.957770 0.546996
O O12 0.486959 0.245608 0.275753
O O13 0.456080 0.494781 0.985835
O O14 0.480258 0.241463 0.765114
O O15 0.107403 0.539686 0.480932
O O16 0.666327 0.957768 0.705226
#
# Coordination Sequence:
#
# PCOD9131202 Si02
#       8
#     2   2   2   2   2   2   2   2
#     4  10  14  20  34  53  84 134 155 179 233 308
#     4  12  21  33  54  79 104 133 168 219 262 302
#     4  10  19  33  53  78 109 136 161 214 262 301
#     4  10  21  38  58  77 101 136 177 212 246 304
#     4  10  14  23  36  56  95 129 152 193 249 293
#     4  10  16  25  37  63  95 123 152 207 249 286
#     4   8  16  25  37  62  94 128 153 191 242 298
#     4  10  23  41  55  74 106 139 170 209 257 312
#
# _framework density 21.198550999999998
#
# number of rings (size 3 to 8) (size 9 to 14) (size 15 to 20)
#    0.000    2.000    5.000    1.500    0.000    1.000 
#    0.000    0.000    0.000    0.000    0.000    0.000 
#    0.000    6.000    0.000    0.000    0.000    0.000 
#
# Total GULP energy -89142.090787 kJ/mol
# GULP energy per Si atom -5571.380674 kJ/mol
# Density = 2.115030 g / cm^3
# Si number density = 21.198551 Si / 1000 Ang^3
#
#
#
# Elastic Constant Matrix: (Units=GPa)
#
#
# Indices 1 2 3 4 5 6 
#
# 1 48.1307 -2.5313 19.4557 0.0000 3.7706 0.0000
# 2 -2.5313 36.1860 25.1887 0.0000 7.7114 0.0000
# 3 19.4557 25.1887 171.4537 0.0000 -31.0050 0.0000
# 4 0.0000 0.0000 0.0000 17.1990 0.0000 -5.9904
# 5 3.7706 7.7114 -31.0050 0.0000 23.9245 0.0000
# 6 0.0000 0.0000 0.0000 -5.9904 0.0000 5.9086
#
#
#
# Elastic Compliance Matrix: (Units=1/GPa)
#
#
# Indices 1 2 3 4 5 6 
#
# 1 0.025856 0.010941 -0.007727 0.000000 -0.017615 0.000000
# 2 0.010941 0.045831 -0.014312 0.000000 -0.035044 0.000000
# 3 -0.007727 -0.014312 0.012886 0.000000 0.022531 0.000000
# 4 0.000000 0.000000 0.000000 0.089882 0.000000 0.091125
# 5 -0.017615 -0.035044 0.022531 0.000000 0.085069 0.000000
# 6 0.000000 0.000000 0.000000 0.091125 0.000000 0.261630
#
#
# Mechanical properties :
#
#
# Convention : Reuss Voigt Hill
#
# Bulk Modulus (GPa) = 16.03143 37.77739 26.90441
# Shear Modulus (GPa) = 8.86302 23.65024 16.25663
#
# Velocity S-wave (km/s) = 2.04696 3.34376 2.77225
# Velocity P-wave (km/s) = 3.62845 5.72426 4.79232
#
# Compressibility (1/GPa) = 0.06237746
#
# Stress axis : x y z
#
# Youngs Moduli (GPa) = 38.67639 21.81932 77.60190
#
# Poissons Ratio (x) = -0.23873 0.59961
# Poissons Ratio (y) = -0.42316 1.11064
# Poissons Ratio (z) = 0.29884 0.31228
#
# Static dielectric constant tensor:
#      x y z
#    x 1.863790 0.000000 -0.055710 
#    y 0.000000 1.703920 0.000000 
#    z -0.055710 0.000000 1.898800 
# 
# From -- ./inp_files/1452.got.cif
#   From: 2010.05.17/outbox.cif.g08.bks.cpg/sg7_cif.got.tgz:1452.got - 2010.06.03 19:44:50.
