data_PCOD9131324
_publ_section_title
;
Structure prediction by ZEFSAII (Michael W. Deem and Ramdas Pophale) SiO2 
 PCOD9131324
Probable space group: P C
;
_chemical_formula_sum "Si O2"
_cell_formula_units_Z 12
_cell_length_a 9.139646
_cell_length_b 8.768387
_cell_length_c 5.895287
_cell_angle_alpha 90.000000
_cell_angle_beta 84.880537
_cell_angle_gamma 90.000000
_cell_volume 470.563340
_symmetry_space_group_name_H-M "P C"
_symmetry_group_IT_number 7
_symmetry_cell_setting 'monoclinic'
loop_
_space_group_symop_operation_xyz
x,y,z
x,-y,1/2+z
loop_
_atom_site_type_symbol
_atom_site_label
_atom_site_fract_x
_atom_site_fract_y
_atom_site_fract_z
Si Si1 0.507290 0.224500 0.335670
Si Si2 0.068813 0.142125 0.270126
Si Si3 0.356373 0.107761 0.963226
Si Si4 0.249716 0.658804 0.097877
Si Si5 0.980297 0.550213 0.647737
Si Si6 0.759931 0.062733 0.436175
O O1 0.403435 0.357043 0.444142
O O2 0.670860 0.220085 0.406173
O O3 0.434377 0.057188 0.416920
O O4 0.480567 0.207781 0.074152
O O5 0.142517 0.241820 0.456112
O O6 0.989827 0.267877 0.123101
O O7 0.936051 0.053170 0.402588
O O8 0.208337 0.069477 0.127540
O O9 0.294168 0.231963 0.797570
O O10 0.148885 0.512956 0.154965
O O11 0.918983 0.491166 0.411094
O O12 0.718739 0.017924 0.699951
#
# Coordination Sequence:
#
# PCOD9131324 Si02
#       6
#     2   2   2   2   2   2
#     4  11  22  37  61  92 131 168 203 256 322 387
#     4  10  25  36  62  93 127 163 218 262 317 368
#     4  11  19  36  60  91 122 163 207 263 310 381
#     4  10  21  37  65  90 121 165 216 265 318 366
#     4  10  20  40  61  91 121 160 208 270 311 358
#     4  12  27  42  61  95 138 173 206 256 326 388
#
# _framework density 25.501353000000002
#
# number of rings (size 3 to 8) (size 9 to 14) (size 15 to 20)
#    0.000    1.333    5.000    0.000    7.000    0.000 
#    0.000    0.000    0.000   12.000    0.000    0.000 
#    0.000    0.000    0.000    0.000    0.000    0.000 
#
# Total GULP energy -66834.824719 kJ/mol
# GULP energy per Si atom -5569.568727 kJ/mol
# Density = 2.544331 g / cm^3
# Si number density = 25.501353 Si / 1000 Ang^3
#
#
#
# Elastic Constant Matrix: (Units=GPa)
#
#
# Indices 1 2 3 4 5 6 
#
# 1 103.6714 -7.5680 21.1528 0.0000 -3.4657 0.0000
# 2 -7.5680 66.1581 17.4252 0.0000 -7.9007 0.0000
# 3 21.1528 17.4252 114.4374 0.0000 -0.2379 0.0000
# 4 0.0000 0.0000 0.0000 35.0087 0.0000 -2.6186
# 5 -3.4657 -7.9007 -0.2379 0.0000 24.0563 0.0000
# 6 0.0000 0.0000 0.0000 -2.6186 0.0000 26.1576
#
#
#
# Elastic Compliance Matrix: (Units=1/GPa)
#
#
# Indices 1 2 3 4 5 6 
#
# 1 0.010315 0.002016 -0.002209 0.000000 0.002126 0.000000
# 2 0.002016 0.016805 -0.002919 0.000000 0.005781 0.000000
# 3 -0.002209 -0.002919 0.009589 0.000000 -0.001182 0.000000
# 4 0.000000 0.000000 0.000000 0.028780 0.000000 0.002881
# 5 0.002126 0.005781 -0.001182 0.000000 0.043762 0.000000
# 6 0.000000 0.000000 0.000000 0.002881 0.000000 0.038518
#
#
# Mechanical properties :
#
#
# Convention : Reuss Voigt Hill
#
# Bulk Modulus (GPa) = 32.80508 38.47632 35.64070
# Shear Modulus (GPa) = 30.45884 33.92832 32.19358
#
# Velocity S-wave (km/s) = 3.45976 3.65149 3.55692
# Velocity P-wave (km/s) = 5.37140 5.73573 5.55655
#
# Compressibility (1/GPa) = 0.03048308
#
# Stress axis : x y z
#
# Youngs Moduli (GPa) = 96.94785 59.50544 104.28809
#
# Poissons Ratio (x) = -0.11995 0.23038
# Poissons Ratio (y) = -0.19542 0.30447
# Poissons Ratio (z) = 0.21417 0.17372
#
# Static dielectric constant tensor:
#      x y z
#    x 2.024910 0.000000 -0.004490 
#    y 0.000000 2.016180 0.000000 
#    z -0.004490 0.000000 2.336450 
# 
# From -- ./inp_files/541.got.cif
#   From: 2010.05.17/outbox.cif.g08.bks.cpg/sg7_cif.got.tgz:541.got - 2010.06.03 19:44:50.
