data_PCOD9131614
_publ_section_title
;
Structure prediction by ZEFSAII (Michael W. Deem and Ramdas Pophale) SiO2 
 PCOD9131614
Probable space group: C M
;
_chemical_formula_sum "Si O2"
_cell_formula_units_Z 28
_cell_length_a 12.965740
_cell_length_b 11.421617
_cell_length_c 14.102630
_cell_angle_alpha 90.000000
_cell_angle_beta 149.395963
_cell_angle_gamma 90.000000
_cell_volume 1063.236480
_symmetry_space_group_name_H-M "C M"
_symmetry_group_IT_number 8
_symmetry_cell_setting 'monoclinic'
loop_
_space_group_symop_operation_xyz
x,y,z
x,-y,z
1/2+x,1/2+y,z
1/2+x,1/2-y,z
loop_
_atom_site_type_symbol
_atom_site_label
_atom_site_fract_x
_atom_site_fract_y
_atom_site_fract_z
Si Si1 0.032680 0.127795 0.907710
Si Si2 0.189316 0.868470 0.479205
Si Si3 0.508324 0.872833 0.339851
Si Si4 0.890545 0.874821 0.085627
Si Si5 0.071069 0.239775 0.745440
Si Si6 0.075804 0.367514 0.012485
Si Si7 0.798521 0.130573 0.386163
O O1 0.298757 0.277614 0.945800
O O2 0.951645 0.252199 0.882629
O O3 0.949861 0.000000 0.868596
O O4 0.268721 0.129967 0.128612
O O5 0.108929 0.864144 0.306202
O O6 0.087616 0.751539 0.443967
O O7 0.428416 0.847898 0.665289
O O8 0.142697 0.000000 0.476442
O O9 0.027895 0.860335 0.789635
O O10 0.629392 0.875077 0.335857
O O11 0.548586 0.000000 0.419329
O O12 0.879861 0.000000 0.028894
O O13 0.747280 0.875842 0.065787
O O14 0.982885 0.204350 0.575249
O O15 0.983326 0.500000 0.945721
O O16 0.187952 0.342112 0.200422
O O17 0.879313 0.000000 0.439112
#
# Coordination Sequence:
#
# PCOD9131614 Si02
#       7
#     4   4   4   4   4   4   4
#     4  10  19  33  56  80 106 143 182 220 263 314
#     4  10  18  30  51  80 106 135 174 219 267 308
#     4   9  17  31  51  77 105 138 176 214 258 312
#     4   9  17  31  51  75 105 137 174 218 259 312
#     4  10  18  30  52  79 106 136 177 224 259 315
#     4   9  17  32  54  77 107 144 175 218 272 316
#     4   9  18  31  51  78 109 141 176 221 270 315
#
# _framework density 26.334686999999999
#
# number of rings (size 3 to 8) (size 9 to 14) (size 15 to 20)
#    0.000    2.571    2.857    0.857    0.000    1.143 
#    0.000    3.571    6.286    0.000    0.000    0.000 
#    0.000    0.000    0.000    0.000    0.000    0.000 
#
# Total GULP energy -78123.812878 kJ/mol
# GULP energy per Si atom -5580.272348 kJ/mol
# Density = 2.627475 g / cm^3
# Si number density = 26.334687 Si / 1000 Ang^3
#
#
#
# Elastic Constant Matrix: (Units=GPa)
#
#
# Indices 1 2 3 4 5 6 
#
# 1 69.5549 7.4201 31.8650 0.0009 -13.5188 0.0006
# 2 7.4201 243.9138 46.9092 0.0008 -13.6580 0.0008
# 3 31.8650 46.9092 148.8415 0.0006 -9.9852 0.0009
# 4 0.0009 0.0008 0.0006 25.0414 0.0009 2.2228
# 5 -13.5188 -13.6580 -9.9852 0.0009 41.3626 0.0008
# 6 0.0006 0.0008 0.0009 2.2228 0.0008 -6.9515
#
#
#
# Elastic Compliance Matrix: (Units=1/GPa)
#
#
# Indices 1 2 3 4 5 6 
#
# 1 0.016831 0.000413 -0.003411 -0.000001 0.004814 0.000001
# 2 0.000413 0.004427 -0.001399 0.000000 0.001259 0.000000
# 3 -0.003411 -0.001399 0.007912 0.000000 0.000333 0.000001
# 4 -0.000001 0.000000 0.000000 0.038832 -0.000001 0.012417
# 5 0.004814 0.001259 0.000333 -0.000001 0.026246 0.000003
# 6 0.000001 0.000000 0.000001 0.012417 0.000003 -0.139884
#
#
# Mechanical properties :
#
#
# Convention : Reuss Voigt Hill
#
# Bulk Modulus (GPa) = 49.07420 70.52210 59.79815
# Shear Modulus (GPa) = -166.38523 36.96491 -64.71016
#
# Velocity S-wave (km/s) = -7.95727 3.75061 -4.96241
# Velocity P-wave (km/s) = 8.10857 6.75229 3.17455
#
# Compressibility (1/GPa) = 0.02037730
#
# Stress axis : x y z
#
# Youngs Moduli (GPa) = 59.41329 225.89523 126.38906
#
# Poissons Ratio (x) = -0.09341 0.43107
# Poissons Ratio (y) = -0.02457 0.17685
# Poissons Ratio (z) = 0.20264 0.31608
#
# Static dielectric constant tensor:
#      x y z
#    x 2.066470 0.000000 0.003730 
#    y 0.000000 2.179100 0.000000 
#    z 0.003730 0.000000 2.009240 
# 
# From -- ./inp_files/29794.got.cif
#   From: 2010.05.17/outbox.cif.g08.bks.cpg/sg8_15_cif.got.tgz:29794.got - 2010.06.03 19:46:02.
