data_PCOD9131419
_publ_section_title
;
Structure prediction by ZEFSAII (Michael W. Deem and Ramdas Pophale) SiO2 
 PCOD9131419
Probable space group: P C
;
_chemical_formula_sum "Si O2"
_cell_formula_units_Z 16
_cell_length_a 5.847836
_cell_length_b 20.199064
_cell_length_c 5.668946
_cell_angle_alpha 90.000000
_cell_angle_beta 71.038517
_cell_angle_gamma 90.000000
_cell_volume 633.285046
_symmetry_space_group_name_H-M "P C"
_symmetry_group_IT_number 7
_symmetry_cell_setting 'monoclinic'
loop_
_space_group_symop_operation_xyz
x,y,z
x,-y,1/2+z
loop_
_atom_site_type_symbol
_atom_site_label
_atom_site_fract_x
_atom_site_fract_y
_atom_site_fract_z
Si Si1 0.010910 0.633479 0.929270
Si Si2 0.396620 0.036887 0.545999
Si Si3 0.122327 0.501143 0.994066
Si Si4 0.187079 0.733055 0.179105
Si Si5 0.741684 0.302414 0.137577
Si Si6 0.490804 0.621642 0.343654
Si Si7 0.015426 0.136824 0.753975
Si Si8 0.745432 0.160638 0.346745
O O1 0.198163 0.577888 0.951345
O O2 0.913030 0.642297 0.700849
O O3 0.122693 0.704977 0.945797
O O4 0.760141 0.615686 0.147507
O O5 0.123397 0.065295 0.656118
O O6 0.561054 0.100295 0.435818
O O7 0.437100 0.008520 0.798761
O O8 0.987056 0.500530 0.788615
O O9 0.335462 0.446486 0.910704
O O10 0.356712 0.679074 0.241937
O O11 0.235046 0.809410 0.201298
O O12 0.921268 0.727259 0.385578
O O13 0.668081 0.238053 0.317204
O O14 0.535735 0.343509 0.079191
O O15 0.879472 0.159531 0.557845
O O16 0.889320 0.140034 0.054290
#
# Coordination Sequence:
#
# PCOD9131419 Si02
#       8
#     2   2   2   2   2   2   2   2
#     4  11  24  46  72 100 143 187 246 309 368 461
#     4  12  28  47  73 114 160 203 256 305 366 463
#     4  12  28  49  68  99 145 191 242 298 379 453
#     4  10  22  46  68 105 144 184 244 315 372 438
#     4  10  24  44  73 106 144 185 259 312 378 442
#     4  11  26  44  72 108 140 197 239 318 381 445
#     4  11  25  45  78 109 151 199 254 308 382 446
#     4  11  25  47  76 111 151 206 248 319 380 442
#
# _framework density 25.265086
#
# number of rings (size 3 to 8) (size 9 to 14) (size 15 to 20)
#    0.000    1.000    2.500    2.250    5.250    8.000 
#    0.000    0.000    0.000    0.000    0.000    0.000 
#    0.000    0.000    0.000    0.000    0.000    0.000 
#
# Total GULP energy -89121.758568 kJ/mol
# GULP energy per Si atom -5570.109910 kJ/mol
# Density = 2.520758 g / cm^3
# Si number density = 25.265086 Si / 1000 Ang^3
#
#
#
# Elastic Constant Matrix: (Units=GPa)
#
#
# Indices 1 2 3 4 5 6 
#
# 1 52.8118 43.1996 43.3426 0.0000 4.5399 0.0000
# 2 43.1996 126.0905 45.6006 0.0000 -10.8471 0.0000
# 3 43.3426 45.6006 192.4604 0.0000 0.7769 0.0000
# 4 0.0000 0.0000 0.0000 41.9959 0.0000 1.3602
# 5 4.5399 -10.8471 0.7769 0.0000 47.0742 0.0000
# 6 0.0000 0.0000 0.0000 1.3602 0.0000 43.9109
#
#
#
# Elastic Compliance Matrix: (Units=1/GPa)
#
#
# Indices 1 2 3 4 5 6 
#
# 1 0.030848 -0.009293 -0.004725 0.000000 -0.005038 0.000000
# 2 -0.009293 0.011673 -0.000687 0.000000 0.003597 0.000000
# 3 -0.004725 -0.000687 0.006422 0.000000 0.000191 0.000000
# 4 0.000000 0.000000 0.000000 0.023836 0.000000 -0.000738
# 5 -0.005038 0.003597 0.000191 0.000000 0.022555 0.000000
# 6 0.000000 0.000000 0.000000 -0.000738 0.000000 0.022796
#
#
# Mechanical properties :
#
#
# Convention : Reuss Voigt Hill
#
# Bulk Modulus (GPa) = 51.19894 70.62760 60.91327
# Shear Modulus (GPa) = 32.45680 42.54422 37.50051
#
# Velocity S-wave (km/s) = 3.58809 4.10800 3.85682
# Velocity P-wave (km/s) = 6.12165 7.10748 6.63290
#
# Compressibility (1/GPa) = 0.01953166
#
# Stress axis : x y z
#
# Youngs Moduli (GPa) = 32.41717 85.66885 155.71536
#
# Poissons Ratio (x) = 0.79616 0.73571
# Poissons Ratio (y) = 0.30127 0.10703
# Poissons Ratio (z) = 0.15316 0.05888
#
# Static dielectric constant tensor:
#      x y z
#    x 2.068060 0.000000 -0.034530 
#    y 0.000000 2.096750 0.000000 
#    z -0.034530 0.000000 2.133000 
# 
# From -- ./inp_files/272.got.cif
#   From: 2010.05.17/outbox.cif.g08.bks.cpg/sg7_cif.got.tgz:272.got - 2010.06.03 19:44:50.
