data_PCOD9131150
_publ_section_title
;
Structure prediction by ZEFSAII (Michael W. Deem and Ramdas Pophale) SiO2 
 PCOD9131150
Probable space group: P M
;
_chemical_formula_sum "Si O2"
_cell_formula_units_Z 16
_cell_length_a 19.978996
_cell_length_b 8.426122
_cell_length_c 9.946275
_cell_angle_alpha 90.000000
_cell_angle_beta 150.987980
_cell_angle_gamma 90.000000
_cell_volume 812.077393
_symmetry_space_group_name_H-M "P M"
_symmetry_group_IT_number 6
_symmetry_cell_setting 'monoclinic'
loop_
_space_group_symop_operation_xyz
x,y,z
x,-y,z
loop_
_atom_site_type_symbol
_atom_site_label
_atom_site_fract_x
_atom_site_fract_y
_atom_site_fract_z
Si Si1 0.543750 0.806914 0.628280
Si Si2 0.696171 0.187328 0.160660
Si Si3 0.537502 0.686152 0.123614
Si Si4 0.252708 0.691428 0.757964
Si Si5 0.987845 0.689305 0.783541
Si Si6 0.714240 0.811761 0.663644
Si Si7 0.234822 0.189938 0.029635
Si Si8 0.004994 0.691999 0.124978
O O1 0.619264 0.766142 0.622300
O O2 0.385014 0.752226 0.346444
O O3 0.540750 0.000000 0.630906
O O4 0.636903 0.749771 0.915598
O O5 0.576692 0.220459 0.059158
O O6 0.838858 0.261377 0.463390
O O7 0.720459 0.000000 0.191206
O O8 0.522245 0.500000 0.065610
O O9 0.663546 0.714062 0.446374
O O10 0.401386 0.743181 0.962270
O O11 0.255403 0.500000 0.774399
O O12 0.139285 0.734277 0.447183
O O13 0.222522 0.758707 0.852391
O O14 0.993770 0.500000 0.796393
O O15 0.109891 0.749966 0.901898
O O16 0.007521 0.744615 0.973047
O O17 0.698390 0.000000 0.610676
O O18 0.872868 0.769455 0.963455
O O19 0.235163 0.000000 0.034871
O O20 0.991877 0.500000 0.103716
#
# Coordination Sequence:
#
# PCOD9131150 Si02
#       8
#     2   2   2   2   2   2   2   2
#     4   9  22  41  61  90 124 156 200 253 306 356
#     4  11  23  41  64  91 122 160 204 253 301 360
#     4  11  22  39  63  91 122 158 201 253 306 361
#     4  10  23  42  63  90 123 161 203 250 305 362
#     4  11  24  42  62  89 125 163 201 248 303 366
#     4  11  21  39  65  90 119 158 203 253 304 360
#     4  11  23  42  64  89 123 162 202 251 303 362
#     4  10  23  42  62  88 124 160 202 253 302 359
#
# _framework density 19.702556999999999
#
# number of rings (size 3 to 8) (size 9 to 14) (size 15 to 20)
#    0.000    1.500    2.500    1.875    3.500    1.500 
#    0.000    3.750    0.000    0.000    0.000    0.000 
#    0.000    0.000    0.000    0.000    0.000    0.000 
#
# Total GULP energy -89390.798413 kJ/mol
# GULP energy per Si atom -5586.924901 kJ/mol
# Density = 1.965771 g / cm^3
# Si number density = 19.702557 Si / 1000 Ang^3
#
#
#
# Elastic Constant Matrix: (Units=GPa)
#
#
# Indices 1 2 3 4 5 6 
#
# 1 102.3876 12.6328 45.5918 0.0000 10.8455 0.0000
# 2 12.6328 24.1810 19.5640 0.0000 3.4529 0.0000
# 3 45.5918 19.5640 112.8028 0.0000 -1.6350 0.0000
# 4 0.0000 0.0000 0.0000 24.0146 0.0000 4.7460
# 5 10.8455 3.4529 -1.6350 0.0000 37.1218 0.0000
# 6 0.0000 0.0000 0.0000 4.7460 0.0000 31.3352
#
#
#
# Elastic Compliance Matrix: (Units=1/GPa)
#
#
# Indices 1 2 3 4 5 6 
#
# 1 0.012536 -0.002191 -0.004740 0.000000 -0.003668 0.000000
# 2 -0.002191 0.049375 -0.007740 0.000000 -0.004294 0.000000
# 3 -0.004740 -0.007740 0.012162 0.000000 0.002640 0.000000
# 4 0.000000 0.000000 0.000000 0.042926 0.000000 -0.006502
# 5 -0.003668 -0.004294 0.002640 0.000000 0.028526 0.000000
# 6 0.000000 0.000000 0.000000 -0.006502 0.000000 0.032898
#
#
# Mechanical properties :
#
#
# Convention : Reuss Voigt Hill
#
# Bulk Modulus (GPa) = 22.35596 43.88318 33.11957
# Shear Modulus (GPa) = 22.45437 29.26650 25.86043
#
# Velocity S-wave (km/s) = 3.37956 3.85829 3.62683
# Velocity P-wave (km/s) = 5.15751 6.49382 5.86386
#
# Compressibility (1/GPa) = 0.04473080
#
# Stress axis : x y z
#
# Youngs Moduli (GPa) = 79.76865 20.25332 82.22661
#
# Poissons Ratio (x) = 0.04437 0.38976
# Poissons Ratio (y) = 0.17474 0.63645
# Poissons Ratio (z) = 0.37811 0.15676
#
# Static dielectric constant tensor:
#      x y z
#    x 1.666170 0.000000 -0.010170 
#    y 0.000000 1.684460 0.000000 
#    z -0.010170 0.000000 1.682000 
# 
# From -- ./inp_files/3726.got.cif
#   From: 2010.05.17/outbox.cif.g08.bks.cpg/sg6_2_cif.got.tgz:3726.got - 2010.06.03 19:42:10.
