data_PCOD9131831
_publ_section_title
;
Structure prediction by ZEFSAII (Michael W. Deem and Ramdas Pophale) SiO2 
 PCOD9131831
Probable space group: C M
;
_chemical_formula_sum "Si O2"
_cell_formula_units_Z 32
_cell_length_a 29.296007
_cell_length_b 8.304007
_cell_length_c 16.404214
_cell_angle_alpha 90.000000
_cell_angle_beta 153.604766
_cell_angle_gamma 90.000000
_cell_volume 1774.118408
_symmetry_space_group_name_H-M "C M"
_symmetry_group_IT_number 8
_symmetry_cell_setting 'monoclinic'
loop_
_space_group_symop_operation_xyz
x,y,z
x,-y,z
1/2+x,1/2+y,z
1/2+x,1/2-y,z
loop_
_atom_site_type_symbol
_atom_site_label
_atom_site_fract_x
_atom_site_fract_y
_atom_site_fract_z
Si Si1 0.934570 0.191699 0.829740
Si Si2 0.612691 0.805401 0.546363
Si Si3 0.355731 0.191874 0.534621
Si Si4 0.182283 0.192918 0.832196
Si Si5 0.890860 0.696367 0.249595
Si Si6 0.964607 0.305354 0.543771
Si Si7 0.636811 0.191642 0.243306
Si Si8 0.214842 0.696319 0.542746
O O1 0.923228 0.268796 0.722323
O O2 0.833359 0.244509 0.718581
O O3 0.927223 0.000000 0.807341
O O4 0.039132 0.233522 0.042665
O O5 0.670591 0.752529 0.720846
O O6 0.494232 0.752982 0.367739
O O7 0.665390 0.746514 0.547805
O O8 0.612708 0.000000 0.544732
O O9 0.410669 0.250506 0.540200
O O10 0.243799 0.267775 0.369805
O O11 0.342576 0.000000 0.507860
O O12 0.081299 0.248691 0.719191
O O13 0.183929 0.000000 0.834117
O O14 0.286536 0.252806 0.041074
O O15 0.889428 0.500000 0.246620
O O16 0.904831 0.746196 0.366064
O O17 0.965553 0.500000 0.546035
O O18 0.652898 0.247456 0.362709
O O19 0.623483 0.000000 0.222930
O O20 0.212854 0.500000 0.540717
#
# Coordination Sequence:
#
# PCOD9131831 Si02
#       8
#     4   4   4   4   4   4   4   4
#     4  10  20  35  53  76 107 140 175 214 260 312
#     4   9  17  34  54  70  97 137 173 207 253 304
#     4  10  20  35  55  78 103 134 175 220 266 312
#     4  10  19  31  49  76 104 130 166 211 255 300
#     4   8  16  31  50  70  96 129 162 199 247 301
#     4   9  19  36  54  72  97 133 171 205 251 310
#     4  10  20  35  54  78 106 136 174 216 262 314
#     4   8  17  33  53  74  98 133 174 214 256 305
#
# _framework density 18.037126000000001
#
# number of rings (size 3 to 8) (size 9 to 14) (size 15 to 20)
#    0.000    2.750    0.000    3.000    0.000    3.000 
#    0.000   11.250    0.000    0.000    0.000    0.000 
#    0.000    0.000    0.000    0.000    0.000    0.000 
#
# Total GULP energy -89224.119100 kJ/mol
# GULP energy per Si atom -5576.507444 kJ/mol
# Density = 1.799607 g / cm^3
# Si number density = 18.037126 Si / 1000 Ang^3
#
#
#
# Elastic Constant Matrix: (Units=GPa)
#
#
# Indices 1 2 3 4 5 6 
#
# 1 179.9061 5.1738 76.0848 0.0000 -6.9696 0.0000
# 2 5.1738 11.9141 -4.0207 0.0000 -0.7891 0.0000
# 3 76.0848 -4.0207 152.3031 0.0000 -1.1493 0.0000
# 4 0.0000 0.0000 0.0000 25.1667 0.0000 0.2397
# 5 -6.9696 -0.7891 -1.1493 0.0000 5.9003 0.0000
# 6 0.0000 0.0000 0.0000 0.2397 0.0000 21.4869
#
#
#
# Elastic Compliance Matrix: (Units=1/GPa)
#
#
# Indices 1 2 3 4 5 6 
#
# 1 0.007601 -0.004090 -0.003847 0.000000 0.007682 0.000000
# 2 -0.004090 0.087715 0.004417 0.000000 0.007760 0.000000
# 3 -0.003847 0.004417 0.008587 0.000000 -0.002281 0.000000
# 4 0.000000 0.000000 0.000000 0.039739 0.000000 -0.000443
# 5 0.007682 0.007760 -0.002281 0.000000 0.179152 0.000000
# 6 0.000000 0.000000 0.000000 -0.000443 0.000000 0.046545
#
#
# Mechanical properties :
#
#
# Convention : Reuss Voigt Hill
#
# Bulk Modulus (GPa) = 10.32381 55.39989 32.86185
# Shear Modulus (GPa) = 12.23493 28.30313 20.26903
#
# Velocity S-wave (km/s) = 2.60728 3.96556 3.35586
# Velocity P-wave (km/s) = 3.84707 7.19365 5.76839
#
# Compressibility (1/GPa) = 0.09686349
#
# Stress axis : x y z
#
# Youngs Moduli (GPa) = 131.56838 11.40054 116.45427
#
# Poissons Ratio (x) = 0.04663 0.44800
# Poissons Ratio (y) = 0.53813 -0.51443
# Poissons Ratio (z) = 0.50614 -0.05036
#
# Static dielectric constant tensor:
#      x y z
#    x 1.611660 0.000000 -0.001540 
#    y 0.000000 1.626500 0.000000 
#    z -0.001540 0.000000 1.593760 
# 
# From -- ./inp_files/26399.got.cif
#   From: 2010.05.17/outbox.cif.g08.bks.cpg/sg8_14_cif.got.tgz:26399.got - 2010.06.03 19:46:02.
