data_PCOD9131618
_publ_section_title
;
Structure prediction by ZEFSAII (Michael W. Deem and Ramdas Pophale) SiO2 
 PCOD9131618
Probable space group: C M
;
_chemical_formula_sum "Si O2"
_cell_formula_units_Z 32
_cell_length_a 14.433425
_cell_length_b 8.201046
_cell_length_c 12.557269
_cell_angle_alpha 90.000000
_cell_angle_beta 90.585636
_cell_angle_gamma 90.000000
_cell_volume 1486.316020
_symmetry_space_group_name_H-M "C M"
_symmetry_group_IT_number 8
_symmetry_cell_setting 'monoclinic'
loop_
_space_group_symop_operation_xyz
x,y,z
x,-y,z
1/2+x,1/2+y,z
1/2+x,1/2-y,z
loop_
_atom_site_type_symbol
_atom_site_label
_atom_site_fract_x
_atom_site_fract_y
_atom_site_fract_z
Si Si1 0.023110 0.806825 0.655260
Si Si2 0.784479 0.803003 0.478687
Si Si3 0.151456 0.694528 0.290196
Si Si4 0.876143 0.190632 0.923161
Si Si5 0.995380 0.804928 0.424049
Si Si6 0.078557 0.691101 0.871084
Si Si7 0.712549 0.199869 0.059691
Si Si8 0.319023 0.187332 0.707323
O O1 0.048104 0.759675 0.535218
O O2 0.089337 0.773588 0.755534
O O3 0.928034 0.712012 0.679426
O O4 0.001072 0.000000 0.653772
O O5 0.715207 0.741232 0.387238
O O6 0.768830 0.740537 0.598372
O O7 0.888716 0.758513 0.442080
O O8 0.780652 0.000000 0.483823
O O9 0.164665 0.500000 0.287457
O O10 0.046799 0.729874 0.324257
O O11 0.181676 0.757831 0.175333
O O12 0.812346 0.212399 0.816614
O O13 0.971978 0.283229 0.906204
O O14 0.898572 0.000000 0.933160
O O15 0.815398 0.245608 0.022717
O O16 0.998647 0.000000 0.412823
O O17 0.095936 0.500000 0.856972
O O18 0.142460 0.755330 0.966642
O O19 0.709994 0.000000 0.059747
O O20 0.299234 0.000000 0.729987
#
# Coordination Sequence:
#
# PCOD9131618 Si02
#       8
#     4   4   4   4   4   4   4   4
#     4   9  17  32  53  78 109 140 171 207 257 320
#     4   9  19  36  56  77 106 142 175 210 259 317
#     4  10  21  38  57  76 101 139 185 221 254 307
#     4  10  19  35  57  79 106 140 176 212 258 315
#     4   9  19  35  54  79 109 136 166 216 270 310
#     4  10  19  34  55  80 109 137 171 217 265 308
#     4   9  21  38  54  75 105 141 180 219 258 309
#     4  10  18  30  52  82 111 135 168 214 263 312
#
# _framework density 21.529741000000001
#
# number of rings (size 3 to 8) (size 9 to 14) (size 15 to 20)
#    0.000    2.500    0.000    4.500    0.000    5.000 
#    0.000   10.000    0.000    0.000    0.000    0.000 
#    0.000    0.000    0.000    0.000    0.000    0.000 
#
# Total GULP energy -89318.950989 kJ/mol
# GULP energy per Si atom -5582.434437 kJ/mol
# Density = 2.148074 g / cm^3
# Si number density = 21.529741 Si / 1000 Ang^3
#
#
#
# Elastic Constant Matrix: (Units=GPa)
#
#
# Indices 1 2 3 4 5 6 
#
# 1 52.6640 -3.2751 28.3414 0.0000 -8.0342 0.0000
# 2 -3.2751 27.7067 0.9997 0.0000 -0.1951 0.0000
# 3 28.3414 0.9997 96.9332 0.0000 -26.2990 0.0000
# 4 0.0000 0.0000 0.0000 23.0813 0.0000 -4.2807
# 5 -8.0342 -0.1951 -26.2990 0.0000 36.5998 0.0000
# 6 0.0000 0.0000 0.0000 -4.2807 0.0000 16.0744
#
#
#
# Elastic Compliance Matrix: (Units=1/GPa)
#
#
# Indices 1 2 3 4 5 6 
#
# 1 0.022772 0.002932 -0.006618 0.000000 0.000259 0.000000
# 2 0.002932 0.036484 -0.001250 0.000000 -0.000060 0.000000
# 3 -0.006618 -0.001250 0.014742 0.000000 0.009134 0.000000
# 4 0.000000 0.000000 0.000000 0.045576 0.000000 0.012137
# 5 0.000259 -0.000060 0.009134 0.000000 0.033942 0.000000
# 6 0.000000 0.000000 0.000000 0.012137 0.000000 0.065443
#
#
# Mechanical properties :
#
#
# Convention : Reuss Voigt Hill
#
# Bulk Modulus (GPa) = 15.59413 25.49287 20.54350
# Shear Modulus (GPa) = 19.98360 25.23364 22.60862
#
# Velocity S-wave (km/s) = 3.04992 3.42722 3.24406
# Velocity P-wave (km/s) = 4.43412 5.24667 4.85742
#
# Compressibility (1/GPa) = 0.06412671
#
# Stress axis : x y z
#
# Youngs Moduli (GPa) = 43.91426 27.40951 67.83188
#
# Poissons Ratio (x) = -0.08038 0.44891
# Poissons Ratio (y) = -0.12877 0.08478
# Poissons Ratio (z) = 0.29062 0.03426
#
# Static dielectric constant tensor:
#      x y z
#    x 1.824300 0.000000 0.015050 
#    y 0.000000 1.743350 0.000000 
#    z 0.015050 0.000000 1.790740 
# 
# From -- ./inp_files/22774.got.cif
#   From: 2010.05.17/outbox.cif.g08.bks.cpg/sg8_12_cif.got.tgz:22774.got - 2010.06.03 19:46:02.
