data_PCOD9131031
_publ_section_title
;
Structure prediction by ZEFSAII (Michael W. Deem and Ramdas Pophale) SiO2 
 PCOD9131031
Probable space group: P M
;
_chemical_formula_sum "Si O2"
_cell_formula_units_Z 14
_cell_length_a 5.867356
_cell_length_b 17.125403
_cell_length_c 8.086613
_cell_angle_alpha 90.000000
_cell_angle_beta 120.826824
_cell_angle_gamma 90.000000
_cell_volume 697.752689
_symmetry_space_group_name_H-M "P M"
_symmetry_group_IT_number 6
_symmetry_cell_setting 'monoclinic'
loop_
_space_group_symop_operation_xyz
x,y,z
x,-y,z
loop_
_atom_site_type_symbol
_atom_site_label
_atom_site_fract_x
_atom_site_fract_y
_atom_site_fract_z
Si Si1 0.225310 0.136115 0.305560
Si Si2 0.203848 0.637675 0.794568
Si Si3 0.646059 0.414392 0.476030
Si Si4 0.747520 0.585242 0.122207
Si Si5 0.359532 0.000000 0.144940
Si Si6 0.982706 0.276024 0.012488
Si Si7 0.444839 0.730285 0.605967
Si Si8 0.865926 0.000000 0.148772
O O1 0.415188 0.077713 0.273366
O O2 0.364464 0.188768 0.493758
O O3 0.994313 0.077049 0.279350
O O4 0.094068 0.198514 0.134099
O O5 0.226355 0.696560 0.649459
O O6 0.937480 0.589232 0.668433
O O7 0.179963 0.687407 0.952423
O O8 0.475226 0.590274 0.915023
O O9 0.526544 0.500000 0.470267
O O10 0.681865 0.409026 0.291944
O O11 0.498184 0.338973 0.493608
O O12 0.871754 0.500000 0.138046
O O13 0.920252 0.657533 0.124570
O O14 0.550101 0.000000 0.056715
O O15 0.030747 0.000000 0.032615
O O16 0.710925 0.260345 0.812585
#
# Coordination Sequence:
#
# PCOD9131031 Si02
#       8
#     2   2   2   2   1   2   2   1
#     4   9  20  38  61  84 116 150 191 240 294 355
#     4  10  21  34  52  77 112 150 192 239 290 340
#     4  10  21  35  52  76 109 151 198 242 288 341
#     4  10  21  35  52  76 109 151 198 242 288 341
#     4   8  20  38  64  93 119 156 193 238 302 362
#     4  10  21  36  55  85 111 151 193 239 292 346
#     4  10  21  36  55  85 111 151 193 239 292 346
#     4   8  20  38  64  93 119 156 193 238 302 362
#
# _framework density 20.064416000000001
#
# number of rings (size 3 to 8) (size 9 to 14) (size 15 to 20)
#    0.857    1.429    0.000    2.143    0.000   12.000 
#    0.000    6.429    0.000    5.143    0.000    0.000 
#    0.000    0.000    0.000    0.000    0.000    0.000 
#
# Total GULP energy -78010.144311 kJ/mol
# GULP energy per Si atom -5572.153165 kJ/mol
# Density = 2.001875 g / cm^3
# Si number density = 20.064416 Si / 1000 Ang^3
#
#
#
# Elastic Constant Matrix: (Units=GPa)
#
#
# Indices 1 2 3 4 5 6 
#
# 1 82.4645 28.0853 5.0927 0.0000 -3.2264 0.0000
# 2 28.0853 148.9022 43.3456 0.0000 -5.1377 0.0000
# 3 5.0927 43.3456 69.9712 0.0000 0.9914 0.0000
# 4 0.0000 0.0000 0.0000 7.8102 0.0000 -1.1138
# 5 -3.2264 -5.1377 0.9914 0.0000 26.9427 0.0000
# 6 0.0000 0.0000 0.0000 -1.1138 0.0000 1.8916
#
#
#
# Elastic Compliance Matrix: (Units=1/GPa)
#
#
# Indices 1 2 3 4 5 6 
#
# 1 0.013015 -0.002610 0.000655 0.000000 0.001037 0.000000
# 2 -0.002610 0.008800 -0.005284 0.000000 0.001560 0.000000
# 3 0.000655 -0.005284 0.017539 0.000000 -0.001575 0.000000
# 4 0.000000 0.000000 0.000000 0.139774 0.000000 0.082296
# 5 0.001037 0.001560 -0.001575 0.000000 0.037595 0.000000
# 6 0.000000 0.000000 0.000000 0.082296 0.000000 0.577097
#
#
# Mechanical properties :
#
#
# Convention : Reuss Voigt Hill
#
# Bulk Modulus (GPa) = 40.19702 50.48723 45.34213
# Shear Modulus (GPa) = 6.12302 22.31653 14.21978
#
# Velocity S-wave (km/s) = 1.74880 3.33865 2.66504
# Velocity P-wave (km/s) = 4.91480 6.33082 5.66721
#
# Compressibility (1/GPa) = 0.02487746
#
# Stress axis : x y z
#
# Youngs Moduli (GPa) = 76.83227 113.63757 57.01489
#
# Poissons Ratio (x) = 0.29656 -0.03733
# Poissons Ratio (y) = 0.20051 0.30124
# Poissons Ratio (z) = -0.05030 0.60040
#
# Static dielectric constant tensor:
#      x y z
#    x 1.757460 0.000000 0.014460 
#    y 0.000000 1.682030 0.000000 
#    z 0.014460 0.000000 1.703490 
# 
# From -- ./inp_files/2260.got.cif
#   From: 2010.05.17/outbox.cif.g08.bks.cpg/sg6_2_cif.got.tgz:2260.got - 2010.06.03 19:42:10.
