data_PCOD9131674
_publ_section_title
;
Structure prediction by ZEFSAII (Michael W. Deem and Ramdas Pophale) SiO2 
 PCOD9131674
Probable space group: C M
;
_chemical_formula_sum "Si O2"
_cell_formula_units_Z 26
_cell_length_a 14.381022
_cell_length_b 7.599695
_cell_length_c 22.839335
_cell_angle_alpha 90.000000
_cell_angle_beta 144.031044
_cell_angle_gamma 90.000000
_cell_volume 1466.101349
_symmetry_space_group_name_H-M "C M"
_symmetry_group_IT_number 8
_symmetry_cell_setting 'monoclinic'
loop_
_space_group_symop_operation_xyz
x,y,z
x,-y,z
1/2+x,1/2+y,z
1/2+x,1/2-y,z
loop_
_atom_site_type_symbol
_atom_site_label
_atom_site_fract_x
_atom_site_fract_y
_atom_site_fract_z
Si Si1 0.159441 0.000000 0.378181
Si Si2 0.013930 0.500000 0.576744
Si Si3 0.885135 0.799575 0.292193
Si Si4 0.759330 0.714499 0.900429
Si Si5 0.380847 0.000000 0.385746
Si Si6 0.191931 0.799467 0.736224
Si Si7 0.617500 0.212628 0.065412
Si Si8 0.050993 0.792991 0.902225
O O1 0.326886 0.000000 0.497076
O O2 0.049756 0.835445 0.341328
O O3 0.216218 0.000000 0.339469
O O4 0.099652 0.669443 0.646866
O O5 0.009367 0.500000 0.503697
O O6 0.896367 0.669206 0.352190
O O7 0.753604 0.732411 0.179456
O O8 0.839732 0.000000 0.288071
O O9 0.762816 0.500000 0.902763
O O10 0.683989 0.763942 0.799691
O O11 0.657998 0.774174 0.903832
O O12 0.942012 0.772627 0.994980
O O13 0.379680 0.795831 0.818445
O O14 0.134685 0.000000 0.702962
O O15 0.618943 0.000000 0.065715
O O16 0.636866 0.270902 0.008312
O O17 0.021028 0.000000 0.877676
#
# Coordination Sequence:
#
# PCOD9131674 Si02
#       8
#     2   2   4   4   2   4   4   4
#     4   8  22  44  59  92 123 152 217 266 295 384
#     4  10  22  44  57  86 119 150 207 270 295 367
#     4   9  20  42  62  88 124 162 204 264 305 369
#     4   8  17  33  53  83 118 153 192 232 286 372
#     4  10  22  42  64  86 124 156 208 268 314 357
#     4  10  20  40  58  80 119 159 191 246 310 348
#     4   9  18  34  55  79 122 157 191 239 296 352
#     4  10  18  32  54  87 123 151 195 239 285 366
#
# _framework density 17.734109
#
# number of rings (size 3 to 8) (size 9 to 14) (size 15 to 20)
#    0.923    1.846    0.769    1.385    1.077    1.846 
#    8.308    0.000    0.000    0.000    0.000    0.000 
#    0.000    0.000    0.000    0.000    0.000    0.000 
#
# Total GULP energy -72383.670163 kJ/mol
# GULP energy per Si atom -5567.974628 kJ/mol
# Density = 1.769375 g / cm^3
# Si number density = 17.734109 Si / 1000 Ang^3
#
#
#
# Elastic Constant Matrix: (Units=GPa)
#
#
# Indices 1 2 3 4 5 6 
#
# 1 141.5959 28.2462 47.6962 0.0000 -13.9202 0.0000
# 2 28.2462 74.5485 36.0880 0.0000 -9.0892 0.0000
# 3 47.6962 36.0880 120.5026 0.0000 -20.3402 0.0000
# 4 0.0000 0.0000 0.0000 22.7699 0.0000 -7.3881
# 5 -13.9202 -9.0892 -20.3402 0.0000 15.2967 0.0000
# 6 0.0000 0.0000 0.0000 -7.3881 0.0000 24.2474
#
#
#
# Elastic Compliance Matrix: (Units=1/GPa)
#
#
# Indices 1 2 3 4 5 6 
#
# 1 0.008522 -0.001689 -0.002228 0.000000 0.003790 0.000000
# 2 -0.001689 0.016212 -0.003636 0.000000 0.003261 0.000000
# 3 -0.002228 -0.003636 0.012330 0.000000 0.012207 0.000000
# 4 0.000000 0.000000 0.000000 0.048736 0.000000 0.014850
# 5 0.003790 0.003261 0.012207 0.000000 0.086992 0.000000
# 6 0.000000 0.000000 0.000000 0.014850 0.000000 0.045766
#
#
# Mechanical properties :
#
#
# Convention : Reuss Voigt Hill
#
# Bulk Modulus (GPa) = 45.54027 62.30084 53.92055
# Shear Modulus (GPa) = 20.74836 27.43724 24.09280
#
# Velocity S-wave (km/s) = 3.42419 3.93764 3.68986
# Velocity P-wave (km/s) = 6.43185 7.47530 6.97312
#
# Compressibility (1/GPa) = 0.02195859
#
# Stress axis : x y z
#
# Youngs Moduli (GPa) = 117.34092 61.68365 81.10383
#
# Poissons Ratio (x) = 0.10415 0.18068
# Poissons Ratio (y) = 0.19813 0.29492
# Poissons Ratio (z) = 0.26141 0.22430
#
# Static dielectric constant tensor:
#      x y z
#    x 1.602460 0.000000 0.008000 
#    y 0.000000 1.632950 0.000000 
#    z 0.008000 0.000000 1.586290 
# 
# From -- ./inp_files/31913.got.cif
#   From: 2010.05.17/outbox.cif.g08.bks.cpg/sg8_16_cif.got.tgz:31913.got - 2010.06.03 19:46:02.
