data_PCOD9131316
_publ_section_title
;
Structure prediction by ZEFSAII (Michael W. Deem and Ramdas Pophale) SiO2 
 PCOD9131316
Probable space group: P C
;
_chemical_formula_sum "Si O2"
_cell_formula_units_Z 12
_cell_length_a 6.743689
_cell_length_b 14.330042
_cell_length_c 5.175543
_cell_angle_alpha 90.000000
_cell_angle_beta 99.892900
_cell_angle_gamma 90.000000
_cell_volume 492.713813
_symmetry_space_group_name_H-M "P C"
_symmetry_group_IT_number 7
_symmetry_cell_setting 'monoclinic'
loop_
_space_group_symop_operation_xyz
x,y,z
x,-y,1/2+z
loop_
_atom_site_type_symbol
_atom_site_label
_atom_site_fract_x
_atom_site_fract_y
_atom_site_fract_z
Si Si1 0.400970 0.818058 0.821500
Si Si2 0.188264 0.752637 0.276452
Si Si3 0.752620 0.943644 0.792388
Si Si4 0.825374 0.741203 0.851624
Si Si5 0.845960 0.445962 0.061345
Si Si6 0.361138 0.448750 0.913054
O O1 0.244372 0.794351 0.564092
O O2 0.517911 0.913097 0.772747
O O3 0.585516 0.741696 0.856119
O O4 0.299968 0.812147 0.077551
O O5 0.283920 0.649939 0.299022
O O6 0.957317 0.742706 0.140077
O O7 0.851236 0.844872 0.742828
O O8 0.803824 0.017597 0.585451
O O9 0.891826 0.655786 0.688034
O O10 0.910212 0.521732 0.291787
O O11 0.603341 0.446957 0.980157
O O12 0.298690 0.526454 0.689679
#
# Coordination Sequence:
#
# PCOD9131316 Si02
#       6
#     2   2   2   2   2   2
#     4  10  25  42  68  93 134 165 220 267 330 389
#     4  12  23  43  66  98 127 182 216 265 340 386
#     4  10  22  44  71  96 130 173 213 272 335 387
#     4  10  26  43  71  95 139 173 217 278 327 389
#     4  10  22  37  63  92 129 177 218 263 324 380
#     4  10  20  35  59  88 129 170 222 275 310 377
#
# _framework density 24.354911000000001
#
# number of rings (size 3 to 8) (size 9 to 14) (size 15 to 20)
#    1.000    0.667    1.667    2.000    4.667    6.667 
#    0.000    5.000    0.000    0.000    0.000    0.000 
#    0.000    0.000    0.000    0.000    0.000    0.000 
#
# Total GULP energy -67123.278944 kJ/mol
# GULP energy per Si atom -5593.606579 kJ/mol
# Density = 2.429948 g / cm^3
# Si number density = 24.354911 Si / 1000 Ang^3
#
#
#
# Elastic Constant Matrix: (Units=GPa)
#
#
# Indices 1 2 3 4 5 6 
#
# 1 101.8549 6.0959 44.5886 0.0000 -8.0425 0.0000
# 2 6.0959 75.6346 11.4253 0.0000 -8.8308 0.0000
# 3 44.5886 11.4253 136.0087 0.0000 11.9418 0.0000
# 4 0.0000 0.0000 0.0000 42.0858 0.0000 -0.8620
# 5 -8.0425 -8.8308 11.9418 0.0000 34.7222 0.0000
# 6 0.0000 0.0000 0.0000 -0.8620 0.0000 19.4557
#
#
#
# Elastic Compliance Matrix: (Units=1/GPa)
#
#
# Indices 1 2 3 4 5 6 
#
# 1 0.012052 0.000192 -0.004348 0.000000 0.004336 0.000000
# 2 0.000192 0.013930 -0.001596 0.000000 0.004136 0.000000
# 3 -0.004348 -0.001596 0.009317 0.000000 -0.004617 0.000000
# 4 0.000000 0.000000 0.000000 0.023783 0.000000 0.001054
# 5 0.004336 0.004136 -0.004617 0.000000 0.032444 0.000000
# 6 0.000000 0.000000 0.000000 0.001054 0.000000 0.051446
#
#
# Mechanical properties :
#
#
# Convention : Reuss Voigt Hill
#
# Bulk Modulus (GPa) = 42.02618 48.63532 45.33075
# Shear Modulus (GPa) = 30.78660 36.01197 33.39929
#
# Velocity S-wave (km/s) = 3.55925 3.84947 3.70720
# Velocity P-wave (km/s) = 5.84673 6.30640 6.08091
#
# Compressibility (1/GPa) = 0.02379469
#
# Stress axis : x y z
#
# Youngs Moduli (GPa) = 82.97291 71.78722 107.32634
#
# Poissons Ratio (x) = -0.01376 0.46664
# Poissons Ratio (y) = -0.01590 0.17131
# Poissons Ratio (z) = 0.36076 0.11458
#
# Static dielectric constant tensor:
#      x y z
#    x 1.994010 0.000000 0.041430 
#    y 0.000000 1.919090 0.000000 
#    z 0.041430 0.000000 1.879470 
# 
# From -- ./inp_files/697.got.cif
#   From: 2010.05.17/outbox.cif.g08.bks.cpg/sg7_cif.got.tgz:697.got - 2010.06.03 19:44:50.
