data_PCOD9131898
_publ_section_title
;
Structure prediction by ZEFSAII (Michael W. Deem and Ramdas Pophale) SiO2 
 PCOD9131898
Probable space group: C M
;
_chemical_formula_sum "Si O2"
_cell_formula_units_Z 32
_cell_length_a 21.022515
_cell_length_b 8.679930
_cell_length_c 12.570095
_cell_angle_alpha 90.000000
_cell_angle_beta 127.800567
_cell_angle_gamma 90.000000
_cell_volume 1812.376488
_symmetry_space_group_name_H-M "C M"
_symmetry_group_IT_number 8
_symmetry_cell_setting 'monoclinic'
loop_
_space_group_symop_operation_xyz
x,y,z
x,-y,z
1/2+x,1/2+y,z
1/2+x,1/2-y,z
loop_
_atom_site_type_symbol
_atom_site_label
_atom_site_fract_x
_atom_site_fract_y
_atom_site_fract_z
Si Si1 0.705010 0.815199 0.910750
Si Si2 0.262581 0.684074 0.200835
Si Si3 0.940641 0.316437 0.351751
Si Si4 0.347528 0.185347 0.910431
Si Si5 0.232705 0.186734 0.609694
Si Si6 0.589304 0.685120 0.623369
Si Si7 0.495352 0.684344 0.180094
Si Si8 0.681054 0.313879 0.327419
O O1 0.782140 0.742738 0.929787
O O2 0.627059 0.749628 0.770720
O O3 0.707727 0.000000 0.901674
O O4 0.712846 0.776175 0.042906
O O5 0.271161 0.500000 0.212158
O O6 0.350902 0.757071 0.281069
O O7 0.218697 0.742095 0.261177
O O8 0.941949 0.500000 0.354003
O O9 0.969592 0.256506 0.266215
O O10 0.003498 0.251229 0.502345
O O11 0.310113 0.232955 0.758224
O O12 0.351711 0.000000 0.919133
O O13 0.432567 0.256984 0.027985
O O14 0.153664 0.231100 0.596933
O O15 0.225489 0.239147 0.481283
O O16 0.232159 0.000000 0.607074
O O17 0.586786 0.500000 0.624206
O O18 0.490002 0.500000 0.184916
O O19 0.586911 0.724630 0.245303
O O20 0.687285 0.500000 0.327387
#
# Coordination Sequence:
#
# PCOD9131898 Si02
#       8
#     4   4   4   4   4   4   4   4
#     4  10  20  35  55  82 117 153 191 237 289 341
#     4  11  24  40  58  83 119 156 193 240 289 339
#     4  12  23  36  59  88 116 150 196 239 285 346
#     4  10  19  32  56  86 114 147 190 239 288 340
#     4   8  16  33  55  81 112 148 185 229 284 336
#     4  10  19  35  59  86 117 147 186 239 292 342
#     4  11  21  36  58  85 117 150 189 242 291 336
#     4  10  21  39  60  81 112 155 196 233 286 348
#
# _framework density 17.656375000000001
#
# number of rings (size 3 to 8) (size 9 to 14) (size 15 to 20)
#    0.000    1.750    2.500    3.750    0.000    2.500 
#    0.000    2.500    0.000    4.500    0.000    0.000 
#    0.000    0.000    0.000    0.000    0.000    0.000 
#
# Total GULP energy -89339.863857 kJ/mol
# GULP energy per Si atom -5583.741491 kJ/mol
# Density = 1.761619 g / cm^3
# Si number density = 17.656375 Si / 1000 Ang^3
#
#
#
# Elastic Constant Matrix: (Units=GPa)
#
#
# Indices 1 2 3 4 5 6 
#
# 1 104.4132 50.1663 85.2706 0.0000 -7.1504 0.0000
# 2 50.1663 67.5835 60.5655 0.0000 0.3175 0.0000
# 3 85.2706 60.5655 192.4902 0.0000 -4.7051 0.0000
# 4 0.0000 0.0000 0.0000 30.2650 0.0000 1.3580
# 5 -7.1504 0.3175 -4.7051 0.0000 25.5517 0.0000
# 6 0.0000 0.0000 0.0000 1.3580 0.0000 27.0015
#
#
#
# Elastic Compliance Matrix: (Units=1/GPa)
#
#
# Indices 1 2 3 4 5 6 
#
# 1 0.018508 -0.009061 -0.005242 0.000000 0.004327 0.000000
# 2 -0.009061 0.025097 -0.003970 0.000000 -0.003578 0.000000
# 3 -0.005242 -0.003970 0.008771 0.000000 0.000198 0.000000
# 4 0.000000 0.000000 0.000000 0.033116 0.000000 -0.001665
# 5 0.004327 -0.003578 0.000198 0.000000 0.040428 0.000000
# 6 0.000000 0.000000 0.000000 -0.001665 0.000000 0.037119
#
#
# Mechanical properties :
#
#
# Convention : Reuss Voigt Hill
#
# Bulk Modulus (GPa) = 63.17125 84.05465 73.61295
# Shear Modulus (GPa) = 24.40664 27.79593 26.10129
#
# Velocity S-wave (km/s) = 3.72198 3.97201 3.84903
# Velocity P-wave (km/s) = 7.37066 8.29126 7.84448
#
# Compressibility (1/GPa) = 0.01582998
#
# Stress axis : x y z
#
# Youngs Moduli (GPa) = 54.03054 39.84539 114.00812
#
# Poissons Ratio (x) = 0.36103 0.59765
# Poissons Ratio (y) = 0.48956 0.45264
# Poissons Ratio (z) = 0.28324 0.15820
#
# Static dielectric constant tensor:
#      x y z
#    x 1.561910 0.000000 -0.000670 
#    y 0.000000 1.593690 0.000000 
#    z -0.000670 0.000000 1.621730 
# 
# From -- ./inp_files/23887.got.cif
#   From: 2010.05.17/outbox.cif.g08.bks.cpg/sg8_12_cif.got.tgz:23887.got - 2010.06.03 19:46:02.
