data_PCOD9131962
_publ_section_title
;
Structure prediction by ZEFSAII (Michael W. Deem and Ramdas Pophale) SiO2 
 PCOD9131962
Probable space group: C M
;
_chemical_formula_sum "Si O2"
_cell_formula_units_Z 28
_cell_length_a 10.647780
_cell_length_b 16.018994
_cell_length_c 11.514254
_cell_angle_alpha 90.000000
_cell_angle_beta 144.204961
_cell_angle_gamma 90.000000
_cell_volume 1148.688871
_symmetry_space_group_name_H-M "C M"
_symmetry_group_IT_number 8
_symmetry_cell_setting 'monoclinic'
loop_
_space_group_symop_operation_xyz
x,y,z
x,-y,z
1/2+x,1/2+y,z
1/2+x,1/2-y,z
loop_
_atom_site_type_symbol
_atom_site_label
_atom_site_fract_x
_atom_site_fract_y
_atom_site_fract_z
Si Si1 0.089420 0.588487 0.775690
Si Si2 0.439350 0.595092 0.555715
Si Si3 0.076835 0.908008 0.155429
Si Si4 0.331217 0.907468 0.131289
Si Si5 0.581767 0.237636 0.267644
Si Si6 0.217149 0.618494 0.613452
Si Si7 0.225219 0.805388 0.607506
O O1 0.994079 0.500000 0.742630
O O2 0.133734 0.583917 0.671846
O O3 0.934192 0.660626 0.699314
O O4 0.328272 0.596460 0.004717
O O5 0.393536 0.500000 0.482331
O O6 0.270217 0.668727 0.399161
O O7 0.416054 0.592887 0.678533
O O8 0.646879 0.629452 0.644713
O O9 0.117249 0.909623 0.047996
O O10 0.156592 0.816984 0.250385
O O11 0.155488 0.000000 0.257015
O O12 0.375752 0.822695 0.092684
O O13 0.517326 0.899666 0.373403
O O14 0.360239 0.000000 0.098227
O O15 0.562182 0.281732 0.379789
O O16 0.262425 0.713832 0.683914
#
# Coordination Sequence:
#
# PCOD9131962 Si02
#       7
#     4   4   4   4   4   4   4
#     4  11  22  36  54  80 110 145 185 223 264 321
#     4  10  19  33  57  88 113 137 175 229 280 323
#     4  10  22  36  52  76 109 146 185 222 263 316
#     4   9  17  33  56  80 104 136 178 225 269 317
#     4  10  19  35  55  80 109 143 180 223 271 324
#     4  10  19  35  58  82 108 141 181 225 271 323
#     4  10  20  34  55  82 111 142 179 223 273 322
#
# _framework density 24.375616999999998
#
# number of rings (size 3 to 8) (size 9 to 14) (size 15 to 20)
#    0.000    2.286    0.000    7.286    0.000    3.429 
#    0.000    0.000    0.000    1.714    0.000   18.000 
#    0.000    0.000    0.000    0.000    0.000    0.000 
#
# Total GULP energy -77943.053685 kJ/mol
# GULP energy per Si atom -5567.360978 kJ/mol
# Density = 2.432014 g / cm^3
# Si number density = 24.375617 Si / 1000 Ang^3
#
#
#
# Elastic Constant Matrix: (Units=GPa)
#
#
# Indices 1 2 3 4 5 6 
#
# 1 120.9710 63.8962 12.8555 0.0000 21.8753 0.0000
# 2 63.8962 255.3865 26.6073 0.0000 6.8612 0.0000
# 3 12.8555 26.6073 25.2527 0.0000 7.3099 0.0000
# 4 0.0000 0.0000 0.0000 17.3446 0.0000 5.1583
# 5 21.8753 6.8612 7.3099 0.0000 23.9842 0.0000
# 6 0.0000 0.0000 0.0000 5.1583 0.0000 40.0121
#
#
#
# Elastic Compliance Matrix: (Units=1/GPa)
#
#
# Indices 1 2 3 4 5 6 
#
# 1 0.011378 -0.002555 -0.000337 0.000000 -0.009543 0.000000
# 2 -0.002555 0.004973 -0.004608 0.000000 0.002312 0.000000
# 3 -0.000337 -0.004608 0.048429 0.000000 -0.013134 0.000000
# 4 0.000000 0.000000 0.000000 0.059953 0.000000 -0.007729
# 5 -0.009543 0.002312 -0.013134 0.000000 0.053740 0.000000
# 6 0.000000 0.000000 0.000000 -0.007729 0.000000 0.025989
#
#
# Mechanical properties :
#
#
# Convention : Reuss Voigt Hill
#
# Bulk Modulus (GPa) = 20.08920 67.59205 43.84062
# Shear Modulus (GPa) = 21.18144 36.15158 28.66651
#
# Velocity S-wave (km/s) = 2.95101 3.85529 3.43305
# Velocity P-wave (km/s) = 4.45766 6.89980 5.80852
#
# Compressibility (1/GPa) = 0.04977799
#
# Stress axis : x y z
#
# Youngs Moduli (GPa) = 87.89175 201.09047 20.64881
#
# Poissons Ratio (x) = 0.51380 0.00697
# Poissons Ratio (y) = 0.22457 0.09516
# Poissons Ratio (z) = 0.02965 0.92668
#
# Static dielectric constant tensor:
#      x y z
#    x 1.941570 0.000000 0.003720 
#    y 0.000000 1.973870 0.000000 
#    z 0.003720 0.000000 2.159260 
# 
# From -- ./inp_files/26090.got.cif
#   From: 2010.05.17/outbox.cif.g08.bks.cpg/sg8_14_cif.got.tgz:26090.got - 2010.06.03 19:46:02.
