data_PCOD9131486
_publ_section_title
;
Structure prediction by ZEFSAII (Michael W. Deem and Ramdas Pophale) SiO2 
 PCOD9131486
Probable space group: P C
;
_chemical_formula_sum "Si O2"
_cell_formula_units_Z 6
_cell_length_a 4.656045
_cell_length_b 8.082527
_cell_length_c 5.426686
_cell_angle_alpha 90.000000
_cell_angle_beta 79.430784
_cell_angle_gamma 90.000000
_cell_volume 200.755561
_symmetry_space_group_name_H-M "P C"
_symmetry_group_IT_number 7
_symmetry_cell_setting 'monoclinic'
loop_
_space_group_symop_operation_xyz
x,y,z
x,-y,1/2+z
loop_
_atom_site_type_symbol
_atom_site_label
_atom_site_fract_x
_atom_site_fract_y
_atom_site_fract_z
Si Si1 0.698010 0.310506 0.799410
Si Si2 0.310187 0.903932 0.630872
Si Si3 0.304402 0.634132 0.970457
O O1 0.542794 0.249270 0.571794
O O2 0.022379 0.369609 0.692097
O O3 0.636760 0.168755 0.009725
O O4 0.502094 0.474035 0.883781
O O5 0.232147 0.986019 0.382208
O O6 0.186938 0.727225 0.746307
#
# Coordination Sequence:
#
# PCOD9131486 Si02
#       3
#     2   2   2
#     4  12  27  50  85 119 158 212 274 333 396 478
#     4  12  28  52  80 122 166 212 264 334 408 480
#     4  12  27  50  85 119 158 212 274 333 396 478
#
# _framework density 29.887091999999999
#
# number of rings (size 3 to 8) (size 9 to 14) (size 15 to 20)
#    0.000    0.000    6.667    2.000    0.000    2.667 
#    0.000    0.000    0.000    0.000    0.000    0.000 
#    0.000    0.000    0.000    0.000    0.000    0.000 
#
# Total GULP energy -33464.501632 kJ/mol
# GULP energy per Si atom -5577.416939 kJ/mol
# Density = 2.981907 g / cm^3
# Si number density = 29.887092 Si / 1000 Ang^3
#
#
#
# Elastic Constant Matrix: (Units=GPa)
#
#
# Indices 1 2 3 4 5 6 
#
# 1 157.8297 26.7264 74.0406 0.0000 -50.3457 0.0000
# 2 26.7264 118.4001 84.5601 0.0000 -21.2966 0.0000
# 3 74.0406 84.5601 257.9114 0.0000 -13.7227 0.0000
# 4 0.0000 0.0000 0.0000 85.8026 0.0000 -0.6519
# 5 -50.3457 -21.2966 -13.7227 0.0000 70.7659 0.0000
# 6 0.0000 0.0000 0.0000 -0.6519 0.0000 37.2066
#
#
#
# Elastic Compliance Matrix: (Units=1/GPa)
#
#
# Indices 1 2 3 4 5 6 
#
# 1 0.009528 0.000954 -0.002700 0.000000 0.006542 0.000000
# 2 0.000954 0.011637 -0.003907 0.000000 0.003423 0.000000
# 3 -0.002700 -0.003907 0.005829 0.000000 -0.001966 0.000000
# 4 0.000000 0.000000 0.000000 0.011656 0.000000 0.000204
# 5 0.006542 0.003423 -0.001966 0.000000 0.019434 0.000000
# 6 0.000000 0.000000 0.000000 0.000204 0.000000 0.026880
#
#
# Mechanical properties :
#
#
# Convention : Reuss Voigt Hill
#
# Bulk Modulus (GPa) = 63.74410 100.53281 82.13845
# Shear Modulus (GPa) = 49.26156 62.00931 55.63543
#
# Velocity S-wave (km/s) = 4.06428 4.55992 4.31921
# Velocity P-wave (km/s) = 6.58780 7.83801 7.23994
#
# Compressibility (1/GPa) = 0.01568773
#
# Stress axis : x y z
#
# Youngs Moduli (GPa) = 104.95591 85.93532 171.56229
#
# Poissons Ratio (x) = -0.08201 0.46322
# Poissons Ratio (y) = -0.10016 0.67031
# Poissons Ratio (z) = 0.28338 0.33576
#
# Static dielectric constant tensor:
#      x y z
#    x 2.346560 0.000000 0.222290 
#    y 0.000000 2.670910 0.000000 
#    z 0.222290 0.000000 2.651300 
# 
# From -- ./inp_files/47.got.cif
#   From: 2010.05.17/outbox.cif.g08.bks.cpg/sg7_cif.got.tgz:47.got - 2010.06.03 19:44:50.
