data_PCOD9131252
_publ_section_title
;
Structure prediction by ZEFSAII (Michael W. Deem and Ramdas Pophale) SiO2 
 PCOD9131252
Probable space group: P C
;
_chemical_formula_sum "Si O2"
_cell_formula_units_Z 16
_cell_length_a 7.464590
_cell_length_b 18.498128
_cell_length_c 5.647957
_cell_angle_alpha 90.000000
_cell_angle_beta 56.346650
_cell_angle_gamma 90.000000
_cell_volume 649.172498
_symmetry_space_group_name_H-M "P C"
_symmetry_group_IT_number 7
_symmetry_cell_setting 'monoclinic'
loop_
_space_group_symop_operation_xyz
x,y,z
x,-y,1/2+z
loop_
_atom_site_type_symbol
_atom_site_label
_atom_site_fract_x
_atom_site_fract_y
_atom_site_fract_z
Si Si1 0.314850 0.696029 0.065610
Si Si2 0.695502 0.338126 0.626156
Si Si3 0.490057 0.983596 0.844794
Si Si4 0.494186 0.776577 0.545470
Si Si5 0.032354 0.235305 0.131718
Si Si6 0.874194 0.496211 0.517564
Si Si7 0.706471 0.884129 0.008664
Si Si8 0.406030 0.457610 0.353943
O O1 0.103038 0.733576 0.325236
O O2 0.467508 0.666253 0.160804
O O3 0.444053 0.762782 0.856208
O O4 0.293336 0.622123 0.929532
O O5 0.647609 0.292326 0.892419
O O6 0.767220 0.418273 0.607954
O O7 0.876077 0.295066 0.352950
O O8 0.563620 0.905734 0.882202
O O9 0.378572 0.984517 0.667055
O O10 0.696838 0.035683 0.636872
O O11 0.253964 0.770252 0.614187
O O12 0.603191 0.836543 0.296383
O O13 0.910006 0.158852 0.257374
O O14 0.992766 0.502817 0.679852
O O15 0.671041 0.550909 0.666005
O O16 0.372701 0.499170 0.630807
#
# Coordination Sequence:
#
# PCOD9131252 Si02
#       8
#     2   2   2   2   2   2   2   2
#     4  11  22  38  63  91 126 171 222 269 333 391
#     4  10  21  39  61  84 125 168 217 269 329 390
#     4   8  18  37  70  96 124 167 214 251 315 381
#     4  10  22  39  63  94 126 169 212 268 320 392
#     4  10  24  40  59  98 130 168 216 266 322 396
#     4  10  18  33  60  87 112 160 219 271 329 384
#     4   9  20  42  67  95 133 172 212 263 323 380
#     4  10  19  34  63  85 118 167 218 273 333 384
#
# _framework density 24.646761999999999
#
# number of rings (size 3 to 8) (size 9 to 14) (size 15 to 20)
#    0.750    1.500    2.500    1.500    1.750    6.000 
#    0.000    2.500    0.000    0.000    0.000    0.000 
#    0.000    0.000    0.000    0.000    0.000    0.000 
#
# Total GULP energy -89090.440421 kJ/mol
# GULP energy per Si atom -5568.152526 kJ/mol
# Density = 2.459067 g / cm^3
# Si number density = 24.646762 Si / 1000 Ang^3
#
#
#
# Elastic Constant Matrix: (Units=GPa)
#
#
# Indices 1 2 3 4 5 6 
#
# 1 62.3269 -1.3709 12.6551 0.0000 18.4506 0.0000
# 2 -1.3709 131.1916 37.6233 0.0000 4.9260 0.0000
# 3 12.6551 37.6233 177.1739 0.0000 22.9664 0.0000
# 4 0.0000 0.0000 0.0000 11.9362 0.0000 8.5242
# 5 18.4506 4.9260 22.9664 0.0000 28.5666 0.0000
# 6 0.0000 0.0000 0.0000 8.5242 0.0000 7.3518
#
#
#
# Elastic Compliance Matrix: (Units=1/GPa)
#
#
# Indices 1 2 3 4 5 6 
#
# 1 0.019903 0.000661 0.000133 0.000000 -0.013076 0.000000
# 2 0.000661 0.008139 -0.001717 0.000000 -0.000450 0.000000
# 3 0.000133 -0.001717 0.006667 0.000000 -0.005150 0.000000
# 4 0.000000 0.000000 0.000000 0.487213 0.000000 -0.564913
# 5 -0.013076 -0.000450 -0.005150 0.000000 0.047669 0.000000
# 6 0.000000 0.000000 0.000000 -0.564913 0.000000 0.791024
#
#
# Mechanical properties :
#
#
# Convention : Reuss Voigt Hill
#
# Bulk Modulus (GPa) = 30.43065 52.05637 41.24351
# Shear Modulus (GPa) = 3.64056 31.02323 17.33189
#
# Velocity S-wave (km/s) = 1.21668 3.55169 2.65469
# Velocity P-wave (km/s) = 3.78778 6.16329 5.11534
#
# Compressibility (1/GPa) = 0.03286161
#
# Stress axis : x y z
#
# Youngs Moduli (GPa) = 50.24425 122.87005 149.99571
#
# Poissons Ratio (x) = -0.08119 -0.01996
# Poissons Ratio (y) = -0.03320 0.25757
# Poissons Ratio (z) = -0.00668 0.21099
#
# Static dielectric constant tensor:
#      x y z
#    x 2.055480 0.000000 0.079910 
#    y 0.000000 2.002980 0.000000 
#    z 0.079910 0.000000 2.060850 
# 
# From -- ./inp_files/975.got.cif
#   From: 2010.05.17/outbox.cif.g08.bks.cpg/sg7_cif.got.tgz:975.got - 2010.06.03 19:44:50.
