data_PCOD9131581
_publ_section_title
;
Structure prediction by ZEFSAII (Michael W. Deem and Ramdas Pophale) SiO2 
 PCOD9131581
Probable space group: C M
;
_chemical_formula_sum "Si O2"
_cell_formula_units_Z 26
_cell_length_a 13.312746
_cell_length_b 15.656417
_cell_length_c 5.486770
_cell_angle_alpha 90.000000
_cell_angle_beta 115.376686
_cell_angle_gamma 90.000000
_cell_volume 1033.260023
_symmetry_space_group_name_H-M "C M"
_symmetry_group_IT_number 8
_symmetry_cell_setting 'monoclinic'
loop_
_space_group_symop_operation_xyz
x,y,z
x,-y,z
1/2+x,1/2+y,z
1/2+x,1/2-y,z
loop_
_atom_site_type_symbol
_atom_site_label
_atom_site_fract_x
_atom_site_fract_y
_atom_site_fract_z
Si Si1 0.604840 0.659886 0.655710
Si Si2 0.382687 0.633101 0.913874
Si Si3 0.369829 0.161693 0.938421
Si Si4 0.750487 0.905255 0.277245
Si Si5 0.634794 0.271007 0.185612
Si Si6 0.847088 0.599337 0.413997
Si Si7 0.016316 0.000000 0.294631
O O1 0.736992 0.641580 0.804205
O O2 0.586521 0.721420 0.406086
O O3 0.544438 0.573975 0.524935
O O4 0.571912 0.703259 0.873071
O O5 0.317154 0.598632 0.089341
O O6 0.492166 0.575602 0.066044
O O7 0.379458 0.735771 0.940838
O O8 0.325060 0.610757 0.597288
O O9 0.410913 0.119787 0.730612
O O10 0.411784 0.120311 0.232609
O O11 0.668996 0.826095 0.185458
O O12 0.702608 0.000000 0.248106
O O13 0.743500 0.333550 0.307020
O O14 0.809392 0.500000 0.377240
#
# Coordination Sequence:
#
# PCOD9131581 Si02
#       7
#     4   4   4   4   4   4   2
#     4  10  22  36  55  84 125 164 197 253 317 386
#     4  12  22  39  56  89 129 174 200 263 326 394
#     4  10  19  36  54  76 122 165 212 239 307 375
#     4  12  20  38  62  86 119 169 228 264 303 379
#     4  10  20  36  56  82 122 159 216 257 310 363
#     4  10  18  28  54  84 107 152 204 269 287 352
#     4  12  28  38  62 104 142 162 204 268 358 388
#
# _framework density 25.163077999999999
#
# number of rings (size 3 to 8) (size 9 to 14) (size 15 to 20)
#    0.000    1.231    7.692    0.462    8.615    2.462 
#    0.000    0.000    0.000    0.000    0.000    6.462 
#    0.000    0.000    0.000    0.000    0.000    0.000 
#
# Total GULP energy -72442.819779 kJ/mol
# GULP energy per Si atom -5572.524598 kJ/mol
# Density = 2.510581 g / cm^3
# Si number density = 25.163078 Si / 1000 Ang^3
#
#
#
# Elastic Constant Matrix: (Units=GPa)
#
#
# Indices 1 2 3 4 5 6 
#
# 1 35.9227 28.5678 47.8859 0.0000 -20.7541 0.0000
# 2 28.5678 240.4580 70.7682 0.0000 -13.4878 0.0000
# 3 47.8859 70.7682 215.8957 0.0000 -54.8542 0.0000
# 4 0.0000 0.0000 0.0000 38.7375 0.0000 -30.0674
# 5 -20.7541 -13.4878 -54.8542 0.0000 42.4454 0.0000
# 6 0.0000 0.0000 0.0000 -30.0674 0.0000 -42.3521
#
#
#
# Elastic Compliance Matrix: (Units=1/GPa)
#
#
# Indices 1 2 3 4 5 6 
#
# 1 0.045913 -0.003016 -0.005560 0.000000 0.014305 0.000000
# 2 -0.003016 0.004816 -0.001333 0.000000 -0.001667 0.000000
# 3 -0.005560 -0.001333 0.008194 0.000000 0.007448 0.000000
# 4 0.000000 0.000000 0.000000 0.016643 0.000000 -0.011816
# 5 0.014305 -0.001667 0.007448 0.000000 0.039650 0.000000
# 6 0.000000 0.000000 0.000000 -0.011816 0.000000 -0.015223
#
#
# Mechanical properties :
#
#
# Convention : Reuss Voigt Hill
#
# Bulk Modulus (GPa) = 25.57267 87.41336 56.49301
# Shear Modulus (GPa) = 37.63730 30.76979 34.20355
#
# Velocity S-wave (km/s) = 3.87167 3.50067 3.69083
# Velocity P-wave (km/s) = 5.49284 7.15219 6.37672
#
# Compressibility (1/GPa) = 0.03910425
#
# Stress axis : x y z
#
# Youngs Moduli (GPa) = 21.78042 207.64493 122.03332
#
# Poissons Ratio (x) = 0.62623 0.67854
# Poissons Ratio (y) = 0.06569 0.16271
# Poissons Ratio (z) = 0.12110 0.27686
#
# Static dielectric constant tensor:
#      x y z
#    x 2.191110 0.000000 0.011080 
#    y 0.000000 2.069950 0.000000 
#    z 0.011080 0.000000 2.043640 
# 
# From -- ./inp_files/4926.got.cif
#   From: 2010.05.17/outbox.cif.g08.bks.cpg/sg8_3_cif.got.tgz:4926.got - 2010.06.03 19:46:02.
