data_PCOD9131855
_publ_section_title
;
Structure prediction by ZEFSAII (Michael W. Deem and Ramdas Pophale) SiO2 
 PCOD9131855
Probable space group: C M
;
_chemical_formula_sum "Si O2"
_cell_formula_units_Z 32
_cell_length_a 14.866102
_cell_length_b 9.181142
_cell_length_c 21.956960
_cell_angle_alpha 90.000000
_cell_angle_beta 29.666249
_cell_angle_gamma 90.000000
_cell_volume 1483.285096
_symmetry_space_group_name_H-M "C M"
_symmetry_group_IT_number 8
_symmetry_cell_setting 'monoclinic'
loop_
_space_group_symop_operation_xyz
x,y,z
x,-y,z
1/2+x,1/2+y,z
1/2+x,1/2-y,z
loop_
_atom_site_type_symbol
_atom_site_label
_atom_site_fract_x
_atom_site_fract_y
_atom_site_fract_z
Si Si1 0.432310 0.172684 0.936690
Si Si2 0.578082 0.161323 0.173489
Si Si3 0.942709 0.674650 0.674304
Si Si4 0.297365 0.665834 0.405286
Si Si5 0.549817 0.832756 0.426197
Si Si6 0.348859 0.838706 0.187066
Si Si7 0.117867 0.828151 0.940455
Si Si8 0.756350 0.171842 0.668871
O O1 0.526279 0.274120 0.931823
O O2 0.543626 0.196715 0.808675
O O3 0.448567 0.000000 0.940874
O O4 0.226744 0.225636 0.061467
O O5 0.463895 0.226888 0.296291
O O6 0.436285 0.146160 0.202174
O O7 0.654588 0.000000 0.141704
O O8 0.916170 0.500000 0.676319
O O9 0.831274 0.703045 0.801740
O O10 0.853572 0.773204 0.673987
O O11 0.157506 0.700128 0.542012
O O12 0.362581 0.500000 0.373322
O O13 0.171425 0.669424 0.417595
O O14 0.360280 0.757736 0.555248
O O15 0.664716 0.748957 0.307525
O O16 0.524644 0.000000 0.424341
O O17 0.315302 0.000000 0.181116
O O18 0.502062 0.756750 0.058338
O O19 0.099127 0.000000 0.961687
O O20 0.785042 0.000000 0.643511
#
# Coordination Sequence:
#
# PCOD9131855 Si02
#       8
#     4   4   4   4   4   4   4   4
#     4  10  20  33  50  72  99 130 162 199 243 289
#     4  10  20  32  48  71  98 128 162 201 242 286
#     4   8  15  27  44  67  93 122 156 195 237 283
#     4   8  14  26  44  66  92 120 154 195 238 283
#     4   9  16  27  45  68  93 123 158 197 240 283
#     4  10  20  33  49  72 101 130 162 200 242 286
#     4  10  19  32  51  74 100 129 162 198 239 289
#     4   9  16  26  43  68  94 120 154 197 241 283
#
# _framework density 21.573736
#
# number of rings (size 3 to 8) (size 9 to 14) (size 15 to 20)
#    0.000    2.750    0.000    3.000    0.000    6.500 
#    0.000    0.000    0.000    1.500    0.000    5.250 
#    0.000    0.000    0.000    0.000    0.000    0.000 
#
# Total GULP energy -89205.105247 kJ/mol
# GULP energy per Si atom -5575.319078 kJ/mol
# Density = 2.152463 g / cm^3
# Si number density = 21.573736 Si / 1000 Ang^3
#
#
#
# Elastic Constant Matrix: (Units=GPa)
#
#
# Indices 1 2 3 4 5 6 
#
# 1 32.4197 0.9938 4.4495 0.0005 7.4125 -0.0002
# 2 0.9938 128.0520 110.8757 0.0005 10.3929 -0.0001
# 3 4.4495 110.8757 220.0704 0.0026 13.1256 -0.0006
# 4 0.0005 0.0005 0.0026 36.8480 -0.0007 -2.4067
# 5 7.4125 10.3929 13.1256 -0.0007 15.7318 0.0002
# 6 -0.0002 -0.0001 -0.0006 -2.4067 0.0002 9.1475
#
#
#
# Elastic Compliance Matrix: (Units=1/GPa)
#
#
# Indices 1 2 3 4 5 6 
#
# 1 0.034744 0.001490 -0.000440 -0.000001 -0.016988 0.000001
# 2 0.001490 0.014102 -0.006880 0.000000 -0.004278 0.000000
# 3 -0.000440 -0.006880 0.008141 0.000000 -0.002040 0.000000
# 4 -0.000001 0.000000 0.000000 0.027613 0.000002 0.007265
# 5 -0.016988 -0.004278 -0.002040 0.000002 0.076098 -0.000002
# 6 0.000001 0.000000 0.000000 0.007265 -0.000002 0.111231
#
#
# Mechanical properties :
#
#
# Convention : Reuss Voigt Hill
#
# Bulk Modulus (GPa) = 22.06160 68.13114 45.09637
# Shear Modulus (GPa) = 16.73933 29.96034 23.34983
#
# Velocity S-wave (km/s) = 2.78854 3.73062 3.29344
# Velocity P-wave (km/s) = 4.54052 7.08561 5.95072
#
# Compressibility (1/GPa) = 0.04532762
#
# Stress axis : x y z
#
# Youngs Moduli (GPa) = 28.78170 70.91208 122.83902
#
# Poissons Ratio (x) = -0.10567 0.05405
# Poissons Ratio (y) = -0.04289 0.84511
# Poissons Ratio (z) = 0.01266 0.48786
#
# Static dielectric constant tensor:
#      x y z
#    x 1.847610 0.000000 -0.011540 
#    y 0.000000 1.751950 0.000000 
#    z -0.011540 0.000000 1.828910 
# 
# From -- ./inp_files/22952.got.cif
#   From: 2010.05.17/outbox.cif.g08.bks.cpg/sg8_12_cif.got.tgz:22952.got - 2010.06.03 19:46:02.
