data_PCOD9131790
_publ_section_title
;
Structure prediction by ZEFSAII (Michael W. Deem and Ramdas Pophale) SiO2 
 PCOD9131790
Probable space group: C M
;
_chemical_formula_sum "Si O2"
_cell_formula_units_Z 26
_cell_length_a 17.542791
_cell_length_b 7.902796
_cell_length_c 9.026183
_cell_angle_alpha 90.000000
_cell_angle_beta 84.014057
_cell_angle_gamma 90.000000
_cell_volume 1244.540774
_symmetry_space_group_name_H-M "C M"
_symmetry_group_IT_number 8
_symmetry_cell_setting 'monoclinic'
loop_
_space_group_symop_operation_xyz
x,y,z
x,-y,z
1/2+x,1/2+y,z
1/2+x,1/2-y,z
loop_
_atom_site_type_symbol
_atom_site_label
_atom_site_fract_x
_atom_site_fract_y
_atom_site_fract_z
Si Si1 0.721440 0.304394 0.150960
Si Si2 0.384502 0.803279 0.283957
Si Si3 0.530344 0.000000 0.570595
Si Si4 0.909565 0.809308 0.594348
Si Si5 0.570121 0.000000 0.885892
Si Si6 0.615898 0.000000 0.233231
Si Si7 0.472696 0.688304 0.994768
Si Si8 0.820085 0.701682 0.871921
O O1 0.696176 0.500000 0.164011
O O2 0.803955 0.290381 0.214731
O O3 0.664745 0.172289 0.233948
O O4 0.741930 0.260660 0.974675
O O5 0.386679 0.693513 0.428526
O O6 0.393591 0.000000 0.320647
O O7 0.454011 0.748539 0.164353
O O8 0.475116 0.834076 0.598485
O O9 0.563389 0.000000 0.394190
O O10 0.589638 0.000000 0.701346
O O11 0.834096 0.751398 0.700870
O O12 0.933260 0.000000 0.633159
O O13 0.523347 0.174100 0.905018
O O14 0.599105 0.000000 0.055736
O O15 0.503926 0.500000 0.985502
O O16 0.389604 0.698979 0.934894
O O17 0.833321 0.500000 0.889900
#
# Coordination Sequence:
#
# PCOD9131790 Si02
#       8
#     4   4   2   4   2   2   4   4
#     4   9  23  43  64  89 123 174 224 269 318 389
#     4  10  19  36  61  94 134 164 203 275 348 392
#     4  12  26  46  64  96 146 170 219 280 324 400
#     4  12  22  35  63 103 131 163 208 276 352 396
#     4  12  24  44  64  92 132 184 222 268 326 384
#     4  12  28  46  68  86 132 196 229 258 312 400
#     4  11  19  33  61  93 125 160 210 269 333 393
#     4  10  18  37  63  92 132 154 199 281 339 387
#
# _framework density 20.89124
#
# number of rings (size 3 to 8) (size 9 to 14) (size 15 to 20)
#    0.000    1.231    4.615    2.769    6.462    1.231 
#    2.769    0.000    0.000    0.000    0.000    0.000 
#    0.000    0.000    0.000    0.000    0.000    0.000 
#
# Total GULP energy -72401.270661 kJ/mol
# GULP energy per Si atom -5569.328512 kJ/mol
# Density = 2.084369 g / cm^3
# Si number density = 20.891240 Si / 1000 Ang^3
#
#
#
# Elastic Constant Matrix: (Units=GPa)
#
#
# Indices 1 2 3 4 5 6 
#
# 1 24.5607 32.1364 23.1792 0.0000 -10.7651 0.0000
# 2 32.1364 152.2162 29.1523 0.0000 -20.9363 0.0000
# 3 23.1792 29.1523 139.4636 0.0000 -10.0265 0.0000
# 4 0.0000 0.0000 0.0000 26.7359 0.0000 -8.9155
# 5 -10.7651 -20.9363 -10.0265 0.0000 27.0465 0.0000
# 6 0.0000 0.0000 0.0000 -8.9155 0.0000 26.2348
#
#
#
# Elastic Compliance Matrix: (Units=1/GPa)
#
#
# Indices 1 2 3 4 5 6 
#
# 1 0.069890 -0.010949 -0.008154 0.000000 0.016319 0.000000
# 2 -0.010949 0.009255 0.000089 0.000000 0.002839 0.000000
# 3 -0.008154 0.000089 0.008505 0.000000 -0.000023 0.000000
# 4 0.000000 0.000000 0.000000 0.042183 0.000000 0.014335
# 5 0.016319 0.002839 -0.000023 0.000000 0.045658 0.000000
# 6 0.000000 0.000000 0.000000 0.014335 0.000000 0.042989
#
#
# Mechanical properties :
#
#
# Convention : Reuss Voigt Hill
#
# Bulk Modulus (GPa) = 20.15221 53.90848 37.03034
# Shear Modulus (GPa) = 18.31179 31.45495 24.88337
#
# Velocity S-wave (km/s) = 2.96384 3.88448 3.45496
# Velocity P-wave (km/s) = 4.62381 6.78080 5.80340
#
# Compressibility (1/GPa) = 0.04962236
#
# Stress axis : x y z
#
# Youngs Moduli (GPa) = 14.30819 108.05447 117.57541
#
# Poissons Ratio (x) = 1.18311 0.95870
# Poissons Ratio (y) = 0.15666 -0.01051
# Poissons Ratio (z) = 0.11667 -0.00966
#
# Static dielectric constant tensor:
#      x y z
#    x 1.771630 0.000000 0.040960 
#    y 0.000000 1.716100 0.000000 
#    z 0.040960 0.000000 1.846500 
# 
# From -- ./inp_files/14433.got.cif
#   From: 2010.05.17/outbox.cif.g08.bks.cpg/sg8_8_cif.got.tgz:14433.got - 2010.06.03 19:46:02.
