data_PCOD9131996
_publ_section_title
;
Structure prediction by ZEFSAII (Michael W. Deem and Ramdas Pophale) SiO2 
 PCOD9131996
Probable space group: C M
;
_chemical_formula_sum "Si O2"
_cell_formula_units_Z 32
_cell_length_a 32.926464
_cell_length_b 7.692539
_cell_length_c 12.723609
_cell_angle_alpha 90.000000
_cell_angle_beta 27.085415
_cell_angle_gamma 90.000000
_cell_volume 1467.371923
_symmetry_space_group_name_H-M "C M"
_symmetry_group_IT_number 8
_symmetry_cell_setting 'monoclinic'
loop_
_space_group_symop_operation_xyz
x,y,z
x,-y,z
1/2+x,1/2+y,z
1/2+x,1/2-y,z
loop_
_atom_site_type_symbol
_atom_site_label
_atom_site_fract_x
_atom_site_fract_y
_atom_site_fract_z
Si Si1 0.274240 0.714300 0.126490
Si Si2 0.297581 0.300718 0.471047
Si Si3 0.351736 0.701649 0.730741
Si Si4 0.580416 0.205717 0.632831
Si Si5 0.609991 0.291111 0.807117
Si Si6 0.885795 0.203216 0.067233
Si Si7 0.715311 0.300287 0.873863
Si Si8 0.527669 0.712531 0.210118
O O1 0.274930 0.500000 0.124957
O O2 0.171440 0.769427 0.370055
O O3 0.324428 0.774605 0.116118
O O4 0.323834 0.775994 0.907552
O O5 0.321920 0.500000 0.441570
O O6 0.203822 0.292992 0.624171
O O7 0.366667 0.223272 0.227702
O O8 0.277399 0.209071 0.627099
O O9 0.373762 0.500000 0.699340
O O10 0.267207 0.709427 0.848071
O O11 0.438189 0.776845 0.472281
O O12 0.586159 0.243136 0.744006
O O13 0.575602 0.000000 0.628819
O O14 0.488916 0.283260 0.801645
O O15 0.620879 0.500000 0.787830
O O16 0.539751 0.239179 0.059749
O O17 0.862081 0.000000 0.132281
O O18 0.703297 0.500000 0.932283
O O19 0.618298 0.231603 0.061548
O O20 0.527222 0.500000 0.212118
#
# Coordination Sequence:
#
# PCOD9131996 Si02
#       8
#     4   4   4   4   4   4   4   4
#     4   9  20  40  60  80 114 152 194 239 286 343
#     4  10  19  35  59  84 117 155 191 234 289 346
#     4  10  20  38  63  83 106 155 201 233 279 342
#     4  11  22  37  56  85 117 152 192 239 292 343
#     4  10  19  34  56  84 119 153 188 237 290 342
#     4  10  21  38  58  83 113 152 195 238 288 349
#     4  10  21  37  55  85 121 149 184 239 291 339
#     4   8  18  35  55  80 111 146 185 227 279 338
#
# _framework density 21.807697000000001
#
# number of rings (size 3 to 8) (size 9 to 14) (size 15 to 20)
#    0.000    2.250    1.250    2.250    1.750    2.000 
#    0.000    6.250    0.000    0.000    0.000    0.000 
#    0.000    0.000    0.000    0.000    0.000    0.000 
#
# Total GULP energy -89343.535799 kJ/mol
# GULP energy per Si atom -5583.970987 kJ/mol
# Density = 2.175806 g / cm^3
# Si number density = 21.807697 Si / 1000 Ang^3
#
#
#
# Elastic Constant Matrix: (Units=GPa)
#
#
# Indices 1 2 3 4 5 6 
#
# 1 28.4361 -14.6349 9.4645 0.0000 10.0265 0.0000
# 2 -14.6349 33.0724 -11.9338 0.0000 4.2775 0.0000
# 3 9.4645 -11.9338 114.1504 0.0000 14.2560 0.0000
# 4 0.0000 0.0000 0.0000 15.0083 0.0000 -9.2387
# 5 10.0265 4.2775 14.2560 0.0000 24.7243 0.0000
# 6 0.0000 0.0000 0.0000 -9.2387 0.0000 11.0758
#
#
#
# Elastic Compliance Matrix: (Units=1/GPa)
#
#
# Indices 1 2 3 4 5 6 
#
# 1 0.062690 0.032751 0.002273 0.000000 -0.032399 0.000000
# 2 0.032751 0.050033 0.005663 0.000000 -0.025203 0.000000
# 3 0.002273 0.005663 0.010131 0.000000 -0.007743 0.000000
# 4 0.000000 0.000000 0.000000 0.136947 0.000000 0.114232
# 5 -0.032399 -0.025203 -0.007743 0.000000 0.062410 0.000000
# 6 0.000000 0.000000 0.000000 0.114232 0.000000 0.185572
#
#
# Mechanical properties :
#
#
# Convention : Reuss Voigt Hill
#
# Bulk Modulus (GPa) = 4.89652 15.71673 10.30662
# Shear Modulus (GPa) = 10.11153 23.01255 16.56204
#
# Velocity S-wave (km/s) = 2.15563 3.25198 2.75882
# Velocity P-wave (km/s) = 2.90617 4.61770 3.85804
#
# Compressibility (1/GPa) = 0.20422677
#
# Stress axis : x y z
#
# Youngs Moduli (GPa) = 15.95152 19.98696 98.70768
#
# Poissons Ratio (x) = -0.65460 -0.22431
# Poissons Ratio (y) = -0.52244 -0.55895
# Poissons Ratio (z) = -0.03625 -0.11318
#
# Static dielectric constant tensor:
#      x y z
#    x 1.760300 0.000000 0.007030 
#    y 0.000000 1.827570 0.000000 
#    z 0.007030 0.000000 1.812130 
# 
# From -- ./inp_files/24780.got.cif
#   From: 2010.05.17/outbox.cif.g08.bks.cpg/sg8_13_cif.got.tgz:24780.got - 2010.06.03 19:46:02.
