data_PCOD9131864
_publ_section_title
;
Structure prediction by ZEFSAII (Michael W. Deem and Ramdas Pophale) SiO2 
 PCOD9131864
Probable space group: C M
;
_chemical_formula_sum "Si O2"
_cell_formula_units_Z 28
_cell_length_a 14.106533
_cell_length_b 10.131964
_cell_length_c 14.947979
_cell_angle_alpha 90.000000
_cell_angle_beta 39.832627
_cell_angle_gamma 90.000000
_cell_volume 1368.508412
_symmetry_space_group_name_H-M "C M"
_symmetry_group_IT_number 8
_symmetry_cell_setting 'monoclinic'
loop_
_space_group_symop_operation_xyz
x,y,z
x,-y,z
1/2+x,1/2+y,z
1/2+x,1/2-y,z
loop_
_atom_site_type_symbol
_atom_site_label
_atom_site_fract_x
_atom_site_fract_y
_atom_site_fract_z
Si Si1 0.325940 0.340715 0.218120
Si Si2 0.707885 0.151543 0.125964
Si Si3 0.151256 0.153934 0.009177
Si Si4 0.796002 0.841704 0.631552
Si Si5 0.039881 0.858769 0.811635
Si Si6 0.448382 0.753646 0.696337
Si Si7 0.268590 0.350301 0.454682
O O1 0.304387 0.500000 0.236059
O O2 0.213229 0.295731 0.223452
O O3 0.497806 0.319762 0.069297
O O4 0.302866 0.285550 0.334443
O O5 0.643843 0.252998 0.101371
O O6 0.650240 0.000000 0.162059
O O7 0.881168 0.144397 0.973231
O O8 0.153790 0.000000 0.032515
O O9 0.298001 0.185012 0.846030
O O10 0.643919 0.763057 0.761092
O O11 0.909627 0.803626 0.627230
O O12 0.830705 0.797375 0.503928
O O13 0.774298 0.000000 0.646570
O O14 0.002068 0.849308 0.733193
O O15 0.113145 0.000000 0.779308
O O16 0.589854 0.849015 0.589844
O O17 0.324412 0.500000 0.408748
#
# Coordination Sequence:
#
# PCOD9131864 Si02
#       7
#     4   4   4   4   4   4   4
#     4   9  18  34  53  73 104 142 172 206 257 310
#     4   9  18  33  53  76 104 137 171 210 258 306
#     4  10  20  34  55  81 104 131 173 216 254 304
#     4  10  20  33  52  77 104 136 173 214 257 300
#     4   9  18  32  50  75 105 135 169 211 259 311
#     4  10  19  32  52  77 105 135 168 213 261 305
#     4   9  19  34  51  75 106 138 174 212 252 304
#
# _framework density 20.460232999999999
#
# number of rings (size 3 to 8) (size 9 to 14) (size 15 to 20)
#    0.000    2.571    0.000    1.714    0.000    7.429 
#    0.000    0.714    0.000    7.714    0.000    0.000 
#    0.000    0.000    0.000    0.000    0.000    0.000 
#
# Total GULP energy -77968.852918 kJ/mol
# GULP energy per Si atom -5569.203780 kJ/mol
# Density = 2.041366 g / cm^3
# Si number density = 20.460233 Si / 1000 Ang^3
#
#
#
# Elastic Constant Matrix: (Units=GPa)
#
#
# Indices 1 2 3 4 5 6 
#
# 1 130.1754 33.4839 18.9169 0.0000 27.7417 0.0000
# 2 33.4839 70.2224 -1.2914 0.0000 6.9664 0.0000
# 3 18.9169 -1.2914 52.1715 0.0000 12.3724 0.0000
# 4 0.0000 0.0000 0.0000 8.0521 0.0000 -2.4658
# 5 27.7417 6.9664 12.3724 0.0000 32.6265 0.0000
# 6 0.0000 0.0000 0.0000 -2.4658 0.0000 7.0731
#
#
#
# Elastic Compliance Matrix: (Units=1/GPa)
#
#
# Indices 1 2 3 4 5 6 
#
# 1 0.010703 -0.004421 -0.002259 0.000000 -0.007300 0.000000
# 2 -0.004421 0.016444 0.002144 0.000000 -0.000565 0.000000
# 3 -0.002259 0.002144 0.021639 0.000000 -0.006743 0.000000
# 4 0.000000 0.000000 0.000000 0.139034 0.000000 0.048471
# 5 -0.007300 -0.000565 -0.006743 0.000000 0.039535 0.000000
# 6 0.000000 0.000000 0.000000 0.048471 0.000000 0.158279
#
#
# Mechanical properties :
#
#
# Convention : Reuss Voigt Hill
#
# Bulk Modulus (GPa) = 25.18006 39.42089 32.30048
# Shear Modulus (GPa) = 12.25659 22.98100 17.61880
#
# Velocity S-wave (km/s) = 2.45019 3.35506 2.93767
# Velocity P-wave (km/s) = 4.50978 5.85811 5.22760
#
# Compressibility (1/GPa) = 0.03971396
#
# Stress axis : x y z
#
# Youngs Moduli (GPa) = 93.43110 60.81268 46.21339
#
# Poissons Ratio (x) = 0.26884 0.10440
# Poissons Ratio (y) = 0.41305 -0.09908
# Poissons Ratio (z) = 0.21107 -0.13038
#
# Static dielectric constant tensor:
#      x y z
#    x 1.743780 0.000000 0.049980 
#    y 0.000000 1.703330 0.000000 
#    z 0.049980 0.000000 1.781570 
# 
# From -- ./inp_files/21395.got.cif
#   From: 2010.05.17/outbox.cif.g08.bks.cpg/sg8_11_cif.got.tgz:21395.got - 2010.06.03 19:46:02.
