data_PCOD9131317
_publ_section_title
;
Structure prediction by ZEFSAII (Michael W. Deem and Ramdas Pophale) SiO2 
 PCOD9131317
Probable space group: P C
;
_chemical_formula_sum "Si O2"
_cell_formula_units_Z 16
_cell_length_a 13.742920
_cell_length_b 8.995891
_cell_length_c 5.305424
_cell_angle_alpha 90.000000
_cell_angle_beta 92.273563
_cell_angle_gamma 90.000000
_cell_volume 655.392236
_symmetry_space_group_name_H-M "P C"
_symmetry_group_IT_number 7
_symmetry_cell_setting 'monoclinic'
loop_
_space_group_symop_operation_xyz
x,y,z
x,-y,1/2+z
loop_
_atom_site_type_symbol
_atom_site_label
_atom_site_fract_x
_atom_site_fract_y
_atom_site_fract_z
Si Si1 0.689650 0.923326 0.487050
Si Si2 0.903649 0.944060 0.990062
Si Si3 0.904207 0.595718 0.973060
Si Si4 0.293953 0.189680 0.340657
Si Si5 0.625119 0.406880 0.082495
Si Si6 0.416411 0.054457 0.700834
Si Si7 0.393784 0.590296 0.533106
Si Si8 0.137654 0.591880 0.009053
O O1 0.673850 0.752217 0.548664
O O2 0.652377 0.028716 0.708855
O O3 0.805143 0.957171 0.485030
O O4 0.873582 0.769773 0.981857
O O5 0.957902 0.002466 0.747203
O O6 0.877233 0.503859 0.716120
O O7 0.021686 0.613821 0.985507
O O8 0.464606 0.956641 0.479449
O O9 0.324677 0.273391 0.089976
O O10 0.199348 0.261449 0.448606
O O11 0.387243 0.201608 0.546641
O O12 0.648567 0.517700 0.853133
O O13 0.508901 0.378815 0.056614
O O14 0.311334 0.980185 0.762378
O O15 0.372963 0.511921 0.271620
O O16 0.159384 0.475395 0.785649
#
# Coordination Sequence:
#
# PCOD9131317 Si02
#       8
#     2   2   2   2   2   2   2   2
#     4  10  21  40  61  90 122 149 196 241 288 361
#     4  10  21  40  61  90 122 149 196 241 288 361
#     4  10  21  41  60  87 121 158 195 243 294 352
#     4  10  20  36  52  78 114 142 198 230 278 332
#     4  10  21  41  60  87 121 158 195 243 294 352
#     4   8  20  32  46  70 108 140 174 234 270 332
#     4  10  22  34  57  81 108 149 190 236 283 327
#     4  10  22  34  57  81 108 149 190 236 283 327
#
# _framework density 24.412860999999999
#
# number of rings (size 3 to 8) (size 9 to 14) (size 15 to 20)
#    0.750    1.500    0.000    2.250    3.500    0.000 
#    4.500   15.000    0.000    0.000    0.000    0.000 
#    0.000    0.000    0.000    0.000    0.000    0.000 
#
# Total GULP energy -89280.285964 kJ/mol
# GULP energy per Si atom -5580.017873 kJ/mol
# Density = 2.435730 g / cm^3
# Si number density = 24.412861 Si / 1000 Ang^3
#
#
#
# Elastic Constant Matrix: (Units=GPa)
#
#
# Indices 1 2 3 4 5 6 
#
# 1 56.6333 3.5236 -3.6072 0.0000 -16.1524 0.0000
# 2 3.5236 135.3138 45.4108 0.0000 1.3267 0.0000
# 3 -3.6072 45.4108 182.6280 0.0000 15.3733 0.0000
# 4 0.0000 0.0000 0.0000 36.3915 0.0000 -4.2261
# 5 -16.1524 1.3267 15.3733 0.0000 25.3577 0.0000
# 6 0.0000 0.0000 0.0000 -4.2261 0.0000 26.1306
#
#
#
# Elastic Compliance Matrix: (Units=1/GPa)
#
#
# Indices 1 2 3 4 5 6 
#
# 1 0.021710 -0.000487 -0.000649 0.000000 0.014248 0.000000
# 2 -0.000487 0.008091 -0.002065 0.000000 0.000518 0.000000
# 3 -0.000649 -0.002065 0.006325 0.000000 -0.004140 0.000000
# 4 0.000000 0.000000 0.000000 0.028005 0.000000 0.004529
# 5 0.014248 0.000518 -0.004140 0.000000 0.050994 0.000000
# 6 0.000000 0.000000 0.000000 0.004529 0.000000 0.039002
#
#
# Mechanical properties :
#
#
# Convention : Reuss Voigt Hill
#
# Bulk Modulus (GPa) = 33.64448 51.69218 42.66833
# Shear Modulus (GPa) = 29.33624 39.52582 34.43103
#
# Velocity S-wave (km/s) = 3.47027 4.02812 3.75956
# Velocity P-wave (km/s) = 5.46520 6.54633 6.03004
#
# Compressibility (1/GPa) = 0.02972255
#
# Stress axis : x y z
#
# Youngs Moduli (GPa) = 46.06140 123.59626 158.10845
#
# Poissons Ratio (x) = 0.06020 0.10269
# Poissons Ratio (y) = 0.02244 0.32650
# Poissons Ratio (z) = 0.02992 0.25523
#
# Static dielectric constant tensor:
#      x y z
#    x 1.992400 0.000000 0.072940 
#    y 0.000000 2.005090 0.000000 
#    z 0.072940 0.000000 2.108880 
# 
# From -- ./inp_files/1289.got.cif
#   From: 2010.05.17/outbox.cif.g08.bks.cpg/sg7_cif.got.tgz:1289.got - 2010.06.03 19:44:50.
