data_PCOD9131592
_publ_section_title
;
Structure prediction by ZEFSAII (Michael W. Deem and Ramdas Pophale) SiO2 
 PCOD9131592
Probable space group: C M
;
_chemical_formula_sum "Si O2"
_cell_formula_units_Z 32
_cell_length_a 20.910495
_cell_length_b 7.518906
_cell_length_c 26.240322
_cell_angle_alpha 90.000000
_cell_angle_beta 157.008296
_cell_angle_gamma 90.000000
_cell_volume 1611.454208
_symmetry_space_group_name_H-M "C M"
_symmetry_group_IT_number 8
_symmetry_cell_setting 'monoclinic'
loop_
_space_group_symop_operation_xyz
x,y,z
x,-y,z
1/2+x,1/2+y,z
1/2+x,1/2-y,z
loop_
_atom_site_type_symbol
_atom_site_label
_atom_site_fract_x
_atom_site_fract_y
_atom_site_fract_z
Si Si1 0.343190 0.786080 0.097850
Si Si2 0.613650 0.209060 0.017901
Si Si3 0.663918 0.781660 0.275133
Si Si4 0.008170 0.794870 0.568925
Si Si5 0.037457 0.217334 0.804214
Si Si6 0.653144 0.717605 0.780915
Si Si7 0.810554 0.796205 0.724486
Si Si8 0.532193 0.783109 0.069205
O O1 0.519584 0.726103 0.207858
O O2 0.343986 0.000000 0.096896
O O3 0.277560 0.734412 0.105293
O O4 0.203082 0.727026 0.955114
O O5 0.463373 0.292302 0.876022
O O6 0.616900 0.272732 0.078441
O O7 0.575278 0.000000 0.991063
O O8 0.841012 0.718775 0.423644
O O9 0.664653 0.000000 0.274517
O O10 0.615896 0.723434 0.182869
O O11 0.077777 0.716946 0.672643
O O12 0.154827 0.792192 0.635854
O O13 0.969920 0.000000 0.552864
O O14 0.050708 0.271371 0.755481
O O15 0.885308 0.278833 0.726879
O O16 0.034886 0.000000 0.803750
O O17 0.656558 0.500000 0.782267
O O18 0.842019 0.771781 0.926492
O O19 0.763906 0.000000 0.681481
O O20 0.533697 0.000000 0.071828
#
# Coordination Sequence:
#
# PCOD9131592 Si02
#       8
#     4   4   4   4   4   4   4   4
#     4   9  16  29  48  70  95 125 159 198 243 288
#     4  10  18  29  49  75  98 123 160 204 240 280
#     4   9  17  30  49  72  98 129 164 197 234 284
#     4  10  19  31  50  75  98 124 162 205 238 275
#     4   8  14  25  45  68  89 118 158 195 230 278
#     4   9  14  25  46  71  93 117 159 205 233 269
#     4  10  19  31  48  71  99 131 159 193 245 293
#     4   9  15  26  47  72  96 123 159 199 237 279
#
# _framework density 19.857838999999998
#
# number of rings (size 3 to 8) (size 9 to 14) (size 15 to 20)
#    0.000    2.750    2.500    1.500    0.000    0.000 
#    0.000    1.875    0.000   11.250    0.000    0.000 
#    0.000    0.000    0.000    0.000    0.000    0.000 
#
# Total GULP energy -89238.512127 kJ/mol
# GULP energy per Si atom -5577.407008 kJ/mol
# Density = 1.981264 g / cm^3
# Si number density = 19.857839 Si / 1000 Ang^3
#
#
#
# Elastic Constant Matrix: (Units=GPa)
#
#
# Indices 1 2 3 4 5 6 
#
# 1 200.3435 -1.3741 98.4569 0.0019 5.8042 -0.0001
# 2 -1.3741 48.9733 0.1828 -0.0029 -3.6842 0.0000
# 3 98.4569 0.1828 132.1960 -0.0050 -2.0435 0.0002
# 4 0.0019 -0.0029 -0.0050 2.9416 0.0005 6.8477
# 5 5.8042 -3.6842 -2.0435 0.0005 24.1706 0.0003
# 6 -0.0001 0.0000 0.0002 6.8477 0.0003 16.6950
#
#
#
# Elastic Compliance Matrix: (Units=1/GPa)
#
#
# Indices 1 2 3 4 5 6 
#
# 1 0.008014 0.000065 -0.006006 -0.000339 -0.002422 0.000139
# 2 0.000065 0.020657 -0.000029 0.000444 0.003131 -0.000182
# 3 -0.006006 -0.000029 0.012076 0.000541 0.002459 -0.000222
# 4 -0.000339 0.000444 0.000541 7.521681 0.000093 -3.085120
# 5 -0.002422 0.003131 0.002459 0.000093 0.042639 -0.000039
# 6 0.000139 -0.000182 -0.000222 -3.085120 -0.000039 1.325303
#
#
# Mechanical properties :
#
#
# Convention : Reuss Voigt Hill
#
# Bulk Modulus (GPa) = 34.71367 64.00488 49.35928
# Shear Modulus (GPa) = 0.55854 27.71124 14.13489
#
# Velocity S-wave (km/s) = 0.53092 3.73967 2.67086
# Velocity P-wave (km/s) = 4.23023 7.13781 5.86699
#
# Compressibility (1/GPa) = 0.02880710
#
# Stress axis : x y z
#
# Youngs Moduli (GPa) = 124.78787 48.41032 82.81111
#
# Poissons Ratio (x) = -0.00315 0.49736
# Poissons Ratio (y) = -0.00811 0.00237
# Poissons Ratio (z) = 0.74946 0.00138
#
# Static dielectric constant tensor:
#      x y z
#    x 1.711430 0.000000 0.002270 
#    y 0.000000 1.757200 0.000000 
#    z 0.002270 0.000000 1.656720 
# 
# From -- ./inp_files/23766.got.cif
#   From: 2010.05.17/outbox.cif.g08.bks.cpg/sg8_12_cif.got.tgz:23766.got - 2010.06.03 19:46:02.
