data_PCOD9131653
_publ_section_title
;
Structure prediction by ZEFSAII (Michael W. Deem and Ramdas Pophale) SiO2 
 PCOD9131653
Probable space group: C M
;
_chemical_formula_sum "Si O2"
_cell_formula_units_Z 32
_cell_length_a 28.612596
_cell_length_b 8.407433
_cell_length_c 12.252600
_cell_angle_alpha 90.000000
_cell_angle_beta 29.638948
_cell_angle_gamma 90.000000
_cell_volume 1457.619077
_symmetry_space_group_name_H-M "C M"
_symmetry_group_IT_number 8
_symmetry_cell_setting 'monoclinic'
loop_
_space_group_symop_operation_xyz
x,y,z
x,-y,z
1/2+x,1/2+y,z
1/2+x,1/2-y,z
loop_
_atom_site_type_symbol
_atom_site_label
_atom_site_fract_x
_atom_site_fract_y
_atom_site_fract_z
Si Si1 0.830520 0.313692 0.842960
Si Si2 0.020333 0.191660 0.872433
Si Si3 0.128547 0.682168 0.198654
Si Si4 0.268548 0.686679 0.186532
Si Si5 0.974514 0.183711 0.373544
Si Si6 0.563896 0.686062 0.546028
Si Si7 0.740392 0.309795 0.469840
Si Si8 0.390254 0.185690 0.325521
O O1 0.851353 0.500000 0.806306
O O2 0.895660 0.230436 0.621922
O O3 0.721831 0.287496 0.024919
O O4 0.838077 0.236124 0.948021
O O5 0.010837 0.237408 0.764027
O O6 0.129211 0.222553 0.686243
O O7 0.004771 0.000000 0.911347
O O8 0.955583 0.285000 0.087569
O O9 0.158723 0.500000 0.141730
O O10 0.060099 0.718357 0.441259
O O11 0.068225 0.718442 0.214049
O O12 0.247184 0.500000 0.218415
O O13 0.174282 0.790615 0.355972
O O14 0.291750 0.722613 0.264685
O O15 0.932208 0.219384 0.341211
O O16 0.998999 0.000000 0.334984
O O17 0.544653 0.500000 0.565430
O O18 0.753726 0.500000 0.429394
O O19 0.787168 0.264937 0.489981
O O20 0.388152 0.000000 0.359937
#
# Coordination Sequence:
#
# PCOD9131653 Si02
#       8
#     4   4   4   4   4   4   4   4
#     4  11  22  40  64  90 122 158 196 242 299 355
#     4   9  19  37  60  85 116 154 192 233 287 351
#     4  11  22  39  63  92 123 156 197 243 297 356
#     4  10  18  31  56  90 122 151 191 239 289 348
#     4  12  26  44  62  84 117 157 204 252 297 349
#     4   9  17  33  57  86 121 157 192 233 290 353
#     4   9  20  39  60  83 117 157 192 233 292 354
#     4  11  24  41  60  84 114 150 198 249 295 348
#
# _framework density 21.953609
#
# number of rings (size 3 to 8) (size 9 to 14) (size 15 to 20)
#    0.000    1.750    0.000    7.500    0.000    5.500 
#    0.000    6.250    0.000    0.000    0.000    0.000 
#    0.000    0.000    0.000    0.000    0.000    0.000 
#
# Total GULP energy -89458.049092 kJ/mol
# GULP energy per Si atom -5591.128068 kJ/mol
# Density = 2.190364 g / cm^3
# Si number density = 21.953609 Si / 1000 Ang^3
#
#
#
# Elastic Constant Matrix: (Units=GPa)
#
#
# Indices 1 2 3 4 5 6 
#
# 1 108.9173 5.2915 -4.8959 0.0000 -2.0319 0.0000
# 2 5.2915 48.8687 -11.2643 0.0000 4.1364 0.0000
# 3 -4.8959 -11.2643 30.0492 0.0000 -2.2082 0.0000
# 4 0.0000 0.0000 0.0000 29.4376 0.0000 7.5223
# 5 -2.0319 4.1364 -2.2082 0.0000 21.9533 0.0000
# 6 0.0000 0.0000 0.0000 7.5223 0.0000 29.4318
#
#
#
# Elastic Compliance Matrix: (Units=1/GPa)
#
#
# Indices 1 2 3 4 5 6 
#
# 1 0.009300 -0.000805 0.001298 0.000000 0.001143 0.000000
# 2 -0.000805 0.022723 0.008127 0.000000 -0.003538 0.000000
# 3 0.001298 0.008127 0.036704 0.000000 0.002281 0.000000
# 4 0.000000 0.000000 0.000000 0.036344 0.000000 -0.009289
# 5 0.001143 -0.003538 0.002281 0.000000 0.046553 0.000000
# 6 0.000000 0.000000 0.000000 -0.009289 0.000000 0.036351
#
#
# Mechanical properties :
#
#
# Convention : Reuss Voigt Hill
#
# Bulk Modulus (GPa) = 11.63243 18.45532 15.04387
# Shear Modulus (GPa) = 25.07637 29.41148 27.24392
#
# Velocity S-wave (km/s) = 3.38338 3.66418 3.52657
# Velocity P-wave (km/s) = 4.53576 5.13092 4.84249
#
# Compressibility (1/GPa) = 0.08596659
#
# Stress axis : x y z
#
# Youngs Moduli (GPa) = 107.52669 44.00854 27.24482
#
# Poissons Ratio (x) = 0.03541 -0.03535
# Poissons Ratio (y) = 0.08652 -0.22141
# Poissons Ratio (z) = -0.13953 -0.35765
#
# Static dielectric constant tensor:
#      x y z
#    x 1.845900 0.000000 -0.032760 
#    y 0.000000 1.739030 0.000000 
#    z -0.032760 0.000000 1.817850 
# 
# From -- ./inp_files/24807.got.cif
#   From: 2010.05.17/outbox.cif.g08.bks.cpg/sg8_13_cif.got.tgz:24807.got - 2010.06.03 19:46:02.
