data_PCOD9131806
_publ_section_title
;
Structure prediction by ZEFSAII (Michael W. Deem and Ramdas Pophale) SiO2 
 PCOD9131806
Probable space group: C M
;
_chemical_formula_sum "Si O2"
_cell_formula_units_Z 20
_cell_length_a 7.119370
_cell_length_b 15.730649
_cell_length_c 9.741021
_cell_angle_alpha 90.000000
_cell_angle_beta 48.406007
_cell_angle_gamma 90.000000
_cell_volume 815.863412
_symmetry_space_group_name_H-M "C M"
_symmetry_group_IT_number 8
_symmetry_cell_setting 'monoclinic'
loop_
_space_group_symop_operation_xyz
x,y,z
x,-y,z
1/2+x,1/2+y,z
1/2+x,1/2-y,z
loop_
_atom_site_type_symbol
_atom_site_label
_atom_site_fract_x
_atom_site_fract_y
_atom_site_fract_z
Si Si1 0.462040 0.500000 0.745100
Si Si2 0.234763 0.322232 0.456398
Si Si3 0.167735 0.000000 0.952327
Si Si4 0.761084 0.000000 0.385469
Si Si5 0.296088 0.175742 0.214150
Si Si6 0.077279 0.356485 0.830592
Si Si7 0.748415 0.500000 0.343558
O O1 0.559332 0.500000 0.852178
O O2 0.295178 0.417330 0.785027
O O3 0.693616 0.500000 0.528601
O O4 0.111032 0.411646 0.473459
O O5 0.213903 0.240015 0.372871
O O6 0.525200 0.342487 0.283330
O O7 0.166942 0.309888 0.648749
O O8 0.348215 0.080509 0.899310
O O9 0.927056 0.000000 0.168569
O O10 0.964529 0.000000 0.414584
O O11 0.386040 0.085281 0.229019
O O12 0.480448 0.202607 0.002682
#
# Coordination Sequence:
#
# PCOD9131806 Si02
#       7
#     2   4   2   2   4   4   2
#     4  11  22  40  78 109 131 185 243 286 359 428
#     4  11  24  44  71 101 140 187 234 288 355 419
#     4  11  22  40  78 109 131 185 243 286 359 428
#     4  10  18  45  69  93 146 179 227 299 343 415
#     4  11  24  44  71 101 140 187 234 288 355 419
#     4  11  22  46  72  97 150 186 220 305 360 399
#     4  10  18  45  69  93 146 179 227 299 343 415
#
# _framework density 24.513905999999999
#
# number of rings (size 3 to 8) (size 9 to 14) (size 15 to 20)
#    0.000    1.200    8.000    1.200    0.000    4.800 
#    3.600    3.000    0.000    0.000    0.000    0.000 
#    0.000    0.000    0.000    0.000    0.000    0.000 
#
# Total GULP energy -55855.365645 kJ/mol
# GULP energy per Si atom -5585.536565 kJ/mol
# Density = 2.445811 g / cm^3
# Si number density = 24.513906 Si / 1000 Ang^3
#
#
#
# Elastic Constant Matrix: (Units=GPa)
#
#
# Indices 1 2 3 4 5 6 
#
# 1 73.9715 15.2203 31.3701 0.0000 29.6063 0.0000
# 2 15.2203 115.8775 50.4486 0.0000 20.4196 0.0000
# 3 31.3701 50.4486 230.3908 0.0000 28.7666 0.0000
# 4 0.0000 0.0000 0.0000 35.5933 0.0000 6.7258
# 5 29.6063 20.4196 28.7666 0.0000 36.5722 0.0000
# 6 0.0000 0.0000 0.0000 6.7258 0.0000 6.4497
#
#
#
# Elastic Compliance Matrix: (Units=1/GPa)
#
#
# Indices 1 2 3 4 5 6 
#
# 1 0.020154 0.000540 -0.000873 0.000000 -0.015929 0.000000
# 2 0.000540 0.010137 -0.001699 0.000000 -0.004761 0.000000
# 3 -0.000873 -0.001699 0.005128 0.000000 -0.002378 0.000000
# 4 0.000000 0.000000 0.000000 0.034990 0.000000 -0.036488
# 5 -0.015929 -0.004761 -0.002378 0.000000 0.044767 0.000000
# 6 0.000000 0.000000 0.000000 -0.036488 0.000000 0.193096
#
#
# Mechanical properties :
#
#
# Convention : Reuss Voigt Hill
#
# Bulk Modulus (GPa) = 31.89276 68.25755 50.07515
# Shear Modulus (GPa) = 15.48999 37.26976 26.37987
#
# Velocity S-wave (km/s) = 2.51646 3.90340 3.28398
# Velocity P-wave (km/s) = 4.63484 6.94408 5.90347
#
# Compressibility (1/GPa) = 0.03135508
#
# Stress axis : x y z
#
# Youngs Moduli (GPa) = 49.61895 98.64397 194.99568
#
# Poissons Ratio (x) = -0.05329 0.17032
# Poissons Ratio (y) = -0.02680 0.33127
# Poissons Ratio (z) = 0.04334 0.16758
#
# Static dielectric constant tensor:
#      x y z
#    x 2.014520 0.000000 0.012430 
#    y 0.000000 2.368340 0.000000 
#    z 0.012430 0.000000 1.944780 
# 
# From -- ./inp_files/8282.got.cif
#   From: 2010.05.17/outbox.cif.g08.bks.cpg/sg8_5_cif.got.tgz:8282.got - 2010.06.03 19:46:02.
