data_PCOD9131043
_publ_section_title
;
Structure prediction by ZEFSAII (Michael W. Deem and Ramdas Pophale) SiO2 
 PCOD9131043
Probable space group: P M
;
_chemical_formula_sum "Si O2"
_cell_formula_units_Z 14
_cell_length_a 5.075972
_cell_length_b 13.470434
_cell_length_c 10.539779
_cell_angle_alpha 90.000000
_cell_angle_beta 113.007933
_cell_angle_gamma 90.000000
_cell_volume 663.334926
_symmetry_space_group_name_H-M "P M"
_symmetry_group_IT_number 6
_symmetry_cell_setting 'monoclinic'
loop_
_space_group_symop_operation_xyz
x,y,z
x,-y,z
loop_
_atom_site_type_symbol
_atom_site_label
_atom_site_fract_x
_atom_site_fract_y
_atom_site_fract_z
Si Si1 0.629090 0.753978 0.572120
Si Si2 0.878418 0.317779 0.863806
Si Si3 0.738307 0.108155 0.911035
Si Si4 0.191683 0.884038 0.636570
Si Si5 0.528887 0.242175 0.277875
Si Si6 0.498591 0.614174 0.029310
Si Si7 0.968436 0.113380 0.226789
O O1 0.696251 0.678674 0.699773
O O2 0.362843 0.823842 0.560357
O O3 0.576239 0.708187 0.424086
O O4 0.902673 0.826634 0.613415
O O5 0.919255 0.200169 0.895306
O O6 0.711758 0.355221 0.956605
O O7 0.180415 0.370921 0.914356
O O8 0.420858 0.120298 0.795616
O O9 0.846586 0.000000 0.888039
O O10 0.755717 0.110447 0.065398
O O11 0.144267 0.000000 0.598734
O O12 0.524718 0.316924 0.158646
O O13 0.787228 0.165379 0.302043
O O14 0.237925 0.179041 0.235259
O O15 0.547117 0.500000 0.072712
O O16 0.052685 0.000000 0.270706
#
# Coordination Sequence:
#
# PCOD9131043 Si02
#       7
#     2   2   2   2   2   2   2
#     4  11  24  38  64  90 129 170 205 258 318 363
#     4  11  22  44  66  95 126 159 213 261 307 375
#     4   9  18  35  60  93 128 165 207 253 301 355
#     4  10  21  36  58  90 131 176 218 249 294 365
#     4  12  24  43  62  95 132 168 208 259 312 377
#     4  12  25  45  70  92 119 161 212 267 325 377
#     4  11  23  37  62  95 133 173 210 253 306 366
#
# _framework density 21.105478000000002
#
# number of rings (size 3 to 8) (size 9 to 14) (size 15 to 20)
#    0.000    1.143    2.857    3.857    0.000    4.000 
#    0.000    6.429    0.000    0.000    0.000    0.000 
#    0.000    0.000    0.000    0.000    0.000    0.000 
#
# Total GULP energy -78283.104678 kJ/mol
# GULP energy per Si atom -5591.650334 kJ/mol
# Density = 2.105744 g / cm^3
# Si number density = 21.105478 Si / 1000 Ang^3
#
#
#
# Elastic Constant Matrix: (Units=GPa)
#
#
# Indices 1 2 3 4 5 6 
#
# 1 99.0296 18.6372 0.1499 0.0000 -2.9682 0.0000
# 2 18.6372 87.9993 19.4336 0.0000 -4.9214 0.0000
# 3 0.1499 19.4336 110.5052 0.0000 -12.0565 0.0000
# 4 0.0000 0.0000 0.0000 3.9626 0.0000 -3.4641
# 5 -2.9682 -4.9214 -12.0565 0.0000 24.6890 0.0000
# 6 0.0000 0.0000 0.0000 -3.4641 0.0000 -5.7564
#
#
#
# Elastic Compliance Matrix: (Units=1/GPa)
#
#
# Indices 1 2 3 4 5 6 
#
# 1 0.010560 -0.002288 0.000504 0.000000 0.001059 0.000000
# 2 -0.002288 0.012366 -0.002041 0.000000 0.001193 0.000000
# 3 0.000504 -0.002041 0.009897 0.000000 0.004487 0.000000
# 4 0.000000 0.000000 0.000000 0.165365 0.000000 -0.099514
# 5 0.001059 0.001193 0.004487 0.000000 0.043060 0.000000
# 6 0.000000 0.000000 0.000000 -0.099514 0.000000 -0.113834
#
#
# Mechanical properties :
#
#
# Convention : Reuss Voigt Hill
#
# Bulk Modulus (GPa) = 39.72906 41.55286 40.64096
# Shear Modulus (GPa) = 34.85399 21.86661 28.36030
#
# Velocity S-wave (km/s) = 4.06817 3.22229 3.66968
# Velocity P-wave (km/s) = 6.39778 5.79440 6.10355
#
# Compressibility (1/GPa) = 0.02517049
#
# Stress axis : x y z
#
# Youngs Moduli (GPa) = 94.70009 80.86744 101.03869
#
# Poissons Ratio (x) = 0.18506 -0.05089
# Poissons Ratio (y) = 0.21671 0.20626
# Poissons Ratio (z) = -0.04770 0.16509
#
# Static dielectric constant tensor:
#      x y z
#    x 1.729220 0.000000 -0.018230 
#    y 0.000000 1.761620 0.000000 
#    z -0.018230 0.000000 1.841910 
# 
# From -- ./inp_files/4423.got.cif
#   From: 2010.05.17/outbox.cif.g08.bks.cpg/sg6_3_cif.got.tgz:4423.got - 2010.06.03 19:42:10.
