data_PCOD9131895
_publ_section_title
;
Structure prediction by ZEFSAII (Michael W. Deem and Ramdas Pophale) SiO2 
 PCOD9131895
Probable space group: C M
;
_chemical_formula_sum "Si O2"
_cell_formula_units_Z 32
_cell_length_a 20.559791
_cell_length_b 8.753948
_cell_length_c 12.460932
_cell_angle_alpha 90.000000
_cell_angle_beta 53.646882
_cell_angle_gamma 90.000000
_cell_volume 1806.232008
_symmetry_space_group_name_H-M "C M"
_symmetry_group_IT_number 8
_symmetry_cell_setting 'monoclinic'
loop_
_space_group_symop_operation_xyz
x,y,z
x,-y,z
1/2+x,1/2+y,z
1/2+x,1/2-y,z
loop_
_atom_site_type_symbol
_atom_site_label
_atom_site_fract_x
_atom_site_fract_y
_atom_site_fract_z
Si Si1 0.937390 0.317035 0.063140
Si Si2 0.595656 0.817488 0.033833
Si Si3 0.704346 0.317030 0.100055
Si Si4 0.231560 0.817839 0.744047
Si Si5 0.676873 0.180945 0.578834
Si Si6 0.340770 0.317161 0.811249
Si Si7 0.752241 0.683497 0.291844
Si Si8 0.499852 0.682014 0.779508
O O1 0.939555 0.500000 0.039845
O O2 0.846907 0.277810 0.186356
O O3 0.004430 0.283884 0.087859
O O4 0.963529 0.232188 0.929414
O O5 0.625971 0.744991 0.115024
O O6 0.606473 0.000000 0.027090
O O7 0.655181 0.750803 0.884216
O O8 0.708947 0.500000 0.084492
O O9 0.710194 0.278503 0.219486
O O10 0.780450 0.245334 0.962334
O O11 0.224595 0.760642 0.629740
O O12 0.309468 0.757117 0.732013
O O13 0.228159 0.000000 0.752440
O O14 0.712871 0.232913 0.430386
O O15 0.584072 0.234430 0.678087
O O16 0.681543 0.000000 0.587612
O O17 0.331974 0.500000 0.813906
O O18 0.431778 0.281033 0.757453
O O19 0.746052 0.500000 0.313370
O O20 0.513431 0.500000 0.766117
#
# Coordination Sequence:
#
# PCOD9131895 Si02
#       8
#     4   4   4   4   4   4   4   4
#     4  10  20  36  59  85 115 151 191 238 284 335
#     4  10  19  32  55  86 117 148 186 236 283 334
#     4  10  19  33  56  83 114 152 188 231 284 338
#     4  11  21  35  57  84 115 152 191 235 289 344
#     4  12  25  40  59  83 116 156 196 240 292 346
#     4  10  20  34  56  87 118 147 187 238 286 337
#     4  10  22  40  59  82 114 154 197 237 286 344
#     4  11  22  36  59  88 117 150 192 241 286 340
#
# _framework density 17.716439000000001
#
# number of rings (size 3 to 8) (size 9 to 14) (size 15 to 20)
#    0.000    1.500    2.500    5.250    0.000    3.500 
#    0.000    1.250    0.000    3.000    0.000    0.000 
#    0.000    0.000    0.000    0.000    0.000    0.000 
#
# Total GULP energy -89384.638723 kJ/mol
# GULP energy per Si atom -5586.539920 kJ/mol
# Density = 1.767612 g / cm^3
# Si number density = 17.716439 Si / 1000 Ang^3
#
#
#
# Elastic Constant Matrix: (Units=GPa)
#
#
# Indices 1 2 3 4 5 6 
#
# 1 141.4879 57.5017 52.9843 0.0000 21.5893 0.0000
# 2 57.5017 77.3117 36.3032 0.0000 10.4812 0.0000
# 3 52.9843 36.3032 79.0709 0.0000 13.7961 0.0000
# 4 0.0000 0.0000 0.0000 29.4288 0.0000 2.2691
# 5 21.5893 10.4812 13.7961 0.0000 24.8758 0.0000
# 6 0.0000 0.0000 0.0000 2.2691 0.0000 25.7782
#
#
#
# Elastic Compliance Matrix: (Units=1/GPa)
#
#
# Indices 1 2 3 4 5 6 
#
# 1 0.012011 -0.006197 -0.004251 0.000000 -0.005455 0.000000
# 2 -0.006197 0.019898 -0.004936 0.000000 -0.000268 0.000000
# 3 -0.004251 -0.004936 0.018550 0.000000 -0.004519 0.000000
# 4 0.000000 0.000000 0.000000 0.034213 0.000000 -0.003011
# 5 -0.005455 -0.000268 -0.004519 0.000000 0.047553 0.000000
# 6 0.000000 0.000000 0.000000 -0.003011 0.000000 0.039057
#
#
# Mechanical properties :
#
#
# Convention : Reuss Voigt Hill
#
# Bulk Modulus (GPa) = 50.78783 65.71654 58.25218
# Shear Modulus (GPa) = 23.96764 26.08867 25.02815
#
# Velocity S-wave (km/s) = 3.68210 3.84157 3.76268
# Velocity P-wave (km/s) = 6.84152 7.53996 7.19921
#
# Compressibility (1/GPa) = 0.01968976
#
# Stress axis : x y z
#
# Youngs Moduli (GPa) = 83.25875 50.25564 53.90785
#
# Poissons Ratio (x) = 0.31146 0.22917
# Poissons Ratio (y) = 0.51599 0.26610
# Poissons Ratio (z) = 0.35394 0.24807
#
# Static dielectric constant tensor:
#      x y z
#    x 1.624090 0.000000 0.005520 
#    y 0.000000 1.594410 0.000000 
#    z 0.005520 0.000000 1.562140 
# 
# From -- ./inp_files/23863.got.cif
#   From: 2010.05.17/outbox.cif.g08.bks.cpg/sg8_12_cif.got.tgz:23863.got - 2010.06.03 19:46:02.
