data_PCOD9131161
_publ_section_title
;
Structure prediction by ZEFSAII (Michael W. Deem and Ramdas Pophale) SiO2 
 PCOD9131161
Probable space group: P M
;
_chemical_formula_sum "Si O2"
_cell_formula_units_Z 14
_cell_length_a 6.676790
_cell_length_b 17.550141
_cell_length_c 5.115795
_cell_angle_alpha 90.000000
_cell_angle_beta 86.103513
_cell_angle_gamma 90.000000
_cell_volume 598.076039
_symmetry_space_group_name_H-M "P M"
_symmetry_group_IT_number 6
_symmetry_cell_setting 'monoclinic'
loop_
_space_group_symop_operation_xyz
x,y,z
x,-y,z
loop_
_atom_site_type_symbol
_atom_site_label
_atom_site_fract_x
_atom_site_fract_y
_atom_site_fract_z
Si Si1 0.639720 0.917284 0.583320
Si Si2 0.733874 0.761744 0.441575
Si Si3 0.785035 0.639024 0.801571
Si Si4 0.071596 0.135341 0.446947
Si Si5 0.431155 0.677986 0.112548
Si Si6 0.330348 0.849316 0.948238
Si Si7 0.039699 0.589302 0.279206
O O1 0.603215 0.838583 0.431818
O O2 0.534320 0.895778 0.865558
O O3 0.881778 0.915440 0.552128
O O4 0.568255 0.000000 0.503358
O O5 0.770659 0.729203 0.729652
O O6 0.605017 0.700273 0.302529
O O7 0.956179 0.788678 0.346930
O O8 0.923441 0.616406 0.030252
O O9 0.895392 0.603955 0.540278
O O10 0.551843 0.624127 0.896166
O O11 0.201027 0.147045 0.693325
O O12 0.208283 0.111568 0.193777
O O13 0.246565 0.636160 0.264640
O O14 0.364811 0.759434 0.999893
O O15 0.082091 0.500000 0.258542
#
# Coordination Sequence:
#
# PCOD9131161 Si02
#       7
#     2   2   2   2   2   2   2
#     4  10  25  46  72 109 155 194 250 317 368 425
#     4  10  23  47  74 108 144 198 248 299 366 432
#     4  12  25  50  76 107 150 193 245 295 370 442
#     4  10  26  42  69 102 148 185 246 304 363 430
#     4  12  26  46  79 113 144 195 248 313 356 449
#     4  12  24  44  75 106 142 193 252 297 370 436
#     4  12  30  49  77 113 148 192 241 305 380 444
#
# _framework density 23.408394999999999
#
# number of rings (size 3 to 8) (size 9 to 14) (size 15 to 20)
#    0.857    0.000    2.857    3.000    6.000    2.286 
#    0.000    5.000    0.000    0.000    0.000    0.000 
#    0.000    0.000    0.000    0.000    0.000    0.000 
#
# Total GULP energy -78062.357704 kJ/mol
# GULP energy per Si atom -5575.882693 kJ/mol
# Density = 2.335512 g / cm^3
# Si number density = 23.408395 Si / 1000 Ang^3
#
#
#
# Elastic Constant Matrix: (Units=GPa)
#
#
# Indices 1 2 3 4 5 6 
#
# 1 97.7287 49.6839 69.8972 0.0000 -33.4415 0.0000
# 2 49.6839 132.2789 36.6543 0.0000 -8.9132 0.0000
# 3 69.8972 36.6543 152.7626 0.0000 -15.5174 0.0000
# 4 0.0000 0.0000 0.0000 9.6677 0.0000 -0.6729
# 5 -33.4415 -8.9132 -15.5174 0.0000 50.0221 0.0000
# 6 0.0000 0.0000 0.0000 -0.6729 0.0000 8.8594
#
#
#
# Elastic Compliance Matrix: (Units=1/GPa)
#
#
# Indices 1 2 3 4 5 6 
#
# 1 0.022697 -0.005556 -0.007859 0.000000 0.011746 0.000000
# 2 -0.005556 0.009495 0.000060 0.000000 -0.002004 0.000000
# 3 -0.007859 0.000060 0.009907 0.000000 -0.002170 0.000000
# 4 0.000000 0.000000 0.000000 0.103987 0.000000 0.007898
# 5 0.011746 -0.002004 -0.002170 0.000000 0.026814 0.000000
# 6 0.000000 0.000000 0.000000 0.007898 0.000000 0.113474
#
#
# Mechanical properties :
#
#
# Convention : Reuss Voigt Hill
#
# Bulk Modulus (GPa) = 64.97671 77.24899 71.11285
# Shear Modulus (GPa) = 15.71278 28.81216 22.26247
#
# Velocity S-wave (km/s) = 2.59365 3.51215 3.08725
# Velocity P-wave (km/s) = 6.06527 7.03698 6.56912
#
# Compressibility (1/GPa) = 0.01539013
#
# Stress axis : x y z
#
# Youngs Moduli (GPa) = 44.05863 105.32060 100.93779
#
# Poissons Ratio (x) = 0.58514 0.79326
# Poissons Ratio (y) = 0.24478 -0.00609
# Poissons Ratio (z) = 0.34625 -0.00636
#
# Static dielectric constant tensor:
#      x y z
#    x 1.901920 0.000000 -0.037290 
#    y 0.000000 1.925910 0.000000 
#    z -0.037290 0.000000 1.963700 
# 
# From -- ./inp_files/429.got.cif
#   From: 2010.05.17/outbox.cif.g08.bks.cpg/sg6_1_cif.got.tgz:429.got - 2010.06.03 19:42:10.
