data_PCOD9131138
_publ_section_title
;
Structure prediction by ZEFSAII (Michael W. Deem and Ramdas Pophale) SiO2 
 PCOD9131138
Probable space group: P M
;
_chemical_formula_sum "Si O2"
_cell_formula_units_Z 14
_cell_length_a 9.373215
_cell_length_b 8.539441
_cell_length_c 11.626945
_cell_angle_alpha 90.000000
_cell_angle_beta 39.535013
_cell_angle_gamma 90.000000
_cell_volume 592.401177
_symmetry_space_group_name_H-M "P M"
_symmetry_group_IT_number 6
_symmetry_cell_setting 'monoclinic'
loop_
_space_group_symop_operation_xyz
x,y,z
x,-y,z
loop_
_atom_site_type_symbol
_atom_site_label
_atom_site_fract_x
_atom_site_fract_y
_atom_site_fract_z
Si Si1 0.698780 0.322387 0.038970
Si Si2 0.776385 0.254312 0.730008
Si Si3 0.135181 0.687644 0.896351
Si Si4 0.869146 0.677091 0.411713
Si Si5 0.487358 0.820000 0.504472
Si Si6 0.260334 0.178234 0.060829
Si Si7 0.269151 0.687569 0.418752
O O1 0.668682 0.500000 0.098446
O O2 0.456692 0.251023 0.213160
O O3 0.768100 0.330116 0.862789
O O4 0.896314 0.256805 0.994861
O O5 0.771374 0.319867 0.602268
O O6 0.041654 0.209673 0.564979
O O7 0.531305 0.174284 0.890781
O O8 0.157223 0.500000 0.861190
O O9 0.316981 0.785151 0.713516
O O10 0.178796 0.724119 0.001174
O O11 0.858317 0.500000 0.377544
O O12 0.724977 0.779363 0.413207
O O13 0.123968 0.737070 0.247812
O O14 0.401160 0.708162 0.456714
O O15 0.479658 0.000000 0.471798
O O16 0.183202 0.000000 0.102214
O O17 0.205789 0.500000 0.441163
#
# Coordination Sequence:
#
# PCOD9131138 Si02
#       7
#     2   2   2   2   2   2   2
#     4  10  22  42  70 107 138 173 231 298 352 408
#     4  12  25  43  70 103 145 187 233 290 356 417
#     4  11  22  43  76 105 136 181 239 297 350 419
#     4  12  26  45  75 107 139 185 244 296 349 421
#     4  12  25  44  71 102 143 186 232 295 364 421
#     4  12  28  48  71 103 147 189 234 294 363 426
#     4  11  23  43  73 105 138 181 239 298 350 418
#
# _framework density 23.632633999999999
#
# number of rings (size 3 to 8) (size 9 to 14) (size 15 to 20)
#    0.000    0.571    2.857    5.571    0.000    6.286 
#    0.000    2.857    0.000    0.000    0.000    0.000 
#    0.000    0.000    0.000    0.000    0.000    0.000 
#
# Total GULP energy -78056.106427 kJ/mol
# GULP energy per Si atom -5575.436173 kJ/mol
# Density = 2.357885 g / cm^3
# Si number density = 23.632634 Si / 1000 Ang^3
#
#
#
# Elastic Constant Matrix: (Units=GPa)
#
#
# Indices 1 2 3 4 5 6 
#
# 1 103.0858 -1.3061 18.7986 0.0000 -21.3829 0.0000
# 2 -1.3061 68.0801 14.6723 0.0000 -8.4813 0.0000
# 3 18.7986 14.6723 167.8622 0.0000 -18.9241 0.0000
# 4 0.0000 0.0000 0.0000 13.2730 0.0000 -10.8149
# 5 -21.3829 -8.4813 -18.9241 0.0000 42.2499 0.0000
# 6 0.0000 0.0000 0.0000 -10.8149 0.0000 -8.4237
#
#
#
# Elastic Compliance Matrix: (Units=1/GPa)
#
#
# Indices 1 2 3 4 5 6 
#
# 1 0.010972 0.001041 -0.000706 0.000000 0.005446 0.000000
# 2 0.001041 0.015334 -0.001106 0.000000 0.003110 0.000000
# 3 -0.000706 -0.001106 0.006390 0.000000 0.002283 0.000000
# 4 0.000000 0.000000 0.000000 0.036822 0.000000 -0.047274
# 5 0.005446 0.003110 0.002283 0.000000 0.028072 0.000000
# 6 0.000000 0.000000 0.000000 -0.047274 0.000000 -0.058019
#
#
# Mechanical properties :
#
#
# Convention : Reuss Voigt Hill
#
# Bulk Modulus (GPa) = 32.09782 44.81752 38.45767
# Shear Modulus (GPa) = 97.08954 29.87739 63.48347
#
# Velocity S-wave (km/s) = 6.41654 3.55948 5.18854
# Velocity P-wave (km/s) = 8.27693 5.99154 7.22517
#
# Compressibility (1/GPa) = 0.03115477
#
# Stress axis : x y z
#
# Youngs Moduli (GPa) = 91.13944 65.21295 156.48504
#
# Poissons Ratio (x) = -0.06789 0.11045
# Poissons Ratio (y) = -0.09488 0.17313
# Poissons Ratio (z) = 0.06433 0.07215
#
# Static dielectric constant tensor:
#      x y z
#    x 1.983360 0.000000 -0.004690 
#    y 0.000000 1.824900 0.000000 
#    z -0.004690 0.000000 1.946280 
# 
# From -- ./inp_files/4606.got.cif
#   From: 2010.05.17/outbox.cif.g08.bks.cpg/sg6_3_cif.got.tgz:4606.got - 2010.06.03 19:42:10.
