data_PCOD9131472
_publ_section_title
;
Structure prediction by ZEFSAII (Michael W. Deem and Ramdas Pophale) SiO2 
 PCOD9131472
Probable space group: P C
;
_chemical_formula_sum "Si O2"
_cell_formula_units_Z 10
_cell_length_a 5.016480
_cell_length_b 15.840882
_cell_length_c 5.193525
_cell_angle_alpha 90.000000
_cell_angle_beta 81.152435
_cell_angle_gamma 90.000000
_cell_volume 407.795121
_symmetry_space_group_name_H-M "P C"
_symmetry_group_IT_number 7
_symmetry_cell_setting 'monoclinic'
loop_
_space_group_symop_operation_xyz
x,y,z
x,-y,1/2+z
loop_
_atom_site_type_symbol
_atom_site_label
_atom_site_fract_x
_atom_site_fract_y
_atom_site_fract_z
Si Si1 0.184710 0.833031 0.461930
Si Si2 0.069508 0.554581 0.460586
Si Si3 0.450232 0.331268 0.664493
Si Si4 0.704202 0.944358 0.354357
Si Si5 0.009878 0.304820 0.330049
O O1 0.329657 0.754571 0.300653
O O2 0.410948 0.904248 0.447961
O O3 0.077071 0.790501 0.740654
O O4 0.928116 0.872618 0.361125
O O5 0.006280 0.507867 0.204944
O O6 0.374470 0.589255 0.356032
O O7 0.940463 0.641813 0.582848
O O8 0.274211 0.342604 0.429234
O O9 0.757391 0.316369 0.551506
O O10 0.737120 0.015250 0.569126
#
# Coordination Sequence:
#
# PCOD9131472 Si02
#       5
#     2   2   2   2   2
#     4  11  26  46  74 107 148 190 244 295 354 444
#     4  11  24  48  72 109 148 190 242 303 356 424
#     4  11  25  46  76 105 144 197 241 293 362 422
#     4  12  28  48  76 108 146 188 236 300 368 424
#     4  11  25  46  76 105 144 197 241 293 362 422
#
# _framework density 24.522116
#
# number of rings (size 3 to 8) (size 9 to 14) (size 15 to 20)
#    0.000    0.800    2.000    3.600    8.400    6.400 
#    0.000    0.000    0.000    0.000    0.000    0.000 
#    0.000    0.000    0.000    0.000    0.000    0.000 
#
# Total GULP energy -55951.703863 kJ/mol
# GULP energy per Si atom -5595.170386 kJ/mol
# Density = 2.446630 g / cm^3
# Si number density = 24.522116 Si / 1000 Ang^3
#
#
#
# Elastic Constant Matrix: (Units=GPa)
#
#
# Indices 1 2 3 4 5 6 
#
# 1 87.8502 -3.7763 24.1470 0.0000 -12.9674 0.0000
# 2 -3.7763 58.1530 19.3240 0.0000 -1.4784 0.0000
# 3 24.1470 19.3240 112.5587 0.0000 -0.7600 0.0000
# 4 0.0000 0.0000 0.0000 41.0379 0.0000 -1.0716
# 5 -12.9674 -1.4784 -0.7600 0.0000 39.2897 0.0000
# 6 0.0000 0.0000 0.0000 -1.0716 0.0000 34.3547
#
#
#
# Elastic Compliance Matrix: (Units=1/GPa)
#
#
# Indices 1 2 3 4 5 6 
#
# 1 0.012950 0.001976 -0.003088 0.000000 0.004289 0.000000
# 2 0.001976 0.018553 -0.003601 0.000000 0.001281 0.000000
# 3 -0.003088 -0.003601 0.010158 0.000000 -0.000958 0.000000
# 4 0.000000 0.000000 0.000000 0.024388 0.000000 0.000761
# 5 0.004289 0.001281 -0.000958 0.000000 0.026897 0.000000
# 6 0.000000 0.000000 0.000000 0.000761 0.000000 0.029132
#
#
# Mechanical properties :
#
#
# Convention : Reuss Voigt Hill
#
# Bulk Modulus (GPa) = 31.02095 37.55014 34.28554
# Shear Modulus (GPa) = 35.14961 37.52762 36.33861
#
# Velocity S-wave (km/s) = 3.79011 3.91622 3.85368
# Velocity P-wave (km/s) = 5.64189 5.98290 5.81490
#
# Compressibility (1/GPa) = 0.03223628
#
# Stress axis : x y z
#
# Youngs Moduli (GPa) = 77.22055 53.89861 98.43989
#
# Poissons Ratio (x) = -0.10652 0.30403
# Poissons Ratio (y) = -0.15261 0.35444
# Poissons Ratio (z) = 0.23849 0.19406
#
# Static dielectric constant tensor:
#      x y z
#    x 1.948190 0.000000 0.054070 
#    y 0.000000 1.984040 0.000000 
#    z 0.054070 0.000000 1.988150 
# 
# From -- ./inp_files/115.got.cif
#   From: 2010.05.17/outbox.cif.g08.bks.cpg/sg7_cif.got.tgz:115.got - 2010.06.03 19:44:50.
