data_PCOD9131894
_publ_section_title
;
Structure prediction by ZEFSAII (Michael W. Deem and Ramdas Pophale) SiO2 
 PCOD9131894
Probable space group: C M
;
_chemical_formula_sum "Si O2"
_cell_formula_units_Z 32
_cell_length_a 20.664081
_cell_length_b 8.695025
_cell_length_c 25.618696
_cell_angle_alpha 90.000000
_cell_angle_beta 156.718201
_cell_angle_gamma 90.000000
_cell_volume 1819.365350
_symmetry_space_group_name_H-M "C M"
_symmetry_group_IT_number 8
_symmetry_cell_setting 'monoclinic'
loop_
_space_group_symop_operation_xyz
x,y,z
x,-y,z
1/2+x,1/2+y,z
1/2+x,1/2-y,z
loop_
_atom_site_type_symbol
_atom_site_label
_atom_site_fract_x
_atom_site_fract_y
_atom_site_fract_z
Si Si1 0.385520 0.684492 0.260060
Si Si2 0.337203 0.186470 0.002493
Si Si3 0.481080 0.182856 0.714886
Si Si4 0.658707 0.186312 0.183306
Si Si5 0.676525 0.183179 0.546823
Si Si6 0.475326 0.184910 0.218476
Si Si7 0.469953 0.685595 0.484289
Si Si8 0.357431 0.314245 0.513846
O O1 0.396974 0.500000 0.270091
O O2 0.229954 0.733134 0.179977
O O3 0.544853 0.751951 0.407425
O O4 0.384460 0.742148 0.200393
O O5 0.162993 0.257861 0.860803
O O6 0.325259 0.000000 0.991019
O O7 0.480454 0.238798 0.068977
O O8 0.398626 0.227392 0.106117
O O9 0.352470 0.253338 0.660726
O O10 0.424754 0.238645 0.615920
O O11 0.473615 0.000000 0.712129
O O12 0.798224 0.229107 0.328901
O O13 0.653231 0.000000 0.179827
O O14 0.612561 0.239832 0.555649
O O15 0.675954 0.000000 0.543812
O O16 0.667165 0.227973 0.363935
O O17 0.468259 0.000000 0.217513
O O18 0.483528 0.500000 0.490587
O O19 0.457112 0.727494 0.535408
O O20 0.364081 0.500000 0.524368
#
# Coordination Sequence:
#
# PCOD9131894 Si02
#       8
#     4   4   4   4   4   4   4   4
#     4  10  19  32  55  85 115 146 183 234 281 329
#     4  10  20  38  60  81 109 151 192 231 280 341
#     4  12  25  39  55  81 116 154 193 237 282 336
#     4   8  15  31  55  81 108 141 182 221 271 333
#     4  11  21  35  55  81 113 150 190 234 285 337
#     4  10  19  33  58  87 113 144 188 233 277 335
#     4   9  17  33  58  87 114 142 180 231 284 338
#     4  10  19  35  60  87 114 146 186 231 282 341
#
# _framework density 17.588550999999999
#
# number of rings (size 3 to 8) (size 9 to 14) (size 15 to 20)
#    0.000    2.000    2.500    3.375    0.000    1.000 
#    0.000    4.375    0.000    4.500    0.000    0.000 
#    0.000    0.000    0.000    0.000    0.000    0.000 
#
# Total GULP energy -89300.953733 kJ/mol
# GULP energy per Si atom -5581.309608 kJ/mol
# Density = 1.754852 g / cm^3
# Si number density = 17.588551 Si / 1000 Ang^3
#
#
#
# Elastic Constant Matrix: (Units=GPa)
#
#
# Indices 1 2 3 4 5 6 
#
# 1 159.9137 53.7818 82.1796 -0.0005 24.3678 0.0000
# 2 53.7818 48.2170 44.1948 -0.0003 2.9675 0.0000
# 3 82.1796 44.1948 123.8022 -0.0014 18.2202 0.0000
# 4 -0.0005 -0.0003 -0.0014 17.5623 -0.0001 0.6410
# 5 24.3678 2.9675 18.2202 -0.0001 29.4475 0.0000
# 6 0.0000 0.0000 0.0000 0.6410 0.0000 31.1826
#
#
#
# Elastic Compliance Matrix: (Units=1/GPa)
#
#
# Indices 1 2 3 4 5 6 
#
# 1 0.012742 -0.010388 -0.003688 0.000000 -0.007215 0.000000
# 2 -0.010388 0.039745 -0.008767 0.000000 0.010015 0.000000
# 3 -0.003688 -0.008767 0.014386 0.000001 -0.004966 0.000000
# 4 0.000000 0.000000 0.000001 0.056983 0.000000 -0.001171
# 5 -0.007215 0.010015 -0.004966 0.000000 0.041993 0.000000
# 6 0.000000 0.000000 0.000000 -0.001171 0.000000 0.032093
#
#
# Mechanical properties :
#
#
# Convention : Reuss Voigt Hill
#
# Bulk Modulus (GPa) = 47.19668 76.91616 62.05642
# Shear Modulus (GPa) = 19.94505 25.75694 22.85100
#
# Velocity S-wave (km/s) = 3.37111 3.83092 3.60835
# Velocity P-wave (km/s) = 6.48418 7.96201 7.26079
#
# Compressibility (1/GPa) = 0.02118793
#
# Stress axis : x y z
#
# Youngs Moduli (GPa) = 78.48320 25.16009 69.51373
#
# Poissons Ratio (x) = 0.26136 0.25634
# Poissons Ratio (y) = 0.81528 0.60941
# Poissons Ratio (z) = 0.28942 0.22057
#
# Static dielectric constant tensor:
#      x y z
#    x 1.610000 0.000000 0.014270 
#    y 0.000000 1.592940 0.000000 
#    z 0.014270 0.000000 1.570100 
# 
# From -- ./inp_files/24298.got.cif
#   From: 2010.05.17/outbox.cif.g08.bks.cpg/sg8_13_cif.got.tgz:24298.got - 2010.06.03 19:46:02.
