data_PCOD9131983
_publ_section_title
;
Structure prediction by ZEFSAII (Michael W. Deem and Ramdas Pophale) SiO2 
 PCOD9131983
Probable space group: C M
;
_chemical_formula_sum "Si O2"
_cell_formula_units_Z 28
_cell_length_a 15.607637
_cell_length_b 17.487164
_cell_length_c 6.959883
_cell_angle_alpha 90.000000
_cell_angle_beta 34.650637
_cell_angle_gamma 90.000000
_cell_volume 1080.048305
_symmetry_space_group_name_H-M "C M"
_symmetry_group_IT_number 8
_symmetry_cell_setting 'monoclinic'
loop_
_space_group_symop_operation_xyz
x,y,z
x,-y,z
1/2+x,1/2+y,z
1/2+x,1/2-y,z
loop_
_atom_site_type_symbol
_atom_site_label
_atom_site_fract_x
_atom_site_fract_y
_atom_site_fract_z
Si Si1 0.919690 0.763626 0.023470
Si Si2 0.632260 0.869800 0.085361
Si Si3 0.845311 0.914273 0.371065
Si Si4 0.821667 0.639778 0.509281
Si Si5 0.693756 0.713268 0.121668
Si Si6 0.562065 0.886355 0.641157
Si Si7 0.706734 0.418296 0.359504
O O1 0.931663 0.847030 0.095920
O O2 0.840732 0.715206 0.341799
O O3 0.819364 0.758946 0.014532
O O4 0.052776 0.704309 0.718467
O O5 0.486475 0.895979 0.235252
O O6 0.618786 0.902274 0.322636
O O7 0.786448 0.885927 0.688893
O O8 0.760392 0.661295 0.829324
O O9 0.688047 0.919448 0.545055
O O10 0.909761 0.000000 0.262181
O O11 0.717361 0.588102 0.569168
O O12 0.604673 0.778893 0.174033
O O13 0.628318 0.651991 0.393857
O O14 0.387259 0.911700 0.975701
O O15 0.646519 0.500000 0.408945
#
# Coordination Sequence:
#
# PCOD9131983 Si02
#       7
#     4   4   4   4   4   4   4
#     4  10  20  38  56  81 120 162 199 235 299 371
#     4  12  20  35  60  88 114 153 202 244 288 363
#     4  12  24  36  58  95 128 152 194 262 317 350
#     4  10  19  34  55  86 110 152 195 241 295 358
#     4  10  20  35  58  83 113 158 202 238 289 363
#     4  10  21  36  58  86 118 156 197 240 297 369
#     4  10  21  36  54  83 121 149 185 242 306 350
#
# _framework density 25.924765000000001
#
# number of rings (size 3 to 8) (size 9 to 14) (size 15 to 20)
#    0.000    1.714    8.571    0.429    0.000    1.714 
#    0.000    0.000    0.000    1.714    0.000    0.000 
#    0.000    0.000    0.000    0.000    0.000    0.000 
#
# Total GULP energy -78231.085955 kJ/mol
# GULP energy per Si atom -5587.934711 kJ/mol
# Density = 2.586576 g / cm^3
# Si number density = 25.924765 Si / 1000 Ang^3
#
#
#
# Elastic Constant Matrix: (Units=GPa)
#
#
# Indices 1 2 3 4 5 6 
#
# 1 82.1926 21.7969 37.4929 -0.0001 33.4910 0.0000
# 2 21.7969 188.5018 31.2752 -0.0001 9.5161 0.0001
# 3 37.4929 31.2752 112.1249 -0.0002 37.5952 0.0003
# 4 -0.0001 -0.0001 -0.0002 16.1869 0.0002 -5.1478
# 5 33.4910 9.5161 37.5952 0.0002 42.7234 -0.0001
# 6 0.0000 0.0001 0.0003 -5.1478 -0.0001 13.2151
#
#
#
# Elastic Compliance Matrix: (Units=1/GPa)
#
#
# Indices 1 2 3 4 5 6 
#
# 1 0.018409 -0.001230 -0.001512 0.000000 -0.012826 0.000000
# 2 -0.001230 0.005646 -0.001511 0.000000 0.001036 0.000000
# 3 -0.001512 -0.001511 0.013243 0.000000 -0.010131 0.000000
# 4 0.000000 0.000000 0.000000 0.070514 0.000000 0.027468
# 5 -0.012826 0.001036 -0.010131 0.000000 0.042146 0.000000
# 6 0.000000 0.000000 0.000000 0.027468 0.000000 0.086371
#
#
# Mechanical properties :
#
#
# Convention : Reuss Voigt Hill
#
# Bulk Modulus (GPa) = 34.73300 62.66103 48.69702
# Shear Modulus (GPa) = 19.65176 33.90869 26.78023
#
# Velocity S-wave (km/s) = 2.75622 3.62050 3.21752
# Velocity P-wave (km/s) = 4.85342 6.45757 5.71209
#
# Compressibility (1/GPa) = 0.02879106
#
# Stress axis : x y z
#
# Youngs Moduli (GPa) = 54.32179 177.12896 75.51370
#
# Poissons Ratio (x) = 0.21792 0.11416
# Poissons Ratio (y) = 0.06683 0.11409
# Poissons Ratio (z) = 0.08212 0.26762
#
# Static dielectric constant tensor:
#      x y z
#    x 2.009590 0.000000 0.024330 
#    y 0.000000 2.103660 0.000000 
#    z 0.024330 0.000000 2.108950 
# 
# From -- ./inp_files/16508.got.cif
#   From: 2010.05.17/outbox.cif.g08.bks.cpg/sg8_9_cif.got.tgz:16508.got - 2010.06.03 19:46:02.
