data_PCOD9131393
_publ_section_title
;
Structure prediction by ZEFSAII (Michael W. Deem and Ramdas Pophale) SiO2 
 PCOD9131393
Probable space group: P C
;
_chemical_formula_sum "Si O2"
_cell_formula_units_Z 10
_cell_length_a 12.071800
_cell_length_b 7.970720
_cell_length_c 5.567278
_cell_angle_alpha 90.000000
_cell_angle_beta 134.713800
_cell_angle_gamma 90.000000
_cell_volume 380.676487
_symmetry_space_group_name_H-M "P C"
_symmetry_group_IT_number 7
_symmetry_cell_setting 'monoclinic'
loop_
_space_group_symop_operation_xyz
x,y,z
x,-y,1/2+z
loop_
_atom_site_type_symbol
_atom_site_label
_atom_site_fract_x
_atom_site_fract_y
_atom_site_fract_z
Si Si1 0.367750 0.883016 0.553860
Si Si2 0.022878 0.916991 0.212174
Si Si3 0.494194 0.257021 0.651310
Si Si4 0.810171 0.601101 0.806087
Si Si5 0.232144 0.456678 0.694052
O O1 0.211534 0.904656 0.483100
O O2 0.294009 0.734172 0.276050
O O3 0.435359 0.071163 0.639344
O O4 0.513503 0.784834 0.897773
O O5 0.984557 0.959982 0.429754
O O6 0.931717 0.752362 0.001329
O O7 0.373516 0.411210 0.443611
O O8 0.639225 0.313741 0.024566
O O9 0.822181 0.502203 0.571609
O O10 0.148295 0.503658 0.319073
#
# Coordination Sequence:
#
# PCOD9131393 Si02
#       5
#     2   2   2   2   2
#     4  11  23  44  78 113 155 203 257 337 395 474
#     4  12  28  52  76 117 160 212 273 320 407 488
#     4  11  24  44  76 116 157 196 271 326 404 468
#     4  12  29  54  81 115 163 217 270 330 408 487
#     4  10  22  38  63 101 143 186 239 305 380 447
#
# _framework density 26.269023000000001
#
# number of rings (size 3 to 8) (size 9 to 14) (size 15 to 20)
#    0.000    0.800    2.000    4.800    2.800    4.800 
#    0.000    0.000    0.000    0.000    0.000    0.000 
#    0.000    0.000    0.000    0.000    0.000    0.000 
#
# Total GULP energy -55797.046070 kJ/mol
# GULP energy per Si atom -5579.704607 kJ/mol
# Density = 2.620923 g / cm^3
# Si number density = 26.269023 Si / 1000 Ang^3
#
#
#
# Elastic Constant Matrix: (Units=GPa)
#
#
# Indices 1 2 3 4 5 6 
#
# 1 61.6451 36.4563 44.5031 0.0000 -17.7061 0.0000
# 2 36.4563 145.5168 48.9443 0.0000 -0.2595 0.0000
# 3 44.5031 48.9443 149.7323 0.0000 -17.3362 0.0000
# 4 0.0000 0.0000 0.0000 57.9353 0.0000 -2.5695
# 5 -17.7061 -0.2595 -17.3362 0.0000 45.8234 0.0000
# 6 0.0000 0.0000 0.0000 -2.5695 0.0000 45.8724
#
#
#
# Elastic Compliance Matrix: (Units=1/GPa)
#
#
# Indices 1 2 3 4 5 6 
#
# 1 0.024661 -0.004490 -0.004980 0.000000 0.007619 0.000000
# 2 -0.004490 0.008578 -0.001741 0.000000 -0.002345 0.000000
# 3 -0.004980 -0.001741 0.008893 0.000000 0.001431 0.000000
# 4 0.000000 0.000000 0.000000 0.017304 0.000000 0.000969
# 5 0.007619 -0.002345 0.001431 0.000000 0.025295 0.000000
# 6 0.000000 0.000000 0.000000 0.000969 0.000000 0.021854
#
#
# Mechanical properties :
#
#
# Convention : Reuss Voigt Hill
#
# Bulk Modulus (GPa) = 50.73296 68.52241 59.62768
# Shear Modulus (GPa) = 36.87957 45.05891 40.96924
#
# Velocity S-wave (km/s) = 3.75096 4.14610 3.95347
# Velocity P-wave (km/s) = 6.17368 7.00440 6.60212
#
# Compressibility (1/GPa) = 0.01971105
#
# Stress axis : x y z
#
# Youngs Moduli (GPa) = 40.55060 116.57302 112.44223
#
# Poissons Ratio (x) = 0.52338 0.55994
# Poissons Ratio (y) = 0.18206 0.19578
# Poissons Ratio (z) = 0.20193 0.20297
#
# Static dielectric constant tensor:
#      x y z
#    x 2.638620 0.000000 -0.422970 
#    y 0.000000 2.068970 0.000000 
#    z -0.422970 0.000000 2.322080 
# 
# From -- ./inp_files/1052.got.cif
#   From: 2010.05.17/outbox.cif.g08.bks.cpg/sg7_cif.got.tgz:1052.got - 2010.06.03 19:44:50.
