data_PCOD9131213
_publ_section_title
;
Structure prediction by ZEFSAII (Michael W. Deem and Ramdas Pophale) SiO2 
 PCOD9131213
Probable space group: P C
;
_chemical_formula_sum "Si O2"
_cell_formula_units_Z 16
_cell_length_a 24.905766
_cell_length_b 6.941761
_cell_length_c 5.324624
_cell_angle_alpha 90.000000
_cell_angle_beta 129.933757
_cell_angle_gamma 90.000000
_cell_volume 705.883940
_symmetry_space_group_name_H-M "P C"
_symmetry_group_IT_number 7
_symmetry_cell_setting 'monoclinic'
loop_
_space_group_symop_operation_xyz
x,y,z
x,-y,1/2+z
loop_
_atom_site_type_symbol
_atom_site_label
_atom_site_fract_x
_atom_site_fract_y
_atom_site_fract_z
Si Si1 0.732500 0.794614 0.723300
Si Si2 0.232131 0.714235 0.505943
Si Si3 0.788438 0.766280 0.392291
Si Si4 0.939132 0.123393 0.282264
Si Si5 0.590686 0.630176 0.161990
Si Si6 0.074626 0.621780 0.104774
Si Si7 0.287461 0.729230 0.171661
Si Si8 0.436717 0.625675 0.768836
O O1 0.777302 0.693034 0.639818
O O2 0.653037 0.781341 0.390475
O O3 0.764993 0.007740 0.853076
O O4 0.739266 0.701078 0.017405
O O5 0.237488 0.799933 0.244292
O O6 0.263028 0.496226 0.565534
O O7 0.152382 0.708756 0.357083
O O8 0.278300 0.805995 0.864127
O O9 0.868516 0.751454 0.548845
O O10 0.011127 0.234865 0.462179
O O11 0.935532 0.031284 0.547632
O O12 0.596039 0.474460 0.407074
O O13 0.512833 0.718328 0.956274
O O14 0.069417 0.463371 0.308999
O O15 0.366591 0.743689 0.505263
O O16 0.433828 0.461094 0.541216
#
# Coordination Sequence:
#
# PCOD9131213 Si02
#       8
#     2   2   2   2   2   2   2   2
#     4  10  18  35  58  76  96 132 184 221 262 311
#     4  10  16  27  47  73 107 142 176 224 269 329
#     4  10  19  37  64  72  90 134 192 236 242 323
#     4  12  23  43  64  85 115 157 199 239 286 360
#     4  10  21  32  45  77 120 141 157 218 287 334
#     4  12  23  38  57  90 126 147 185 253 304 337
#     4  10  14  25  46  67 105 145 184 207 262 333
#     4  10  16  25  41  66 103 146 171 206 256 339
#
# _framework density 22.666615
#
# number of rings (size 3 to 8) (size 9 to 14) (size 15 to 20)
#    0.000    1.500    7.500    1.500    0.000    0.000 
#    0.000    3.750    0.000    0.000    0.000    0.000 
#   22.500    0.000    0.000    0.000    0.000    0.000 
#
# Total GULP energy -89295.590565 kJ/mol
# GULP energy per Si atom -5580.974410 kJ/mol
# Density = 2.261502 g / cm^3
# Si number density = 22.666615 Si / 1000 Ang^3
#
#
#
# Elastic Constant Matrix: (Units=GPa)
#
#
# Indices 1 2 3 4 5 6 
#
# 1 99.2085 -13.2822 10.0702 0.0000 -1.4575 0.0000
# 2 -13.2822 39.7617 -8.3033 0.0000 3.4907 0.0000
# 3 10.0702 -8.3033 83.2378 0.0000 15.1800 0.0000
# 4 0.0000 0.0000 0.0000 30.7224 0.0000 12.9566
# 5 -1.4575 3.4907 15.1800 0.0000 72.4707 0.0000
# 6 0.0000 0.0000 0.0000 12.9566 0.0000 -1.2186
#
#
#
# Elastic Compliance Matrix: (Units=1/GPa)
#
#
# Indices 1 2 3 4 5 6 
#
# 1 0.010630 0.003318 -0.001003 0.000000 0.000264 0.000000
# 2 0.003318 0.026960 0.002612 0.000000 -0.001779 0.000000
# 3 -0.001003 0.002612 0.012916 0.000000 -0.002851 0.000000
# 4 0.000000 0.000000 0.000000 0.005935 0.000000 0.063107
# 5 0.000264 -0.001779 -0.002851 0.000000 0.014487 0.000000
# 6 0.000000 0.000000 0.000000 0.063107 0.000000 -0.149637
#
#
# Mechanical properties :
#
#
# Convention : Reuss Voigt Hill
#
# Bulk Modulus (GPa) = 16.56722 22.13083 19.34902
# Shear Modulus (GPa) = -73.05249 35.97645 -18.53802
#
# Velocity S-wave (km/s) = -5.68323 3.98829 -2.86292
# Velocity P-wave (km/s) = 5.97833 5.56717 1.54063
#
# Compressibility (1/GPa) = 0.06036016
#
# Stress axis : x y z
#
# Youngs Moduli (GPa) = 94.07585 37.09202 77.42493
#
# Poissons Ratio (x) = -0.12308 0.07767
# Poissons Ratio (y) = -0.31216 -0.20226
# Poissons Ratio (z) = 0.09437 -0.09690
#
# Static dielectric constant tensor:
#      x y z
#    x 1.867700 0.000000 -0.035930 
#    y 0.000000 1.327620 0.000000 
#    z -0.035930 0.000000 1.878590 
# 
# From -- ./inp_files/1472.got.cif
#   From: 2010.05.17/outbox.cif.g08.bks.cpg/sg7_cif.got.tgz:1472.got - 2010.06.03 19:44:50.
