data_PCOD9131775
_publ_section_title
;
Structure prediction by ZEFSAII (Michael W. Deem and Ramdas Pophale) SiO2 
 PCOD9131775
Probable space group: C M
;
_chemical_formula_sum "Si O2"
_cell_formula_units_Z 30
_cell_length_a 10.910559
_cell_length_b 12.766439
_cell_length_c 14.773682
_cell_angle_alpha 90.000000
_cell_angle_beta 37.927274
_cell_angle_gamma 90.000000
_cell_volume 1264.855768
_symmetry_space_group_name_H-M "C M"
_symmetry_group_IT_number 8
_symmetry_cell_setting 'monoclinic'
loop_
_space_group_symop_operation_xyz
x,y,z
x,-y,z
1/2+x,1/2+y,z
1/2+x,1/2-y,z
loop_
_atom_site_type_symbol
_atom_site_label
_atom_site_fract_x
_atom_site_fract_y
_atom_site_fract_z
Si Si1 0.245400 0.615066 0.189770
Si Si2 0.781530 0.655109 0.439106
Si Si3 0.177789 0.336800 0.765106
Si Si4 0.479735 0.500000 0.522703
Si Si5 0.206401 0.612500 0.958467
Si Si6 0.850672 0.115996 0.338602
Si Si7 0.675419 0.388217 0.707947
Si Si8 0.749833 0.290732 0.054545
O O1 0.324306 0.500000 0.116220
O O2 0.268920 0.620590 0.283682
O O3 0.012270 0.622441 0.301381
O O4 0.332506 0.713964 0.085239
O O5 0.649081 0.592097 0.444843
O O6 0.710474 0.623642 0.580506
O O7 0.771976 0.780646 0.433734
O O8 0.304579 0.408972 0.625987
O O9 0.212018 0.374658 0.847744
O O10 0.246283 0.216578 0.714857
O O11 0.937893 0.340504 0.894243
O O12 0.110009 0.500000 0.035879
O O13 0.436467 0.608590 0.855776
O O14 0.130872 0.713745 0.055476
O O15 0.810771 0.000000 0.400477
O O16 0.090680 0.130696 0.189753
O O17 0.760683 0.500000 0.688776
#
# Coordination Sequence:
#
# PCOD9131775 Si02
#       8
#     4   4   4   2   4   4   4   4
#     4  10  20  39  64  89 117 166 210 258 302 352
#     4  11  21  41  65  90 122 164 214 256 302 371
#     4  11  22  36  64  93 125 166 200 255 319 359
#     4  12  22  42  64  90 128 160 210 256 312 374
#     4  10  18  36  59  87 124 164 212 252 296 363
#     4  10  24  42  62  90 128 165 203 263 314 367
#     4  10  20  38  61  89 124 163 209 255 299 371
#     4  10  22  37  62  91 127 161 209 249 311 376
#
# _framework density 23.718119999999999
#
# number of rings (size 3 to 8) (size 9 to 14) (size 15 to 20)
#    0.000    1.600    3.333    1.200    2.800    0.533 
#    1.200    0.667    1.467    0.000    0.000    0.000 
#    0.000    0.000    0.000    0.000    0.000    0.000 
#
# Total GULP energy -83563.061407 kJ/mol
# GULP energy per Si atom -5570.870760 kJ/mol
# Density = 2.366414 g / cm^3
# Si number density = 23.718120 Si / 1000 Ang^3
#
#
#
# Elastic Constant Matrix: (Units=GPa)
#
#
# Indices 1 2 3 4 5 6 
#
# 1 43.2981 27.3894 1.5427 -0.0001 -3.1662 0.0000
# 2 27.3894 198.4159 14.4621 -0.0003 -10.6570 0.0002
# 3 1.5427 14.4621 46.4226 -0.0013 -16.5932 0.0007
# 4 -0.0001 -0.0003 -0.0013 9.2794 0.0007 -10.3944
# 5 -3.1662 -10.6570 -16.5932 0.0007 31.6849 -0.0003
# 6 0.0000 0.0002 0.0007 -10.3944 -0.0003 32.4342
#
#
#
# Elastic Compliance Matrix: (Units=1/GPa)
#
#
# Indices 1 2 3 4 5 6 
#
# 1 0.025395 -0.003472 0.000895 0.000000 0.001838 0.000000
# 2 -0.003472 0.005663 -0.001344 0.000000 0.000854 0.000000
# 3 0.000895 -0.001344 0.026821 0.000003 0.013684 0.000001
# 4 0.000000 0.000000 0.000003 0.168117 -0.000002 0.053877
# 5 0.001838 0.000854 0.013684 -0.000002 0.039198 0.000000
# 6 0.000000 0.000000 0.000001 0.053877 0.000000 0.048098
#
#
# Mechanical properties :
#
#
# Convention : Reuss Voigt Hill
#
# Bulk Modulus (GPa) = 19.98505 41.65834 30.82170
# Shear Modulus (GPa) = 14.80116 30.99585 22.89851
#
# Velocity S-wave (km/s) = 2.50080 3.61895 3.11053
# Velocity P-wave (km/s) = 4.09671 5.92152 5.09154
#
# Compressibility (1/GPa) = 0.05003739
#
# Stress axis : x y z
#
# Youngs Moduli (GPa) = 39.37855 176.58504 37.28411
#
# Poissons Ratio (x) = 0.61310 -0.03336
# Poissons Ratio (y) = 0.13672 0.05009
# Poissons Ratio (z) = -0.03524 0.23724
#
# Static dielectric constant tensor:
#      x y z
#    x 1.908320 0.000000 0.030100 
#    y 0.000000 1.961580 0.000000 
#    z 0.030100 0.000000 1.940390 
# 
# From -- ./inp_files/28781.got.cif
#   From: 2010.05.17/outbox.cif.g08.bks.cpg/sg8_15_cif.got.tgz:28781.got - 2010.06.03 19:46:02.
