data_PCOD9131572
_publ_section_title
;
Structure prediction by ZEFSAII (Michael W. Deem and Ramdas Pophale) SiO2 
 PCOD9131572
Probable space group: C M
;
_chemical_formula_sum "Si O2"
_cell_formula_units_Z 24
_cell_length_a 10.181368
_cell_length_b 15.615574
_cell_length_c 19.308295
_cell_angle_alpha 90.000000
_cell_angle_beta 152.874195
_cell_angle_gamma 90.000000
_cell_volume 1399.655742
_symmetry_space_group_name_H-M "C M"
_symmetry_group_IT_number 8
_symmetry_cell_setting 'monoclinic'
loop_
_space_group_symop_operation_xyz
x,y,z
x,-y,z
1/2+x,1/2+y,z
1/2+x,1/2-y,z
loop_
_atom_site_type_symbol
_atom_site_label
_atom_site_fract_x
_atom_site_fract_y
_atom_site_fract_z
Si Si1 0.741330 0.855566 0.699570
Si Si2 0.148145 0.164154 0.654360
Si Si3 0.114701 0.401241 0.483535
Si Si4 0.840637 0.000000 0.259084
Si Si5 0.690410 0.404811 0.528591
Si Si6 0.713037 0.500000 0.911427
Si Si7 0.576874 0.500000 0.213232
Si Si8 0.445328 0.000000 0.862380
O O1 0.790277 0.755583 0.735996
O O2 0.620933 0.869415 0.565153
O O3 0.493502 0.884698 0.635825
O O4 0.016974 0.916847 0.833354
O O5 0.117364 0.156285 0.557175
O O6 0.334650 0.085795 0.772440
O O7 0.832219 0.154896 0.540595
O O8 0.230414 0.500000 0.538130
O O9 0.790651 0.418204 0.304284
O O10 0.959156 0.081051 0.358752
O O11 0.982358 0.000000 0.249631
O O12 0.500445 0.000000 0.091763
O O13 0.706119 0.500000 0.568026
O O14 0.819200 0.500000 0.881535
O O15 0.292021 0.500000 0.033717
#
# Coordination Sequence:
#
# PCOD9131572 Si02
#       8
#     4   4   4   2   4   2   2   2
#     4  12  20  36  59  86 110 149 191 229 268 338
#     4  12  22  34  59  89 113 142 185 237 284 320
#     4  10  17  39  59  82 105 148 201 216 271 333
#     4   9  18  35  64  81 106 157 186 226 283 323
#     4  10  19  37  57  81 115 141 189 232 276 321
#     4  11  20  38  62  78 116 152 189 224 271 349
#     4   9  18  34  68  76 108 156 191 222 273 341
#     4  11  20  39  58  83 116 149 184 232 279 335
#
# _framework density 17.147072999999999
#
# number of rings (size 3 to 8) (size 9 to 14) (size 15 to 20)
#    1.000    0.333    6.667    1.000    0.000    0.000 
#    0.000    6.667    0.000    0.000    0.000    0.000 
#    0.000    0.000    0.000    0.000    0.000    0.000 
#
# Total GULP energy -66815.781272 kJ/mol
# GULP energy per Si atom -5567.981773 kJ/mol
# Density = 1.710805 g / cm^3
# Si number density = 17.147073 Si / 1000 Ang^3
#
#
#
# Elastic Constant Matrix: (Units=GPa)
#
#
# Indices 1 2 3 4 5 6 
#
# 1 63.9206 0.9522 21.6192 0.0030 11.6388 0.0042
# 2 0.9522 102.4762 37.3479 0.0003 10.1598 0.0027
# 3 21.6192 37.3479 124.1132 -0.0021 15.0922 0.0036
# 4 0.0030 0.0003 -0.0021 4.4457 0.0037 -2.1792
# 5 11.6388 10.1598 15.0922 0.0037 22.4762 0.0029
# 6 0.0042 0.0027 0.0036 -2.1792 0.0029 5.6355
#
#
#
# Elastic Compliance Matrix: (Units=1/GPa)
#
#
# Indices 1 2 3 4 5 6 
#
# 1 0.018016 0.001608 -0.002612 -0.000013 -0.008302 -0.000013
# 2 0.001608 0.011291 -0.003219 -0.000002 -0.003775 -0.000003
# 3 -0.002612 -0.003219 0.009952 0.000012 -0.003875 0.000003
# 4 -0.000013 -0.000002 0.000012 0.277542 -0.000059 0.107322
# 5 -0.008302 -0.003775 -0.003875 -0.000059 0.053098 -0.000039
# 6 -0.000013 -0.000003 0.000003 0.107322 -0.000039 0.218945
#
#
# Mechanical properties :
#
#
# Convention : Reuss Voigt Hill
#
# Bulk Modulus (GPa) = 32.45525 45.59429 39.02477
# Shear Modulus (GPa) = 8.22962 21.88421 15.05692
#
# Velocity S-wave (km/s) = 2.19314 3.57636 2.96650
# Velocity P-wave (km/s) = 5.03804 6.61072 5.87722
#
# Compressibility (1/GPa) = 0.03081166
#
# Stress axis : x y z
#
# Youngs Moduli (GPa) = 55.50743 88.56828 100.48302
#
# Poissons Ratio (x) = -0.14240 0.26251
# Poissons Ratio (y) = -0.08924 0.32341
# Poissons Ratio (z) = 0.14501 0.28507
#
# Static dielectric constant tensor:
#      x y z
#    x 1.573620 0.000000 0.004060 
#    y 0.000000 1.602240 0.000000 
#    z 0.004060 0.000000 1.569800 
# 
# From -- ./inp_files/28621.got.cif
#   From: 2010.05.17/outbox.cif.g08.bks.cpg/sg8_15_cif.got.tgz:28621.got - 2010.06.03 19:46:02.
