data_PCOD9131475
_publ_section_title
;
Structure prediction by ZEFSAII (Michael W. Deem and Ramdas Pophale) SiO2 
 PCOD9131475
Probable space group: P C
;
_chemical_formula_sum "Si O2"
_cell_formula_units_Z 12
_cell_length_a 6.152666
_cell_length_b 14.434178
_cell_length_c 5.679768
_cell_angle_alpha 90.000000
_cell_angle_beta 109.031084
_cell_angle_gamma 90.000000
_cell_volume 476.842393
_symmetry_space_group_name_H-M "P C"
_symmetry_group_IT_number 7
_symmetry_cell_setting 'monoclinic'
loop_
_space_group_symop_operation_xyz
x,y,z
x,-y,1/2+z
loop_
_atom_site_type_symbol
_atom_site_label
_atom_site_fract_x
_atom_site_fract_y
_atom_site_fract_z
Si Si1 0.863200 0.480717 0.559200
Si Si2 0.757941 0.196201 0.815549
Si Si3 0.504551 0.641405 0.483939
Si Si4 0.102431 0.052872 0.035457
Si Si5 0.060687 0.701318 0.076083
Si Si6 0.353327 0.218605 0.303275
O O1 0.976273 0.520242 0.359932
O O2 0.634748 0.542887 0.517537
O O3 0.857202 0.373274 0.487553
O O4 0.678226 0.278139 0.958878
O O5 0.553720 0.189832 0.553727
O O6 0.979311 0.232593 0.752107
O O7 0.849651 0.101424 0.955123
O O8 0.292310 0.645844 0.225303
O O9 0.404452 0.685300 0.687095
O O10 0.300300 0.131636 0.120878
O O11 0.123934 0.996289 0.288592
O O12 0.125256 0.760763 0.874464
#
# Coordination Sequence:
#
# PCOD9131475 Si02
#       6
#     2   2   2   2   2   2
#     4  12  28  47  71 115 155 205 277 324 380 465
#     4  11  25  51  78 112 157 216 260 326 410 485
#     4  11  26  48  76 114 153 217 267 331 394 470
#     4  12  29  51  81 125 158 205 268 338 409 492
#     4  11  25  50  76 111 161 219 263 334 394 471
#     4  11  27  49  84 111 166 214 267 327 417 479
#
# _framework density 25.165548000000001
#
# number of rings (size 3 to 8) (size 9 to 14) (size 15 to 20)
#    0.000    0.667    3.333    2.000   14.000    2.667 
#    0.000    0.000    0.000    0.000    0.000    0.000 
#    0.000    0.000    0.000    0.000    0.000    0.000 
#
# Total GULP energy -67059.192279 kJ/mol
# GULP energy per Si atom -5588.266023 kJ/mol
# Density = 2.510827 g / cm^3
# Si number density = 25.165548 Si / 1000 Ang^3
#
#
#
# Elastic Constant Matrix: (Units=GPa)
#
#
# Indices 1 2 3 4 5 6 
#
# 1 65.4004 21.0302 28.3850 0.0000 3.5812 0.0000
# 2 21.0302 86.8569 28.5362 0.0000 17.8986 0.0000
# 3 28.3850 28.5362 113.2393 0.0000 -3.0571 0.0000
# 4 0.0000 0.0000 0.0000 58.4656 0.0000 -3.2617
# 5 3.5812 17.8986 -3.0571 0.0000 61.4601 0.0000
# 6 0.0000 0.0000 0.0000 -3.2617 0.0000 27.7202
#
#
#
# Elastic Compliance Matrix: (Units=1/GPa)
#
#
# Indices 1 2 3 4 5 6 
#
# 1 0.017906 -0.003038 -0.003732 0.000000 -0.000344 0.000000
# 2 -0.003038 0.014031 -0.002884 0.000000 -0.004053 0.000000
# 3 -0.003732 -0.002884 0.010536 0.000000 0.001581 0.000000
# 4 0.000000 0.000000 0.000000 0.017217 0.000000 0.002026
# 5 -0.000344 -0.004053 0.001581 0.000000 0.017550 0.000000
# 6 0.000000 0.000000 0.000000 0.002026 0.000000 0.036313
#
#
# Mechanical properties :
#
#
# Convention : Reuss Voigt Hill
#
# Bulk Modulus (GPa) = 43.16875 46.82216 44.99546
# Shear Modulus (GPa) = 35.56618 42.03221 38.79920
#
# Velocity S-wave (km/s) = 3.76345 4.09128 3.93078
# Velocity P-wave (km/s) = 6.00632 6.40032 6.20645
#
# Compressibility (1/GPa) = 0.02316490
#
# Stress axis : x y z
#
# Youngs Moduli (GPa) = 55.84693 71.26857 94.91533
#
# Poissons Ratio (x) = 0.21655 0.35422
# Poissons Ratio (y) = 0.16969 0.27371
# Poissons Ratio (z) = 0.20842 0.20552
#
# Static dielectric constant tensor:
#      x y z
#    x 1.993180 0.000000 0.060860 
#    y 0.000000 1.985440 0.000000 
#    z 0.060860 0.000000 2.129090 
# 
# From -- ./inp_files/147.got.cif
#   From: 2010.05.17/outbox.cif.g08.bks.cpg/sg7_cif.got.tgz:147.got - 2010.06.03 19:44:50.
