data_PCOD9131072
_publ_section_title
;
Structure prediction by ZEFSAII (Michael W. Deem and Ramdas Pophale) SiO2 
 PCOD9131072
Probable space group: P M
;
_chemical_formula_sum "Si O2"
_cell_formula_units_Z 14
_cell_length_a 5.114035
_cell_length_b 20.163771
_cell_length_c 5.482221
_cell_angle_alpha 90.000000
_cell_angle_beta 84.101187
_cell_angle_gamma 90.000000
_cell_volume 562.323546
_symmetry_space_group_name_H-M "P M"
_symmetry_group_IT_number 6
_symmetry_cell_setting 'monoclinic'
loop_
_space_group_symop_operation_xyz
x,y,z
x,-y,z
loop_
_atom_site_type_symbol
_atom_site_label
_atom_site_fract_x
_atom_site_fract_y
_atom_site_fract_z
Si Si1 0.625000 0.422303 0.542290
Si Si2 0.017116 0.767274 0.521016
Si Si3 0.644200 0.183437 0.923575
Si Si4 0.125781 0.359746 0.760492
Si Si5 0.254697 0.886676 0.240683
Si Si6 0.336773 0.928853 0.738296
Si Si7 0.705164 0.312955 0.179913
O O1 0.620232 0.500000 0.495601
O O2 0.391493 0.401197 0.748542
O O3 0.579944 0.379356 0.300314
O O4 0.903973 0.400663 0.631454
O O5 0.189101 0.706769 0.600327
O O6 0.125579 0.816424 0.309440
O O7 0.923993 0.806121 0.770847
O O8 0.777076 0.730817 0.409814
O O9 0.493031 0.141201 0.729737
O O10 0.560271 0.133892 0.151230
O O11 0.572537 0.258803 0.011938
O O12 0.973407 0.336312 0.017767
O O13 0.210501 0.928181 0.485876
O O14 0.167575 0.922113 0.001118
O O15 0.481698 0.000000 0.747923
#
# Coordination Sequence:
#
# PCOD9131072 Si02
#       7
#     2   2   2   2   2   2   2
#     4  11  24  43  65  98 142 192 242 299 368 443
#     4  10  21  38  63 100 126 171 232 296 363 426
#     4   9  21  36  66  90 127 169 225 293 358 419
#     4  10  24  41  67  96 140 180 238 302 364 436
#     4  10  22  37  66  87 132 176 228 294 362 428
#     4  10  22  41  62  91 134 186 235 298 370 437
#     4  10  22  40  65 100 133 176 240 304 363 431
#
# _framework density 24.896698000000001
#
# number of rings (size 3 to 8) (size 9 to 14) (size 15 to 20)
#    0.857    1.143    0.000    2.571    4.000    9.143 
#    0.000    1.429    0.000    0.000    0.000    0.000 
#    0.000    0.000    0.000    0.000    0.000    0.000 
#
# Total GULP energy -78040.847137 kJ/mol
# GULP energy per Si atom -5574.346224 kJ/mol
# Density = 2.484003 g / cm^3
# Si number density = 24.896698 Si / 1000 Ang^3
#
#
#
# Elastic Constant Matrix: (Units=GPa)
#
#
# Indices 1 2 3 4 5 6 
#
# 1 64.4221 39.3535 20.6250 0.0000 -8.2909 0.0000
# 2 39.3535 165.0134 56.8607 0.0000 -3.1284 0.0000
# 3 20.6250 56.8607 158.7597 0.0000 3.4694 0.0000
# 4 0.0000 0.0000 0.0000 3.6636 0.0000 5.4463
# 5 -8.2909 -3.1284 3.4694 0.0000 32.7672 0.0000
# 6 0.0000 0.0000 0.0000 5.4463 0.0000 16.7535
#
#
#
# Elastic Compliance Matrix: (Units=1/GPa)
#
#
# Indices 1 2 3 4 5 6 
#
# 1 0.018932 -0.004047 -0.001109 0.000000 0.004521 0.000000
# 2 -0.004047 0.007807 -0.002269 0.000000 -0.000038 0.000000
# 3 -0.001109 -0.002269 0.007283 0.000000 -0.001268 0.000000
# 4 0.000000 0.000000 0.000000 0.528231 0.000000 -0.171719
# 5 0.004521 -0.000038 -0.001268 0.000000 0.031793 0.000000
# 6 0.000000 0.000000 0.000000 -0.171719 0.000000 0.115512
#
#
# Mechanical properties :
#
#
# Convention : Reuss Voigt Hill
#
# Bulk Modulus (GPa) = 52.16188 69.09707 60.62947
# Shear Modulus (GPa) = 6.84183 28.72725 17.78454
#
# Velocity S-wave (km/s) = 1.65953 3.40053 2.67560
# Velocity P-wave (km/s) = 4.96678 6.57510 5.82670
#
# Compressibility (1/GPa) = 0.01917109
#
# Stress axis : x y z
#
# Youngs Moduli (GPa) = 52.82127 128.09730 137.29914
#
# Poissons Ratio (x) = 0.51844 0.15223
# Poissons Ratio (y) = 0.21378 0.31158
# Poissons Ratio (z) = 0.05857 0.29070
#
# Static dielectric constant tensor:
#      x y z
#    x 2.033760 0.000000 0.036780 
#    y 0.000000 1.946920 0.000000 
#    z 0.036780 0.000000 2.036740 
# 
# From -- ./inp_files/548.got.cif
#   From: 2010.05.17/outbox.cif.g08.bks.cpg/sg6_1_cif.got.tgz:548.got - 2010.06.03 19:42:10.
