data_PCOD9131341
_publ_section_title
;
Structure prediction by ZEFSAII (Michael W. Deem and Ramdas Pophale) SiO2 
 PCOD9131341
Probable space group: P C
;
_chemical_formula_sum "Si O2"
_cell_formula_units_Z 16
_cell_length_a 9.230353
_cell_length_b 18.678551
_cell_length_c 5.247604
_cell_angle_alpha 90.000000
_cell_angle_beta 55.060758
_cell_angle_gamma 90.000000
_cell_volume 741.667374
_symmetry_space_group_name_H-M "P C"
_symmetry_group_IT_number 7
_symmetry_cell_setting 'monoclinic'
loop_
_space_group_symop_operation_xyz
x,y,z
x,-y,1/2+z
loop_
_atom_site_type_symbol
_atom_site_label
_atom_site_fract_x
_atom_site_fract_y
_atom_site_fract_z
Si Si1 0.526330 0.613698 0.021330
Si Si2 0.308558 0.789915 0.681232
Si Si3 0.812982 0.277520 0.057115
Si Si4 0.194792 0.291860 0.810606
Si Si5 0.221484 0.043216 0.294745
Si Si6 0.713439 0.200681 0.660769
Si Si7 0.712261 0.478440 0.675121
Si Si8 0.793259 0.040297 0.727174
O O1 0.331890 0.644466 0.228865
O O2 0.628903 0.597333 0.185285
O O3 0.649861 0.668812 0.747309
O O4 0.551017 0.535802 0.869622
O O5 0.196476 0.758798 0.557985
O O6 0.282103 0.874863 0.735258
O O7 0.510722 0.775589 0.397686
O O8 0.262850 0.752004 0.994323
O O9 0.778472 0.218100 0.311393
O O10 0.820887 0.242180 0.772146
O O11 0.996457 0.314863 0.945213
O O12 0.007166 0.044240 0.510373
O O13 0.279696 0.999109 0.484042
O O14 0.724696 0.117322 0.714027
O O15 0.814904 0.510412 0.330821
O O16 0.738881 0.016059 0.063767
#
# Coordination Sequence:
#
# PCOD9131341 Si02
#       8
#     2   2   2   2   2   2   2   2
#     4  10  22  42  66  94 128 166 212 242 322 364
#     4  12  24  42  62  94 126 164 216 269 311 377
#     4  12  25  41  66  94 132 167 210 262 314 377
#     4  12  25  41  66  94 132 167 210 262 314 377
#     4  10  21  37  58  83 120 162 206 260 318 373
#     4  12  24  42  62  94 126 164 216 269 311 377
#     4   8  20  36  66  88 128 162 198 254 298 364
#     4  10  21  37  58  83 120 162 206 260 318 373
#
# _framework density 21.573013
#
# number of rings (size 3 to 8) (size 9 to 14) (size 15 to 20)
#    0.750    0.500    2.500    3.750    3.500    3.000 
#    0.000    1.250    0.000    0.000    0.000    0.000 
#    0.000    0.000    0.000    0.000    0.000    0.000 
#
# Total GULP energy -89343.238391 kJ/mol
# GULP energy per Si atom -5583.952399 kJ/mol
# Density = 2.152391 g / cm^3
# Si number density = 21.573013 Si / 1000 Ang^3
#
#
#
# Elastic Constant Matrix: (Units=GPa)
#
#
# Indices 1 2 3 4 5 6 
#
# 1 56.4720 -8.8434 25.1068 0.0000 5.0990 0.0000
# 2 -8.8434 50.2511 -4.7124 0.0000 4.7488 0.0000
# 3 25.1068 -4.7124 67.4714 0.0000 25.9006 0.0000
# 4 0.0000 0.0000 0.0000 19.2948 0.0000 18.2612
# 5 5.0990 4.7488 25.9006 0.0000 43.3399 0.0000
# 6 0.0000 0.0000 0.0000 18.2612 0.0000 6.2047
#
#
#
# Elastic Compliance Matrix: (Units=1/GPa)
#
#
# Indices 1 2 3 4 5 6 
#
# 1 0.021871 0.002788 -0.008875 0.000000 0.002425 0.000000
# 2 0.002788 0.020917 0.001855 0.000000 -0.003728 0.000000
# 3 -0.008875 0.001855 0.023268 0.000000 -0.013065 0.000000
# 4 0.000000 0.000000 0.000000 -0.029027 0.000000 0.085431
# 5 0.002425 -0.003728 -0.013065 0.000000 0.031004 0.000000
# 6 0.000000 0.000000 0.000000 0.085431 0.000000 -0.090267
#
#
# Mechanical properties :
#
#
# Convention : Reuss Voigt Hill
#
# Bulk Modulus (GPa) = 17.36366 21.92182 19.64274
# Shear Modulus (GPa) = 921.22009 24.61078 472.91544
#
# Velocity S-wave (km/s) = 20.68698 3.38126 14.82201
# Velocity P-wave (km/s) = 24.05552 5.04258 17.37952
#
# Compressibility (1/GPa) = 0.05759153
#
# Stress axis : x y z
#
# Youngs Moduli (GPa) = 45.72261 47.80823 42.97725
#
# Poissons Ratio (x) = -0.13327 0.38141
# Poissons Ratio (y) = -0.12746 -0.07971
# Poissons Ratio (z) = 0.40577 -0.08868
#
# Static dielectric constant tensor:
#      x y z
#    x 1.822070 0.000000 0.048720 
#    y 0.000000 1.759340 0.000000 
#    z 0.048720 0.000000 1.820190 
# 
# From -- ./inp_files/874.got.cif
#   From: 2010.05.17/outbox.cif.g08.bks.cpg/sg7_cif.got.tgz:874.got - 2010.06.03 19:44:50.
