data_PCOD9131291
_publ_section_title
;
Structure prediction by ZEFSAII (Michael W. Deem and Ramdas Pophale) SiO2 
 PCOD9131291
Probable space group: P C
;
_chemical_formula_sum "Si O2"
_cell_formula_units_Z 16
_cell_length_a 7.512404
_cell_length_b 16.874349
_cell_length_c 5.548687
_cell_angle_alpha 90.000000
_cell_angle_beta 120.723020
_cell_angle_gamma 90.000000
_cell_volume 604.667158
_symmetry_space_group_name_H-M "P C"
_symmetry_group_IT_number 7
_symmetry_cell_setting 'monoclinic'
loop_
_space_group_symop_operation_xyz
x,y,z
x,-y,1/2+z
loop_
_atom_site_type_symbol
_atom_site_label
_atom_site_fract_x
_atom_site_fract_y
_atom_site_fract_z
Si Si1 0.562840 0.465159 0.053430
Si Si2 0.086819 0.719789 0.254807
Si Si3 0.376742 0.205281 0.285795
Si Si4 0.944303 0.013150 0.337182
Si Si5 0.521931 0.697603 0.271627
Si Si6 0.761384 0.813507 0.714758
Si Si7 0.488973 0.955667 0.030799
Si Si8 0.061561 0.538702 0.232565
O O1 0.625148 0.473434 0.379950
O O2 0.605767 0.382268 0.947345
O O3 0.311938 0.470891 0.895309
O O4 0.302428 0.711861 0.254642
O O5 0.021493 0.630343 0.270019
O O6 0.915626 0.760770 0.976702
O O7 0.154438 0.775455 0.522961
O O8 0.544592 0.178484 0.206315
O O9 0.384125 0.131035 0.471413
O O10 0.457628 0.288746 0.451558
O O11 0.859482 0.101519 0.253475
O O12 0.057023 0.006459 0.668848
O O13 0.742995 0.955191 0.202842
O O14 0.693205 0.764583 0.434914
O O15 0.444563 0.003554 0.243282
O O16 0.993468 0.484536 0.412416
#
# Coordination Sequence:
#
# PCOD9131291 Si02
#       8
#     2   2   2   2   2   2   2   2
#     4   9  19  34  61  92 124 168 218 266 316 391
#     4  10  25  41  63 101 130 166 224 272 325 392
#     4  11  23  40  67  94 130 171 216 273 330 386
#     4  10  19  37  64  89 122 172 220 257 320 396
#     4  10  23  40  66  92 129 173 215 266 336 387
#     4  11  23  42  65  94 131 172 215 276 328 387
#     4  10  19  36  64  90 122 172 220 257 318 396
#     4   9  19  38  64  88 126 178 214 261 327 391
#
# _framework density 26.460837999999999
#
# number of rings (size 3 to 8) (size 9 to 14) (size 15 to 20)
#    0.000    2.000    2.500    1.500   12.250    1.000 
#    0.000    2.500    0.000    0.000    0.000    0.000 
#    0.000    0.000    0.000    0.000    0.000    0.000 
#
# Total GULP energy -89549.240601 kJ/mol
# GULP energy per Si atom -5596.827538 kJ/mol
# Density = 2.640061 g / cm^3
# Si number density = 26.460838 Si / 1000 Ang^3
#
#
#
# Elastic Constant Matrix: (Units=GPa)
#
#
# Indices 1 2 3 4 5 6 
#
# 1 81.4054 15.8228 15.6764 0.0000 -2.6722 0.0000
# 2 15.8228 105.8129 28.9730 0.0000 -2.5089 0.0000
# 3 15.6764 28.9730 171.2950 0.0000 -11.5851 0.0000
# 4 0.0000 0.0000 0.0000 44.6874 0.0000 -2.2008
# 5 -2.6722 -2.5089 -11.5851 0.0000 28.3718 0.0000
# 6 0.0000 0.0000 0.0000 -2.2008 0.0000 6.0407
#
#
#
# Elastic Compliance Matrix: (Units=1/GPa)
#
#
# Indices 1 2 3 4 5 6 
#
# 1 0.012793 -0.001666 -0.000841 0.000000 0.000714 0.000000
# 2 -0.001666 0.010128 -0.001553 0.000000 0.000104 0.000000
# 3 -0.000841 -0.001553 0.006338 0.000000 0.002371 0.000000
# 4 0.000000 0.000000 0.000000 0.022787 0.000000 0.008302
# 5 0.000714 0.000104 0.002371 0.000000 0.036291 0.000000
# 6 0.000000 0.000000 0.000000 0.008302 0.000000 0.168569
#
#
# Mechanical properties :
#
#
# Convention : Reuss Voigt Hill
#
# Bulk Modulus (GPa) = 47.30667 53.27309 50.28988
# Shear Modulus (GPa) = 18.37746 35.68938 27.03342
#
# Velocity S-wave (km/s) = 2.63822 3.67653 3.19978
# Velocity P-wave (km/s) = 5.21509 6.18054 5.71822
#
# Compressibility (1/GPa) = 0.02113867
#
# Stress axis : x y z
#
# Youngs Moduli (GPa) = 78.16563 98.74016 157.77944
#
# Poissons Ratio (x) = 0.16449 0.13265
# Poissons Ratio (y) = 0.13022 0.24511
# Poissons Ratio (z) = 0.06572 0.15339
#
# Static dielectric constant tensor:
#      x y z
#    x 2.070420 0.000000 0.004790 
#    y 0.000000 2.074170 0.000000 
#    z 0.004790 0.000000 2.090480 
# 
# From -- ./inp_files/894.got.cif
#   From: 2010.05.17/outbox.cif.g08.bks.cpg/sg7_cif.got.tgz:894.got - 2010.06.03 19:44:50.
