data_PCOD9131608
_publ_section_title
;
Structure prediction by ZEFSAII (Michael W. Deem and Ramdas Pophale) SiO2 
 PCOD9131608
Probable space group: C M
;
_chemical_formula_sum "Si O2"
_cell_formula_units_Z 32
_cell_length_a 23.696633
_cell_length_b 8.764156
_cell_length_c 22.360108
_cell_angle_alpha 90.000000
_cell_angle_beta 24.389813
_cell_angle_gamma 90.000000
_cell_volume 1917.609747
_symmetry_space_group_name_H-M "C M"
_symmetry_group_IT_number 8
_symmetry_cell_setting 'monoclinic'
loop_
_space_group_symop_operation_xyz
x,y,z
x,-y,z
1/2+x,1/2+y,z
1/2+x,1/2-y,z
loop_
_atom_site_type_symbol
_atom_site_label
_atom_site_fract_x
_atom_site_fract_y
_atom_site_fract_z
Si Si1 0.129730 0.321379 0.778910
Si Si2 0.187902 0.181439 0.850104
Si Si3 0.680757 0.679380 0.608115
Si Si4 0.211227 0.681761 0.452676
Si Si5 0.480660 0.183519 0.146980
Si Si6 0.415657 0.317743 0.709090
Si Si7 0.910567 0.322379 0.900386
Si Si8 0.206645 0.680952 0.020306
O O1 0.157746 0.500000 0.760839
O O2 0.159276 0.228983 0.809726
O O3 0.212656 0.258035 0.641071
O O4 0.971261 0.307549 0.908840
O O5 0.330938 0.251029 0.735184
O O6 0.189718 0.000000 0.855215
O O7 0.069952 0.252035 0.006220
O O8 0.707602 0.500000 0.583016
O O9 0.739883 0.756351 0.492113
O O10 0.517381 0.713222 0.762540
O O11 0.210940 0.500000 0.453061
O O12 0.330651 0.747285 0.295744
O O13 0.063018 0.743312 0.576055
O O14 0.977156 0.500000 0.146322
O O15 0.563194 0.223491 0.128457
O O16 0.429837 0.500000 0.690306
O O17 0.316197 0.286863 0.861688
O O18 0.931710 0.500000 0.863034
O O19 0.760965 0.270025 0.025779
O O20 0.206215 0.500000 0.032588
#
# Coordination Sequence:
#
# PCOD9131608 Si02
#       8
#     4   4   4   4   4   4   4   4
#     4   9  18  32  50  76 104 134 173 217 259 302
#     4  11  21  34  53  79 106 137 176 219 259 305
#     4  10  18  30  50  76 103 133 168 210 259 305
#     4  12  22  34  52  79 108 137 174 216 264 317
#     4  10  22  37  52  73 107 145 174 210 263 317
#     4  10  19  32  52  74 101 137 173 214 259 307
#     4   9  17  27  47  75 102 129 163 208 254 295
#     4   9  17  30  50  74 101 132 171 210 255 306
#
# _framework density 16.687441
#
# number of rings (size 3 to 8) (size 9 to 14) (size 15 to 20)
#    0.750    1.250    1.250    5.250    0.000    2.500 
#    0.000    0.000    0.000    1.500    0.000    7.000 
#    0.000    0.000    0.000    0.000    0.000    0.000 
#
# Total GULP energy -89092.314097 kJ/mol
# GULP energy per Si atom -5568.269631 kJ/mol
# Density = 1.664946 g / cm^3
# Si number density = 16.687441 Si / 1000 Ang^3
#
#
#
# Elastic Constant Matrix: (Units=GPa)
#
#
# Indices 1 2 3 4 5 6 
#
# 1 87.5908 33.6511 27.5076 0.0000 -3.4174 0.0000
# 2 33.6511 100.0617 36.6877 -0.0009 -7.0653 0.0003
# 3 27.5076 36.6877 76.2241 -0.0004 -6.5139 0.0001
# 4 0.0000 -0.0009 -0.0004 21.5874 0.0000 -1.7426
# 5 -3.4174 -7.0653 -6.5139 0.0000 15.5175 0.0000
# 6 0.0000 0.0003 0.0001 -1.7426 0.0000 28.5871
#
#
#
# Elastic Compliance Matrix: (Units=1/GPa)
#
#
# Indices 1 2 3 4 5 6 
#
# 1 0.013773 -0.003407 -0.003323 0.000000 0.000087 0.000000
# 2 -0.003407 0.013132 -0.004817 0.000000 0.003207 0.000000
# 3 -0.003323 -0.004817 0.016997 0.000000 0.004210 0.000000
# 4 0.000000 0.000000 0.000000 0.046552 0.000000 0.002838
# 5 0.000087 0.003207 0.004210 0.000000 0.067690 0.000000
# 6 0.000000 0.000000 0.000000 0.002838 0.000000 0.035154
#
#
# Mechanical properties :
#
#
# Convention : Reuss Voigt Hill
#
# Bulk Modulus (GPa) = 48.06047 51.06326 49.56187
# Shear Modulus (GPa) = 22.38861 24.20709 23.29785
#
# Velocity S-wave (km/s) = 3.66682 3.81283 3.74054
# Velocity P-wave (km/s) = 6.84035 7.07459 6.95845
#
# Compressibility (1/GPa) = 0.02080712
#
# Stress axis : x y z
#
# Youngs Moduli (GPa) = 72.60748 76.14775 58.83519
#
# Poissons Ratio (x) = 0.25946 0.19550
# Poissons Ratio (y) = 0.24740 0.28341
# Poissons Ratio (z) = 0.24126 0.36681
#
# Static dielectric constant tensor:
#      x y z
#    x 1.583250 0.000000 -0.020580 
#    y 0.000000 1.553910 0.000000 
#    z -0.020580 0.000000 1.556650 
# 
# From -- ./inp_files/32411.got.cif
#   From: 2010.05.17/outbox.cif.g08.bks.cpg/sg8_17_cif.got.tgz:32411.got - 2010.06.03 19:46:02.
