data_PCOD9131711
_publ_section_title
;
Structure prediction by ZEFSAII (Michael W. Deem and Ramdas Pophale) SiO2 
 PCOD9131711
Probable space group: C M
;
_chemical_formula_sum "Si O2"
_cell_formula_units_Z 32
_cell_length_a 14.975129
_cell_length_b 7.421443
_cell_length_c 11.201230
_cell_angle_alpha 90.000000
_cell_angle_beta 76.212147
_cell_angle_gamma 90.000000
_cell_volume 1209.000645
_symmetry_space_group_name_H-M "C M"
_symmetry_group_IT_number 8
_symmetry_cell_setting 'monoclinic'
loop_
_space_group_symop_operation_xyz
x,y,z
x,-y,z
1/2+x,1/2+y,z
1/2+x,1/2-y,z
loop_
_atom_site_type_symbol
_atom_site_label
_atom_site_fract_x
_atom_site_fract_y
_atom_site_fract_z
Si Si1 0.032630 0.295708 0.936810
Si Si2 0.982191 0.286128 0.297131
Si Si3 0.992688 0.280065 0.552165
Si Si4 0.380536 0.779393 0.821202
Si Si5 0.202237 0.788784 0.756407
Si Si6 0.205725 0.716553 0.491176
Si Si7 0.159192 0.283366 0.105307
Si Si8 0.308533 0.712575 0.221951
O O1 0.011205 0.500000 0.982925
O O2 0.103748 0.303746 0.802421
O O3 0.938866 0.214163 0.916113
O O4 0.099845 0.210335 0.013690
O O5 0.974547 0.500000 0.303877
O O6 0.954912 0.215589 0.435824
O O7 0.916571 0.230539 0.209623
O O8 0.088482 0.248413 0.236782
O O9 0.990551 0.500000 0.552858
O O10 0.935962 0.222259 0.685102
O O11 0.099342 0.224343 0.522612
O O12 0.276034 0.721901 0.830717
O O13 0.380750 0.000000 0.824767
O O14 0.241743 0.766174 0.610901
O O15 0.188125 0.000000 0.778092
O O16 0.205929 0.500000 0.484289
O O17 0.262601 0.784833 0.359214
O O18 0.165433 0.500000 0.083295
O O19 0.256985 0.213362 0.121257
O O20 0.289193 0.500000 0.225103
#
# Coordination Sequence:
#
# PCOD9131711 Si02
#       8
#     4   4   4   4   4   4   4   4
#     4  10  20  38  60  77 101 146 194 223 256 321
#     4  10  19  34  57  82 107 142 184 223 264 320
#     4   9  15  29  55  79 101 137 181 216 253 313
#     4   9  18  32  53  77 103 138 177 216 264 320
#     4  11  22  35  54  84 115 137 171 230 283 317
#     4  10  18  33  58  80 107 147 184 213 259 330
#     4   9  19  36  58  80 104 143 192 226 255 314
#     4  10  20  35  55  83 114 142 175 223 274 317
#
# _framework density 26.468142
#
# number of rings (size 3 to 8) (size 9 to 14) (size 15 to 20)
#    0.000    2.250    2.500    1.125    0.000    2.500 
#    0.000    5.000    0.000    0.000    0.000    0.000 
#    0.000    0.000    0.000    0.000    0.000    0.000 
#
# Total GULP energy -89479.067918 kJ/mol
# GULP energy per Si atom -5592.441745 kJ/mol
# Density = 2.640790 g / cm^3
# Si number density = 26.468142 Si / 1000 Ang^3
#
#
#
# Elastic Constant Matrix: (Units=GPa)
#
#
# Indices 1 2 3 4 5 6 
#
# 1 157.7228 2.9152 31.9439 0.0000 39.5323 0.0000
# 2 2.9152 88.8629 0.9524 0.0000 -2.9876 0.0000
# 3 31.9439 0.9524 98.2796 0.0000 32.2504 0.0000
# 4 0.0000 0.0000 0.0000 6.1515 0.0000 1.6941
# 5 39.5323 -2.9876 32.2504 0.0000 57.4649 0.0000
# 6 0.0000 0.0000 0.0000 1.6941 0.0000 9.5747
#
#
#
# Elastic Compliance Matrix: (Units=1/GPa)
#
#
# Indices 1 2 3 4 5 6 
#
# 1 0.007746 -0.000406 -0.000929 0.000000 -0.004828 0.000000
# 2 -0.000406 0.011305 -0.000321 0.000000 0.001048 0.000000
# 3 -0.000929 -0.000321 0.012596 0.000000 -0.006446 0.000000
# 4 0.000000 0.000000 0.000000 0.170890 0.000000 -0.030237
# 5 -0.004828 0.001048 -0.006446 0.000000 0.024396 0.000000
# 6 0.000000 0.000000 0.000000 -0.030237 0.000000 0.109792
#
#
# Mechanical properties :
#
#
# Convention : Reuss Voigt Hill
#
# Bulk Modulus (GPa) = 35.29467 46.27649 40.78558
# Shear Modulus (GPa) = 14.30680 35.24178 24.77429
#
# Velocity S-wave (km/s) = 2.32745 3.65290 3.06274
# Velocity P-wave (km/s) = 4.53723 5.94251 5.28677
#
# Compressibility (1/GPa) = 0.02833289
#
# Stress axis : x y z
#
# Youngs Moduli (GPa) = 129.09542 88.45416 79.39304
#
# Poissons Ratio (x) = 0.03596 0.07378
# Poissons Ratio (y) = 0.05248 0.02550
# Poissons Ratio (z) = 0.11998 0.02841
#
# Static dielectric constant tensor:
#      x y z
#    x 2.053020 0.000000 0.021810 
#    y 0.000000 1.992200 0.000000 
#    z 0.021810 0.000000 2.134460 
# 
# From -- ./inp_files/21529.got.cif
#   From: 2010.05.17/outbox.cif.g08.bks.cpg/sg8_11_cif.got.tgz:21529.got - 2010.06.03 19:46:02.
