data_PCOD9131318
_publ_section_title
;
Structure prediction by ZEFSAII (Michael W. Deem and Ramdas Pophale) SiO2 
 PCOD9131318
Probable space group: P C
;
_chemical_formula_sum "Si O2"
_cell_formula_units_Z 16
_cell_length_a 8.796673
_cell_length_b 17.837631
_cell_length_c 5.064562
_cell_angle_alpha 90.000000
_cell_angle_beta 123.866355
_cell_angle_gamma 90.000000
_cell_volume 659.862271
_symmetry_space_group_name_H-M "P C"
_symmetry_group_IT_number 7
_symmetry_cell_setting 'monoclinic'
loop_
_space_group_symop_operation_xyz
x,y,z
x,-y,1/2+z
loop_
_atom_site_type_symbol
_atom_site_label
_atom_site_fract_x
_atom_site_fract_y
_atom_site_fract_z
Si Si1 0.035380 0.540971 0.866010
Si Si2 0.994105 0.210438 0.564249
Si Si3 0.478218 0.707588 0.227612
Si Si4 0.074495 0.305073 0.140534
Si Si5 0.672441 0.175182 0.616206
Si Si6 0.660059 0.048324 0.986039
Si Si7 0.367770 0.143171 0.939521
Si Si8 0.480220 0.455345 0.837197
O O1 0.974511 0.476013 0.603915
O O2 0.992557 0.618434 0.677222
O O3 0.257702 0.541357 0.113049
O O4 0.804751 0.180733 0.495781
O O5 0.011378 0.240822 0.284965
O O6 0.151655 0.148316 0.758863
O O7 0.037551 0.279794 0.806803
O O8 0.423765 0.776439 0.364830
O O9 0.532904 0.631212 0.423760
O O10 0.295191 0.689340 0.884251
O O11 0.631655 0.742535 0.189253
O O12 0.741446 0.120475 0.913576
O O13 0.478608 0.143166 0.321074
O O14 0.450881 0.077011 0.840648
O O15 0.704624 0.983597 0.817505
O O16 0.544686 0.488753 0.624309
#
# Coordination Sequence:
#
# PCOD9131318 Si02
#       8
#     2   2   2   2   2   2   2   2
#     4   9  16  28  50  77 111 155 204 251 313 373
#     4  11  24  38  62  95 125 155 210 256 304 363
#     4   9  20  35  61  88 124 165 211 258 317 365
#     4  10  20  36  56  88 123 157 207 268 307 367
#     4  11  23  41  69  94 127 167 204 257 308 364
#     4  11  23  43  70  96 129 167 203 245 307 373
#     4  10  22  42  67  95 125 165 206 256 308 365
#     4   9  18  29  49  83 116 155 207 259 306 368
#
# _framework density 24.247484
#
# number of rings (size 3 to 8) (size 9 to 14) (size 15 to 20)
#    0.000    2.000    2.500    0.750    5.250    3.000 
#    0.000    1.250    0.000    4.500    0.000    0.000 
#    0.000    0.000    0.000    0.000    0.000    0.000 
#
# Total GULP energy -89390.659026 kJ/mol
# GULP energy per Si atom -5586.916189 kJ/mol
# Density = 2.419230 g / cm^3
# Si number density = 24.247484 Si / 1000 Ang^3
#
#
#
# Elastic Constant Matrix: (Units=GPa)
#
#
# Indices 1 2 3 4 5 6 
#
# 1 73.8669 -6.8713 10.8958 0.0000 2.4610 0.0000
# 2 -6.8713 71.1223 -0.6438 0.0000 -3.0582 0.0000
# 3 10.8958 -0.6438 54.8670 0.0000 -17.9922 0.0000
# 4 0.0000 0.0000 0.0000 26.5329 0.0000 -9.3793
# 5 2.4610 -3.0582 -17.9922 0.0000 38.9609 0.0000
# 6 0.0000 0.0000 0.0000 -9.3793 0.0000 18.1223
#
#
#
# Elastic Compliance Matrix: (Units=1/GPa)
#
#
# Indices 1 2 3 4 5 6 
#
# 1 0.014272 0.001239 -0.003634 0.000000 -0.002482 0.000000
# 2 0.001239 0.014234 0.000308 0.000000 0.001181 0.000000
# 3 -0.003634 0.000308 0.022431 0.000000 0.010612 0.000000
# 4 0.000000 0.000000 0.000000 0.046129 0.000000 0.023874
# 5 -0.002482 0.001181 0.010612 0.000000 0.030817 0.000000
# 6 0.000000 0.000000 0.000000 0.023874 0.000000 0.067537
#
#
# Mechanical properties :
#
#
# Convention : Reuss Voigt Hill
#
# Bulk Modulus (GPa) = 21.38378 22.95752 22.17065
# Shear Modulus (GPa) = 23.23640 29.82158 26.52899
#
# Velocity S-wave (km/s) = 3.09900 3.51077 3.31130
# Velocity P-wave (km/s) = 4.65223 5.09142 4.87677
#
# Compressibility (1/GPa) = 0.04676441
#
# Stress axis : x y z
#
# Youngs Moduli (GPa) = 70.06812 70.25631 44.58075
#
# Poissons Ratio (x) = -0.08706 0.16199
# Poissons Ratio (y) = -0.08683 -0.01375
# Poissons Ratio (z) = 0.25460 -0.02166
#
# Static dielectric constant tensor:
#      x y z
#    x 1.922460 0.000000 0.052560 
#    y 0.000000 1.969750 0.000000 
#    z 0.052560 0.000000 1.964810 
# 
# From -- ./inp_files/852.got.cif
#   From: 2010.05.17/outbox.cif.g08.bks.cpg/sg7_cif.got.tgz:852.got - 2010.06.03 19:44:50.
