data_PCOD9131941
_publ_section_title
;
Structure prediction by ZEFSAII (Michael W. Deem and Ramdas Pophale) SiO2 
 PCOD9131941
Probable space group: C M
;
_chemical_formula_sum "Si O2"
_cell_formula_units_Z 32
_cell_length_a 14.409290
_cell_length_b 13.813929
_cell_length_c 8.243136
_cell_angle_alpha 90.000000
_cell_angle_beta 97.977106
_cell_angle_gamma 90.000000
_cell_volume 1624.910314
_symmetry_space_group_name_H-M "C M"
_symmetry_group_IT_number 8
_symmetry_cell_setting 'monoclinic'
loop_
_space_group_symop_operation_xyz
x,y,z
x,-y,z
1/2+x,1/2+y,z
1/2+x,1/2-y,z
loop_
_atom_site_type_symbol
_atom_site_label
_atom_site_fract_x
_atom_site_fract_y
_atom_site_fract_z
Si Si1 0.194850 0.243882 0.654070
Si Si2 0.169090 0.611730 0.935159
Si Si3 0.534227 0.614884 0.765665
Si Si4 0.804975 0.109691 0.239351
Si Si5 0.469392 0.315121 0.087289
Si Si6 0.975054 0.394973 0.043686
Si Si7 0.545201 0.189628 0.372565
Si Si8 0.383177 0.258028 0.543743
O O1 0.203426 0.319775 0.802387
O O2 0.125281 0.160175 0.700285
O O3 0.139646 0.300320 0.496329
O O4 0.297311 0.212105 0.620766
O O5 0.196182 0.500000 0.914223
O O6 0.213908 0.641640 0.117678
O O7 0.057088 0.614700 0.930147
O O8 0.530179 0.500000 0.745562
O O9 0.444026 0.667518 0.665221
O O10 0.528908 0.644443 0.953568
O O11 0.835951 0.181178 0.387238
O O12 0.888065 0.114845 0.126149
O O13 0.793017 0.000000 0.295385
O O14 0.424463 0.209202 0.029985
O O15 0.531722 0.286766 0.259148
O O16 0.928282 0.500000 0.013995
O O17 0.026802 0.391353 0.232519
O O18 0.459381 0.187850 0.479704
#
# Coordination Sequence:
#
# PCOD9131941 Si02
#       8
#     4   4   4   4   4   4   4   4
#     4  11  20  36  56  83 122 150 187 235 290 343
#     4  10  20  32  54  84 110 142 184 235 288 336
#     4  11  22  38  60  86 116 155 195 238 289 347
#     4  10  19  33  55  84 114 143 187 239 285 339
#     4   9  18  35  54  78 106 148 187 233 289 335
#     4   9  17  34  54  77 104 141 187 229 277 332
#     4   8  19  34  53  82 107 152 185 234 287 333
#     4  10  21  34  56  84 115 153 190 233 283 339
#
# _framework density 19.693394000000001
#
# number of rings (size 3 to 8) (size 9 to 14) (size 15 to 20)
#    0.750    1.500    1.250    2.250    0.000    2.500 
#    0.000    1.250    0.000    3.750    0.000    0.000 
#    0.000    0.000    0.000    0.000    0.000    0.000 
#
# Total GULP energy -89131.633893 kJ/mol
# GULP energy per Si atom -5570.727118 kJ/mol
# Density = 1.964857 g / cm^3
# Si number density = 19.693394 Si / 1000 Ang^3
#
#
#
# Elastic Constant Matrix: (Units=GPa)
#
#
# Indices 1 2 3 4 5 6 
#
# 1 87.4003 11.4406 22.6942 0.0000 -18.2782 0.0000
# 2 11.4406 42.6823 2.3927 0.0000 -4.3983 0.0000
# 3 22.6942 2.3927 55.4701 0.0000 -10.1825 0.0000
# 4 0.0000 0.0000 0.0000 11.6882 0.0000 3.9161
# 5 -18.2782 -4.3983 -10.1825 0.0000 30.8915 0.0000
# 6 0.0000 0.0000 0.0000 3.9161 0.0000 14.3527
#
#
#
# Elastic Compliance Matrix: (Units=1/GPa)
#
#
# Indices 1 2 3 4 5 6 
#
# 1 0.014384 -0.002921 -0.004548 0.000000 0.006596 0.000000
# 2 -0.002921 0.024381 0.000493 0.000000 0.001906 0.000000
# 3 -0.004548 0.000493 0.020635 0.000000 0.004181 0.000000
# 4 0.000000 0.000000 0.000000 0.094165 0.000000 -0.025693
# 5 0.006596 0.001906 0.004181 0.000000 0.037923 0.000000
# 6 0.000000 0.000000 0.000000 -0.025693 0.000000 0.076684
#
#
# Mechanical properties :
#
#
# Convention : Reuss Voigt Hill
#
# Bulk Modulus (GPa) = 22.00333 28.73418 25.36876
# Shear Modulus (GPa) = 16.81958 21.32149 19.07053
#
# Velocity S-wave (km/s) = 2.92562 3.29397 3.11524
# Velocity P-wave (km/s) = 4.75495 5.39346 5.08424
#
# Compressibility (1/GPa) = 0.04544767
#
# Stress axis : x y z
#
# Youngs Moduli (GPa) = 69.51981 41.01626 48.46208
#
# Poissons Ratio (x) = 0.11981 0.22042
# Poissons Ratio (y) = 0.20306 -0.02390
# Poissons Ratio (z) = 0.31619 -0.02023
#
# Static dielectric constant tensor:
#      x y z
#    x 1.709940 0.000000 -0.002820 
#    y 0.000000 1.674890 0.000000 
#    z -0.002820 0.000000 1.723050 
# 
# From -- ./inp_files/13135.got.cif
#   From: 2010.05.17/outbox.cif.g08.bks.cpg/sg8_7_cif.got.tgz:13135.got - 2010.06.03 19:46:02.
