data_PCOD9131035
_publ_section_title
;
Structure prediction by ZEFSAII (Michael W. Deem and Ramdas Pophale) SiO2 
 PCOD9131035
Probable space group: P M
;
_chemical_formula_sum "Si O2"
_cell_formula_units_Z 16
_cell_length_a 14.831060
_cell_length_b 7.492053
_cell_length_c 19.541214
_cell_angle_alpha 90.000000
_cell_angle_beta 160.591138
_cell_angle_gamma 90.000000
_cell_volume 721.546104
_symmetry_space_group_name_H-M "P M"
_symmetry_group_IT_number 6
_symmetry_cell_setting 'monoclinic'
loop_
_space_group_symop_operation_xyz
x,y,z
x,-y,z
loop_
_atom_site_type_symbol
_atom_site_label
_atom_site_fract_x
_atom_site_fract_y
_atom_site_fract_z
Si Si1 0.127000 0.202197 0.130930
Si Si2 0.113071 0.794959 0.504974
Si Si3 0.533895 0.288056 0.542947
Si Si4 0.622221 0.218398 0.244581
Si Si5 0.602217 0.218622 0.385306
Si Si6 0.718641 0.783046 0.946256
Si Si7 0.134344 0.290759 0.366235
Si Si8 0.010893 0.214177 0.795357
O O1 0.350891 0.198855 0.352807
O O2 0.304689 0.282672 0.196951
O O3 0.055259 0.000000 0.059718
O O4 0.869244 0.284310 0.985023
O O5 0.411589 0.716760 0.731812
O O6 0.071423 0.794878 0.393677
O O7 0.856850 0.717371 0.361777
O O8 0.132377 0.000000 0.542493
O O9 0.482428 0.500000 0.501826
O O10 0.411115 0.226054 0.527185
O O11 0.843868 0.255777 0.744921
O O12 0.676407 0.268478 0.361839
O O13 0.615363 0.000000 0.236257
O O14 0.317002 0.280280 0.010444
O O15 0.824965 0.279075 0.599593
O O16 0.591828 0.000000 0.380454
O O17 0.718164 0.000000 0.941205
O O18 0.900229 0.735766 0.141948
O O19 0.162284 0.500000 0.400107
O O20 0.020770 0.000000 0.798150
#
# Coordination Sequence:
#
# PCOD9131035 Si02
#       8
#     2   2   2   2   2   2   2   2
#     4   8  14  27  48  73  99 128 164 205 254 311
#     4  10  21  35  53  79 107 137 178 224 262 301
#     4   9  17  30  49  74 102 130 164 206 252 304
#     4   9  18  31  48  73 101 130 168 209 250 299
#     4   8  14  26  45  69  95 121 155 200 245 293
#     4   9  18  33  54  79 105 134 172 220 267 309
#     4  10  21  36  54  76 106 144 177 211 261 316
#     4   9  17  30  51  75  99 130 162 199 251 305
#
# _framework density 22.174605
#
# number of rings (size 3 to 8) (size 9 to 14) (size 15 to 20)
#    0.000    3.000    0.000    1.500    0.000    4.000 
#    0.000    6.875    0.000    9.000    0.000    0.000 
#    0.000    0.000    0.000    0.000    0.000    0.000 
#
# Total GULP energy -89270.293412 kJ/mol
# GULP energy per Si atom -5579.393338 kJ/mol
# Density = 2.212414 g / cm^3
# Si number density = 22.174605 Si / 1000 Ang^3
#
#
#
# Elastic Constant Matrix: (Units=GPa)
#
#
# Indices 1 2 3 4 5 6 
#
# 1 179.2285 -2.1183 95.3573 0.0000 42.6303 0.0000
# 2 -2.1183 70.2183 0.1181 0.0000 6.1363 0.0000
# 3 95.3573 0.1181 159.2209 0.0000 37.9162 0.0000
# 4 0.0000 0.0000 0.0000 0.3403 0.0000 7.2203
# 5 42.6303 6.1363 37.9162 0.0000 45.5497 0.0000
# 6 0.0000 0.0000 0.0000 7.2203 0.0000 -31.6151
#
#
#
# Elastic Compliance Matrix: (Units=1/GPa)
#
#
# Indices 1 2 3 4 5 6 
#
# 1 0.009024 0.000720 -0.004204 0.000000 -0.005043 0.000000
# 2 0.000720 0.014509 0.000229 0.000000 -0.002819 0.000000
# 3 -0.004204 0.000229 0.009814 0.000000 -0.004266 0.000000
# 4 0.000000 0.000000 0.000000 0.502685 0.000000 0.114804
# 5 -0.005043 -0.002819 -0.004266 0.000000 0.030605 0.000000
# 6 0.000000 0.000000 0.000000 0.114804 0.000000 -0.005411
#
#
# Mechanical properties :
#
#
# Convention : Reuss Voigt Hill
#
# Bulk Modulus (GPa) = 37.26063 66.15355 51.70709
# Shear Modulus (GPa) = 8.67030 23.87569 16.27299
#
# Velocity S-wave (km/s) = 1.97952 3.28489 2.71192
# Velocity P-wave (km/s) = 4.69728 6.65471 5.75976
#
# Compressibility (1/GPa) = 0.02683798
#
# Stress axis : x y z
#
# Youngs Moduli (GPa) = 110.81065 68.92263 101.89410
#
# Poissons Ratio (x) = -0.04963 0.42839
# Poissons Ratio (y) = -0.07979 -0.02338
# Poissons Ratio (z) = 0.46588 -0.01581
#
# Static dielectric constant tensor:
#      x y z
#    x 1.806350 0.000000 0.022520 
#    y 0.000000 1.840060 0.000000 
#    z 0.022520 0.000000 1.820280 
# 
# From -- ./inp_files/3562.got.cif
#   From: 2010.05.17/outbox.cif.g08.bks.cpg/sg6_2_cif.got.tgz:3562.got - 2010.06.03 19:42:10.
