data_PCOD9131160
_publ_section_title
;
Structure prediction by ZEFSAII (Michael W. Deem and Ramdas Pophale) SiO2 
 PCOD9131160
Probable space group: P M
;
_chemical_formula_sum "Si O2"
_cell_formula_units_Z 12
_cell_length_a 5.258453
_cell_length_b 18.012338
_cell_length_c 5.247039
_cell_angle_alpha 90.000000
_cell_angle_beta 93.434803
_cell_angle_gamma 90.000000
_cell_volume 496.091193
_symmetry_space_group_name_H-M "P M"
_symmetry_group_IT_number 6
_symmetry_cell_setting 'monoclinic'
loop_
_space_group_symop_operation_xyz
x,y,z
x,-y,z
loop_
_atom_site_type_symbol
_atom_site_label
_atom_site_fract_x
_atom_site_fract_y
_atom_site_fract_z
Si Si1 0.027860 0.789976 0.012830
Si Si2 0.336721 0.585233 0.240116
Si Si3 0.100262 0.647261 0.746733
Si Si4 0.625074 0.151746 0.608163
Si Si5 0.713312 0.300140 0.372502
Si Si6 0.133640 0.913853 0.380997
O O1 0.167243 0.860601 0.138129
O O2 0.950781 0.735158 0.237497
O O3 0.163808 0.733584 0.825315
O O4 0.765409 0.820676 0.872759
O O5 0.414799 0.500000 0.255355
O O6 0.241492 0.611579 0.512908
O O7 0.561336 0.642787 0.193454
O O8 0.139377 0.597702 0.998066
O O9 0.813987 0.656404 0.625240
O O10 0.565761 0.227262 0.450419
O O11 0.367401 0.104738 0.585400
O O12 0.859017 0.108407 0.482834
O O13 0.136428 0.000000 0.315030
#
# Coordination Sequence:
#
# PCOD9131160 Si02
#       6
#     2   2   2   2   2   2
#     4  10  23  45  74 103 138 202 253 303 366 448
#     4  12  27  43  70 106 146 189 240 310 383 438
#     4  11  24  47  69 101 142 188 243 303 360 449
#     4  10  24  41  72 103 142 196 250 302 367 446
#     4  10  24  44  72 101 137 189 249 301 363 444
#     4  11  24  44  67 108 155 194 245 311 379 439
#
# _framework density 24.189097
#
# number of rings (size 3 to 8) (size 9 to 14) (size 15 to 20)
#    0.000    1.333    1.667    2.000    9.333    5.333 
#    0.000    0.000    0.000    0.000    0.000    0.000 
#    0.000    0.000    0.000    0.000    0.000    0.000 
#
# Total GULP energy -67077.827162 kJ/mol
# GULP energy per Si atom -5589.818930 kJ/mol
# Density = 2.413404 g / cm^3
# Si number density = 24.189097 Si / 1000 Ang^3
#
#
#
# Elastic Constant Matrix: (Units=GPa)
#
#
# Indices 1 2 3 4 5 6 
#
# 1 86.6913 48.7574 27.0616 0.0000 9.1655 0.0000
# 2 48.7574 137.1896 39.8160 0.0000 30.6865 0.0000
# 3 27.0616 39.8160 124.5504 0.0000 7.4742 0.0000
# 4 0.0000 0.0000 0.0000 21.4463 0.0000 -3.5411
# 5 9.1655 30.6865 7.4742 0.0000 36.8963 0.0000
# 6 0.0000 0.0000 0.0000 -3.5411 0.0000 23.9942
#
#
#
# Elastic Compliance Matrix: (Units=1/GPa)
#
#
# Indices 1 2 3 4 5 6 
#
# 1 0.014748 -0.004929 -0.001675 0.000000 0.000775 0.000000
# 2 -0.004929 0.011404 -0.002105 0.000000 -0.007834 0.000000
# 3 -0.001675 -0.002105 0.009046 0.000000 0.000334 0.000000
# 4 0.000000 0.000000 0.000000 0.047793 0.000000 0.007053
# 5 0.000775 -0.007834 0.000334 0.000000 0.033358 0.000000
# 6 0.000000 0.000000 0.000000 0.007053 0.000000 0.042718
#
#
# Mechanical properties :
#
#
# Convention : Reuss Voigt Hill
#
# Bulk Modulus (GPa) = 56.24099 64.41127 60.32613
# Shear Modulus (GPa) = 27.41068 31.98710 29.69889
#
# Velocity S-wave (km/s) = 3.36993 3.64039 3.50777
# Velocity P-wave (km/s) = 6.20024 6.66003 6.43424
#
# Compressibility (1/GPa) = 0.01778063
#
# Stress axis : x y z
#
# Youngs Moduli (GPa) = 67.80472 87.68900 110.55063
#
# Poissons Ratio (x) = 0.43219 0.18521
# Poissons Ratio (y) = 0.33419 0.23267
# Poissons Ratio (z) = 0.11360 0.18455
#
# Static dielectric constant tensor:
#      x y z
#    x 2.028720 0.000000 -0.034070 
#    y 0.000000 1.876640 0.000000 
#    z -0.034070 0.000000 1.989020 
# 
# From -- ./inp_files/407.got.cif
#   From: 2010.05.17/outbox.cif.g08.bks.cpg/sg6_1_cif.got.tgz:407.got - 2010.06.03 19:42:10.
