data_PCOD9131434
_publ_section_title
;
Structure prediction by ZEFSAII (Michael W. Deem and Ramdas Pophale) SiO2 
 PCOD9131434
Probable space group: P C
;
_chemical_formula_sum "Si O2"
_cell_formula_units_Z 16
_cell_length_a 8.727044
_cell_length_b 17.079272
_cell_length_c 5.443709
_cell_angle_alpha 90.000000
_cell_angle_beta 55.767768
_cell_angle_gamma 90.000000
_cell_volume 670.830973
_symmetry_space_group_name_H-M "P C"
_symmetry_group_IT_number 7
_symmetry_cell_setting 'monoclinic'
loop_
_space_group_symop_operation_xyz
x,y,z
x,-y,1/2+z
loop_
_atom_site_type_symbol
_atom_site_label
_atom_site_fract_x
_atom_site_fract_y
_atom_site_fract_z
Si Si1 0.830870 0.975612 0.649840
Si Si2 0.627420 0.316055 0.256411
Si Si3 0.812948 0.814248 0.900556
Si Si4 0.486176 0.818984 0.524255
Si Si5 0.252523 0.963022 0.790234
Si Si6 0.222220 0.633416 0.132249
Si Si7 0.877539 0.456096 0.878805
Si Si8 0.167972 0.726140 0.668973
O O1 0.852980 0.882204 0.665944
O O2 0.735179 0.992568 0.480111
O O3 0.028773 0.022896 0.475480
O O4 0.726167 0.267468 0.382917
O O5 0.443556 0.367666 0.476487
O O6 0.558550 0.245860 0.145882
O O7 0.775707 0.372619 0.994433
O O8 0.004821 0.788399 0.844582
O O9 0.665662 0.849156 0.222581
O O10 0.346973 0.880877 0.771567
O O11 0.355465 0.773780 0.449307
O O12 0.312156 0.980395 0.457724
O O13 0.140240 0.672714 0.454296
O O14 0.099456 0.556668 0.198147
O O15 0.189985 0.681221 0.907015
O O16 0.825045 0.494517 0.667629
#
# Coordination Sequence:
#
# PCOD9131434 Si02
#       8
#     2   2   2   2   2   2   2   2
#     4  10  24  43  64  98 140 192 244 297 364 431
#     4  11  27  47  76 116 148 187 256 304 369 442
#     4  12  25  43  76 103 146 192 250 312 369 430
#     4  11  26  44  73 108 147 197 250 315 369 433
#     4  10  23  44  66  95 145 192 247 301 367 432
#     4  11  24  46  72 106 149 184 236 294 360 449
#     4  12  28  49  79 110 152 196 237 302 377 451
#     4  11  23  42  72 102 143 188 240 301 359 432
#
# _framework density 23.851015
#
# number of rings (size 3 to 8) (size 9 to 14) (size 15 to 20)
#    0.000    1.000    2.500    3.000    5.250    6.000 
#    0.000    0.000    0.000    0.000    0.000    0.000 
#    0.000    0.000    0.000    0.000    0.000    0.000 
#
# Total GULP energy -89397.705503 kJ/mol
# GULP energy per Si atom -5587.356594 kJ/mol
# Density = 2.379673 g / cm^3
# Si number density = 23.851015 Si / 1000 Ang^3
#
#
#
# Elastic Constant Matrix: (Units=GPa)
#
#
# Indices 1 2 3 4 5 6 
#
# 1 76.3331 3.2994 47.4908 0.0000 -0.9436 0.0000
# 2 3.2994 45.5054 13.6577 0.0000 5.0184 0.0000
# 3 47.4908 13.6577 82.1249 0.0000 2.3603 0.0000
# 4 0.0000 0.0000 0.0000 41.3399 0.0000 -0.0665
# 5 -0.9436 5.0184 2.3603 0.0000 54.5007 0.0000
# 6 0.0000 0.0000 0.0000 -0.0665 0.0000 44.6947
#
#
#
# Elastic Compliance Matrix: (Units=1/GPa)
#
#
# Indices 1 2 3 4 5 6 
#
# 1 0.020695 0.002127 -0.012341 0.000000 0.000697 0.000000
# 2 0.002127 0.023561 -0.005093 0.000000 -0.001912 0.000000
# 3 -0.012341 -0.005093 0.020178 0.000000 -0.000619 0.000000
# 4 0.000000 0.000000 0.000000 0.024190 0.000000 0.000036
# 5 0.000697 -0.001912 -0.000619 0.000000 0.018563 0.000000
# 6 0.000000 0.000000 0.000000 0.000036 0.000000 0.022374
#
#
# Mechanical properties :
#
#
# Convention : Reuss Voigt Hill
#
# Bulk Modulus (GPa) = 29.56953 36.98435 33.27694
# Shear Modulus (GPa) = 29.16312 37.40810 33.28561
#
# Velocity S-wave (km/s) = 3.50053 3.96461 3.73978
# Velocity P-wave (km/s) = 5.36310 6.04132 5.71228
#
# Compressibility (1/GPa) = 0.03381860
#
# Stress axis : x y z
#
# Youngs Moduli (GPa) = 48.32008 42.44360 49.55892
#
# Poissons Ratio (x) = -0.09026 0.61162
# Poissons Ratio (y) = -0.10276 0.25241
# Poissons Ratio (z) = 0.59633 0.21617
#
# Static dielectric constant tensor:
#      x y z
#    x 1.924270 0.000000 0.000730 
#    y 0.000000 1.937440 0.000000 
#    z 0.000730 0.000000 1.957720 
# 
# From -- ./inp_files/800.got.cif
#   From: 2010.05.17/outbox.cif.g08.bks.cpg/sg7_cif.got.tgz:800.got - 2010.06.03 19:44:50.
