data_PCOD9131159
_publ_section_title
;
Structure prediction by ZEFSAII (Michael W. Deem and Ramdas Pophale) SiO2 
 PCOD9131159
Probable space group: P M
;
_chemical_formula_sum "Si O2"
_cell_formula_units_Z 11
_cell_length_a 5.284259
_cell_length_b 15.244150
_cell_length_c 5.184498
_cell_angle_alpha 90.000000
_cell_angle_beta 86.953998
_cell_angle_gamma 90.000000
_cell_volume 417.042209
_symmetry_space_group_name_H-M "P M"
_symmetry_group_IT_number 6
_symmetry_cell_setting 'monoclinic'
loop_
_space_group_symop_operation_xyz
x,y,z
x,-y,z
loop_
_atom_site_type_symbol
_atom_site_label
_atom_site_fract_x
_atom_site_fract_y
_atom_site_fract_z
Si Si1 0.488400 0.689217 0.181810
Si Si2 0.691430 0.122886 0.127411
Si Si3 0.531277 0.500000 0.237440
Si Si4 0.005332 0.123463 0.609892
Si Si5 0.006244 0.500000 0.563399
Si Si6 0.347775 0.000000 0.871314
Si Si7 0.174781 0.312766 0.708575
O O1 0.664279 0.772525 0.137995
O O2 0.583306 0.592507 0.098696
O O3 0.402224 0.683765 0.484399
O O4 0.261346 0.705736 0.993988
O O5 0.852262 0.096458 0.366477
O O6 0.844747 0.094156 0.866675
O O7 0.426103 0.076576 0.081837
O O8 0.234382 0.500000 0.335640
O O9 0.727060 0.500000 0.462340
O O10 0.022279 0.228576 0.618601
O O11 0.269735 0.077233 0.661791
O O12 0.050758 0.408383 0.704421
#
# Coordination Sequence:
#
# PCOD9131159 Si02
#       7
#     2   2   1   2   1   1   2
#     4  11  23  46  73 106 145 189 237 300 367 437
#     4  12  27  47  74 106 140 192 245 301 370 443
#     4  10  23  44  72 110 148 198 246 303 369 449
#     4  12  27  47  74 106 140 192 245 301 370 443
#     4  10  23  44  72 110 148 198 246 303 369 449
#     4  12  28  50  72 102 150 180 250 302 386 424
#     4  11  23  46  73 106 145 189 237 300 367 437
#
# _framework density 26.376228999999999
#
# number of rings (size 3 to 8) (size 9 to 14) (size 15 to 20)
#    0.000    0.727    1.818    4.909    0.000    4.364 
#    0.000    8.182    0.000    0.000    0.000    0.000 
#    0.000    0.000    0.000    0.000    0.000    0.000 
#
# Total GULP energy -61362.709769 kJ/mol
# GULP energy per Si atom -5578.428161 kJ/mol
# Density = 2.631620 g / cm^3
# Si number density = 26.376229 Si / 1000 Ang^3
#
#
#
# Elastic Constant Matrix: (Units=GPa)
#
#
# Indices 1 2 3 4 5 6 
#
# 1 53.9387 21.5318 47.9680 0.0000 3.8515 0.0000
# 2 21.5318 256.0933 41.5529 0.0000 19.3858 0.0000
# 3 47.9680 41.5529 184.2799 0.0000 44.4807 0.0000
# 4 0.0000 0.0000 0.0000 66.0457 0.0000 19.2341
# 5 3.8515 19.3858 44.4807 0.0000 60.2135 0.0000
# 6 0.0000 0.0000 0.0000 19.2341 0.0000 73.2787
#
#
#
# Elastic Compliance Matrix: (Units=1/GPa)
#
#
# Indices 1 2 3 4 5 6 
#
# 1 0.025227 -0.001254 -0.007292 0.000000 0.004177 0.000000
# 2 -0.001254 0.004145 -0.000372 0.000000 -0.000980 0.000000
# 3 -0.007292 -0.000372 0.008844 0.000000 -0.005947 0.000000
# 4 0.000000 0.000000 0.000000 0.016394 0.000000 -0.004303
# 5 0.004177 -0.000980 -0.005947 0.000000 0.021049 0.000000
# 6 0.000000 0.000000 0.000000 -0.004303 0.000000 0.014776
#
#
# Mechanical properties :
#
#
# Convention : Reuss Voigt Hill
#
# Bulk Modulus (GPa) = 49.06772 79.60192 64.33482
# Shear Modulus (GPa) = 43.45443 65.45820 54.45632
#
# Velocity S-wave (km/s) = 4.06333 4.98708 4.54871
# Velocity P-wave (km/s) = 6.37633 7.96280 7.21331
#
# Compressibility (1/GPa) = 0.02038000
#
# Stress axis : x y z
#
# Youngs Moduli (GPa) = 39.64064 241.27027 113.07235
#
# Poissons Ratio (x) = 0.30256 0.82451
# Poissons Ratio (y) = 0.04971 0.04203
# Poissons Ratio (z) = 0.28906 0.08968
#
# Static dielectric constant tensor:
#      x y z
#    x 2.426950 0.000000 -0.060520 
#    y 0.000000 2.077890 0.000000 
#    z -0.060520 0.000000 1.995660 
# 
# From -- ./inp_files/338.got.cif
#   From: 2010.05.17/outbox.cif.g08.bks.cpg/sg6_1_cif.got.tgz:338.got - 2010.06.03 19:42:10.
