data_PCOD9131363
_publ_section_title
;
Structure prediction by ZEFSAII (Michael W. Deem and Ramdas Pophale) SiO2 
 PCOD9131363
Probable space group: P C
;
_chemical_formula_sum "Si O2"
_cell_formula_units_Z 14
_cell_length_a 7.579998
_cell_length_b 18.137213
_cell_length_c 5.299296
_cell_angle_alpha 90.000000
_cell_angle_beta 115.344617
_cell_angle_gamma 90.000000
_cell_volume 658.424354
_symmetry_space_group_name_H-M "P C"
_symmetry_group_IT_number 7
_symmetry_cell_setting 'monoclinic'
loop_
_space_group_symop_operation_xyz
x,y,z
x,-y,1/2+z
loop_
_atom_site_type_symbol
_atom_site_label
_atom_site_fract_x
_atom_site_fract_y
_atom_site_fract_z
Si Si1 0.642930 0.691661 0.508400
Si Si2 0.408007 0.711589 0.861310
Si Si3 0.738120 0.864748 0.576469
Si Si4 0.505353 0.115059 0.434089
Si Si5 0.265325 0.519371 0.250963
Si Si6 0.091526 0.956998 0.645056
Si Si7 0.053866 0.619155 0.795921
O O1 0.495366 0.683802 0.651230
O O2 0.715855 0.776613 0.561401
O O3 0.831172 0.641114 0.661909
O O4 0.535816 0.681479 0.175173
O O5 0.188620 0.683691 0.766653
O O6 0.429944 0.799995 0.878464
O O7 0.609405 0.895358 0.265880
O O8 0.956747 0.889490 0.650624
O O9 0.653350 0.893492 0.790159
O O10 0.318050 0.063838 0.296084
O O11 0.382058 0.506031 0.576029
O O12 0.098742 0.455682 0.169136
O O13 0.155105 0.595084 0.123818
O O14 0.048842 0.981712 0.333128
#
# Coordination Sequence:
#
# PCOD9131363 Si02
#       7
#     2   2   2   2   2   2   2
#     4  10  23  37  62  89 108 151 198 230 288 342
#     4  10  23  37  62  89 108 151 198 230 288 342
#     4  10  22  42  59  85 121 147 187 244 283 327
#     4  10  22  42  59  85 121 147 187 244 283 327
#     4   8  20  34  56  80 112 158 182 222 302 332
#     4  12  25  38  62  91 112 156 198 218 284 353
#     4  10  21  40  60  77 126 146 188 246 280 331
#
# _framework density 21.262884
#
# number of rings (size 3 to 8) (size 9 to 14) (size 15 to 20)
#    0.857    1.143    0.000    2.571    4.000    3.429 
#    0.000   12.857    0.000    0.000    0.000    0.000 
#    0.000    0.000    0.000    0.000    0.000    0.000 
#
# Total GULP energy -78113.973365 kJ/mol
# GULP energy per Si atom -5579.569526 kJ/mol
# Density = 2.121449 g / cm^3
# Si number density = 21.262884 Si / 1000 Ang^3
#
#
#
# Elastic Constant Matrix: (Units=GPa)
#
#
# Indices 1 2 3 4 5 6 
#
# 1 64.4995 16.0742 21.6109 0.0000 -15.1443 0.0000
# 2 16.0742 28.6313 8.5560 0.0000 -1.4136 0.0000
# 3 21.6109 8.5560 83.5190 0.0000 -27.6269 0.0000
# 4 0.0000 0.0000 0.0000 18.9756 0.0000 2.3112
# 5 -15.1443 -1.4136 -27.6269 0.0000 28.4904 0.0000
# 6 0.0000 0.0000 0.0000 2.3112 0.0000 27.7321
#
#
#
# Elastic Compliance Matrix: (Units=1/GPa)
#
#
# Indices 1 2 3 4 5 6 
#
# 1 0.020809 -0.010871 -0.001163 0.000000 0.009393 0.000000
# 2 -0.010871 0.041844 -0.003973 0.000000 -0.007555 0.000000
# 3 -0.001163 -0.003973 0.018273 0.000000 0.016903 0.000000
# 4 0.000000 0.000000 0.000000 0.053240 0.000000 -0.004437
# 5 0.009393 -0.007555 0.016903 0.000000 0.056109 0.000000
# 6 0.000000 0.000000 0.000000 -0.004437 0.000000 0.036429
#
#
# Mechanical properties :
#
#
# Convention : Reuss Voigt Hill
#
# Bulk Modulus (GPa) = 20.44521 29.90356 25.17439
# Shear Modulus (GPa) = 18.18041 23.73352 20.95697
#
# Velocity S-wave (km/s) = 2.92726 3.34457 3.14285
# Velocity P-wave (km/s) = 4.58928 5.38602 5.00353
#
# Compressibility (1/GPa) = 0.04891121
#
# Stress axis : x y z
#
# Youngs Moduli (GPa) = 48.05714 23.89816 54.72642
#
# Poissons Ratio (x) = 0.25979 0.06367
# Poissons Ratio (y) = 0.52243 0.21742
# Poissons Ratio (z) = 0.05591 0.09494
#
# Static dielectric constant tensor:
#      x y z
#    x 1.715640 0.000000 -0.053070 
#    y 0.000000 1.791090 0.000000 
#    z -0.053070 0.000000 1.828950 
# 
# From -- ./inp_files/256.got.cif
#   From: 2010.05.17/outbox.cif.g08.bks.cpg/sg7_cif.got.tgz:256.got - 2010.06.03 19:44:50.
