data_PCOD9131957
_publ_section_title
;
Structure prediction by ZEFSAII (Michael W. Deem and Ramdas Pophale) SiO2 
 PCOD9131957
Probable space group: C M
;
_chemical_formula_sum "Si O2"
_cell_formula_units_Z 32
_cell_length_a 17.216062
_cell_length_b 8.602440
_cell_length_c 21.393693
_cell_angle_alpha 90.000000
_cell_angle_beta 150.391353
_cell_angle_gamma 90.000000
_cell_volume 1565.425575
_symmetry_space_group_name_H-M "C M"
_symmetry_group_IT_number 8
_symmetry_cell_setting 'monoclinic'
loop_
_space_group_symop_operation_xyz
x,y,z
x,-y,z
1/2+x,1/2+y,z
1/2+x,1/2-y,z
loop_
_atom_site_type_symbol
_atom_site_label
_atom_site_fract_x
_atom_site_fract_y
_atom_site_fract_z
Si Si1 0.695190 0.180805 0.839230
Si Si2 0.008592 0.185470 0.001662
Si Si3 0.123255 0.811402 0.416269
Si Si4 0.513350 0.327439 0.598814
Si Si5 0.333734 0.823833 0.759292
Si Si6 0.312080 0.314272 0.277429
Si Si7 0.718144 0.677396 0.348056
Si Si8 0.920556 0.821913 0.698973
O O1 0.611458 0.287404 0.728885
O O2 0.583756 0.225499 0.817835
O O3 0.675148 0.000000 0.809111
O O4 0.880422 0.210733 0.967838
O O5 0.174161 0.257170 0.135190
O O6 0.021051 0.000000 0.000249
O O7 0.928929 0.268755 0.886733
O O8 0.112393 0.765700 0.334147
O O9 0.287008 0.747068 0.559459
O O10 0.978258 0.763667 0.360886
O O11 0.130631 0.000000 0.421999
O O12 0.439308 0.500000 0.549476
O O13 0.647801 0.330928 0.641336
O O14 0.389520 0.194601 0.499159
O O15 0.353329 0.697138 0.720453
O O16 0.381423 0.000000 0.774984
O O17 0.319513 0.500000 0.285903
O O18 0.253975 0.257405 0.305876
O O19 0.672377 0.500000 0.302963
O O20 0.949770 0.000000 0.704267
#
# Coordination Sequence:
#
# PCOD9131957 Si02
#       8
#     4   4   4   4   4   4   4   4
#     4  10  20  36  59  84 117 157 192 239 302 363
#     4  10  22  42  64  87 116 156 207 255 302 361
#     4  10  23  42  63  90 127 168 205 250 313 378
#     4  10  19  33  56  87 118 151 194 245 299 360
#     4  10  21  37  59  86 121 161 198 244 308 370
#     4  11  24  43  65  89 122 167 214 258 308 368
#     4  11  22  38  62  90 123 165 209 254 309 370
#     4  12  23  35  58  93 126 155 199 253 305 364
#
# _framework density 20.441725999999999
#
# number of rings (size 3 to 8) (size 9 to 14) (size 15 to 20)
#    0.000    1.500    1.250    4.125    0.000    7.500 
#    2.250    0.000    0.000    0.000    0.000    0.000 
#    0.000    0.000    0.000    0.000    0.000    0.000 
#
# Total GULP energy -89102.216103 kJ/mol
# GULP energy per Si atom -5568.888506 kJ/mol
# Density = 2.039520 g / cm^3
# Si number density = 20.441726 Si / 1000 Ang^3
#
#
#
# Elastic Constant Matrix: (Units=GPa)
#
#
# Indices 1 2 3 4 5 6 
#
# 1 101.0847 36.5494 22.5561 -0.0003 5.2898 0.0000
# 2 36.5494 59.8191 10.3523 -0.0003 9.5643 0.0000
# 3 22.5561 10.3523 54.3237 -0.0009 12.6025 -0.0001
# 4 -0.0003 -0.0003 -0.0009 26.4550 0.0000 -1.8676
# 5 5.2898 9.5643 12.6025 0.0000 24.5087 0.0000
# 6 0.0000 0.0000 -0.0001 -1.8676 0.0000 30.8322
#
#
#
# Elastic Compliance Matrix: (Units=1/GPa)
#
#
# Indices 1 2 3 4 5 6 
#
# 1 0.013701 -0.007961 -0.004776 0.000000 0.002606 0.000000
# 2 -0.007961 0.022654 0.000728 0.000000 -0.007496 0.000000
# 3 -0.004776 0.000728 0.022799 0.000001 -0.010976 0.000000
# 4 0.000000 0.000000 0.000001 0.037962 -0.000001 0.002300
# 5 0.002606 -0.007496 -0.010976 -0.000001 0.048809 0.000000
# 6 0.000000 0.000000 0.000000 0.002300 0.000000 0.032573
#
#
# Mechanical properties :
#
#
# Convention : Reuss Voigt Hill
#
# Bulk Modulus (GPa) = 28.46217 39.34924 33.90571
# Shear Modulus (GPa) = 23.33957 26.07716 24.70837
#
# Velocity S-wave (km/s) = 3.38266 3.57555 3.48044
# Velocity P-wave (km/s) = 5.40466 6.02804 5.72484
#
# Compressibility (1/GPa) = 0.03513435
#
# Stress axis : x y z
#
# Youngs Moduli (GPa) = 72.98961 44.14247 43.86147
#
# Poissons Ratio (x) = 0.35142 0.20948
# Poissons Ratio (y) = 0.58108 -0.03191
# Poissons Ratio (z) = 0.34860 -0.03212
#
# Static dielectric constant tensor:
#      x y z
#    x 1.880470 0.000000 0.024210 
#    y 0.000000 1.710910 0.000000 
#    z 0.024210 0.000000 1.699160 
# 
# From -- ./inp_files/32133.got.cif
#   From: 2010.05.17/outbox.cif.g08.bks.cpg/sg8_17_cif.got.tgz:32133.got - 2010.06.03 19:46:02.
