data_PCOD9131975
_publ_section_title
;
Structure prediction by ZEFSAII (Michael W. Deem and Ramdas Pophale) SiO2 
 PCOD9131975
Probable space group: C M
;
_chemical_formula_sum "Si O2"
_cell_formula_units_Z 32
_cell_length_a 14.554266
_cell_length_b 7.979164
_cell_length_c 26.438945
_cell_angle_alpha 90.000000
_cell_angle_beta 33.783477
_cell_angle_gamma 90.000000
_cell_volume 1707.301866
_symmetry_space_group_name_H-M "C M"
_symmetry_group_IT_number 8
_symmetry_cell_setting 'monoclinic'
loop_
_space_group_symop_operation_xyz
x,y,z
x,-y,z
1/2+x,1/2+y,z
1/2+x,1/2-y,z
loop_
_atom_site_type_symbol
_atom_site_label
_atom_site_fract_x
_atom_site_fract_y
_atom_site_fract_z
Si Si1 0.945200 0.696914 0.644360
Si Si2 0.629849 0.303644 0.659801
Si Si3 0.185855 0.298710 0.154587
Si Si4 0.397664 0.798754 0.153929
Si Si5 0.817950 0.705064 0.302606
Si Si6 0.266142 0.705047 0.005853
Si Si7 0.499892 0.696624 0.509080
Si Si8 0.073212 0.204812 0.798583
O O1 0.940079 0.500000 0.634961
O O2 0.019705 0.782223 0.560338
O O3 0.754115 0.754545 0.736366
O O4 0.047142 0.723359 0.648663
O O5 0.592567 0.500000 0.674120
O O6 0.827445 0.280107 0.571921
O O7 0.563920 0.239330 0.744303
O O8 0.179985 0.500000 0.154678
O O9 0.291875 0.250694 0.154253
O O10 0.264394 0.241394 0.065355
O O11 0.995195 0.240561 0.243810
O O12 0.319826 0.742354 0.242972
O O13 0.588579 0.741801 0.064778
O O14 0.402785 0.000000 0.153860
O O15 0.815902 0.500000 0.304865
O O16 0.659184 0.763062 0.406337
O O17 0.269788 0.500000 0.003621
O O18 0.422058 0.763630 0.902143
O O19 0.482541 0.500000 0.505655
O O20 0.069113 0.000000 0.800144
#
# Coordination Sequence:
#
# PCOD9131975 Si02
#       8
#     4   4   4   4   4   4   4   4
#     4  10  20  34  51  73 101 130 164 203 245 292
#     4  10  20  34  51  73 101 130 164 203 245 292
#     4   9  17  31  50  71  96 125 158 194 235 283
#     4   9  17  31  50  71  96 125 158 194 235 283
#     4   8  17  33  50  69  95 128 159 191 237 291
#     4   8  15  30  50  69  95 130 159 189 237 289
#     4  10  19  34  54  73  97 128 165 206 248 291
#     4   8  16  31  50  71  95 126 163 200 238 285
#
# _framework density 18.743026
#
# number of rings (size 3 to 8) (size 9 to 14) (size 15 to 20)
#    0.000    3.000    0.000    3.375    0.000    2.000 
#    0.000    7.500    0.000    7.500    0.000    0.000 
#    0.000    0.000    0.000    0.000    0.000    0.000 
#
# Total GULP energy -89193.807818 kJ/mol
# GULP energy per Si atom -5574.612989 kJ/mol
# Density = 1.870037 g / cm^3
# Si number density = 18.743026 Si / 1000 Ang^3
#
#
#
# Elastic Constant Matrix: (Units=GPa)
#
#
# Indices 1 2 3 4 5 6 
#
# 1 157.8205 -6.6586 83.8426 0.0000 2.5757 0.0001
# 2 -6.6586 12.9843 1.0134 0.0000 0.2598 0.0001
# 3 83.8426 1.0134 190.0634 -0.0001 8.0342 0.0000
# 4 0.0000 0.0000 -0.0001 13.9610 0.0000 -1.5236
# 5 2.5757 0.2598 8.0342 0.0000 7.6645 0.0000
# 6 0.0001 0.0001 0.0000 -1.5236 0.0000 27.5617
#
#
#
# Elastic Compliance Matrix: (Units=1/GPa)
#
#
# Indices 1 2 3 4 5 6 
#
# 1 0.008558 0.004669 -0.003842 0.000000 0.000993 0.000000
# 2 0.004669 0.079634 -0.002411 0.000000 -0.001742 0.000000
# 3 -0.003842 -0.002411 0.007232 0.000000 -0.006207 0.000000
# 4 0.000000 0.000000 0.000000 0.072063 0.000000 0.003983
# 5 0.000993 -0.001742 -0.006207 0.000000 0.136704 0.000000
# 6 0.000000 0.000000 0.000000 0.003983 0.000000 0.036502
#
#
# Mechanical properties :
#
#
# Convention : Reuss Voigt Hill
#
# Bulk Modulus (GPa) = 10.83945 57.47367 34.15656
# Shear Modulus (GPa) = 13.34714 28.68216 21.01465
#
# Velocity S-wave (km/s) = 2.67144 3.91613 3.35206
# Velocity P-wave (km/s) = 3.91295 7.15393 5.76584
#
# Compressibility (1/GPa) = 0.09225559
#
# Stress axis : x y z
#
# Youngs Moduli (GPa) = 116.84616 12.55752 138.28283
#
# Poissons Ratio (x) = -0.05863 0.53131
# Poissons Ratio (y) = -0.54554 0.33334
# Poissons Ratio (z) = 0.44894 0.03027
#
# Static dielectric constant tensor:
#      x y z
#    x 1.619810 0.000000 0.002900 
#    y 0.000000 1.672400 0.000000 
#    z 0.002900 0.000000 1.647660 
# 
# From -- ./inp_files/26463.got.cif
#   From: 2010.05.17/outbox.cif.g08.bks.cpg/sg8_14_cif.got.tgz:26463.got - 2010.06.03 19:46:02.
