data_PCOD9131429
_publ_section_title
;
Structure prediction by ZEFSAII (Michael W. Deem and Ramdas Pophale) SiO2 
 PCOD9131429
Probable space group: P C
;
_chemical_formula_sum "Si O2"
_cell_formula_units_Z 16
_cell_length_a 6.530269
_cell_length_b 17.806408
_cell_length_c 5.577300
_cell_angle_alpha 90.000000
_cell_angle_beta 82.303082
_cell_angle_gamma 90.000000
_cell_volume 642.688971
_symmetry_space_group_name_H-M "P C"
_symmetry_group_IT_number 7
_symmetry_cell_setting 'monoclinic'
loop_
_space_group_symop_operation_xyz
x,y,z
x,-y,1/2+z
loop_
_atom_site_type_symbol
_atom_site_label
_atom_site_fract_x
_atom_site_fract_y
_atom_site_fract_z
Si Si1 0.521820 0.861475 0.813980
Si Si2 0.083741 0.087781 0.490941
Si Si3 0.898091 0.536312 0.067840
Si Si4 0.566167 0.378104 0.401499
Si Si5 0.915274 0.082566 0.020576
Si Si6 0.451962 0.288602 0.032565
Si Si7 0.144318 0.678897 0.198201
Si Si8 0.780830 0.756332 0.078898
O O1 0.671402 0.906604 0.608871
O O2 0.441523 0.784395 0.705193
O O3 0.332050 0.907848 0.951091
O O4 0.672387 0.830910 0.998736
O O5 0.025645 0.118536 0.235419
O O6 0.989007 0.003578 0.497463
O O7 0.991967 0.115857 0.758285
O O8 0.955251 0.477499 0.274169
O O9 0.992317 0.609325 0.181668
O O10 0.656632 0.554513 0.045757
O O11 0.512485 0.370959 0.130336
O O12 0.354183 0.348330 0.543520
O O13 0.731681 0.310343 0.396958
O O14 0.229621 0.297682 0.942434
O O15 0.641198 0.267330 0.827633
O O16 0.021804 0.746112 0.092700
#
# Coordination Sequence:
#
# PCOD9131429 Si02
#       8
#     2   2   2   2   2   2   2   2
#     4  11  25  44  72 106 151 192 256 320 383 461
#     4  10  25  46  71 107 144 195 245 308 378 462
#     4  11  27  44  72 107 146 192 248 299 358 444
#     4   9  22  43  66  95 141 188 237 303 365 428
#     4  10  25  45  73 106 146 195 250 302 384 456
#     4  10  23  42  70 102 141 195 242 313 377 444
#     4  10  23  44  72 100 147 191 246 304 372 435
#     4   9  22  42  64 103 138 188 238 303 379 436
#
# _framework density 24.895399999999999
#
# number of rings (size 3 to 8) (size 9 to 14) (size 15 to 20)
#    0.000    2.000    0.000    0.000   10.500   11.000 
#    0.000    0.000    0.000    0.000    0.000    0.000 
#    0.000    0.000    0.000    0.000    0.000    0.000 
#
# Total GULP energy -89100.892870 kJ/mol
# GULP energy per Si atom -5568.805804 kJ/mol
# Density = 2.483874 g / cm^3
# Si number density = 24.895400 Si / 1000 Ang^3
#
#
#
# Elastic Constant Matrix: (Units=GPa)
#
#
# Indices 1 2 3 4 5 6 
#
# 1 123.4006 10.6518 35.2340 0.0000 13.5194 0.0000
# 2 10.6518 52.6800 13.9986 0.0000 1.7386 0.0000
# 3 35.2340 13.9986 134.9867 0.0000 17.1166 0.0000
# 4 0.0000 0.0000 0.0000 29.1154 0.0000 6.8302
# 5 13.5194 1.7386 17.1166 0.0000 42.0997 0.0000
# 6 0.0000 0.0000 0.0000 6.8302 0.0000 33.9895
#
#
#
# Elastic Compliance Matrix: (Units=1/GPa)
#
#
# Indices 1 2 3 4 5 6 
#
# 1 0.008993 -0.001230 -0.001961 0.000000 -0.002040 0.000000
# 2 -0.001230 0.019689 -0.001758 0.000000 0.000297 0.000000
# 3 -0.001961 -0.001758 0.008449 0.000000 -0.002733 0.000000
# 4 0.000000 0.000000 0.000000 0.036045 0.000000 -0.007243
# 5 -0.002040 0.000297 -0.002733 0.000000 0.025507 0.000000
# 6 0.000000 0.000000 0.000000 -0.007243 0.000000 0.030876
#
#
# Mechanical properties :
#
#
# Convention : Reuss Voigt Hill
#
# Bulk Modulus (GPa) = 36.72178 47.87068 42.29623
# Shear Modulus (GPa) = 33.66189 37.78646 35.72417
#
# Velocity S-wave (km/s) = 3.68113 3.90013 3.79221
# Velocity P-wave (km/s) = 5.73149 6.28903 6.01672
#
# Compressibility (1/GPa) = 0.02723180
#
# Stress axis : x y z
#
# Youngs Moduli (GPa) = 111.19379 50.79056 118.35850
#
# Poissons Ratio (x) = 0.06247 0.23213
# Poissons Ratio (y) = 0.13676 0.20812
# Poissons Ratio (z) = 0.21807 0.08931
#
# Static dielectric constant tensor:
#      x y z
#    x 1.996190 0.000000 0.044050 
#    y 0.000000 2.177570 0.000000 
#    z 0.044050 0.000000 2.185330 
# 
# From -- ./inp_files/393.got.cif
#   From: 2010.05.17/outbox.cif.g08.bks.cpg/sg7_cif.got.tgz:393.got - 2010.06.03 19:44:50.
