data_PCOD9131708
_publ_section_title
;
Structure prediction by ZEFSAII (Michael W. Deem and Ramdas Pophale) SiO2 
 PCOD9131708
Probable space group: C M
;
_chemical_formula_sum "Si O2"
_cell_formula_units_Z 32
_cell_length_a 20.626246
_cell_length_b 8.793638
_cell_length_c 22.081113
_cell_angle_alpha 90.000000
_cell_angle_beta 22.471883
_cell_angle_gamma 90.000000
_cell_volume 1530.856615
_symmetry_space_group_name_H-M "C M"
_symmetry_group_IT_number 8
_symmetry_cell_setting 'monoclinic'
loop_
_space_group_symop_operation_xyz
x,y,z
x,-y,z
1/2+x,1/2+y,z
1/2+x,1/2-y,z
loop_
_atom_site_type_symbol
_atom_site_label
_atom_site_fract_x
_atom_site_fract_y
_atom_site_fract_z
Si Si1 0.472750 0.182797 0.160610
Si Si2 0.706087 0.170982 0.180240
Si Si3 0.376818 0.320722 0.811610
Si Si4 0.521935 0.331080 0.995759
Si Si5 0.708401 0.833330 0.741338
Si Si6 0.140201 0.683587 0.487747
Si Si7 0.030876 0.323437 0.447795
Si Si8 0.397503 0.829452 0.916209
O O1 0.431726 0.266846 0.132637
O O2 0.330898 0.246984 0.329465
O O3 0.457277 0.000000 0.171033
O O4 0.674808 0.219982 0.990925
O O5 0.885859 0.155266 0.059602
O O6 0.597767 0.246840 0.327353
O O7 0.739637 0.265007 0.090991
O O8 0.644963 0.000000 0.217828
O O9 0.385833 0.500000 0.792244
O O10 0.497197 0.238238 0.658697
O O11 0.442322 0.277481 0.821769
O O12 0.594283 0.500000 0.944365
O O13 0.650625 0.206314 0.859328
O O14 0.830843 0.698018 0.617645
O O15 0.791210 0.000000 0.668304
O O16 0.552528 0.837495 0.829628
O O17 0.149254 0.500000 0.481735
O O18 0.081387 0.733683 0.470745
O O19 0.084523 0.500000 0.399039
O O20 0.363449 0.000000 0.923183
#
# Coordination Sequence:
#
# PCOD9131708 Si02
#       8
#     4   4   4   4   4   4   4   4
#     4  11  23  39  62  93 126 162 206 255 311 368
#     4   9  18  35  58  84 116 151 191 239 292 355
#     4  11  25  44  64  89 122 166 214 258 308 366
#     4  10  18  33  57  84 116 154 193 237 296 360
#     4  10  21  35  55  87 120 153 196 247 306 362
#     4  11  23  41  65  95 129 164 205 254 306 369
#     4  10  20  36  58  90 123 156 196 239 300 369
#     4  10  22  41  61  84 114 156 205 251 301 357
#
# _framework density 20.903327999999998
#
# number of rings (size 3 to 8) (size 9 to 14) (size 15 to 20)
#    0.000    1.750    1.250    3.000    0.000    7.500 
#    2.250    0.000    0.000    0.000    0.000    0.000 
#    0.000    0.000    0.000    0.000    0.000    0.000 
#
# Total GULP energy -89144.799799 kJ/mol
# GULP energy per Si atom -5571.549987 kJ/mol
# Density = 2.085575 g / cm^3
# Si number density = 20.903328 Si / 1000 Ang^3
#
#
#
# Elastic Constant Matrix: (Units=GPa)
#
#
# Indices 1 2 3 4 5 6 
#
# 1 36.0162 18.7923 34.0776 -0.0005 15.1144 0.0003
# 2 18.7923 68.7469 39.0207 -0.0007 -1.0625 0.0003
# 3 34.0776 39.0207 125.6969 0.0002 19.8011 -0.0003
# 4 -0.0005 -0.0007 0.0002 34.5254 -0.0006 2.1110
# 5 15.1144 -1.0625 19.8011 -0.0006 25.7940 0.0004
# 6 0.0003 0.0003 -0.0003 2.1110 0.0004 14.7813
#
#
#
# Elastic Compliance Matrix: (Units=1/GPa)
#
#
# Indices 1 2 3 4 5 6 
#
# 1 0.049423 -0.010288 -0.006343 0.000000 -0.024514 0.000000
# 2 -0.010288 0.020544 -0.005314 0.000001 0.010954 -0.000001
# 3 -0.006343 -0.005314 0.012256 0.000000 -0.005910 0.000001
# 4 0.000000 0.000001 0.000000 0.029219 0.000001 -0.004173
# 5 -0.024514 0.010954 -0.005910 0.000001 0.058122 -0.000002
# 6 0.000000 -0.000001 0.000001 -0.004173 -0.000002 0.068249
#
#
# Mechanical properties :
#
#
# Convention : Reuss Voigt Hill
#
# Bulk Modulus (GPa) = 26.08806 46.02680 36.05743
# Shear Modulus (GPa) = 16.97897 24.25810 20.61854
#
# Velocity S-wave (km/s) = 2.85311 3.41029 3.14407
# Velocity P-wave (km/s) = 4.83333 6.12972 5.51972
#
# Compressibility (1/GPa) = 0.03833171
#
# Stress axis : x y z
#
# Youngs Moduli (GPa) = 20.23343 48.67603 81.59209
#
# Poissons Ratio (x) = 0.50080 0.51757
# Poissons Ratio (y) = 0.20817 0.43357
# Poissons Ratio (z) = 0.12835 0.25866
#
# Static dielectric constant tensor:
#      x y z
#    x 1.786550 0.000000 -0.029130 
#    y 0.000000 1.749490 0.000000 
#    z -0.029130 0.000000 1.800220 
# 
# From -- ./inp_files/32399.got.cif
#   From: 2010.05.17/outbox.cif.g08.bks.cpg/sg8_17_cif.got.tgz:32399.got - 2010.06.03 19:46:02.
