data_PCOD9131459
_publ_section_title
;
Structure prediction by ZEFSAII (Michael W. Deem and Ramdas Pophale) SiO2 
 PCOD9131459
Probable space group: P C
;
_chemical_formula_sum "Si O2"
_cell_formula_units_Z 10
_cell_length_a 5.241830
_cell_length_b 15.645728
_cell_length_c 4.969485
_cell_angle_alpha 90.000000
_cell_angle_beta 99.709166
_cell_angle_gamma 90.000000
_cell_volume 401.720963
_symmetry_space_group_name_H-M "P C"
_symmetry_group_IT_number 7
_symmetry_cell_setting 'monoclinic'
loop_
_space_group_symop_operation_xyz
x,y,z
x,-y,1/2+z
loop_
_atom_site_type_symbol
_atom_site_label
_atom_site_fract_x
_atom_site_fract_y
_atom_site_fract_z
Si Si1 0.442010 0.837091 0.908990
Si Si2 0.124649 0.717742 0.540150
Si Si3 0.415516 0.444325 0.343638
Si Si4 0.801237 0.692589 0.970955
Si Si5 0.963844 0.943347 0.045470
O O1 0.313640 0.797938 0.615523
O O2 0.687005 0.899729 0.936380
O O3 0.206667 0.883235 0.017729
O O4 0.570227 0.750515 0.051874
O O5 0.249066 0.632565 0.690791
O O6 0.027807 0.700031 0.226122
O O7 0.885282 0.732370 0.701794
O O8 0.375050 0.476348 0.637975
O O9 0.702431 0.402838 0.399373
O O10 0.979405 0.025539 0.854132
#
# Coordination Sequence:
#
# PCOD9131459 Si02
#       5
#     2   2   2   2   2
#     4  11  26  50  74 107 148 190 244 295 354 444
#     4  11  25  44  72 101 141 196 238 292 359 421
#     4  11  24  42  66 105 146 186 240 299 354 420
#     4  11  25  44  72 101 141 196 238 292 359 421
#     4  12  28  48  76 108 146 188 236 300 368 424
#
# _framework density 24.892900000000001
#
# number of rings (size 3 to 8) (size 9 to 14) (size 15 to 20)
#    0.000    0.800    2.000    3.600    2.800   12.800 
#    0.000    0.000    0.000    0.000    0.000    0.000 
#    0.000    0.000    0.000    0.000    0.000    0.000 
#
# Total GULP energy -55957.597507 kJ/mol
# GULP energy per Si atom -5595.759751 kJ/mol
# Density = 2.483624 g / cm^3
# Si number density = 24.892900 Si / 1000 Ang^3
#
#
#
# Elastic Constant Matrix: (Units=GPa)
#
#
# Indices 1 2 3 4 5 6 
#
# 1 129.6408 34.9549 21.1246 0.0000 13.1991 0.0000
# 2 34.9549 85.9667 13.4888 0.0000 15.4386 0.0000
# 3 21.1246 13.4888 111.6849 0.0000 9.7969 0.0000
# 4 0.0000 0.0000 0.0000 38.9810 0.0000 9.5901
# 5 13.1991 15.4386 9.7969 0.0000 31.2219 0.0000
# 6 0.0000 0.0000 0.0000 9.5901 0.0000 65.0627
#
#
#
# Elastic Compliance Matrix: (Units=1/GPa)
#
#
# Indices 1 2 3 4 5 6 
#
# 1 0.008932 -0.003115 -0.001149 0.000000 -0.001875 0.000000
# 2 -0.003115 0.013965 -0.000624 0.000000 -0.005393 0.000000
# 3 -0.001149 -0.000624 0.009437 0.000000 -0.002167 0.000000
# 4 0.000000 0.000000 0.000000 0.026619 0.000000 -0.003924
# 5 -0.001875 -0.005393 -0.002167 0.000000 0.036168 0.000000
# 6 0.000000 0.000000 0.000000 -0.003924 0.000000 0.015948
#
#
# Mechanical properties :
#
#
# Convention : Reuss Voigt Hill
#
# Bulk Modulus (GPa) = 44.33065 51.82542 48.07804
# Shear Modulus (GPa) = 38.95197 44.23473 41.59335
#
# Velocity S-wave (km/s) = 3.96002 4.22002 4.09209
# Velocity P-wave (km/s) = 6.22545 6.67902 6.45622
#
# Compressibility (1/GPa) = 0.02255775
#
# Stress axis : x y z
#
# Youngs Moduli (GPa) = 111.96309 71.60589 105.97144
#
# Poissons Ratio (x) = 0.22303 0.12173
# Poissons Ratio (y) = 0.34872 0.06618
# Poissons Ratio (z) = 0.12861 0.04472
#
# Static dielectric constant tensor:
#      x y z
#    x 2.065390 0.000000 -0.005350 
#    y 0.000000 1.995510 0.000000 
#    z -0.005350 0.000000 1.898220 
# 
# From -- ./inp_files/109.got.cif
#   From: 2010.05.17/outbox.cif.g08.bks.cpg/sg7_cif.got.tgz:109.got - 2010.06.03 19:44:50.
