data_PCOD9131523
_publ_section_title
;
Structure prediction by ZEFSAII (Michael W. Deem and Ramdas Pophale) SiO2 
 PCOD9131523
Probable space group: C M
;
_chemical_formula_sum "Si O2"
_cell_formula_units_Z 32
_cell_length_a 23.525921
_cell_length_b 9.178563
_cell_length_c 11.291345
_cell_angle_alpha 90.000000
_cell_angle_beta 36.470393
_cell_angle_gamma 90.000000
_cell_volume 1449.276185
_symmetry_space_group_name_H-M "C M"
_symmetry_group_IT_number 8
_symmetry_cell_setting 'monoclinic'
loop_
_space_group_symop_operation_xyz
x,y,z
x,-y,z
1/2+x,1/2+y,z
1/2+x,1/2-y,z
loop_
_atom_site_type_symbol
_atom_site_label
_atom_site_fract_x
_atom_site_fract_y
_atom_site_fract_z
Si Si1 0.772870 0.164321 0.472580
Si Si2 0.677705 0.834185 0.183628
Si Si3 0.822772 0.673543 0.614927
Si Si4 0.961725 0.664822 0.821692
Si Si5 0.624169 0.821689 0.022820
Si Si6 0.396553 0.667759 0.711670
Si Si7 0.049210 0.664328 0.913155
Si Si8 0.747911 0.338990 0.275402
O O1 0.829723 0.260621 0.471919
O O2 0.662751 0.156362 0.700112
O O3 0.766093 0.237221 0.356640
O O4 0.810669 0.000000 0.404261
O O5 0.678246 0.730978 0.295590
O O6 0.658206 0.000000 0.252496
O O7 0.610745 0.794957 0.184597
O O8 0.786755 0.832544 0.947534
O O9 0.830620 0.500000 0.601011
O O10 0.717672 0.728431 0.832728
O O11 0.891315 0.743749 0.598335
O O12 0.001480 0.500000 0.738845
O O13 0.961690 0.756421 0.701835
O O14 0.007352 0.734953 0.864160
O O15 0.850236 0.649823 0.040354
O O16 0.545798 0.782066 0.054497
O O17 0.640692 0.000000 0.984827
O O18 0.422722 0.500000 0.648152
O O19 0.007498 0.500000 0.983548
O O20 0.716694 0.500000 0.365379
#
# Coordination Sequence:
#
# PCOD9131523 Si02
#       8
#     4   4   4   4   4   4   4   4
#     4  10  19  32  49  67  91 123 157 189 224 272
#     4   8  14  25  42  63  87 116 151 187 222 265
#     4  10  17  26  43  67  92 116 149 192 233 268
#     4   9  17  30  48  70  95 121 152 190 230 270
#     4   8  14  26  44  66  91 119 152 188 226 269
#     4   9  16  27  43  65  92 120 152 187 226 271
#     4   8  15  29  49  70  91 119 154 190 226 268
#     4  10  19  29  44  68  95 120 149 189 235 275
#
# _framework density 22.079986999999999
#
# number of rings (size 3 to 8) (size 9 to 14) (size 15 to 20)
#    0.000    3.000    0.000    3.750    0.000    3.500 
#    0.000    3.125    0.000    1.500    0.000    8.750 
#    0.000    0.000    0.000    0.000    0.000    0.000 
#
# Total GULP energy -89218.517708 kJ/mol
# GULP energy per Si atom -5576.157357 kJ/mol
# Density = 2.202973 g / cm^3
# Si number density = 22.079987 Si / 1000 Ang^3
#
#
#
# Elastic Constant Matrix: (Units=GPa)
#
#
# Indices 1 2 3 4 5 6 
#
# 1 214.6364 86.9999 35.2745 0.0000 55.9873 0.0000
# 2 86.9999 139.2966 25.5643 0.0000 36.5866 0.0000
# 3 35.2745 25.5643 43.6061 0.0000 3.4112 0.0000
# 4 0.0000 0.0000 0.0000 9.8058 0.0000 15.7659
# 5 55.9873 36.5866 3.4112 0.0000 45.3010 0.0000
# 6 0.0000 0.0000 0.0000 15.7659 0.0000 28.4612
#
#
#
# Elastic Compliance Matrix: (Units=1/GPa)
#
#
# Indices 1 2 3 4 5 6 
#
# 1 0.008579 -0.002233 -0.004972 0.000000 -0.008425 0.000000
# 2 -0.002233 0.010812 -0.004089 0.000000 -0.005665 0.000000
# 3 -0.004972 -0.004089 0.028782 0.000000 0.007280 0.000000
# 4 0.000000 0.000000 0.000000 0.932479 0.000000 -0.516540
# 5 -0.008425 -0.005665 0.007280 0.000000 0.036513 0.000000
# 6 0.000000 0.000000 0.000000 -0.516540 0.000000 0.321269
#
#
# Mechanical properties :
#
#
# Convention : Reuss Voigt Hill
#
# Bulk Modulus (GPa) = 39.08467 77.02405 58.05436
# Shear Modulus (GPa) = 3.65084 33.36029 18.50556
#
# Velocity S-wave (km/s) = 1.28726 3.89123 2.89816
# Velocity P-wave (km/s) = 4.46646 7.42622 6.12772
#
# Compressibility (1/GPa) = 0.02558548
#
# Stress axis : x y z
#
# Youngs Moduli (GPa) = 116.56788 92.49249 34.74387
#
# Poissons Ratio (x) = 0.20651 0.17273
# Poissons Ratio (y) = 0.26027 0.14207
# Poissons Ratio (z) = 0.57953 0.37821
#
# Static dielectric constant tensor:
#      x y z
#    x 1.837960 0.000000 -0.003640 
#    y 0.000000 1.784210 0.000000 
#    z -0.003640 0.000000 1.908390 
# 
# From -- ./inp_files/23757.got.cif
#   From: 2010.05.17/outbox.cif.g08.bks.cpg/sg8_12_cif.got.tgz:23757.got - 2010.06.03 19:46:02.
