data_PCOD9131885
_publ_section_title
;
Structure prediction by ZEFSAII (Michael W. Deem and Ramdas Pophale) SiO2 
 PCOD9131885
Probable space group: C M
;
_chemical_formula_sum "Si O2"
_cell_formula_units_Z 32
_cell_length_a 20.542229
_cell_length_b 7.410491
_cell_length_c 14.941465
_cell_angle_alpha 90.000000
_cell_angle_beta 149.320693
_cell_angle_gamma 90.000000
_cell_volume 1160.528243
_symmetry_space_group_name_H-M "C M"
_symmetry_group_IT_number 8
_symmetry_cell_setting 'monoclinic'
loop_
_space_group_symop_operation_xyz
x,y,z
x,-y,z
1/2+x,1/2+y,z
1/2+x,1/2-y,z
loop_
_atom_site_type_symbol
_atom_site_label
_atom_site_fract_x
_atom_site_fract_y
_atom_site_fract_z
Si Si1 0.250000 0.717355 0.939230
Si Si2 0.584466 0.781911 0.201530
Si Si3 0.895231 0.789929 0.744947
Si Si4 0.795652 0.791753 0.801527
Si Si5 0.162226 0.786721 0.021626
Si Si6 0.361348 0.791929 0.501312
Si Si7 0.537193 0.208050 0.339786
Si Si8 0.440800 0.777868 0.408844
O O1 0.258623 0.500000 0.946230
O O2 0.231831 0.784892 0.816262
O O3 0.152978 0.764381 0.903271
O O4 0.386492 0.790821 0.134603
O O5 0.710433 0.720235 0.298394
O O6 0.596585 0.713579 0.319214
O O7 0.581470 0.000000 0.198584
O O8 0.448018 0.716181 0.004822
O O9 0.796615 0.714560 0.701578
O O10 0.866427 0.789605 0.605851
O O11 0.036626 0.707494 0.918315
O O12 0.903351 0.000000 0.779239
O O13 0.753408 0.000000 0.750463
O O14 0.164325 0.000000 0.042019
O O15 0.299480 0.715424 0.211845
O O16 0.444228 0.721066 0.516264
O O17 0.396468 0.000000 0.553798
O O18 0.534312 0.278979 0.438621
O O19 0.580154 0.000000 0.393776
O O20 0.444128 0.000000 0.412329
#
# Coordination Sequence:
#
# PCOD9131885 Si02
#       8
#     4   4   4   4   4   4   4   4
#     4   9  16  27  48  78 104 123 153 202 251 293
#     4  10  19  32  54  80 103 129 164 206 249 298
#     4  10  21  37  53  70  98 137 176 209 245 293
#     4   9  18  34  55  76 100 132 168 206 248 294
#     4   9  17  32  54  74  96 129 165 202 246 298
#     4  11  22  35  51  72 102 136 169 209 252 294
#     4   8  15  30  51  73  97 127 163 200 241 293
#     4   8  15  31  54  75  94 125 166 200 240 295
#
# _framework density 27.573650000000001
#
# number of rings (size 3 to 8) (size 9 to 14) (size 15 to 20)
#    0.000    2.750    0.000    2.625    0.000    4.000 
#    0.000    8.750    0.000    6.000    0.000    0.000 
#    0.000    0.000    0.000    0.000    0.000    0.000 
#
# Total GULP energy -89458.448971 kJ/mol
# GULP energy per Si atom -5591.153061 kJ/mol
# Density = 2.751089 g / cm^3
# Si number density = 27.573650 Si / 1000 Ang^3
#
#
#
# Elastic Constant Matrix: (Units=GPa)
#
#
# Indices 1 2 3 4 5 6 
#
# 1 257.2119 -2.5021 44.5233 0.0000 -17.0717 0.0000
# 2 -2.5021 114.6218 -2.1226 0.0000 -2.9422 0.0000
# 3 44.5233 -2.1226 97.9671 0.0000 -20.2516 0.0000
# 4 0.0000 0.0000 0.0000 12.9271 0.0000 -8.2532
# 5 -17.0717 -2.9422 -20.2516 0.0000 66.3413 0.0000
# 6 0.0000 0.0000 0.0000 -8.2532 0.0000 12.4875
#
#
#
# Elastic Compliance Matrix: (Units=1/GPa)
#
#
# Indices 1 2 3 4 5 6 
#
# 1 0.004238 0.000073 -0.001813 0.000000 0.000540 0.000000
# 2 0.000073 0.008743 0.000257 0.000000 0.000485 0.000000
# 3 -0.001813 0.000257 0.011680 0.000000 0.003110 0.000000
# 4 0.000000 0.000000 0.000000 0.133825 0.000000 0.088446
# 5 0.000540 0.000485 0.003110 0.000000 0.016184 0.000000
# 6 0.000000 0.000000 0.000000 0.088446 0.000000 0.138535
#
#
# Mechanical properties :
#
#
# Convention : Reuss Voigt Hill
#
# Bulk Modulus (GPa) = 46.09503 61.06644 53.58074
# Shear Modulus (GPa) = 15.46059 47.01133 31.23596
#
# Velocity S-wave (km/s) = 2.37048 4.13357 3.36939
# Velocity P-wave (km/s) = 4.92398 6.70646 5.88312
#
# Compressibility (1/GPa) = 0.02169431
#
# Stress axis : x y z
#
# Youngs Moduli (GPa) = 235.94755 114.37552 85.61707
#
# Poissons Ratio (x) = -0.00833 0.15521
# Poissons Ratio (y) = -0.01718 -0.02197
# Poissons Ratio (z) = 0.42774 -0.02934
#
# Static dielectric constant tensor:
#      x y z
#    x 2.154720 0.000000 -0.029440 
#    y 0.000000 2.177280 0.000000 
#    z -0.029440 0.000000 2.257570 
# 
# From -- ./inp_files/27687.got.cif
#   From: 2010.05.17/outbox.cif.g08.bks.cpg/sg8_14_cif.got.tgz:27687.got - 2010.06.03 19:46:02.
