data_PCOD9131257
_publ_section_title
;
Structure prediction by ZEFSAII (Michael W. Deem and Ramdas Pophale) SiO2 
 PCOD9131257
Probable space group: P C
;
_chemical_formula_sum "Si O2"
_cell_formula_units_Z 16
_cell_length_a 6.878942
_cell_length_b 17.527789
_cell_length_c 5.399031
_cell_angle_alpha 90.000000
_cell_angle_beta 103.140678
_cell_angle_gamma 90.000000
_cell_volume 633.929525
_symmetry_space_group_name_H-M "P C"
_symmetry_group_IT_number 7
_symmetry_cell_setting 'monoclinic'
loop_
_space_group_symop_operation_xyz
x,y,z
x,-y,1/2+z
loop_
_atom_site_type_symbol
_atom_site_label
_atom_site_fract_x
_atom_site_fract_y
_atom_site_fract_z
Si Si1 0.252260 0.457297 0.760320
Si Si2 0.262050 0.802702 0.727607
Si Si3 0.310175 0.020508 0.214919
Si Si4 0.743234 0.204884 0.371713
Si Si5 0.738935 0.457548 0.907511
Si Si6 0.739603 0.715625 0.370352
Si Si7 0.875230 0.960491 0.087307
Si Si8 0.251983 0.718145 0.224568
O O1 0.193518 0.510447 0.512063
O O2 0.189804 0.370112 0.697121
O O3 0.495650 0.457133 0.834528
O O4 0.232552 0.893182 0.698377
O O5 0.502506 0.794889 0.799125
O O6 0.191897 0.757989 0.463985
O O7 0.191829 0.766264 0.965420
O O8 0.423786 0.999969 0.497968
O O9 0.117435 0.965674 0.160553
O O10 0.801875 0.261982 0.610706
O O11 0.808848 0.121581 0.475477
O O12 0.802416 0.228137 0.110672
O O13 0.798773 0.507972 0.160236
O O14 0.802402 0.370079 0.954108
O O15 0.496110 0.717346 0.296438
O O16 0.818146 0.019155 0.851275
#
# Coordination Sequence:
#
# PCOD9131257 Si02
#       8
#     2   2   2   2   2   2   2   2
#     4   9  15  23  37  58  88 129 168 195 227 273
#     4  10  19  31  48  69  95 128 164 201 243 288
#     4  10  21  36  52  70  93 124 156 201 251 293
#     4  10  19  31  48  69  95 128 164 201 243 288
#     4   9  15  23  37  58  88 129 168 195 227 273
#     4   9  17  28  42  65  96 129 166 203 237 278
#     4  10  21  36  52  70  93 124 156 201 251 293
#     4   9  17  28  42  65  96 129 166 203 237 278
#
# _framework density 25.239398999999999
#
# number of rings (size 3 to 8) (size 9 to 14) (size 15 to 20)
#    0.000    2.500    0.000    3.000    0.000    7.000 
#    0.000    0.000    0.000    0.000    0.000    0.000 
#    0.000    0.000    0.000  315.000    0.000  140.000 
#
# Total GULP energy -89672.022698 kJ/mol
# GULP energy per Si atom -5604.501419 kJ/mol
# Density = 2.518195 g / cm^3
# Si number density = 25.239399 Si / 1000 Ang^3
#
#
#
# Elastic Constant Matrix: (Units=GPa)
#
#
# Indices 1 2 3 4 5 6 
#
# 1 87.3553 -13.3311 28.7165 0.0000 -12.8523 0.0000
# 2 -13.3311 133.7888 60.8564 0.0000 -22.0805 0.0000
# 3 28.7165 60.8564 180.1649 0.0000 -31.1271 0.0000
# 4 0.0000 0.0000 0.0000 55.8211 0.0000 -2.5584
# 5 -12.8523 -22.0805 -31.1271 0.0000 60.3750 0.0000
# 6 0.0000 0.0000 0.0000 -2.5584 0.0000 19.8237
#
#
#
# Elastic Compliance Matrix: (Units=1/GPa)
#
#
# Indices 1 2 3 4 5 6 
#
# 1 0.013133 0.002927 -0.002650 0.000000 0.002500 0.000000
# 2 0.002927 0.009677 -0.003311 0.000000 0.002455 0.000000
# 3 -0.002650 -0.003311 0.007448 0.000000 0.002065 0.000000
# 4 0.000000 0.000000 0.000000 0.018021 0.000000 0.002326
# 5 0.002500 0.002455 0.002065 0.000000 0.019058 0.000000
# 6 0.000000 0.000000 0.000000 0.002326 0.000000 0.050745
#
#
# Mechanical properties :
#
#
# Convention : Reuss Voigt Hill
#
# Bulk Modulus (GPa) = 41.34040 61.53251 51.43645
# Shear Modulus (GPa) = 37.81746 48.87512 43.34629
#
# Velocity S-wave (km/s) = 3.87505 4.40530 4.14866
# Velocity P-wave (km/s) = 6.03624 7.09281 6.58575
#
# Compressibility (1/GPa) = 0.02418942
#
# Stress axis : x y z
#
# Youngs Moduli (GPa) = 76.14405 103.33351 134.26372
#
# Poissons Ratio (x) = -0.30241 0.35579
# Poissons Ratio (y) = -0.22284 0.44457
# Poissons Ratio (z) = 0.20177 0.34215
#
# Static dielectric constant tensor:
#      x y z
#    x 2.083060 0.000000 0.009500 
#    y 0.000000 1.819160 0.000000 
#    z 0.009500 0.000000 1.952560 
# 
# From -- ./inp_files/626.got.cif
#   From: 2010.05.17/outbox.cif.g08.bks.cpg/sg7_cif.got.tgz:626.got - 2010.06.03 19:44:50.
