data_PCOD9131553
_publ_section_title
;
Structure prediction by ZEFSAII (Michael W. Deem and Ramdas Pophale) SiO2 
 PCOD9131553
Probable space group: C M
;
_chemical_formula_sum "Si O2"
_cell_formula_units_Z 32
_cell_length_a 11.616172
_cell_length_b 16.459573
_cell_length_c 18.853479
_cell_angle_alpha 90.000000
_cell_angle_beta 156.559653
_cell_angle_gamma 90.000000
_cell_volume 1433.941381
_symmetry_space_group_name_H-M "C M"
_symmetry_group_IT_number 8
_symmetry_cell_setting 'monoclinic'
loop_
_space_group_symop_operation_xyz
x,y,z
x,-y,z
1/2+x,1/2+y,z
1/2+x,1/2-y,z
loop_
_atom_site_type_symbol
_atom_site_label
_atom_site_fract_x
_atom_site_fract_y
_atom_site_fract_z
Si Si1 0.345890 0.589470 0.677390
Si Si2 0.375883 0.714357 0.887524
Si Si3 0.648194 0.406572 0.291306
Si Si4 0.111268 0.257012 0.881491
Si Si5 0.220408 0.628565 0.456182
Si Si6 0.709637 0.311338 0.466974
Si Si7 0.676865 0.598006 0.592193
Si Si8 0.079352 0.912627 0.097580
O O1 0.446457 0.500000 0.759111
O O2 0.447972 0.670437 0.774129
O O3 0.412750 0.599965 0.631506
O O4 0.997406 0.589342 0.482700
O O5 0.600755 0.754897 0.961070
O O6 0.348065 0.750571 0.951870
O O7 0.056781 0.706148 0.672685
O O8 0.473422 0.625485 0.965215
O O9 0.547556 0.500000 0.244266
O O10 0.608257 0.351897 0.337160
O O11 0.533687 0.374300 0.150576
O O12 0.933772 0.339537 0.760933
O O13 0.105514 0.719015 0.408870
O O14 0.410913 0.619767 0.493831
O O15 0.923058 0.581136 0.283969
O O16 0.618199 0.369612 0.479554
O O17 0.728272 0.500000 0.623443
O O18 0.939596 0.000000 0.025275
#
# Coordination Sequence:
#
# PCOD9131553 Si02
#       8
#     4   4   4   4   4   4   4   4
#     4  10  17  31  58  87 118 157 209 264 311 367
#     4  11  23  39  63  87 135 167 211 268 331 388
#     4   9  18  34  57  87 118 159 210 256 310 374
#     4  11  21  40  58  97 125 169 215 272 323 393
#     4  11  20  38  61  89 128 169 214 269 319 393
#     4  11  21  36  65  92 129 163 219 270 318 382
#     4  11  21  35  61  97 132 165 212 278 333 379
#     4  10  24  41  62  92 127 169 212 265 333 400
#
# _framework density 22.316113999999999
#
# number of rings (size 3 to 8) (size 9 to 14) (size 15 to 20)
#    0.000    1.500    5.000    2.250    1.750    4.000 
#    0.000    0.000    0.000    0.000    0.000    0.000 
#    0.000    0.000    0.000    0.000    0.000    0.000 
#
# Total GULP energy -89116.365239 kJ/mol
# GULP energy per Si atom -5569.772827 kJ/mol
# Density = 2.226532 g / cm^3
# Si number density = 22.316114 Si / 1000 Ang^3
#
#
#
# Elastic Constant Matrix: (Units=GPa)
#
#
# Indices 1 2 3 4 5 6 
#
# 1 154.8650 33.4025 15.8188 0.0032 -19.8904 0.0042
# 2 33.4025 149.0332 14.8648 -0.0220 -18.7262 -0.0081
# 3 15.8188 14.8648 37.1049 -0.0251 -14.5517 -0.0113
# 4 0.0032 -0.0220 -0.0251 20.2846 -0.0116 -13.0640
# 5 -19.8904 -18.7262 -14.5517 -0.0116 28.3701 -0.0024
# 6 0.0042 -0.0081 -0.0113 -13.0640 -0.0024 32.1007
#
#
#
# Elastic Compliance Matrix: (Units=1/GPa)
#
#
# Indices 1 2 3 4 5 6 
#
# 1 0.007293 -0.001036 -0.001198 -0.000003 0.003815 -0.000003
# 2 -0.001036 0.007514 -0.001137 0.000014 0.003650 0.000008
# 3 -0.001198 -0.001137 0.034166 0.000080 0.015934 0.000045
# 4 -0.000003 0.000014 0.000080 0.066810 0.000077 0.027189
# 5 0.003815 0.003650 0.015934 0.000077 0.048506 0.000041
# 6 -0.000003 0.000008 0.000045 0.027189 0.000041 0.042217
#
#
# Mechanical properties :
#
#
# Convention : Reuss Voigt Hill
#
# Bulk Modulus (GPa) = 23.67916 52.13062 37.90489
# Shear Modulus (GPa) = 21.99498 34.61221 28.30359
#
# Velocity S-wave (km/s) = 3.14285 3.94254 3.56519
# Velocity P-wave (km/s) = 4.87892 6.64347 5.82836
#
# Compressibility (1/GPa) = 0.04223122
#
# Stress axis : x y z
#
# Youngs Moduli (GPa) = 137.11797 133.08225 29.26890
#
# Poissons Ratio (x) = 0.13783 0.03507
# Poissons Ratio (y) = 0.14201 0.03328
# Poissons Ratio (z) = 0.16429 0.15133
#
# Static dielectric constant tensor:
#      x y z
#    x 1.871860 0.000000 0.005950 
#    y 0.000000 1.923500 0.000000 
#    z 0.005950 0.000000 1.842250 
# 
# From -- ./inp_files/28898.got.cif
#   From: 2010.05.17/outbox.cif.g08.bks.cpg/sg8_15_cif.got.tgz:28898.got - 2010.06.03 19:46:02.
