data_PCOD9131763
_publ_section_title
;
Structure prediction by ZEFSAII (Michael W. Deem and Ramdas Pophale) SiO2 
 PCOD9131763
Probable space group: C M
;
_chemical_formula_sum "Si O2"
_cell_formula_units_Z 32
_cell_length_a 20.771210
_cell_length_b 8.722747
_cell_length_c 25.830453
_cell_angle_alpha 90.000000
_cell_angle_beta 23.054477
_cell_angle_gamma 90.000000
_cell_volume 1832.722120
_symmetry_space_group_name_H-M "C M"
_symmetry_group_IT_number 8
_symmetry_cell_setting 'monoclinic'
loop_
_space_group_symop_operation_xyz
x,y,z
x,-y,z
1/2+x,1/2+y,z
1/2+x,1/2-y,z
loop_
_atom_site_type_symbol
_atom_site_label
_atom_site_fract_x
_atom_site_fract_y
_atom_site_fract_z
Si Si1 0.436400 0.182406 0.053710
Si Si2 0.446254 0.684668 0.826324
Si Si3 0.944157 0.686581 0.557539
Si Si4 0.051373 0.684340 0.589494
Si Si5 0.562573 0.685579 0.852045
Si Si6 0.736537 0.316751 0.892990
Si Si7 0.082740 0.686080 0.343969
Si Si8 0.258553 0.184169 0.524539
O O1 0.256999 0.246544 0.199596
O O2 0.435485 0.000000 0.054435
O O3 0.492938 0.243462 0.955783
O O4 0.569203 0.242814 0.996970
O O5 0.431706 0.500000 0.834070
O O6 0.462353 0.727674 0.874440
O O7 0.300943 0.759891 0.900877
O O8 0.617290 0.727291 0.670823
O O9 0.944345 0.500000 0.557212
O O10 0.752879 0.731489 0.702808
O O11 0.036447 0.736987 0.541385
O O12 0.027500 0.734935 0.442486
O O13 0.061700 0.500000 0.582429
O O14 0.199623 0.750560 0.513458
O O15 0.882252 0.725974 0.744615
O O16 0.559619 0.500000 0.859015
O O17 0.720900 0.500000 0.904131
O O18 0.091659 0.500000 0.336714
O O19 0.936111 0.733223 0.413637
O O20 0.258409 0.000000 0.522072
#
# Coordination Sequence:
#
# PCOD9131763 Si02
#       8
#     4   4   4   4   4   4   4   4
#     4  12  25  38  53  79 115 150 188 234 275 323
#     4   9  17  31  56  87 114 138 174 229 279 325
#     4   9  16  32  58  84 106 135 184 229 265 323
#     4   9  17  30  53  82 110 137 172 222 272 323
#     4  10  18  35  60  84 111 144 184 227 276 333
#     4  10  19  34  56  80 111 148 184 223 275 335
#     4  10  20  37  59  79 105 147 187 222 273 336
#     4   9  17  31  53  81 110 139 175 218 269 328
#
# _framework density 17.460366
#
# number of rings (size 3 to 8) (size 9 to 14) (size 15 to 20)
#    0.000    2.250    2.500    1.500    0.000    1.500 
#    0.000    2.500    0.000    3.000    0.000    0.000 
#    0.000    0.000    0.000    0.000    0.000    0.000 
#
# Total GULP energy -89267.989465 kJ/mol
# GULP energy per Si atom -5579.249342 kJ/mol
# Density = 1.742063 g / cm^3
# Si number density = 17.460366 Si / 1000 Ang^3
#
#
#
# Elastic Constant Matrix: (Units=GPa)
#
#
# Indices 1 2 3 4 5 6 
#
# 1 176.5297 43.5635 89.2212 -0.0021 -20.9846 0.0000
# 2 43.5635 30.2446 36.5080 0.0017 -7.3973 -0.0004
# 3 89.2212 36.5080 124.6041 0.0024 -12.9471 -0.0001
# 4 -0.0021 0.0017 0.0024 14.6827 0.0003 -4.9690
# 5 -20.9846 -7.3973 -12.9471 0.0003 28.4027 -0.0002
# 6 0.0000 -0.0004 -0.0001 -4.9690 -0.0002 29.8349
#
#
#
# Elastic Compliance Matrix: (Units=1/GPa)
#
#
# Indices 1 2 3 4 5 6 
#
# 1 0.010596 -0.008814 -0.004650 0.000003 0.003413 0.000000
# 2 -0.008814 0.059776 -0.010772 -0.000007 0.004146 0.000000
# 3 -0.004650 -0.010772 0.014552 -0.000002 0.000392 0.000000
# 4 0.000003 -0.000007 -0.000002 0.072176 -0.000001 0.012021
# 5 0.003413 0.004146 0.000392 -0.000001 0.038988 0.000000
# 6 0.000000 0.000000 0.000000 0.012021 0.000000 0.035520
#
#
# Mechanical properties :
#
#
# Convention : Reuss Voigt Hill
#
# Bulk Modulus (GPa) = 27.43344 74.44041 50.93692
# Shear Modulus (GPa) = 17.10981 25.38976 21.24979
#
# Velocity S-wave (km/s) = 3.13377 3.81745 3.49238
# Velocity P-wave (km/s) = 5.37028 7.88398 6.74526
#
# Compressibility (1/GPa) = 0.03645187
#
# Stress axis : x y z
#
# Youngs Moduli (GPa) = 94.37725 16.72906 68.72071
#
# Poissons Ratio (x) = 0.14746 0.31954
# Poissons Ratio (y) = 0.83187 0.74024
# Poissons Ratio (z) = 0.43883 0.18020
#
# Static dielectric constant tensor:
#      x y z
#    x 1.598970 0.000000 -0.002820 
#    y 0.000000 1.589190 0.000000 
#    z -0.002820 0.000000 1.565700 
# 
# From -- ./inp_files/24303.got.cif
#   From: 2010.05.17/outbox.cif.g08.bks.cpg/sg8_13_cif.got.tgz:24303.got - 2010.06.03 19:46:02.
