data_PCOD9131868
_publ_section_title
;
Structure prediction by ZEFSAII (Michael W. Deem and Ramdas Pophale) SiO2 
 PCOD9131868
Probable space group: C M
;
_chemical_formula_sum "Si O2"
_cell_formula_units_Z 32
_cell_length_a 20.535526
_cell_length_b 7.583207
_cell_length_c 14.819614
_cell_angle_alpha 90.000000
_cell_angle_beta 30.532278
_cell_angle_gamma 90.000000
_cell_volume 1172.410224
_symmetry_space_group_name_H-M "C M"
_symmetry_group_IT_number 8
_symmetry_cell_setting 'monoclinic'
loop_
_space_group_symop_operation_xyz
x,y,z
x,-y,z
1/2+x,1/2+y,z
1/2+x,1/2-y,z
loop_
_atom_site_type_symbol
_atom_site_label
_atom_site_fract_x
_atom_site_fract_y
_atom_site_fract_z
Si Si1 0.711620 0.288703 0.085140
Si Si2 0.505278 0.282987 0.570827
Si Si3 0.352505 0.286293 0.374707
Si Si4 0.414517 0.713117 0.494614
Si Si5 0.644361 0.292079 0.976264
Si Si6 0.480960 0.297062 0.801474
Si Si7 0.060151 0.704410 0.893742
Si Si8 0.782733 0.294115 0.266212
O O1 0.727377 0.500000 0.069808
O O2 0.565433 0.257662 0.289258
O O3 0.721737 0.216741 0.969331
O O4 0.828749 0.215923 0.003375
O O5 0.500962 0.500000 0.575883
O O6 0.413671 0.220857 0.599267
O O7 0.484626 0.217469 0.697005
O O8 0.652544 0.228209 0.377647
O O9 0.344677 0.500000 0.384227
O O10 0.340725 0.223981 0.492509
O O11 0.497500 0.234469 0.171936
O O12 0.268091 0.217391 0.392704
O O13 0.393045 0.500000 0.523400
O O14 0.647335 0.500000 0.987020
O O15 0.660154 0.266044 0.850172
O O16 0.516818 0.500000 0.753500
O O17 0.567150 0.217685 0.777733
O O18 0.054099 0.500000 0.922197
O O19 0.920614 0.790090 0.080616
O O20 0.791187 0.500000 0.230335
#
# Coordination Sequence:
#
# PCOD9131868 Si02
#       8
#     4   4   4   4   4   4   4   4
#     4   9  17  32  55  77  97 125 160 199 242 288
#     4   9  18  32  48  67  94 129 165 196 231 280
#     4   8  14  26  48  76  99 118 147 193 242 284
#     4   8  14  29  53  74  92 121 160 195 232 284
#     4   8  15  29  50  76 102 125 153 194 244 293
#     4  11  22  33  47  69 100 135 166 200 240 283
#     4  10  19  32  53  76  97 125 162 204 244 284
#     4   9  17  31  52  73  93 122 159 197 237 284
#
# _framework density 27.294201000000001
#
# number of rings (size 3 to 8) (size 9 to 14) (size 15 to 20)
#    0.000    3.000    0.000    3.000    0.000    3.000 
#    0.000    4.375    0.000    6.750    0.000    0.000 
#    0.000    0.000    0.000    0.000    0.000    0.000 
#
# Total GULP energy -89394.552266 kJ/mol
# GULP energy per Si atom -5587.159517 kJ/mol
# Density = 2.723208 g / cm^3
# Si number density = 27.294201 Si / 1000 Ang^3
#
#
#
# Elastic Constant Matrix: (Units=GPa)
#
#
# Indices 1 2 3 4 5 6 
#
# 1 259.8468 2.8609 25.3634 0.0000 -0.2539 0.0000
# 2 2.8609 67.3681 -9.2130 0.0001 -2.6663 -0.0001
# 3 25.3634 -9.2130 67.4022 0.0000 17.2236 0.0000
# 4 0.0000 0.0001 0.0000 8.6529 0.0000 3.5024
# 5 -0.2539 -2.6663 17.2236 0.0000 59.1516 0.0000
# 6 0.0000 -0.0001 0.0000 3.5024 0.0000 26.9473
#
#
#
# Elastic Compliance Matrix: (Units=1/GPa)
#
#
# Indices 1 2 3 4 5 6 
#
# 1 0.004018 -0.000382 -0.001690 0.000000 0.000492 0.000000
# 2 -0.000382 0.015163 0.002206 0.000000 0.000039 0.000000
# 3 -0.001690 0.002206 0.017016 0.000000 -0.004863 0.000000
# 4 0.000000 0.000000 0.000000 0.121986 0.000000 -0.015855
# 5 0.000492 0.000039 -0.004863 0.000000 0.018325 0.000000
# 6 0.000000 0.000000 0.000000 -0.015855 0.000000 0.039170
#
#
# Mechanical properties :
#
#
# Convention : Reuss Voigt Hill
#
# Bulk Modulus (GPa) = 27.42270 48.07105 37.74687
# Shear Modulus (GPa) = 21.97157 43.99074 32.98115
#
# Velocity S-wave (km/s) = 2.84031 4.01898 3.47991
# Velocity P-wave (km/s) = 4.56348 6.25993 5.47778
#
# Compressibility (1/GPa) = 0.03646614
#
# Stress axis : x y z
#
# Youngs Moduli (GPa) = 248.87567 65.94843 58.76680
#
# Poissons Ratio (x) = 0.02521 0.09932
# Poissons Ratio (y) = 0.09514 -0.12966
# Poissons Ratio (z) = 0.42060 -0.14551
#
# Static dielectric constant tensor:
#      x y z
#    x 2.108210 0.000000 0.052620 
#    y 0.000000 1.985580 0.000000 
#    z 0.052620 0.000000 2.329930 
# 
# From -- ./inp_files/27756.got.cif
#   From: 2010.05.17/outbox.cif.g08.bks.cpg/sg8_14_cif.got.tgz:27756.got - 2010.06.03 19:46:02.
