data_PCOD9131154
_publ_section_title
;
Structure prediction by ZEFSAII (Michael W. Deem and Ramdas Pophale) SiO2 
 PCOD9131154
Probable space group: P M
;
_chemical_formula_sum "Si O2"
_cell_formula_units_Z 16
_cell_length_a 8.365397
_cell_length_b 17.790487
_cell_length_c 5.188917
_cell_angle_alpha 90.000000
_cell_angle_beta 58.234834
_cell_angle_gamma 90.000000
_cell_volume 656.566638
_symmetry_space_group_name_H-M "P M"
_symmetry_group_IT_number 6
_symmetry_cell_setting 'monoclinic'
loop_
_space_group_symop_operation_xyz
x,y,z
x,-y,z
loop_
_atom_site_type_symbol
_atom_site_label
_atom_site_fract_x
_atom_site_fract_y
_atom_site_fract_z
Si Si1 0.017020 0.866454 0.538480
Si Si2 0.933255 0.705837 0.477573
Si Si3 0.086636 0.417275 0.649417
Si Si4 0.400265 0.665259 0.622837
Si Si5 0.446155 0.085704 0.202855
Si Si6 0.761219 0.417710 0.277482
Si Si7 0.533208 0.249411 0.010723
Si Si8 0.805829 0.084954 0.210260
O O1 0.220716 0.903954 0.413191
O O2 0.041401 0.784352 0.388016
O O3 0.883441 0.904176 0.433340
O O4 0.914994 0.865351 0.903908
O O5 0.831176 0.661387 0.335692
O O6 0.081019 0.643056 0.434111
O O7 0.752983 0.727056 0.810462
O O8 0.158710 0.500000 0.530470
O O9 0.200499 0.374635 0.772938
O O10 0.870200 0.423027 0.917947
O O11 0.541914 0.595968 0.451089
O O12 0.442618 0.724317 0.357026
O O13 0.440139 0.705983 0.854917
O O14 0.510490 0.159978 0.993543
O O15 0.581900 0.092636 0.341930
O O16 0.480125 0.000000 0.075426
O O17 0.803127 0.500000 0.369928
O O18 0.854998 0.000000 0.092723
#
# Coordination Sequence:
#
# PCOD9131154 Si02
#       8
#     2   2   2   2   2   2   2   2
#     4  12  27  46  78 105 147 191 245 300 368 437
#     4  11  24  44  72  98 142 186 238 290 359 418
#     4  11  24  43  70 105 140 186 235 293 358 426
#     4  11  25  45  72 101 140 181 235 285 352 417
#     4  11  26  48  74 107 146 192 241 304 371 435
#     4  10  23  43  66  99 139 182 228 286 351 419
#     4  11  25  47  71 101 138 186 232 293 352 425
#     4  11  26  48  73 108 146 188 242 303 365 439
#
# _framework density 24.369195999999999
#
# number of rings (size 3 to 8) (size 9 to 14) (size 15 to 20)
#    0.000    1.000    2.500    2.625    8.750    2.000 
#    0.000    4.375    0.000    0.000    0.000    0.000 
#    0.000    0.000    0.000    0.000    0.000    0.000 
#
# Total GULP energy -89238.262428 kJ/mol
# GULP energy per Si atom -5577.391402 kJ/mol
# Density = 2.431373 g / cm^3
# Si number density = 24.369196 Si / 1000 Ang^3
#
#
#
# Elastic Constant Matrix: (Units=GPa)
#
#
# Indices 1 2 3 4 5 6 
#
# 1 125.8454 22.8975 42.6272 0.0000 -2.0621 0.0000
# 2 22.8975 165.4325 20.4071 0.0000 1.7294 0.0000
# 3 42.6272 20.4071 56.1764 0.0000 -8.1272 0.0000
# 4 0.0000 0.0000 0.0000 20.2929 0.0000 -0.9840
# 5 -2.0621 1.7294 -8.1272 0.0000 30.8996 0.0000
# 6 0.0000 0.0000 0.0000 -0.9840 0.0000 41.5480
#
#
#
# Elastic Compliance Matrix: (Units=1/GPa)
#
#
# Indices 1 2 3 4 5 6 
#
# 1 0.010794 -0.000464 -0.008227 0.000000 -0.001418 0.000000
# 2 -0.000464 0.006378 -0.002101 0.000000 -0.000940 0.000000
# 3 -0.008227 -0.002101 0.025723 0.000000 0.006334 0.000000
# 4 0.000000 0.000000 0.000000 0.049335 0.000000 0.001168
# 5 -0.001418 -0.000940 0.006334 0.000000 0.033987 0.000000
# 6 0.000000 0.000000 0.000000 0.001168 0.000000 0.024096
#
#
# Mechanical properties :
#
#
# Convention : Reuss Voigt Hill
#
# Bulk Modulus (GPa) = 46.92332 57.70199 52.31266
# Shear Modulus (GPa) = 27.93264 35.98294 31.95779
#
# Velocity S-wave (km/s) = 3.38927 3.84679 3.62526
# Velocity P-wave (km/s) = 5.88330 6.59242 6.24793
#
# Compressibility (1/GPa) = 0.02131137
#
# Stress axis : x y z
#
# Youngs Moduli (GPa) = 92.64147 156.78929 38.87497
#
# Poissons Ratio (x) = 0.07280 0.31983
# Poissons Ratio (y) = 0.04302 0.08166
# Poissons Ratio (z) = 0.76218 0.32936
#
# Static dielectric constant tensor:
#      x y z
#    x 2.097350 0.000000 -0.021440 
#    y 0.000000 1.939290 0.000000 
#    z -0.021440 0.000000 1.926960 
# 
# From -- ./inp_files/1348.got.cif
#   From: 2010.05.17/outbox.cif.g08.bks.cpg/sg6_1_cif.got.tgz:1348.got - 2010.06.03 19:42:10.
