data_PCOD9131201
_publ_section_title
;
Structure prediction by ZEFSAII (Michael W. Deem and Ramdas Pophale) SiO2 
 PCOD9131201
Probable space group: P C
;
_chemical_formula_sum "Si O2"
_cell_formula_units_Z 16
_cell_length_a 24.356843
_cell_length_b 6.780916
_cell_length_c 5.166057
_cell_angle_alpha 90.000000
_cell_angle_beta 57.715140
_cell_angle_gamma 90.000000
_cell_volume 721.327253
_symmetry_space_group_name_H-M "P C"
_symmetry_group_IT_number 7
_symmetry_cell_setting 'monoclinic'
loop_
_space_group_symop_operation_xyz
x,y,z
x,-y,1/2+z
loop_
_atom_site_type_symbol
_atom_site_label
_atom_site_fract_x
_atom_site_fract_y
_atom_site_fract_z
Si Si1 0.539300 0.273870 0.943080
Si Si2 0.732542 0.633761 0.541493
Si Si3 0.868748 0.370657 0.817494
Si Si4 0.997261 0.128695 0.374192
Si Si5 0.591293 0.272585 0.312023
Si Si6 0.135320 0.871668 0.644720
Si Si7 0.263532 0.371115 0.699980
Si Si8 0.400437 0.631381 0.976407
O O1 0.541975 0.191570 0.648739
O O2 0.565819 0.500068 0.835288
O O3 0.588225 0.189938 0.032005
O O4 0.467699 0.264363 0.241016
O O5 0.732397 0.458990 0.755212
O O6 0.800794 0.740473 0.426416
O O7 0.663669 0.738968 0.739763
O O8 0.868267 0.551112 0.612157
O O9 0.933546 0.252002 0.595697
O O10 0.996679 0.948059 0.581635
O O11 0.066338 0.232920 0.259000
O O12 0.199186 0.749307 0.422170
O O13 0.135737 0.947403 0.938131
O O14 0.263601 0.448380 0.406086
O O15 0.332073 0.263609 0.588066
O O16 0.400722 0.449648 0.767915
#
# Coordination Sequence:
#
# PCOD9131201 Si02
#       8
#     2   2   2   2   2   2   2   2
#     4  10  14  20  34  53  82 126 155 188 230 296
#     4  10  16  25  37  60  94 128 153 193 249 295
#     4  10  21  33  51  78 109 136 161 214 264 308
#     4  10  21  38  58  77 101 136 177 212 246 304
#     4  10  14  20  34  53  82 126 155 188 230 296
#     4  10  21  38  58  77 101 136 177 212 246 304
#     4  10  21  33  51  78 109 136 161 214 264 308
#     4  10  16  25  37  60  94 128 153 193 249 295
#
# _framework density 22.181331
#
# number of rings (size 3 to 8) (size 9 to 14) (size 15 to 20)
#    0.000    2.000    5.000    1.500    0.000    1.000 
#    0.000    0.000    0.000    0.000    0.000    0.000 
#    0.000    6.000    0.000    0.000    0.000    0.000 
#
# Total GULP energy -89206.846196 kJ/mol
# GULP energy per Si atom -5575.427887 kJ/mol
# Density = 2.213085 g / cm^3
# Si number density = 22.181331 Si / 1000 Ang^3
#
#
#
# Elastic Constant Matrix: (Units=GPa)
#
#
# Indices 1 2 3 4 5 6 
#
# 1 108.2164 4.6024 31.7393 0.0000 -30.5760 0.0000
# 2 4.6024 21.3182 -7.6321 0.0000 -7.0910 0.0000
# 3 31.7393 -7.6321 113.7504 0.0000 -4.8978 0.0000
# 4 0.0000 0.0000 0.0000 -7.0859 0.0000 -2.5674
# 5 -30.5760 -7.0910 -4.8978 0.0000 75.9047 0.0000
# 6 0.0000 0.0000 0.0000 -2.5674 0.0000 -0.6214
#
#
#
# Elastic Compliance Matrix: (Units=1/GPa)
#
#
# Indices 1 2 3 4 5 6 
#
# 1 0.011449 -0.002206 -0.003162 0.000000 0.004202 0.000000
# 2 -0.002206 0.050229 0.004161 0.000000 0.004072 0.000000
# 3 -0.003162 0.004161 0.009942 0.000000 -0.000243 0.000000
# 4 0.000000 0.000000 0.000000 0.283875 0.000000 -1.172967
# 5 0.004202 0.004072 -0.000243 0.000000 0.015232 0.000000
# 6 0.000000 0.000000 0.000000 -1.172967 0.000000 3.237287
#
#
# Mechanical properties :
#
#
# Convention : Reuss Voigt Hill
#
# Bulk Modulus (GPa) = 14.44954 33.41157 23.93055
# Shear Modulus (GPa) = 1.37609 27.94453 14.66031
#
# Velocity S-wave (km/s) = 0.78850 3.55325 2.57364
# Velocity P-wave (km/s) = 2.71245 5.65064 4.43210
#
# Compressibility (1/GPa) = 0.06920638
#
# Stress axis : x y z
#
# Youngs Moduli (GPa) = 87.34329 19.90893 100.58261
#
# Poissons Ratio (x) = 0.04392 0.31801
# Poissons Ratio (y) = 0.19268 -0.41852
# Poissons Ratio (z) = 0.27615 -0.08284
#
# Static dielectric constant tensor:
#      x y z
#    x 1.861220 0.000000 -0.025390 
#    y 0.000000 2.009460 0.000000 
#    z -0.025390 0.000000 1.844110 
# 
# From -- ./inp_files/1473.got.cif
#   From: 2010.05.17/outbox.cif.g08.bks.cpg/sg7_cif.got.tgz:1473.got - 2010.06.03 19:44:50.
