data_PCOD9131741
_publ_section_title
;
Structure prediction by ZEFSAII (Michael W. Deem and Ramdas Pophale) SiO2 
 PCOD9131741
Probable space group: C M
;
_chemical_formula_sum "Si O2"
_cell_formula_units_Z 16
_cell_length_a 15.711326
_cell_length_b 11.449507
_cell_length_c 5.455030
_cell_angle_alpha 90.000000
_cell_angle_beta 145.249735
_cell_angle_gamma 90.000000
_cell_volume 559.335076
_symmetry_space_group_name_H-M "C M"
_symmetry_group_IT_number 8
_symmetry_cell_setting 'monoclinic'
loop_
_space_group_symop_operation_xyz
x,y,z
x,-y,z
1/2+x,1/2+y,z
1/2+x,1/2-y,z
loop_
_atom_site_type_symbol
_atom_site_label
_atom_site_fract_x
_atom_site_fract_y
_atom_site_fract_z
Si Si1 0.872230 0.253442 0.420730
Si Si2 0.693183 0.500000 0.025545
Si Si3 0.761400 0.137329 0.652261
Si Si4 0.704903 0.500000 0.555506
Si Si5 0.502329 0.869104 0.334258
O O1 0.793156 0.382431 0.257636
O O2 0.842754 0.189582 0.607027
O O3 0.022532 0.291732 0.623994
O O4 0.816385 0.172895 0.057650
O O5 0.612462 0.500000 0.091495
O O6 0.607909 0.500000 0.568735
O O7 0.587079 0.170862 0.290925
O O8 0.764827 0.000000 0.625946
O O9 0.825863 0.394034 0.854171
O O10 0.554542 0.000000 0.518895
#
# Coordination Sequence:
#
# PCOD9131741 Si02
#       5
#     4   2   4   2   4
#     4  11  21  38  66  88 123 155 205 258 295 355
#     4  10  18  34  58  96 103 152 197 258 292 332
#     4  11  24  39  61  92 124 160 203 244 308 366
#     4   8  16  30  58  82 113 132 203 254 276 326
#     4   8  19  40  61  92 113 160 208 254 284 353
#
# _framework density 28.605391999999998
#
# number of rings (size 3 to 8) (size 9 to 14) (size 15 to 20)
#    0.750    1.500    1.250    3.750    0.000    6.000 
#    0.000    0.000   16.500    0.000    0.000    0.000 
#    0.000    0.000    0.000    0.000    0.000    0.000 
#
# Total GULP energy -44575.040594 kJ/mol
# GULP energy per Si atom -5571.880074 kJ/mol
# Density = 2.854029 g / cm^3
# Si number density = 28.605392 Si / 1000 Ang^3
#
#
#
# Elastic Constant Matrix: (Units=GPa)
#
#
# Indices 1 2 3 4 5 6 
#
# 1 317.0308 113.8062 92.1447 0.0000 -83.7356 0.0000
# 2 113.8062 147.9316 28.1730 0.0000 -14.9050 0.0000
# 3 92.1447 28.1730 58.5546 0.0000 -33.1900 0.0000
# 4 0.0000 0.0000 0.0000 12.8279 0.0000 -6.0919
# 5 -83.7356 -14.9050 -33.1900 0.0000 79.7988 0.0000
# 6 0.0000 0.0000 0.0000 -6.0919 0.0000 61.3253
#
#
#
# Elastic Compliance Matrix: (Units=1/GPa)
#
#
# Indices 1 2 3 4 5 6 
#
# 1 0.008385 -0.004370 -0.008594 0.000000 0.004408 0.000000
# 2 -0.004370 0.009720 0.000824 0.000000 -0.002427 0.000000
# 3 -0.008594 0.000824 0.032949 0.000000 0.004840 0.000000
# 4 0.000000 0.000000 0.000000 0.081815 0.000000 0.008127
# 5 0.004408 -0.002427 0.004840 0.000000 0.018717 0.000000
# 6 0.000000 0.000000 0.000000 0.008127 0.000000 0.017114
#
#
# Mechanical properties :
#
#
# Convention : Reuss Voigt Hill
#
# Bulk Modulus (GPa) = 37.34853 110.19609 73.77231
# Shear Modulus (GPa) = 24.76415 50.08326 37.42371
#
# Velocity S-wave (km/s) = 2.94550 4.18883 3.62093
# Velocity P-wave (km/s) = 4.96515 7.87411 6.58234
#
# Compressibility (1/GPa) = 0.02677481
#
# Stress axis : x y z
#
# Youngs Moduli (GPa) = 119.25855 102.87816 30.34980
#
# Poissons Ratio (x) = 0.44957 0.26083
# Poissons Ratio (y) = 0.52116 -0.02502
# Poissons Ratio (z) = 1.02493 -0.08480
#
# Static dielectric constant tensor:
#      x y z
#    x 2.339310 0.000000 0.157110 
#    y 0.000000 2.344900 0.000000 
#    z 0.157110 0.000000 2.587540 
# 
# From -- ./inp_files/4575.got.cif
#   From: 2010.05.17/outbox.cif.g08.bks.cpg/sg8_3_cif.got.tgz:4575.got - 2010.06.03 19:46:02.
