data_PCOD9131796
_publ_section_title
;
Structure prediction by ZEFSAII (Michael W. Deem and Ramdas Pophale) SiO2 
 PCOD9131796
Probable space group: C M
;
_chemical_formula_sum "Si O2"
_cell_formula_units_Z 32
_cell_length_a 12.994023
_cell_length_b 28.803732
_cell_length_c 9.305914
_cell_angle_alpha 90.000000
_cell_angle_beta 26.539360
_cell_angle_gamma 90.000000
_cell_volume 1556.240578
_symmetry_space_group_name_H-M "C M"
_symmetry_group_IT_number 8
_symmetry_cell_setting 'monoclinic'
loop_
_space_group_symop_operation_xyz
x,y,z
x,-y,z
1/2+x,1/2+y,z
1/2+x,1/2-y,z
loop_
_atom_site_type_symbol
_atom_site_label
_atom_site_fract_x
_atom_site_fract_y
_atom_site_fract_z
Si Si1 0.479680 0.802138 0.970520
Si Si2 0.329431 0.951514 0.682321
Si Si3 0.710273 0.105785 0.766222
Si Si4 0.976813 0.889426 0.981074
Si Si5 0.030029 0.580672 0.699290
Si Si6 0.325664 0.552962 0.913243
Si Si7 0.676797 0.660613 0.126148
Si Si8 0.416704 0.705790 0.207508
O O1 0.554543 0.847378 0.970481
O O2 0.682760 0.795866 0.596258
O O3 0.235284 0.811477 0.197705
O O4 0.456877 0.755680 0.089644
O O5 0.367153 0.951055 0.806493
O O6 0.580854 0.951064 0.298811
O O7 0.209790 0.000000 0.789238
O O8 0.203743 0.906585 0.778917
O O9 0.582908 0.075891 0.801106
O O10 0.957597 0.126405 0.408133
O O11 0.765298 0.075704 0.836228
O O12 0.776051 0.916497 0.317053
O O13 0.973287 0.910716 0.825154
O O14 0.927581 0.835315 0.073778
O O15 0.904567 0.629756 0.830962
O O16 0.420925 0.500000 0.784152
O O17 0.621137 0.693656 0.063626
#
# Coordination Sequence:
#
# PCOD9131796 Si02
#       8
#     4   4   4   4   4   4   4   4
#     4  10  24  39  61  94 127 166 215 261 315 384
#     4  10  21  37  61  91 119 158 207 261 312 370
#     4  10  21  40  61  89 126 167 199 255 320 373
#     4  11  20  39  64  86 121 167 208 256 316 367
#     4  10  18  38  63  84 113 160 207 253 303 370
#     4  10  24  40  59  91 128 161 208 261 317 383
#     4  10  19  40  61  82 124 158 205 257 312 367
#     4  11  22  39  61  93 124 167 218 262 314 376
#
# _framework density 20.562372
#
# number of rings (size 3 to 8) (size 9 to 14) (size 15 to 20)
#    0.000    1.750    5.000    0.375    0.000    8.000 
#    0.000    1.875    0.000    0.000    0.000    0.000 
#    0.000    0.000    0.000    0.000    0.000    0.000 
#
# Total GULP energy -89122.667614 kJ/mol
# GULP energy per Si atom -5570.166726 kJ/mol
# Density = 2.051557 g / cm^3
# Si number density = 20.562372 Si / 1000 Ang^3
#
#
#
# Elastic Constant Matrix: (Units=GPa)
#
#
# Indices 1 2 3 4 5 6 
#
# 1 150.9253 37.8021 8.2712 0.0000 6.9875 0.0000
# 2 37.8021 70.4721 5.3849 0.0000 18.4701 0.0000
# 3 8.2712 5.3849 17.3157 0.0000 -6.8844 0.0000
# 4 0.0000 0.0000 0.0000 12.3908 0.0000 0.3786
# 5 6.9875 18.4701 -6.8844 0.0000 23.4678 0.0000
# 6 0.0000 0.0000 0.0000 0.3786 0.0000 22.6256
#
#
#
# Elastic Compliance Matrix: (Units=1/GPa)
#
#
# Indices 1 2 3 4 5 6 
#
# 1 0.007756 -0.004016 -0.002397 0.000000 0.000148 0.000000
# 2 -0.004016 0.022781 -0.013380 0.000000 -0.020659 0.000000
# 3 -0.002397 -0.013380 0.076443 0.000000 0.033669 0.000000
# 4 0.000000 0.000000 0.000000 0.080747 0.000000 -0.001351
# 5 0.000148 -0.020659 0.033669 0.000000 0.068704 0.000000
# 6 0.000000 0.000000 0.000000 -0.001351 0.000000 0.044220
#
#
# Mechanical properties :
#
#
# Convention : Reuss Voigt Hill
#
# Bulk Modulus (GPa) = 14.83801 37.95885 26.39843
# Shear Modulus (GPa) = 13.78542 24.18048 18.98295
#
# Velocity S-wave (km/s) = 2.59206 3.43294 3.04170
# Velocity P-wave (km/s) = 4.02369 5.84926 5.02016
#
# Compressibility (1/GPa) = 0.06739449
#
# Stress axis : x y z
#
# Youngs Moduli (GPa) = 128.92843 43.89558 13.08166
#
# Poissons Ratio (x) = 0.17630 0.03136
# Poissons Ratio (y) = 0.51781 0.17503
# Poissons Ratio (z) = 0.30903 0.58731
#
# Static dielectric constant tensor:
#      x y z
#    x 1.783000 0.000000 0.020490 
#    y 0.000000 1.784020 0.000000 
#    z 0.020490 0.000000 1.740240 
# 
# From -- ./inp_files/11704.got.cif
#   From: 2010.05.17/outbox.cif.g08.bks.cpg/sg8_6_cif.got.tgz:11704.got - 2010.06.03 19:46:02.
