data_PCOD9131558
_publ_section_title
;
Structure prediction by ZEFSAII (Michael W. Deem and Ramdas Pophale) SiO2 
 PCOD9131558
Probable space group: C M
;
_chemical_formula_sum "Si O2"
_cell_formula_units_Z 28
_cell_length_a 15.910569
_cell_length_b 18.499143
_cell_length_c 5.063542
_cell_angle_alpha 90.000000
_cell_angle_beta 61.769752
_cell_angle_gamma 90.000000
_cell_volume 1313.089094
_symmetry_space_group_name_H-M "C M"
_symmetry_group_IT_number 8
_symmetry_cell_setting 'monoclinic'
loop_
_space_group_symop_operation_xyz
x,y,z
x,-y,z
1/2+x,1/2+y,z
1/2+x,1/2-y,z
loop_
_atom_site_type_symbol
_atom_site_label
_atom_site_fract_x
_atom_site_fract_y
_atom_site_fract_z
Si Si1 0.711030 0.077320 0.498970
Si Si2 0.160802 0.652993 0.067496
Si Si3 0.354180 0.276924 0.876476
Si Si4 0.477676 0.079551 0.338207
Si Si5 0.696535 0.500000 0.398961
Si Si6 0.914207 0.130602 0.290536
Si Si7 0.063817 0.000000 0.099844
Si Si8 0.359597 0.890839 0.002043
O O1 0.706213 0.092818 0.196459
O O2 0.818610 0.082049 0.442944
O O3 0.668027 0.000000 0.618725
O O4 0.660642 0.136341 0.756376
O O5 0.050012 0.644510 0.304912
O O6 0.238953 0.714188 0.002779
O O7 0.404410 0.309933 0.539458
O O8 0.361698 0.194803 0.957000
O O9 0.398838 0.325586 0.042825
O O10 0.390752 0.080244 0.670870
O O11 0.523672 0.000000 0.294651
O O12 0.437954 0.089081 0.104641
O O13 0.647974 0.500000 0.757620
O O14 0.611007 0.500000 0.316686
O O15 0.763418 0.430077 0.243016
O O16 0.000737 0.073638 0.165548
#
# Coordination Sequence:
#
# PCOD9131558 Si02
#       8
#     4   4   4   4   2   4   2   4
#     4  10  17  32  56  89 132 166 194 252 329 382
#     4  10  22  35  60  96 126 164 213 259 323 402
#     4  10  23  44  66  96 140 177 211 267 358 407
#     4  12  22  41  69  97 127 167 233 281 327 395
#     4  12  26  46  70  97 128 189 232 292 328 380
#     4  10  21  40  66 100 134 171 214 271 339 405
#     4  12  24  44  72 107 132 169 240 284 328 404
#     4  12  25  47  68  90 137 179 229 280 336 394
#
# _framework density 21.323764000000001
#
# number of rings (size 3 to 8) (size 9 to 14) (size 15 to 20)
#    0.000    1.143    2.143    4.714    0.000    0.000 
#    7.714    0.000    0.000    0.000    0.000    0.000 
#    0.000    0.000    0.000    0.000    0.000    0.000 
#
# Total GULP energy -78021.512075 kJ/mol
# GULP energy per Si atom -5572.965148 kJ/mol
# Density = 2.127523 g / cm^3
# Si number density = 21.323764 Si / 1000 Ang^3
#
#
#
# Elastic Constant Matrix: (Units=GPa)
#
#
# Indices 1 2 3 4 5 6 
#
# 1 69.3104 21.2694 -2.2660 0.0000 4.1823 0.0000
# 2 21.2694 102.4922 9.9476 0.0000 -2.1351 0.0000
# 3 -2.2660 9.9476 76.5497 0.0000 4.5137 0.0000
# 4 0.0000 0.0000 0.0000 9.3812 0.0000 5.9383
# 5 4.1823 -2.1351 4.5137 0.0000 43.1156 0.0000
# 6 0.0000 0.0000 0.0000 5.9383 0.0000 19.7372
#
#
#
# Elastic Compliance Matrix: (Units=1/GPa)
#
#
# Indices 1 2 3 4 5 6 
#
# 1 0.015604 -0.003373 0.001005 0.000000 -0.001786 0.000000
# 2 -0.003373 0.010627 -0.001541 0.000000 0.001015 0.000000
# 3 0.001005 -0.001541 0.013386 0.000000 -0.001575 0.000000
# 4 0.000000 0.000000 0.000000 0.131672 0.000000 -0.039616
# 5 -0.001786 0.001015 -0.001575 0.000000 0.023582 0.000000
# 6 0.000000 0.000000 0.000000 -0.039616 0.000000 0.062585
#
#
# Mechanical properties :
#
#
# Convention : Reuss Voigt Hill
#
# Bulk Modulus (GPa) = 31.44547 34.02826 32.73686
# Shear Modulus (GPa) = 18.12428 29.07356 23.59892
#
# Velocity S-wave (km/s) = 2.91857 3.69648 3.33031
# Velocity P-wave (km/s) = 5.11234 5.84903 5.49305
#
# Compressibility (1/GPa) = 0.03180108
#
# Stress axis : x y z
#
# Youngs Moduli (GPa) = 64.08805 94.09584 74.70337
#
# Poissons Ratio (x) = 0.31737 -0.07511
# Poissons Ratio (y) = 0.21616 0.11510
# Poissons Ratio (z) = -0.06444 0.14497
#
# Static dielectric constant tensor:
#      x y z
#    x 1.764200 0.000000 -0.045920 
#    y 0.000000 1.753590 0.000000 
#    z -0.045920 0.000000 1.784840 
# 
# From -- ./inp_files/4094.got.cif
#   From: 2010.05.17/outbox.cif.g08.bks.cpg/sg8_3_cif.got.tgz:4094.got - 2010.06.03 19:46:02.
