data_PCOD9131769
_publ_section_title
;
Structure prediction by ZEFSAII (Michael W. Deem and Ramdas Pophale) SiO2 
 PCOD9131769
Probable space group: C M
;
_chemical_formula_sum "Si O2"
_cell_formula_units_Z 32
_cell_length_a 16.979682
_cell_length_b 15.740859
_cell_length_c 10.615052
_cell_angle_alpha 90.000000
_cell_angle_beta 144.902129
_cell_angle_gamma 90.000000
_cell_volume 1631.281670
_symmetry_space_group_name_H-M "C M"
_symmetry_group_IT_number 8
_symmetry_cell_setting 'monoclinic'
loop_
_space_group_symop_operation_xyz
x,y,z
x,-y,z
1/2+x,1/2+y,z
1/2+x,1/2-y,z
loop_
_atom_site_type_symbol
_atom_site_label
_atom_site_fract_x
_atom_site_fract_y
_atom_site_fract_z
Si Si1 0.819850 0.148957 0.331920
Si Si2 0.328959 0.899641 0.577430
Si Si3 0.602501 0.597615 0.668177
Si Si4 0.388185 0.102413 0.133464
Si Si5 0.537471 0.896692 0.069811
Si Si6 0.245417 0.398596 0.949194
Si Si7 0.958949 0.667635 0.498195
Si Si8 0.046196 0.896146 0.311771
O O1 0.689011 0.139792 0.248878
O O2 0.881613 0.242812 0.403257
O O3 0.958112 0.099236 0.550132
O O4 0.770678 0.113358 0.131889
O O5 0.384770 0.885659 0.511086
O O6 0.174082 0.867109 0.395578
O O7 0.321361 0.000000 0.591130
O O8 0.436206 0.867517 0.823782
O O9 0.640227 0.500000 0.693077
O O10 0.578560 0.634111 0.496944
O O11 0.732067 0.634089 0.909809
O O12 0.472229 0.126352 0.118601
O O13 0.444126 0.135449 0.337507
O O14 0.390750 0.000000 0.144541
O O15 0.547035 0.000000 0.075766
O O16 0.217983 0.500000 0.890616
O O17 0.118956 0.340991 0.742021
O O18 0.390321 0.372271 0.076137
O O19 0.041638 0.000000 0.306987
#
# Coordination Sequence:
#
# PCOD9131769 Si02
#       8
#     4   4   4   4   4   4   4   4
#     4  11  23  37  59  90 125 158 207 257 307 363
#     4  10  18  35  63  91 116 157 212 256 295 364
#     4   9  17  34  60  86 113 151 202 253 298 357
#     4  10  21  38  61  90 124 162 205 256 313 373
#     4  10  19  38  66  90 117 161 220 260 294 366
#     4  10  20  40  67  89 116 165 217 251 294 375
#     4  12  25  37  58  92 132 160 194 257 326 373
#     4   8  15  31  60  92 110 142 209 262 282 337
#
# _framework density 19.616477
#
# number of rings (size 3 to 8) (size 9 to 14) (size 15 to 20)
#    0.000    2.000    2.500    3.000    1.750    0.000 
#    4.500    1.250    0.000    3.000    0.000    0.000 
#    0.000    0.000    0.000    0.000    0.000    0.000 
#
# Total GULP energy -89197.145139 kJ/mol
# GULP energy per Si atom -5574.821571 kJ/mol
# Density = 1.957183 g / cm^3
# Si number density = 19.616477 Si / 1000 Ang^3
#
#
#
# Elastic Constant Matrix: (Units=GPa)
#
#
# Indices 1 2 3 4 5 6 
#
# 1 101.2809 22.2105 70.6183 0.0000 25.9613 0.0000
# 2 22.2105 35.2744 21.4991 0.0000 8.3985 0.0000
# 3 70.6183 21.4991 108.2005 0.0000 24.2990 0.0000
# 4 0.0000 0.0000 0.0000 7.6983 0.0000 15.8369
# 5 25.9613 8.3985 24.2990 0.0000 35.1591 0.0000
# 6 0.0000 0.0000 0.0000 15.8369 0.0000 15.3145
#
#
#
# Elastic Compliance Matrix: (Units=1/GPa)
#
#
# Indices 1 2 3 4 5 6 
#
# 1 0.019933 -0.004541 -0.010707 0.000000 -0.006234 0.000000
# 2 -0.004541 0.033742 -0.003177 0.000000 -0.002512 0.000000
# 3 -0.010707 -0.003177 0.017656 0.000000 -0.003537 0.000000
# 4 0.000000 0.000000 0.000000 -0.115223 0.000000 0.119153
# 5 -0.006234 -0.002512 -0.003537 0.000000 0.036090 0.000000
# 6 0.000000 0.000000 0.000000 0.119153 0.000000 -0.057920
#
#
# Mechanical properties :
#
#
# Convention : Reuss Voigt Hill
#
# Bulk Modulus (GPa) = 29.00104 52.60129 40.80117
# Shear Modulus (GPa) = -287.71553 20.32956 -133.69298
#
# Velocity S-wave (km/s) = -12.12389 3.22273 -8.26446
# Velocity P-wave (km/s) = 13.45990 6.38131 8.37997
#
# Compressibility (1/GPa) = 0.03448152
#
# Stress axis : x y z
#
# Youngs Moduli (GPa) = 50.16859 29.63624 56.63824
#
# Poissons Ratio (x) = 0.13457 0.60644
# Poissons Ratio (y) = 0.22780 0.17994
# Poissons Ratio (z) = 0.53717 0.09415
#
# Static dielectric constant tensor:
#      x y z
#    x 1.702240 0.000000 0.034250 
#    y 0.000000 1.754230 0.000000 
#    z 0.034250 0.000000 1.686400 
# 
# From -- ./inp_files/13720.got.cif
#   From: 2010.05.17/outbox.cif.g08.bks.cpg/sg8_7_cif.got.tgz:13720.got - 2010.06.03 19:46:02.
