data_PCOD9131048
_publ_section_title
;
Structure prediction by ZEFSAII (Michael W. Deem and Ramdas Pophale) SiO2 
 PCOD9131048
Probable space group: P M
;
_chemical_formula_sum "Si O2"
_cell_formula_units_Z 14
_cell_length_a 5.570294
_cell_length_b 22.911790
_cell_length_c 4.897300
_cell_angle_alpha 90.000000
_cell_angle_beta 97.498722
_cell_angle_gamma 90.000000
_cell_volume 619.674590
_symmetry_space_group_name_H-M "P M"
_symmetry_group_IT_number 6
_symmetry_cell_setting 'monoclinic'
loop_
_space_group_symop_operation_xyz
x,y,z
x,-y,z
loop_
_atom_site_type_symbol
_atom_site_label
_atom_site_fract_x
_atom_site_fract_y
_atom_site_fract_z
Si Si1 0.575960 0.838779 0.307970
Si Si2 0.376096 0.662251 0.523283
Si Si3 0.942309 0.630897 0.057659
Si Si4 0.262018 0.067043 0.089252
Si Si5 0.101080 0.134603 0.543076
Si Si6 0.557894 0.723710 0.032483
Si Si7 0.762363 0.431136 0.548336
O O1 0.335086 0.829597 0.461563
O O2 0.568469 0.792474 0.061820
O O3 0.840776 0.835151 0.479657
O O4 0.524061 0.904259 0.191829
O O5 0.534961 0.702321 0.342268
O O6 0.521704 0.602948 0.607946
O O7 0.158003 0.647524 0.290357
O O8 0.351810 0.698395 0.799717
O O9 0.796470 0.689951 0.968212
O O10 0.792931 0.587732 0.237907
O O11 0.969475 0.595834 0.778978
O O12 0.148912 0.109656 0.847355
O O13 0.271900 0.000000 0.012187
O O14 0.111452 0.078781 0.341717
O O15 0.751157 0.500000 0.573242
#
# Coordination Sequence:
#
# PCOD9131048 Si02
#       7
#     2   2   2   2   2   2   2
#     4  10  26  43  66  99 128 172 215 269 319 389
#     4  10  22  40  58  89 116 162 196 253 308 368
#     4  10  21  38  58  86 118 156 200 248 310 365
#     4  10  24  43  65  94 129 171 215 268 323 388
#     4  10  25  42  64  95 129 163 219 259 326 376
#     4  10  23  37  63  86 123 153 204 251 310 368
#     4  10  21  37  56  85 118 153 204 250 298 370
#
# _framework density 22.592504000000002
#
# number of rings (size 3 to 8) (size 9 to 14) (size 15 to 20)
#    0.857    1.143    0.000    1.714    6.000    2.286 
#    0.000    0.000    0.000    0.000    0.000    0.000 
#    0.000    0.000    0.000    0.000    0.000    0.000 
#
# Total GULP energy -78031.247325 kJ/mol
# GULP energy per Si atom -5573.660523 kJ/mol
# Density = 2.254108 g / cm^3
# Si number density = 22.592504 Si / 1000 Ang^3
#
#
#
# Elastic Constant Matrix: (Units=GPa)
#
#
# Indices 1 2 3 4 5 6 
#
# 1 73.1201 15.4028 18.7969 0.0000 24.7911 0.0000
# 2 15.4028 63.9604 5.0056 0.0000 9.0047 0.0000
# 3 18.7969 5.0056 119.0937 0.0000 4.4978 0.0000
# 4 0.0000 0.0000 0.0000 30.8793 0.0000 1.0193
# 5 24.7911 9.0047 4.4978 0.0000 39.4469 0.0000
# 6 0.0000 0.0000 0.0000 1.0193 0.0000 7.4408
#
#
#
# Elastic Compliance Matrix: (Units=1/GPa)
#
#
# Indices 1 2 3 4 5 6 
#
# 1 0.018513 -0.002760 -0.002401 0.000000 -0.010731 0.000000
# 2 -0.002760 0.016600 -0.000185 0.000000 -0.002034 0.000000
# 3 -0.002401 -0.000185 0.008763 0.000000 0.000552 0.000000
# 4 0.000000 0.000000 0.000000 0.032531 0.000000 -0.004456
# 5 -0.010731 -0.002034 0.000552 0.000000 0.032496 0.000000
# 6 0.000000 0.000000 0.000000 -0.004456 0.000000 0.135005
#
#
# Mechanical properties :
#
#
# Convention : Reuss Voigt Hill
#
# Bulk Modulus (GPa) = 30.13464 37.17608 33.65536
# Shear Modulus (GPa) = 18.82103 30.01800 24.41952
#
# Velocity S-wave (km/s) = 2.88942 3.64905 3.29122
# Velocity P-wave (km/s) = 4.94964 5.85191 5.41958
#
# Compressibility (1/GPa) = 0.03318440
#
# Stress axis : x y z
#
# Youngs Moduli (GPa) = 54.01632 60.24067 114.12133
#
# Poissons Ratio (x) = 0.16624 0.27397
# Poissons Ratio (y) = 0.14906 0.02115
# Poissons Ratio (z) = 0.12968 0.01117
#
# Static dielectric constant tensor:
#      x y z
#    x 1.942660 0.000000 0.010180 
#    y 0.000000 1.824270 0.000000 
#    z 0.010180 0.000000 1.851190 
# 
# From -- ./inp_files/671.got.cif
#   From: 2010.05.17/outbox.cif.g08.bks.cpg/sg6_1_cif.got.tgz:671.got - 2010.06.03 19:42:10.
