data_PCOD9131834
_publ_section_title
;
Structure prediction by ZEFSAII (Michael W. Deem and Ramdas Pophale) SiO2 
 PCOD9131834
Probable space group: C M
;
_chemical_formula_sum "Si O2"
_cell_formula_units_Z 32
_cell_length_a 18.900458
_cell_length_b 8.873180
_cell_length_c 14.338357
_cell_angle_alpha 90.000000
_cell_angle_beta 48.549293
_cell_angle_gamma 90.000000
_cell_volume 1802.342938
_symmetry_space_group_name_H-M "C M"
_symmetry_group_IT_number 8
_symmetry_cell_setting 'monoclinic'
loop_
_space_group_symop_operation_xyz
x,y,z
x,-y,z
1/2+x,1/2+y,z
1/2+x,1/2-y,z
loop_
_atom_site_type_symbol
_atom_site_label
_atom_site_fract_x
_atom_site_fract_y
_atom_site_fract_z
Si Si1 0.407950 0.174421 0.391680
Si Si2 0.205501 0.683199 0.123122
Si Si3 0.417088 0.683647 0.887149
Si Si4 0.446689 0.319265 0.650672
Si Si5 0.780840 0.180840 0.652475
Si Si6 0.044882 0.819358 0.131777
Si Si7 0.578271 0.826470 0.395235
Si Si8 0.581304 0.317955 0.884968
O O1 0.322108 0.255772 0.519228
O O2 0.451276 0.253904 0.263026
O O3 0.494152 0.178836 0.391590
O O4 0.385898 0.000000 0.392660
O O5 0.197725 0.500000 0.124763
O O6 0.134375 0.752583 0.109587
O O7 0.168571 0.728080 0.258158
O O8 0.312345 0.728549 0.009841
O O9 0.417185 0.500000 0.885795
O O10 0.437688 0.736048 0.764086
O O11 0.497647 0.730418 0.888809
O O12 0.447003 0.500000 0.651783
O O13 0.356172 0.273115 0.667342
O O14 0.540006 0.264310 0.516208
O O15 0.679537 0.245889 0.767440
O O16 0.778441 0.000000 0.651095
O O17 0.044296 0.000000 0.141342
O O18 0.055556 0.779029 0.013992
O O19 0.592330 0.000000 0.409975
O O20 0.590066 0.500000 0.872564
#
# Coordination Sequence:
#
# PCOD9131834 Si02
#       8
#     4   4   4   4   4   4   4   4
#     4   9  17  31  52  76 102 131 163 202 249 300
#     4   9  17  32  54  74  93 126 169 207 246 293
#     4   9  18  34  52  69  94 131 172 205 238 289
#     4   9  17  30  51  74  95 124 160 200 243 287
#     4  10  19  32  53  79 103 127 162 209 253 294
#     4  10  19  31  50  77 105 131 164 207 250 293
#     4   8  15  27  46  73  99 121 151 196 246 293
#     4  10  21  35  50  70 101 139 171 202 245 297
#
# _framework density 17.754667999999999
#
# number of rings (size 3 to 8) (size 9 to 14) (size 15 to 20)
#    0.000    2.750    0.000    2.625    0.000    5.500 
#    0.000    3.125    0.000    1.500    0.000    0.000 
#    0.000    0.000    0.000    0.000    0.000    0.000 
#
# Total GULP energy -89193.844333 kJ/mol
# GULP energy per Si atom -5574.615271 kJ/mol
# Density = 1.771426 g / cm^3
# Si number density = 17.754668 Si / 1000 Ang^3
#
#
#
# Elastic Constant Matrix: (Units=GPa)
#
#
# Indices 1 2 3 4 5 6 
#
# 1 82.3912 29.9487 91.4470 0.0000 3.0116 0.0000
# 2 29.9487 33.7156 54.3128 -0.0001 -0.2951 0.0000
# 3 91.4470 54.3128 218.8388 0.0000 9.3355 0.0000
# 4 0.0000 -0.0001 0.0000 33.5620 0.0000 -2.0891
# 5 3.0116 -0.2951 9.3355 0.0000 -3.6655 0.0000
# 6 0.0000 0.0000 0.0000 -2.0891 0.0000 12.7561
#
#
#
# Elastic Compliance Matrix: (Units=1/GPa)
#
#
# Indices 1 2 3 4 5 6 
#
# 1 0.024051 -0.008587 -0.007930 0.000000 0.000256 0.000000
# 2 -0.008587 0.048697 -0.007243 0.000000 -0.029421 0.000000
# 3 -0.007930 -0.007243 0.008960 0.000000 0.016888 0.000000
# 4 0.000000 0.000000 0.000000 0.030102 0.000000 0.004930
# 5 0.000256 -0.029421 0.016888 0.000000 -0.227222 0.000000
# 6 0.000000 0.000000 0.000000 0.004930 0.000000 0.079201
#
#
# Mechanical properties :
#
#
# Convention : Reuss Voigt Hill
#
# Bulk Modulus (GPa) = 29.24902 76.26250 52.75576
# Shear Modulus (GPa) = 220.21249 19.14634 119.67941
#
# Velocity S-wave (km/s) = 11.14899 3.28744 8.21910
# Velocity P-wave (km/s) = 13.49974 7.58000 10.94759
#
# Compressibility (1/GPa) = 0.03418918
#
# Stress axis : x y z
#
# Youngs Moduli (GPa) = 41.57888 20.53503 111.60336
#
# Poissons Ratio (x) = 0.17634 0.88500
# Poissons Ratio (y) = 0.35704 0.80829
# Poissons Ratio (z) = 0.32971 0.14873
#
# Static dielectric constant tensor:
#      x y z
#    x 1.583240 0.000000 0.005760 
#    y 0.000000 1.601760 0.000000 
#    z 0.005760 0.000000 1.610620 
# 
# From -- ./inp_files/27692.got.cif
#   From: 2010.05.17/outbox.cif.g08.bks.cpg/sg8_14_cif.got.tgz:27692.got - 2010.06.03 19:46:02.
