data_PCOD9131127
_publ_section_title
;
Structure prediction by ZEFSAII (Michael W. Deem and Ramdas Pophale) SiO2 
 PCOD9131127
Probable space group: P M
;
_chemical_formula_sum "Si O2"
_cell_formula_units_Z 16
_cell_length_a 8.462583
_cell_length_b 17.013752
_cell_length_c 6.323858
_cell_angle_alpha 90.000000
_cell_angle_beta 129.062595
_cell_angle_gamma 90.000000
_cell_volume 706.973446
_symmetry_space_group_name_H-M "P M"
_symmetry_group_IT_number 6
_symmetry_cell_setting 'monoclinic'
loop_
_space_group_symop_operation_xyz
x,y,z
x,-y,z
loop_
_atom_site_type_symbol
_atom_site_label
_atom_site_fract_x
_atom_site_fract_y
_atom_site_fract_z
Si Si1 0.511140 0.338328 0.781010
Si Si2 0.684339 0.912141 0.773583
Si Si3 0.446197 0.087703 0.188780
Si Si4 0.731138 0.206291 0.194634
Si Si5 0.031118 0.847487 0.780658
Si Si6 0.888836 0.590416 0.888545
Si Si7 0.240785 0.410502 0.897275
Si Si8 0.214259 0.709790 0.215195
O O1 0.660260 0.383645 0.745247
O O2 0.347943 0.392057 0.766554
O O3 0.375199 0.276766 0.533889
O O4 0.652967 0.291532 0.064186
O O5 0.472484 0.906403 0.465397
O O6 0.852860 0.898045 0.735115
O O7 0.701895 0.000000 0.876047
O O8 0.729537 0.846799 0.983756
O O9 0.565309 0.162059 0.198465
O O10 0.524565 0.000000 0.201543
O O11 0.222026 0.096745 0.907064
O O12 0.940455 0.197660 0.501076
O O13 0.112286 0.783319 0.016816
O O14 0.913042 0.500000 0.975011
O O15 0.995587 0.596099 0.743457
O O16 0.033256 0.651318 0.135876
O O17 0.293456 0.500000 0.001372
O O18 0.320686 0.344011 0.125044
#
# Coordination Sequence:
#
# PCOD9131127 Si02
#       8
#     2   2   2   2   2   2   2   2
#     4  12  23  42  71  98 131 183 221 271 340 398
#     4  10  22  41  64  93 128 167 215 269 325 389
#     4  10  22  41  64  91 127 169 213 267 328 389
#     4  11  25  40  62  96 129 169 217 267 324 391
#     4  11  23  42  64  92 131 171 215 267 324 389
#     4   9  22  43  64  97 135 168 217 280 332 392
#     4   9  22  43  64  97 135 169 218 278 332 395
#     4  10  23  42  63  96 136 170 224 275 327 401
#
# _framework density 22.631684
#
# number of rings (size 3 to 8) (size 9 to 14) (size 15 to 20)
#    0.750    1.000    0.000    3.375    0.000   11.500 
#    2.250    0.000    0.000    0.000    0.000    0.000 
#    0.000    0.000    0.000    0.000    0.000    0.000 
#
# Total GULP energy -89161.823646 kJ/mol
# GULP energy per Si atom -5572.613978 kJ/mol
# Density = 2.258017 g / cm^3
# Si number density = 22.631684 Si / 1000 Ang^3
#
#
#
# Elastic Constant Matrix: (Units=GPa)
#
#
# Indices 1 2 3 4 5 6 
#
# 1 106.2255 21.9797 27.7454 0.0000 3.8411 0.0000
# 2 21.9797 99.7290 8.7558 0.0000 4.3059 0.0000
# 3 27.7454 8.7558 87.4959 0.0000 16.0132 0.0000
# 4 0.0000 0.0000 0.0000 17.2429 0.0000 -1.7592
# 5 3.8411 4.3059 16.0132 0.0000 16.1422 0.0000
# 6 0.0000 0.0000 0.0000 -1.7592 0.0000 29.6437
#
#
#
# Elastic Compliance Matrix: (Units=1/GPa)
#
#
# Indices 1 2 3 4 5 6 
#
# 1 0.010700 -0.002118 -0.003444 0.000000 0.001435 0.000000
# 2 -0.002118 0.010592 0.000045 0.000000 -0.002366 0.000000
# 3 -0.003444 0.000045 0.015113 0.000000 -0.014184 0.000000
# 4 0.000000 0.000000 0.000000 0.058348 0.000000 0.003463
# 5 0.001435 -0.002366 -0.014184 0.000000 0.076310 0.000000
# 6 0.000000 0.000000 0.000000 0.003463 0.000000 0.033939
#
#
# Mechanical properties :
#
#
# Convention : Reuss Voigt Hill
#
# Bulk Modulus (GPa) = 39.41545 45.60135 42.50840
# Shear Modulus (GPa) = 22.27242 28.27038 25.27140
#
# Velocity S-wave (km/s) = 3.14048 3.53817 3.34524
# Velocity P-wave (km/s) = 5.53209 6.07327 5.80898
#
# Compressibility (1/GPa) = 0.02537076
#
# Stress axis : x y z
#
# Youngs Moduli (GPa) = 93.46063 94.40952 66.16997
#
# Poissons Ratio (x) = 0.19994 0.22786
# Poissons Ratio (y) = 0.19793 -0.00295
# Poissons Ratio (z) = 0.32184 -0.00421
#
# Static dielectric constant tensor:
#      x y z
#    x 1.921180 0.000000 -0.003560 
#    y 0.000000 1.812360 0.000000 
#    z -0.003560 0.000000 1.849970 
# 
# From -- ./inp_files/1383.got.cif
#   From: 2010.05.17/outbox.cif.g08.bks.cpg/sg6_1_cif.got.tgz:1383.got - 2010.06.03 19:42:10.
