data_PCOD9131214
_publ_section_title
;
Structure prediction by ZEFSAII (Michael W. Deem and Ramdas Pophale) SiO2 
 PCOD9131214
Probable space group: P C
;
_chemical_formula_sum "Si O2"
_cell_formula_units_Z 14
_cell_length_a 6.416159
_cell_length_b 14.448051
_cell_length_c 5.516589
_cell_angle_alpha 90.000000
_cell_angle_beta 76.973717
_cell_angle_gamma 90.000000
_cell_volume 498.233475
_symmetry_space_group_name_H-M "P C"
_symmetry_group_IT_number 7
_symmetry_cell_setting 'monoclinic'
loop_
_space_group_symop_operation_xyz
x,y,z
x,-y,1/2+z
loop_
_atom_site_type_symbol
_atom_site_label
_atom_site_fract_x
_atom_site_fract_y
_atom_site_fract_z
Si Si1 0.477140 0.221265 0.373750
Si Si2 0.469183 0.721981 0.379195
Si Si3 0.954848 0.959712 0.897654
Si Si4 0.926219 0.542151 0.785738
Si Si5 0.061782 0.748755 0.764354
Si Si6 0.424661 0.479584 0.693056
Si Si7 0.454644 0.021268 0.531442
O O1 0.572047 0.239183 0.610337
O O2 0.241555 0.267345 0.426995
O O3 0.429429 0.112816 0.368584
O O4 0.588514 0.250562 0.095342
O O5 0.224891 0.754014 0.492916
O O6 0.456104 0.612855 0.347029
O O7 0.711552 0.991894 0.988462
O O8 0.964101 0.850278 0.833874
O O9 0.049931 0.014280 0.638447
O O10 0.834554 0.498461 0.561604
O O11 0.933921 0.653250 0.782365
O O12 0.173076 0.505260 0.723603
O O13 0.492286 0.451338 0.398503
O O14 0.395796 0.048550 0.825193
#
# Coordination Sequence:
#
# PCOD9131214 Si02
#       7
#     2   2   2   2   2   2   2
#     4  10  20  32  51  76 103 130 169 218 262 308
#     4  10  19  30  47  82 111 129 167 218 264 309
#     4  10  24  40  55  75 107 144 181 217 264 318
#     4  10  17  28  47  76 109 137 169 206 257 315
#     4  10  22  32  56  81 113 135 174 221 272 302
#     4  10  15  26  43  68 110 136 164 198 254 305
#     4  10  21  40  57  72  97 139 184 220 259 317
#
# _framework density 28.099274000000001
#
# number of rings (size 3 to 8) (size 9 to 14) (size 15 to 20)
#    0.857    1.143    2.857    3.429    2.000    1.143 
#    0.000    0.000    0.000    0.000    0.000   12.000 
#    0.000    0.000    0.000    0.000    0.000    0.000 
#
# Total GULP energy -78123.289272 kJ/mol
# GULP energy per Si atom -5580.234948 kJ/mol
# Density = 2.803532 g / cm^3
# Si number density = 28.099274 Si / 1000 Ang^3
#
#
#
# Elastic Constant Matrix: (Units=GPa)
#
#
# Indices 1 2 3 4 5 6 
#
# 1 34.9745 -17.7627 27.4888 0.0000 -0.5072 0.0000
# 2 -17.7627 120.4468 -1.9735 0.0000 -14.4697 0.0000
# 3 27.4888 -1.9735 220.8563 0.0000 -5.6730 0.0000
# 4 0.0000 0.0000 0.0000 45.4830 0.0000 1.3900
# 5 -0.5072 -14.4697 -5.6730 0.0000 62.3498 0.0000
# 6 0.0000 0.0000 0.0000 1.3900 0.0000 35.4199
#
#
#
# Elastic Compliance Matrix: (Units=1/GPa)
#
#
# Indices 1 2 3 4 5 6 
#
# 1 0.034549 0.005157 -0.004226 0.000000 0.001093 0.000000
# 2 0.005157 0.009314 -0.000503 0.000000 0.002158 0.000000
# 3 -0.004226 -0.000503 0.005057 0.000000 0.000309 0.000000
# 4 0.000000 0.000000 0.000000 0.022013 0.000000 -0.000864
# 5 0.001093 0.002158 0.000309 0.000000 0.016576 0.000000
# 6 0.000000 0.000000 0.000000 -0.000864 0.000000 0.028267
#
#
# Mechanical properties :
#
#
# Convention : Reuss Voigt Hill
#
# Bulk Modulus (GPa) = 20.09006 43.53142 31.81074
# Shear Modulus (GPa) = 38.01950 53.21887 45.61919
#
# Velocity S-wave (km/s) = 3.68236 4.35669 4.03364
# Velocity P-wave (km/s) = 5.02443 6.39009 5.74796
#
# Compressibility (1/GPa) = 0.04977585
#
# Stress axis : x y z
#
# Youngs Moduli (GPa) = 28.94461 107.36613 197.73591
#
# Poissons Ratio (x) = -0.55370 0.83562
# Poissons Ratio (y) = -0.14927 0.09951
# Poissons Ratio (z) = 0.12232 0.05403
#
# Static dielectric constant tensor:
#      x y z
#    x 2.421560 0.000000 -0.194360 
#    y 0.000000 2.295810 0.000000 
#    z -0.194360 0.000000 2.599890 
# 
# From -- ./inp_files/531.got.cif
#   From: 2010.05.17/outbox.cif.g08.bks.cpg/sg7_cif.got.tgz:531.got - 2010.06.03 19:44:50.
