data_PCOD9131426
_publ_section_title
;
Structure prediction by ZEFSAII (Michael W. Deem and Ramdas Pophale) SiO2 
 PCOD9131426
Probable space group: P C
;
_chemical_formula_sum "Si O2"
_cell_formula_units_Z 16
_cell_length_a 11.386246
_cell_length_b 11.114852
_cell_length_c 5.120889
_cell_angle_alpha 90.000000
_cell_angle_beta 69.973752
_cell_angle_gamma 90.000000
_cell_volume 608.895774
_symmetry_space_group_name_H-M "P C"
_symmetry_group_IT_number 7
_symmetry_cell_setting 'monoclinic'
loop_
_space_group_symop_operation_xyz
x,y,z
x,-y,1/2+z
loop_
_atom_site_type_symbol
_atom_site_label
_atom_site_fract_x
_atom_site_fract_y
_atom_site_fract_z
Si Si1 0.026320 0.570620 0.269730
Si Si2 0.661070 0.915987 0.212424
Si Si3 0.365476 0.455012 0.672055
Si Si4 0.381858 0.082863 0.033606
Si Si5 0.805272 0.751491 0.446344
Si Si6 0.231154 0.238946 0.805021
Si Si7 0.019691 0.069024 0.799486
Si Si8 0.638074 0.561441 0.599074
O O1 0.035301 0.458023 0.457114
O O2 0.127190 0.661971 0.312454
O O3 0.892474 0.634978 0.392860
O O4 0.521149 0.867224 0.370458
O O5 0.758360 0.812294 0.212556
O O6 0.674751 0.021979 0.421290
O O7 0.298937 0.533887 0.504746
O O8 0.354532 0.313482 0.614229
O O9 0.491183 0.525267 0.677300
O O10 0.279169 0.182969 0.042175
O O11 0.374601 0.975579 0.823283
O O12 0.901910 0.850362 0.478579
O O13 0.676035 0.695055 0.658484
O O14 0.154943 0.126438 0.746660
O O15 0.011021 0.043708 0.499559
O O16 0.686250 0.467528 0.774874
#
# Coordination Sequence:
#
# PCOD9131426 Si02
#       8
#     2   2   2   2   2   2   2   2
#     4  11  26  45  64  98 134 169 226 277 328 394
#     4  10  23  42  62  96 132 167 217 270 323 397
#     4  10  23  41  61  96 132 171 222 272 319 399
#     4  10  23  42  62  96 132 167 217 270 323 397
#     4  11  24  42  73  94 133 182 217 277 342 389
#     4  11  24  42  73  94 133 182 217 277 342 389
#     4  11  26  45  68 104 132 173 232 277 332 406
#     4  10  23  41  61  96 132 171 222 272 319 399
#
# _framework density 26.277073999999999
#
# number of rings (size 3 to 8) (size 9 to 14) (size 15 to 20)
#    0.000    1.500    0.000    3.000    3.500   10.000 
#    9.000    0.000    0.000    0.000    0.000    0.000 
#    0.000    0.000    0.000    0.000    0.000    0.000 
#
# Total GULP energy -89191.801535 kJ/mol
# GULP energy per Si atom -5574.487596 kJ/mol
# Density = 2.621727 g / cm^3
# Si number density = 26.277074 Si / 1000 Ang^3
#
#
#
# Elastic Constant Matrix: (Units=GPa)
#
#
# Indices 1 2 3 4 5 6 
#
# 1 167.4255 47.9317 20.5152 0.0000 4.2557 0.0000
# 2 47.9317 61.8796 -3.5880 0.0000 -8.5888 0.0000
# 3 20.5152 -3.5880 49.3303 0.0000 5.4775 0.0000
# 4 0.0000 0.0000 0.0000 12.8518 0.0000 3.3613
# 5 4.2557 -8.5888 5.4775 0.0000 37.4646 0.0000
# 6 0.0000 0.0000 0.0000 3.3613 0.0000 69.5755
#
#
#
# Elastic Compliance Matrix: (Units=1/GPa)
#
#
# Indices 1 2 3 4 5 6 
#
# 1 0.008532 -0.007114 -0.003839 0.000000 -0.002039 0.000000
# 2 -0.007114 0.022655 0.004005 0.000000 0.005416 0.000000
# 3 -0.003839 0.004005 0.022372 0.000000 -0.001917 0.000000
# 4 0.000000 0.000000 0.000000 0.078806 0.000000 -0.003807
# 5 -0.002039 0.005416 -0.001917 0.000000 0.028445 0.000000
# 6 0.000000 0.000000 0.000000 -0.003807 0.000000 0.014557
#
#
# Mechanical properties :
#
#
# Convention : Reuss Voigt Hill
#
# Bulk Modulus (GPa) = 25.21287 45.37256 35.29272
# Shear Modulus (GPa) = 24.69316 38.23013 31.46164
#
# Velocity S-wave (km/s) = 3.06881 3.81843 3.46396
# Velocity P-wave (km/s) = 4.70879 6.06177 5.42760
#
# Compressibility (1/GPa) = 0.03966229
#
# Stress axis : x y z
#
# Youngs Moduli (GPa) = 117.20870 44.14011 44.69817
#
# Poissons Ratio (x) = 0.31403 0.17161
# Poissons Ratio (y) = 0.83386 -0.17902
# Poissons Ratio (z) = 0.44999 -0.17678
#
# Static dielectric constant tensor:
#      x y z
#    x 2.172940 0.000000 -0.222270 
#    y 0.000000 2.151070 0.000000 
#    z -0.222270 0.000000 2.380440 
# 
# From -- ./inp_files/1062.got.cif
#   From: 2010.05.17/outbox.cif.g08.bks.cpg/sg7_cif.got.tgz:1062.got - 2010.06.03 19:44:50.
