data_PCOD9131824
_publ_section_title
;
Structure prediction by ZEFSAII (Michael W. Deem and Ramdas Pophale) SiO2 
 PCOD9131824
Probable space group: C M
;
_chemical_formula_sum "Si O2"
_cell_formula_units_Z 32
_cell_length_a 22.458281
_cell_length_b 9.380349
_cell_length_c 21.916461
_cell_angle_alpha 90.000000
_cell_angle_beta 19.053680
_cell_angle_gamma 90.000000
_cell_volume 1507.258510
_symmetry_space_group_name_H-M "C M"
_symmetry_group_IT_number 8
_symmetry_cell_setting 'monoclinic'
loop_
_space_group_symop_operation_xyz
x,y,z
x,-y,z
1/2+x,1/2+y,z
1/2+x,1/2-y,z
loop_
_atom_site_type_symbol
_atom_site_label
_atom_site_fract_x
_atom_site_fract_y
_atom_site_fract_z
Si Si1 0.347510 0.169973 0.322730
Si Si2 0.339935 0.666746 0.448185
Si Si3 0.244429 0.659324 0.306152
Si Si4 0.233078 0.173660 0.938814
Si Si5 0.285127 0.165464 0.018642
Si Si6 0.331671 0.335791 0.590592
Si Si7 0.277967 0.166918 0.158987
Si Si8 0.316156 0.842804 0.719278
O O1 0.274353 0.236570 0.456425
O O2 0.252694 0.237479 0.355905
O O3 0.549822 0.235134 0.120719
O O4 0.344559 0.000000 0.325822
O O5 0.291060 0.500000 0.486475
O O6 0.562526 0.671164 0.232784
O O7 0.278066 0.716639 0.575005
O O8 0.316967 0.500000 0.249458
O O9 0.334901 0.735551 0.160551
O O10 0.031493 0.643976 0.498638
O O11 0.342063 0.214022 0.895514
O O12 0.204853 0.000000 0.970212
O O13 0.302105 0.203000 0.803584
O O14 0.337142 0.224398 0.034888
O O15 0.338473 0.000000 0.970857
O O16 0.277655 0.500000 0.645932
O O17 0.554468 0.333292 0.375568
O O18 0.253248 0.257124 0.725319
O O19 0.329969 0.000000 0.116330
O O20 0.232285 0.000000 0.795758
#
# Coordination Sequence:
#
# PCOD9131824 Si02
#       8
#     4   4   4   4   4   4   4   4
#     4  11  21  31  46  70  94 121 157 196 233 272
#     4   8  14  27  45  65  89 120 153 187 228 274
#     4  10  19  31  46  67  94 124 154 187 229 280
#     4   9  17  32  50  69  95 126 154 186 230 280
#     4   7  11  22  43  65  86 113 147 184 224 266
#     4   8  14  25  44  67  92 120 151 187 229 271
#     4   8  13  24  42  65  88 113 148 190 228 265
#     4   9  18  30  48  72  96 123 156 189 227 274
#
# _framework density 21.230599999999999
#
# number of rings (size 3 to 8) (size 9 to 14) (size 15 to 20)
#    0.000    3.250    0.000    3.750    0.000    1.500 
#    0.000    6.250    0.000    1.500    0.000    7.000 
#    0.000    0.000    0.000    0.000    0.000    0.000 
#
# Total GULP energy -89110.176230 kJ/mol
# GULP energy per Si atom -5569.386014 kJ/mol
# Density = 2.118228 g / cm^3
# Si number density = 21.230600 Si / 1000 Ang^3
#
#
#
# Elastic Constant Matrix: (Units=GPa)
#
#
# Indices 1 2 3 4 5 6 
#
# 1 156.4168 73.8554 30.8467 -0.0017 67.1670 0.0013
# 2 73.8554 85.7169 25.9554 -0.0037 23.9480 0.0034
# 3 30.8467 25.9554 72.5708 -0.0034 21.5508 0.0029
# 4 -0.0017 -0.0037 -0.0034 5.1642 0.0013 4.7371
# 5 67.1670 23.9480 21.5508 0.0013 43.5626 -0.0009
# 6 0.0013 0.0034 0.0029 4.7371 -0.0009 28.9301
#
#
#
# Elastic Compliance Matrix: (Units=1/GPa)
#
#
# Indices 1 2 3 4 5 6 
#
# 1 0.030759 -0.016624 0.004972 0.000015 -0.040747 -0.000004
# 2 -0.016624 0.023407 -0.005974 0.000005 0.015720 -0.000002
# 3 0.004972 -0.005974 0.017705 0.000016 -0.013140 -0.000004
# 4 0.000015 0.000005 0.000016 0.227865 -0.000041 -0.037311
# 5 -0.040747 0.015720 -0.013140 -0.000041 0.083640 0.000011
# 6 -0.000004 -0.000002 -0.000004 -0.037311 0.000011 0.040675
#
#
# Mechanical properties :
#
#
# Convention : Reuss Voigt Hill
#
# Bulk Modulus (GPa) = 27.30811 64.00216 45.65514
# Shear Modulus (GPa) = 10.60420 27.80120 19.20270
#
# Velocity S-wave (km/s) = 2.23732 3.62261 3.01072
# Velocity P-wave (km/s) = 4.42320 6.90720 5.79974
#
# Compressibility (1/GPa) = 0.03661915
#
# Stress axis : x y z
#
# Youngs Moduli (GPa) = 32.51048 42.72202 56.48073
#
# Poissons Ratio (x) = 0.71022 -0.28080
# Poissons Ratio (y) = 0.54046 0.33739
# Poissons Ratio (z) = -0.16163 0.25520
#
# Static dielectric constant tensor:
#      x y z
#    x 1.834290 0.000000 -0.012070 
#    y 0.000000 1.727440 0.000000 
#    z -0.012070 0.000000 1.852350 
# 
# From -- ./inp_files/24264.got.cif
#   From: 2010.05.17/outbox.cif.g08.bks.cpg/sg8_13_cif.got.tgz:24264.got - 2010.06.03 19:46:02.
