data_PCOD9131075
_publ_section_title
;
Structure prediction by ZEFSAII (Michael W. Deem and Ramdas Pophale) SiO2 
 PCOD9131075
Probable space group: P M
;
_chemical_formula_sum "Si O2"
_cell_formula_units_Z 13
_cell_length_a 8.793739
_cell_length_b 12.147377
_cell_length_c 11.207605
_cell_angle_alpha 90.000000
_cell_angle_beta 140.707084
_cell_angle_gamma 90.000000
_cell_volume 758.172854
_symmetry_space_group_name_H-M "P M"
_symmetry_group_IT_number 6
_symmetry_cell_setting 'monoclinic'
loop_
_space_group_symop_operation_xyz
x,y,z
x,-y,z
loop_
_atom_site_type_symbol
_atom_site_label
_atom_site_fract_x
_atom_site_fract_y
_atom_site_fract_z
Si Si1 0.001910 0.370913 0.496050
Si Si2 0.551976 0.371146 0.053492
Si Si3 0.340191 0.000000 0.781502
Si Si4 0.122027 0.787024 0.778576
Si Si5 0.763646 0.170135 0.774306
Si Si6 0.342781 0.000000 0.501983
Si Si7 0.546878 0.627361 0.770392
Si Si8 0.888659 0.000000 0.051527
O O1 0.999763 0.500000 0.531738
O O2 0.990672 0.289964 0.601323
O O3 0.260118 0.352384 0.590690
O O4 0.785518 0.352269 0.274377
O O5 0.481002 0.500000 0.022124
O O6 0.337901 0.289652 0.957718
O O7 0.605454 0.353042 0.945741
O O8 0.235783 0.108186 0.780870
O O9 0.630936 0.000000 0.961961
O O10 0.274042 0.000000 0.600631
O O11 0.944890 0.824670 0.774699
O O12 0.689187 0.290051 0.774052
O O13 0.879244 0.103982 0.955839
O O14 0.520819 0.103980 0.593110
O O15 0.114007 0.000000 0.276817
O O16 0.593912 0.500000 0.771178
#
# Coordination Sequence:
#
# PCOD9131075 Si02
#       8
#     2   2   1   2   2   1   2   1
#     4   9  18  34  56  79 103 138 182 219 253 299
#     4   9  18  34  56  79 103 138 182 219 253 299
#     4  10  22  36  54  80 100 132 184 216 252 314
#     4  11  21  35  53  78 112 139 166 214 266 312
#     4  10  22  36  53  81 110 137 171 209 263 324
#     4  10  21  39  59  75  99 136 178 222 258 300
#     4   9  18  33  54  78 106 140 177 217 255 299
#     4  10  21  39  59  75  99 136 178 222 258 300
#
# _framework density 17.146484999999998
#
# number of rings (size 3 to 8) (size 9 to 14) (size 15 to 20)
#    0.000    2.462    0.000    6.000    0.000    7.385 
#    0.000    1.538    0.000    3.692    0.000    0.000 
#    0.000    0.000    0.000    0.000    0.000    0.000 
#
# Total GULP energy -72523.571420 kJ/mol
# GULP energy per Si atom -5578.736263 kJ/mol
# Density = 1.710746 g / cm^3
# Si number density = 17.146485 Si / 1000 Ang^3
#
#
#
# Elastic Constant Matrix: (Units=GPa)
#
#
# Indices 1 2 3 4 5 6 
#
# 1 145.6343 79.6652 60.7211 0.0000 6.5596 0.0000
# 2 79.6652 100.0023 57.0309 0.0000 3.7522 0.0000
# 3 60.7211 57.0309 164.1322 0.0000 5.5166 0.0000
# 4 0.0000 0.0000 0.0000 12.0918 0.0000 0.2465
# 5 6.5596 3.7522 5.5166 0.0000 1.2259 0.0000
# 6 0.0000 0.0000 0.0000 0.2465 0.0000 2.2138
#
#
#
# Elastic Compliance Matrix: (Units=1/GPa)
#
#
# Indices 1 2 3 4 5 6 
#
# 1 0.014229 -0.009356 -0.000491 0.000000 -0.045289 0.000000
# 2 -0.009356 0.019148 -0.003422 0.000000 0.006855 0.000000
# 3 -0.000491 -0.003422 0.008275 0.000000 -0.024133 0.000000
# 4 0.000000 0.000000 0.000000 0.082889 0.000000 -0.009231
# 5 -0.045289 0.006855 -0.024133 0.000000 1.145641 0.000000
# 6 0.000000 0.000000 0.000000 -0.009231 0.000000 0.452737
#
#
# Mechanical properties :
#
#
# Convention : Reuss Voigt Hill
#
# Bulk Modulus (GPa) = 66.17002 89.40035 77.78519
# Shear Modulus (GPa) = 2.84982 17.26309 10.05646
#
# Velocity S-wave (km/s) = 1.29060 3.17645 2.42441
# Velocity P-wave (km/s) = 6.39497 8.10589 7.30073
#
# Compressibility (1/GPa) = 0.01511258
#
# Stress axis : x y z
#
# Youngs Moduli (GPa) = 70.27882 52.22584 120.85261
#
# Poissons Ratio (x) = 0.48863 0.05933
# Poissons Ratio (y) = 0.65753 0.41360
# Poissons Ratio (z) = 0.03450 0.17873
#
# Static dielectric constant tensor:
#      x y z
#    x 1.549090 0.000000 0.001490 
#    y 0.000000 1.598900 0.000000 
#    z 0.001490 0.000000 1.567400 
# 
# From -- ./inp_files/3940.got.cif
#   From: 2010.05.17/outbox.cif.g08.bks.cpg/sg6_2_cif.got.tgz:3940.got - 2010.06.03 19:42:10.
