data_PCOD9131687
_publ_section_title
;
Structure prediction by ZEFSAII (Michael W. Deem and Ramdas Pophale) SiO2 
 PCOD9131687
Probable space group: C M
;
_chemical_formula_sum "Si O2"
_cell_formula_units_Z 26
_cell_length_a 19.749006
_cell_length_b 7.152777
_cell_length_c 7.385457
_cell_angle_alpha 90.000000
_cell_angle_beta 61.740832
_cell_angle_gamma 90.000000
_cell_volume 918.929086
_symmetry_space_group_name_H-M "C M"
_symmetry_group_IT_number 8
_symmetry_cell_setting 'monoclinic'
loop_
_space_group_symop_operation_xyz
x,y,z
x,-y,z
1/2+x,1/2+y,z
1/2+x,1/2-y,z
loop_
_atom_site_type_symbol
_atom_site_label
_atom_site_fract_x
_atom_site_fract_y
_atom_site_fract_z
Si Si1 0.266660 0.500000 0.891230
Si Si2 0.546230 0.275217 0.766964
Si Si3 0.449944 0.777084 0.381826
Si Si4 0.282653 0.772819 0.519375
Si Si5 0.670289 0.727258 0.332551
Si Si6 0.885047 0.712239 0.857161
Si Si7 0.117692 0.209962 0.034113
O O1 0.258320 0.664459 0.732931
O O2 0.312465 0.341170 0.962910
O O3 0.547790 0.500000 0.771978
O O4 0.458117 0.217950 0.897234
O O5 0.599126 0.205916 0.863649
O O6 0.589298 0.219299 0.529361
O O7 0.372392 0.725710 0.373263
O O8 0.530594 0.694893 0.221893
O O9 0.459308 0.000000 0.360362
O O10 0.426367 0.728091 0.616724
O O11 0.232065 0.726595 0.407741
O O12 0.279067 0.000000 0.547207
O O13 0.671828 0.500000 0.310642
O O14 0.665038 0.811328 0.134770
O O15 0.858375 0.500000 0.879009
O O16 0.147555 0.000000 0.970385
#
# Coordination Sequence:
#
# PCOD9131687 Si02
#       7
#     2   4   4   4   4   4   4
#     4  10  18  32  58  84 118 148 190 240 286 342
#     4  10  19  34  57  88 118 151 195 236 289 346
#     4   9  18  32  53  82 111 144 188 236 286 341
#     4   9  19  34  56  86 115 154 197 232 287 351
#     4   9  18  35  57  80 118 157 190 240 288 336
#     4  10  19  32  56  87 114 148 189 238 288 341
#     4  10  20  32  59  87 112 151 195 238 287 341
#
# _framework density 28.293804000000002
#
# number of rings (size 3 to 8) (size 9 to 14) (size 15 to 20)
#    0.000    2.462    2.308    1.385    4.308    0.615 
#    2.769    0.000    6.769    0.000    0.000    0.000 
#    0.000    0.000    0.000    0.000    0.000    0.000 
#
# Total GULP energy -72569.373054 kJ/mol
# GULP energy per Si atom -5582.259466 kJ/mol
# Density = 2.822941 g / cm^3
# Si number density = 28.293804 Si / 1000 Ang^3
#
#
#
# Elastic Constant Matrix: (Units=GPa)
#
#
# Indices 1 2 3 4 5 6 
#
# 1 188.0997 -30.4883 17.4445 0.0000 36.9419 0.0000
# 2 -30.4883 154.3927 -27.6541 0.0000 23.6445 0.0000
# 3 17.4445 -27.6541 143.0209 0.0000 28.5869 0.0000
# 4 0.0000 0.0000 0.0000 281.0018 0.0000 -147.9255
# 5 36.9419 23.6445 28.5869 0.0000 54.0323 0.0000
# 6 0.0000 0.0000 0.0000 -147.9255 0.0000 104.6468
#
#
#
# Elastic Compliance Matrix: (Units=1/GPa)
#
#
# Indices 1 2 3 4 5 6 
#
# 1 0.006860 0.002469 0.000888 0.000000 -0.006241 0.000000
# 2 0.002469 0.008497 0.002709 0.000000 -0.006840 0.000000
# 3 0.000888 0.002709 0.008684 0.000000 -0.006387 0.000000
# 4 0.000000 0.000000 0.000000 0.013908 0.000000 0.019661
# 5 -0.006241 -0.006840 -0.006387 0.000000 0.029147 0.000000
# 6 0.000000 0.000000 0.000000 0.019661 0.000000 0.037347
#
#
# Mechanical properties :
#
#
# Convention : Reuss Voigt Hill
#
# Bulk Modulus (GPa) = 27.64380 44.90197 36.27288
# Shear Modulus (GPa) = 47.90699 123.01692 85.46196
#
# Velocity S-wave (km/s) = 4.11931 6.60097 5.50189
# Velocity P-wave (km/s) = 5.69354 8.60241 7.29444
#
# Compressibility (1/GPa) = 0.03617448
#
# Stress axis : x y z
#
# Youngs Moduli (GPa) = 145.77596 117.68334 115.15260
#
# Poissons Ratio (x) = -0.29061 -0.10227
# Poissons Ratio (y) = -0.35998 -0.31195
# Poissons Ratio (z) = -0.12947 -0.31881
#
# Static dielectric constant tensor:
#      x y z
#    x 2.278510 0.000000 -0.058680 
#    y 0.000000 2.102340 0.000000 
#    z -0.058680 0.000000 2.235790 
# 
# From -- ./inp_files/14471.got.cif
#   From: 2010.05.17/outbox.cif.g08.bks.cpg/sg8_8_cif.got.tgz:14471.got - 2010.06.03 19:46:02.
