data_PCOD9131320
_publ_section_title
;
Structure prediction by ZEFSAII (Michael W. Deem and Ramdas Pophale) SiO2 
 PCOD9131320
Probable space group: P C
;
_chemical_formula_sum "Si O2"
_cell_formula_units_Z 16
_cell_length_a 8.745506
_cell_length_b 15.882406
_cell_length_c 5.089464
_cell_angle_alpha 90.000000
_cell_angle_beta 99.820271
_cell_angle_gamma 90.000000
_cell_volume 696.566771
_symmetry_space_group_name_H-M "P C"
_symmetry_group_IT_number 7
_symmetry_cell_setting 'monoclinic'
loop_
_space_group_symop_operation_xyz
x,y,z
x,-y,1/2+z
loop_
_atom_site_type_symbol
_atom_site_label
_atom_site_fract_x
_atom_site_fract_y
_atom_site_fract_z
Si Si1 0.199680 0.726965 0.026620
Si Si2 0.028004 0.229043 0.985054
Si Si3 0.648861 0.893207 0.661337
Si Si4 0.338651 0.450485 0.396750
Si Si5 0.978895 0.955564 0.649972
Si Si6 0.480168 0.157634 0.596039
Si Si7 0.713825 0.548614 0.981943
Si Si8 0.750722 0.738002 0.006814
O O1 0.155162 0.734480 0.318964
O O2 0.281675 0.639720 0.978387
O O3 0.308386 0.808370 0.005904
O O4 0.055890 0.732487 0.781406
O O5 0.038148 0.129479 0.037368
O O6 0.873086 0.243381 0.771030
O O7 0.789945 0.951609 0.610040
O O8 0.529173 0.876877 0.392317
O O9 0.546019 0.906074 0.893564
O O10 0.744265 0.808081 0.775722
O O11 0.286344 0.479723 0.093731
O O12 0.526206 0.450481 0.438162
O O13 0.027024 0.028816 0.463062
O O14 0.583302 0.242531 0.587772
O O15 0.767569 0.518469 0.282467
O O16 0.763469 0.642358 0.924635
#
# Coordination Sequence:
#
# PCOD9131320 Si02
#       8
#     2   2   2   2   2   2   2   2
#     4  12  24  42  62  99 129 178 219 260 314 392
#     4  12  26  41  66  98 130 169 217 252 321 393
#     4  10  20  37  67  96 117 158 212 260 316 357
#     4  10  20  37  59  86 121 167 222 271 314 370
#     4  12  23  42  69  99 129 159 208 261 319 391
#     4  10  21  37  68  90 127 161 221 259 316 349
#     4  10  22  34  59  92 122 164 220 275 327 360
#     4  10  22  40  64  90 131 160 221 270 305 366
#
# _framework density 22.969798999999998
#
# number of rings (size 3 to 8) (size 9 to 14) (size 15 to 20)
#    0.750    0.500    2.500    4.500    1.750    1.000 
#    0.000    3.750    0.000   15.000    0.000    0.000 
#    0.000    0.000    0.000    0.000    0.000    0.000 
#
# Total GULP energy -89319.249952 kJ/mol
# GULP energy per Si atom -5582.453122 kJ/mol
# Density = 2.291752 g / cm^3
# Si number density = 22.969799 Si / 1000 Ang^3
#
#
#
# Elastic Constant Matrix: (Units=GPa)
#
#
# Indices 1 2 3 4 5 6 
#
# 1 38.2434 4.3828 17.6443 0.0000 -0.3148 0.0000
# 2 4.3828 56.9289 16.9091 0.0000 -8.7851 0.0000
# 3 17.6443 16.9091 132.7549 0.0000 -9.3447 0.0000
# 4 0.0000 0.0000 0.0000 35.7629 0.0000 -11.4531
# 5 -0.3148 -8.7851 -9.3447 0.0000 21.8350 0.0000
# 6 0.0000 0.0000 0.0000 -11.4531 0.0000 33.3553
#
#
#
# Elastic Compliance Matrix: (Units=1/GPa)
#
#
# Indices 1 2 3 4 5 6 
#
# 1 0.027979 -0.001327 -0.003669 0.000000 -0.001701 0.000000
# 2 -0.001327 0.019275 -0.001788 0.000000 0.006971 0.000000
# 3 -0.003669 -0.001788 0.008448 0.000000 0.002843 0.000000
# 4 0.000000 0.000000 0.000000 0.031417 0.000000 0.010787
# 5 -0.001701 0.006971 0.002843 0.000000 0.049795 0.000000
# 6 0.000000 0.000000 0.000000 0.010787 0.000000 0.033684
#
#
# Mechanical properties :
#
#
# Convention : Reuss Voigt Hill
#
# Bulk Modulus (GPa) = 23.73377 33.97773 28.85575
# Shear Modulus (GPa) = 25.22565 30.79003 28.00784
#
# Velocity S-wave (km/s) = 3.31752 3.66520 3.49568
# Velocity P-wave (km/s) = 5.00296 5.72154 5.37427
#
# Compressibility (1/GPa) = 0.04213405
#
# Stress axis : x y z
#
# Youngs Moduli (GPa) = 35.74070 51.88156 118.36755
#
# Poissons Ratio (x) = 0.06883 0.43434
# Poissons Ratio (y) = 0.04741 0.21165
# Poissons Ratio (z) = 0.13115 0.09277
#
# Static dielectric constant tensor:
#      x y z
#    x 1.894300 0.000000 -0.013750 
#    y 0.000000 1.832190 0.000000 
#    z -0.013750 0.000000 1.818820 
# 
# From -- ./inp_files/737.got.cif
#   From: 2010.05.17/outbox.cif.g08.bks.cpg/sg7_cif.got.tgz:737.got - 2010.06.03 19:44:50.
