data_PCOD9131209
_publ_section_title
;
Structure prediction by ZEFSAII (Michael W. Deem and Ramdas Pophale) SiO2 
 PCOD9131209
Probable space group: P C
;
_chemical_formula_sum "Si O2"
_cell_formula_units_Z 14
_cell_length_a 16.492060
_cell_length_b 6.782149
_cell_length_c 5.301847
_cell_angle_alpha 90.000000
_cell_angle_beta 89.895983
_cell_angle_gamma 90.000000
_cell_volume 593.019136
_symmetry_space_group_name_H-M "P C"
_symmetry_group_IT_number 7
_symmetry_cell_setting 'monoclinic'
loop_
_space_group_symop_operation_xyz
x,y,z
x,-y,1/2+z
loop_
_atom_site_type_symbol
_atom_site_label
_atom_site_fract_x
_atom_site_fract_y
_atom_site_fract_z
Si Si1 0.988840 0.761834 0.530400
Si Si2 0.395605 0.631142 0.204563
Si Si3 0.805045 0.287898 0.023072
Si Si4 0.741564 0.262363 0.522994
Si Si5 0.217626 0.636037 0.164903
Si Si6 0.566869 0.633899 0.107426
Si Si7 0.053222 0.794736 0.031349
O O1 0.897457 0.719476 0.611308
O O2 0.001986 0.685691 0.247383
O O3 0.011676 0.992921 0.495137
O O4 0.048895 0.702180 0.754279
O O5 0.397245 0.540808 0.487557
O O6 0.308020 0.728866 0.165236
O O7 0.480462 0.740582 0.149788
O O8 0.751317 0.188295 0.239304
O O9 0.768083 0.506662 0.987716
O O10 0.801155 0.196241 0.744809
O O11 0.649892 0.245966 0.618796
O O12 0.211360 0.512584 0.425301
O O13 0.144773 0.790503 0.132523
O O14 0.569228 0.473858 0.334973
#
# Coordination Sequence:
#
# PCOD9131209 Si02
#       7
#     2   2   2   2   2   2   2
#     4  10  21  37  53  69  95 134 180 214 245 297
#     4   8  16  25  44  66  97 133 155 189 239 307
#     4  10  18  30  43  67  97 129 169 203 247 283
#     4  10  17  28  43  68 104 133 155 202 250 289
#     4  10  19  35  50  77 104 129 164 206 266 299
#     4  10  14  25  41  64  97 141 159 181 242 300
#     4  10  21  38  54  69  96 133 176 211 253 301
#
# _framework density 23.608008999999999
#
# number of rings (size 3 to 8) (size 9 to 14) (size 15 to 20)
#    0.000    2.286    2.857    1.714    0.000    0.000 
#   15.429    0.000    0.000    0.000    0.000    0.000 
#    0.000   27.429    0.000    0.000    0.000    0.000 
#
# Total GULP energy -78040.244245 kJ/mol
# GULP energy per Si atom -5574.303160 kJ/mol
# Density = 2.355428 g / cm^3
# Si number density = 23.608009 Si / 1000 Ang^3
#
#
#
# Elastic Constant Matrix: (Units=GPa)
#
#
# Indices 1 2 3 4 5 6 
#
# 1 161.2348 -11.5484 -20.5453 0.0000 -0.7448 0.0000
# 2 -11.5484 68.1781 -24.2276 0.0000 1.8034 0.0000
# 3 -20.5453 -24.2276 166.3126 0.0000 1.0517 0.0000
# 4 0.0000 0.0000 0.0000 48.3648 0.0000 28.9932
# 5 -0.7448 1.8034 1.0517 0.0000 38.0717 0.0000
# 6 0.0000 0.0000 0.0000 28.9932 0.0000 21.8792
#
#
#
# Elastic Compliance Matrix: (Units=1/GPa)
#
#
# Indices 1 2 3 4 5 6 
#
# 1 0.006434 0.001446 0.001005 0.000000 0.000030 0.000000
# 2 0.001446 0.015817 0.002488 0.000000 -0.000790 0.000000
# 3 0.001005 0.002488 0.006501 0.000000 -0.000278 0.000000
# 4 0.000000 0.000000 0.000000 0.100557 0.000000 -0.133252
# 5 0.000030 -0.000790 -0.000278 0.000000 0.026312 0.000000
# 6 0.000000 0.000000 0.000000 -0.133252 0.000000 0.222284
#
#
# Mechanical properties :
#
#
# Convention : Reuss Voigt Hill
#
# Bulk Modulus (GPa) = 25.88566 31.45367 28.66966
# Shear Modulus (GPa) = 13.12670 51.79961 32.46315
#
# Velocity S-wave (km/s) = 2.36058 4.68926 3.71224
# Velocity P-wave (km/s) = 4.29166 6.53231 5.52673
#
# Compressibility (1/GPa) = 0.03863142
#
# Stress axis : x y z
#
# Youngs Moduli (GPa) = 155.42523 63.22149 153.81914
#
# Poissons Ratio (x) = -0.09144 -0.15464
# Poissons Ratio (y) = -0.22479 -0.38268
# Poissons Ratio (z) = -0.15625 -0.15729
#
# Static dielectric constant tensor:
#      x y z
#    x 1.916400 0.000000 -0.010960 
#    y 0.000000 0.272200 0.000000 
#    z -0.010960 0.000000 1.965940 
# 
# From -- ./inp_files/1244.got.cif
#   From: 2010.05.17/outbox.cif.g08.bks.cpg/sg7_cif.got.tgz:1244.got - 2010.06.03 19:44:50.
